MODEL 1
REMARK VINA RESULT:      -8.9      0.000      0.000
REMARK SMILES COc1ccc(N[C@H](C)[C@H](C)C(=O)OCCOCCOCCOC(=O)c2ccc(-c3c4nc(c(-c5ccccc5)c5ccc([nH]5)c(-c5ccccc5)c5nc(c(-c6ccccc6)c6ccc3[nH]6)C=C5)C=C4)cc2)c(OC)c1
REMARK SMILES IDX 18 1 17 2 16 3 15 4 14 5 12 6 13 7 10 8 11 9 8 10 9 11 7 12
REMARK SMILES IDX 6 14 3 15 4 16 77 17 5 18 74 19 2 20 1 21 75 22 76 23 19 24
REMARK SMILES IDX 20 25 21 26 22 27 23 28 24 29 25 30 26 31 27 32 73 33 28 34
REMARK SMILES IDX 72 35 29 36 30 37 31 38 66 39 32 40 71 41 65 42 67 43 33 44
REMARK SMILES IDX 70 45 64 46 63 47 34 49 56 50 41 51 55 52 42 53 45 54 54 55
REMARK SMILES IDX 68 56 43 57 44 58 53 60 69 61 46 62 35 63 36 64 40 65 37 66
REMARK SMILES IDX 39 67 38 68 57 69 58 70 62 71 59 72 61 73 60 74 47 75 48 76
REMARK SMILES IDX 52 77 49 78 51 79 50 80
REMARK H PARENT 7 13 67 48 45 59
REMARK Flexibility Score: inf
ROOT
ATOM      1  C   UNL A   1      32.672  29.694  25.011  1.00  0.00     0.188 C 
ENDROOT
BRANCH   1   2
ATOM      2  O   UNL A   1      31.793  28.671  24.564  1.00  0.00    -0.376 OA
BRANCH   2   3
ATOM      3  C   UNL A   1      31.932  27.354  25.100  1.00  0.00     0.202 C 
BRANCH   3   4
ATOM      4  C   UNL A   1      30.751  26.695  25.835  1.00  0.00     0.261 C 
BRANCH   4   5
ATOM      5  O   UNL A   1      31.149  25.749  26.844  1.00  0.00    -0.463 OA
BRANCH   5   6
ATOM      6  C   UNL A   1      31.920  24.710  26.432  1.00  0.00     0.310 C 
ATOM      7  O   UNL A   1      33.136  24.785  26.297  1.00  0.00    -0.252 OA
BRANCH   6   8
ATOM      8  C   UNL A   1      31.148  23.388  26.355  1.00  0.00     0.118 C 
ATOM      9  C   UNL A   1      29.709  23.414  26.900  1.00  0.00     0.022 C 
BRANCH   8  10
ATOM     10  C   UNL A   1      31.400  22.786  24.941  1.00  0.00     0.090 C 
ATOM     11  C   UNL A   1      31.006  23.870  23.907  1.00  0.00     0.031 C 
BRANCH  10  12
ATOM     12  N   UNL A   1      32.773  22.337  24.760  1.00  0.00    -0.379 N 
ATOM     13  H   UNL A   1      33.423  23.045  24.547  1.00  0.00     0.160 HD
BRANCH  12  14
ATOM     14  C   UNL A   1      33.298  21.058  24.845  1.00  0.00     0.077 A 
ATOM     15  C   UNL A   1      34.487  18.524  24.627  1.00  0.00     0.122 A 
ATOM     16  C   UNL A   1      33.105  18.645  24.712  1.00  0.00     0.049 A 
ATOM     17  C   UNL A   1      35.297  19.659  24.690  1.00  0.00     0.095 A 
ATOM     18  C   UNL A   1      32.521  19.901  24.851  1.00  0.00     0.033 A 
ATOM     19  C   UNL A   1      34.709  20.921  24.807  1.00  0.00     0.145 A 
BRANCH  15  20
ATOM     20  O   UNL A   1      34.954  17.258  24.412  1.00  0.00    -0.497 OA
ATOM     21  C   UNL A   1      34.284  16.569  23.364  1.00  0.00     0.278 C 
ENDBRANCH  15  20
BRANCH  19  22
ATOM     22  O   UNL A   1      35.401  22.114  24.866  1.00  0.00    -0.494 OA
ATOM     23  C   UNL A   1      36.456  22.308  23.937  1.00  0.00     0.278 C 
ENDBRANCH  19  22
ENDBRANCH  12  14
ENDBRANCH  10  12
ENDBRANCH   8  10
ENDBRANCH   6   8
ENDBRANCH   5   6
ENDBRANCH   4   5
ENDBRANCH   3   4
ENDBRANCH   2   3
ENDBRANCH   1   2
BRANCH   1  24
ATOM     24  C   UNL A   1      33.275  29.578  26.419  1.00  0.00     0.188 C 
BRANCH  24  25
ATOM     25  O   UNL A   1      32.857  30.566  27.324  1.00  0.00    -0.376 OA
BRANCH  25  26
ATOM     26  C   UNL A   1      31.964  31.574  26.883  1.00  0.00     0.202 C 
BRANCH  26  27
ATOM     27  C   UNL A   1      32.220  33.084  27.076  1.00  0.00     0.261 C 
BRANCH  27  28
ATOM     28  O   UNL A   1      32.200  33.624  28.407  1.00  0.00    -0.460 OA
BRANCH  28  29
ATOM     29  C   UNL A   1      33.026  34.662  28.674  1.00  0.00     0.338 C 
ATOM     30  O   UNL A   1      32.753  35.853  28.617  1.00  0.00    -0.246 OA
BRANCH  29  31
ATOM     31  C   UNL A   1      34.256  34.112  29.291  1.00  0.00     0.060 A 
ATOM     32  C   UNL A   1      35.486  34.263  28.630  1.00  0.00     0.016 A 
ATOM     33  C   UNL A   1      34.200  33.464  30.525  1.00  0.00     0.016 A 
ATOM     34  C   UNL A   1      36.657  33.746  29.191  1.00  0.00     0.010 A 
ATOM     35  C   UNL A   1      35.368  32.922  31.072  1.00  0.00     0.010 A 
ATOM     36  C   UNL A   1      36.598  33.035  30.396  1.00  0.00    -0.014 A 
BRANCH  36  37
ATOM     37  C   UNL A   1      37.766  32.243  30.860  1.00  0.00     0.031 A 
ATOM     38  C   UNL A   1      38.567  32.771  32.023  1.00  0.00     0.074 A 
ATOM     39  C   UNL A   1      38.127  31.092  30.267  1.00  0.00     0.049 A 
ATOM     40  N   UNL A   1      39.678  32.315  32.543  1.00  0.00    -0.248 NA
ATOM     41  C   UNL A   1      38.045  33.980  32.683  1.00  0.00     0.031 C 
ATOM     42  C   UNL A   1      37.414  30.439  29.169  1.00  0.00     0.029 A 
ATOM     43  N   UNL A   1      39.204  30.270  30.503  1.00  0.00    -0.354 N 
ATOM     44  C   UNL A   1      39.999  33.192  33.572  1.00  0.00     0.074 A 
ATOM     45  C   UNL A   1      38.977  34.214  33.596  1.00  0.00     0.031 C 
ATOM     46  C   UNL A   1      38.083  29.325  28.817  1.00  0.00     0.029 A 
ATOM     47  C   UNL A   1      39.290  29.210  29.634  1.00  0.00     0.049 A 
ATOM     48  H   UNL A   1      39.852  30.427  31.227  1.00  0.00     0.167 HD
ATOM     49  C   UNL A   1      41.053  33.153  34.420  1.00  0.00     0.031 A 
ATOM     50  C   UNL A   1      40.250  28.272  29.494  1.00  0.00     0.031 A 
ATOM     51  C   UNL A   1      42.070  32.136  34.402  1.00  0.00     0.049 A 
ATOM     52  C   UNL A   1      41.456  28.302  30.402  1.00  0.00     0.074 A 
ATOM     53  C   UNL A   1      43.157  31.997  35.249  1.00  0.00     0.029 A 
ATOM     54  N   UNL A   1      42.136  31.098  33.490  1.00  0.00    -0.354 N 
ATOM     55  N   UNL A   1      41.727  29.111  31.398  1.00  0.00    -0.248 NA
ATOM     56  C   UNL A   1      42.490  27.281  30.166  1.00  0.00     0.031 C 
ATOM     57  C   UNL A   1      43.918  30.912  34.804  1.00  0.00     0.029 A 
ATOM     58  C   UNL A   1      43.265  30.334  33.728  1.00  0.00     0.049 A 
ATOM     59  H   UNL A   1      41.477  30.928  32.777  1.00  0.00     0.167 HD
ATOM     60  C   UNL A   1      42.934  28.670  31.929  1.00  0.00     0.074 A 
ATOM     61  C   UNL A   1      43.337  27.516  31.157  1.00  0.00     0.031 C 
ATOM     62  C   UNL A   1      43.647  29.176  32.965  1.00  0.00     0.031 A 
BRANCH  49  63
ATOM     63  C   UNL A   1      41.192  34.263  35.421  1.00  0.00    -0.014 A 
ATOM     64  C   UNL A   1      41.961  35.405  35.150  1.00  0.00     0.009 A 
ATOM     65  C   UNL A   1      40.476  34.197  36.628  1.00  0.00     0.009 A 
ATOM     66  C   UNL A   1      42.021  36.450  36.074  1.00  0.00     0.001 A 
ATOM     67  C   UNL A   1      40.515  35.254  37.536  1.00  0.00     0.001 A 
ATOM     68  C   UNL A   1      41.292  36.378  37.261  1.00  0.00     0.000 A 
ENDBRANCH  49  63
BRANCH  50  69
ATOM     69  C   UNL A   1      40.155  27.235  28.428  1.00  0.00    -0.014 A 
ATOM     70  C   UNL A   1      39.506  26.013  28.672  1.00  0.00     0.009 A 
ATOM     71  C   UNL A   1      40.783  27.429  27.188  1.00  0.00     0.009 A 
ATOM     72  C   UNL A   1      39.531  24.994  27.717  1.00  0.00     0.001 A 
ATOM     73  C   UNL A   1      40.774  26.422  26.221  1.00  0.00     0.001 A 
ATOM     74  C   UNL A   1      40.164  25.199  26.492  1.00  0.00     0.000 A 
ENDBRANCH  50  69
BRANCH  62  75
ATOM     75  C   UNL A   1      44.904  28.453  33.368  1.00  0.00    -0.014 A 
ATOM     76  C   UNL A   1      46.149  28.766  32.801  1.00  0.00     0.009 A 
ATOM     77  C   UNL A   1      44.842  27.469  34.369  1.00  0.00     0.009 A 
ATOM     78  C   UNL A   1      47.300  28.082  33.202  1.00  0.00     0.001 A 
ATOM     79  C   UNL A   1      45.999  26.812  34.792  1.00  0.00     0.001 A 
ATOM     80  C   UNL A   1      47.225  27.111  34.200  1.00  0.00     0.000 A 
ENDBRANCH  62  75
ENDBRANCH  36  37
ENDBRANCH  29  31
ENDBRANCH  28  29
ENDBRANCH  27  28
ENDBRANCH  26  27
ENDBRANCH  25  26
ENDBRANCH  24  25
ENDBRANCH   1  24
TORSDOF 22
ENDMDL
MODEL 2
REMARK VINA RESULT:      -8.8      4.150      7.983
REMARK SMILES COc1ccc(N[C@H](C)[C@H](C)C(=O)OCCOCCOCCOC(=O)c2ccc(-c3c4nc(c(-c5ccccc5)c5ccc([nH]5)c(-c5ccccc5)c5nc(c(-c6ccccc6)c6ccc3[nH]6)C=C5)C=C4)cc2)c(OC)c1
REMARK SMILES IDX 18 1 17 2 16 3 15 4 14 5 12 6 13 7 10 8 11 9 8 10 9 11 7 12
REMARK SMILES IDX 6 14 3 15 4 16 77 17 5 18 74 19 2 20 1 21 75 22 76 23 19 24
REMARK SMILES IDX 20 25 21 26 22 27 23 28 24 29 25 30 26 31 27 32 73 33 28 34
REMARK SMILES IDX 72 35 29 36 30 37 31 38 66 39 32 40 71 41 65 42 67 43 33 44
REMARK SMILES IDX 70 45 64 46 63 47 34 49 56 50 41 51 55 52 42 53 45 54 54 55
REMARK SMILES IDX 68 56 43 57 44 58 53 60 69 61 46 62 35 63 36 64 40 65 37 66
REMARK SMILES IDX 39 67 38 68 57 69 58 70 62 71 59 72 61 73 60 74 47 75 48 76
REMARK SMILES IDX 52 77 49 78 51 79 50 80
REMARK H PARENT 7 13 67 48 45 59
REMARK Flexibility Score: inf
ROOT
ATOM      1  C   UNL A   1      35.004  32.696  29.228  1.00  0.00     0.188 C 
ENDROOT
BRANCH   1   2
ATOM      2  O   UNL A   1      34.114  32.216  28.230  1.00  0.00    -0.376 OA
BRANCH   2   3
ATOM      3  C   UNL A   1      34.403  30.975  27.582  1.00  0.00     0.202 C 
BRANCH   3   4
ATOM      4  C   UNL A   1      33.252  30.059  27.127  1.00  0.00     0.261 C 
BRANCH   4   5
ATOM      5  O   UNL A   1      33.433  29.511  25.808  1.00  0.00    -0.463 OA
BRANCH   5   6
ATOM      6  C   UNL A   1      32.320  29.400  25.039  1.00  0.00     0.310 C 
ATOM      7  O   UNL A   1      31.301  30.054  25.229  1.00  0.00    -0.252 OA
BRANCH   6   8
ATOM      8  C   UNL A   1      32.542  28.536  23.792  1.00  0.00     0.118 C 
ATOM      9  C   UNL A   1      33.966  28.542  23.209  1.00  0.00     0.022 C 
BRANCH   8  10
ATOM     10  C   UNL A   1      31.848  27.165  24.050  1.00  0.00     0.090 C 
ATOM     11  C   UNL A   1      30.519  27.169  23.255  1.00  0.00     0.031 C 
BRANCH  10  12
ATOM     12  N   UNL A   1      32.692  26.034  23.691  1.00  0.00    -0.379 N 
ATOM     13  H   UNL A   1      33.555  26.268  23.281  1.00  0.00     0.160 HD
BRANCH  12  14
ATOM     14  C   UNL A   1      32.458  24.678  23.845  1.00  0.00     0.077 A 
ATOM     15  C   UNL A   1      32.342  21.876  23.961  1.00  0.00     0.122 A 
ATOM     16  C   UNL A   1      31.461  22.580  23.150  1.00  0.00     0.049 A 
ATOM     17  C   UNL A   1      33.265  22.558  24.755  1.00  0.00     0.095 A 
ATOM     18  C   UNL A   1      31.501  23.971  23.118  1.00  0.00     0.033 A 
ATOM     19  C   UNL A   1      33.320  23.953  24.706  1.00  0.00     0.145 A 
BRANCH  15  20
ATOM     20  O   UNL A   1      32.276  20.514  23.859  1.00  0.00    -0.497 OA
ATOM     21  C   UNL A   1      32.643  19.831  25.051  1.00  0.00     0.278 C 
ENDBRANCH  15  20
BRANCH  19  22
ATOM     22  O   UNL A   1      34.194  24.737  25.432  1.00  0.00    -0.494 OA
ATOM     23  C   UNL A   1      35.566  24.374  25.421  1.00  0.00     0.278 C 
ENDBRANCH  19  22
ENDBRANCH  12  14
ENDBRANCH  10  12
ENDBRANCH   8  10
ENDBRANCH   6   8
ENDBRANCH   5   6
ENDBRANCH   4   5
ENDBRANCH   3   4
ENDBRANCH   2   3
ENDBRANCH   1   2
BRANCH   1  24
ATOM     24  C   UNL A   1      34.430  33.069  30.603  1.00  0.00     0.188 C 
BRANCH  24  25
ATOM     25  O   UNL A   1      34.730  34.372  31.034  1.00  0.00    -0.376 OA
BRANCH  25  26
ATOM     26  C   UNL A   1      35.376  34.556  32.281  1.00  0.00     0.202 C 
BRANCH  26  27
ATOM     27  C   UNL A   1      35.249  33.568  33.461  1.00  0.00     0.261 C 
BRANCH  27  28
ATOM     28  O   UNL A   1      35.803  32.250  33.320  1.00  0.00    -0.460 OA
BRANCH  28  29
ATOM     29  C   UNL A   1      36.987  32.000  33.925  1.00  0.00     0.338 C 
ATOM     30  O   UNL A   1      37.223  32.037  35.124  1.00  0.00    -0.246 OA
BRANCH  29  31
ATOM     31  C   UNL A   1      37.901  31.429  32.907  1.00  0.00     0.060 A 
ATOM     32  C   UNL A   1      39.009  30.672  33.323  1.00  0.00     0.016 A 
ATOM     33  C   UNL A   1      37.657  31.624  31.548  1.00  0.00     0.016 A 
ATOM     34  C   UNL A   1      39.887  30.130  32.379  1.00  0.00     0.010 A 
ATOM     35  C   UNL A   1      38.551  31.105  30.606  1.00  0.00     0.010 A 
ATOM     36  C   UNL A   1      39.686  30.380  31.017  1.00  0.00    -0.014 A 
BRANCH  36  37
ATOM     37  C   UNL A   1      40.749  30.059  30.029  1.00  0.00     0.031 A 
ATOM     38  C   UNL A   1      40.693  28.723  29.332  1.00  0.00     0.074 A 
ATOM     39  C   UNL A   1      41.750  30.914  29.757  1.00  0.00     0.049 A 
ATOM     40  N   UNL A   1      41.553  28.178  28.510  1.00  0.00    -0.248 NA
ATOM     41  C   UNL A   1      39.510  27.890  29.606  1.00  0.00     0.031 C 
ATOM     42  C   UNL A   1      41.898  32.257  30.316  1.00  0.00     0.029 A 
ATOM     43  N   UNL A   1      42.848  30.767  28.943  1.00  0.00    -0.354 N 
ATOM     44  C   UNL A   1      41.027  26.932  28.189  1.00  0.00     0.074 A 
ATOM     45  C   UNL A   1      39.783  26.794  28.913  1.00  0.00     0.031 C 
ATOM     46  C   UNL A   1      43.032  32.805  29.839  1.00  0.00     0.029 A 
ATOM     47  C   UNL A   1      43.709  31.837  28.977  1.00  0.00     0.049 A 
ATOM     48  H   UNL A   1      43.002  29.969  28.386  1.00  0.00     0.167 HD
ATOM     49  C   UNL A   1      41.536  25.985  27.367  1.00  0.00     0.031 A 
ATOM     50  C   UNL A   1      44.918  32.002  28.403  1.00  0.00     0.031 A 
ATOM     51  C   UNL A   1      42.770  26.118  26.642  1.00  0.00     0.049 A 
ATOM     52  C   UNL A   1      45.497  30.894  27.557  1.00  0.00     0.074 A 
ATOM     53  C   UNL A   1      43.345  25.223  25.757  1.00  0.00     0.029 A 
ATOM     54  N   UNL A   1      43.624  27.204  26.727  1.00  0.00    -0.354 N 
ATOM     55  N   UNL A   1      44.971  29.739  27.226  1.00  0.00    -0.248 NA
ATOM     56  C   UNL A   1      46.841  31.118  26.999  1.00  0.00     0.031 C 
ATOM     57  C   UNL A   1      44.582  25.737  25.359  1.00  0.00     0.029 A 
ATOM     58  C   UNL A   1      44.741  26.986  25.938  1.00  0.00     0.049 A 
ATOM     59  H   UNL A   1      43.461  28.012  27.267  1.00  0.00     0.167 HD
ATOM     60  C   UNL A   1      45.899  29.123  26.394  1.00  0.00     0.074 A 
ATOM     61  C   UNL A   1      47.012  30.036  26.255  1.00  0.00     0.031 C 
ATOM     62  C   UNL A   1      45.835  27.909  25.794  1.00  0.00     0.031 A 
BRANCH  49  63
ATOM     63  C   UNL A   1      40.782  24.693  27.231  1.00  0.00    -0.014 A 
ATOM     64  C   UNL A   1      39.621  24.599  26.448  1.00  0.00     0.009 A 
ATOM     65  C   UNL A   1      41.289  23.532  27.837  1.00  0.00     0.009 A 
ATOM     66  C   UNL A   1      38.976  23.370  26.288  1.00  0.00     0.001 A 
ATOM     67  C   UNL A   1      40.660  22.301  27.653  1.00  0.00     0.001 A 
ATOM     68  C   UNL A   1      39.500  22.222  26.882  1.00  0.00     0.000 A 
ENDBRANCH  49  63
BRANCH  50  69
ATOM     69  C   UNL A   1      45.707  33.247  28.628  1.00  0.00    -0.014 A 
ATOM     70  C   UNL A   1      46.562  33.363  29.736  1.00  0.00     0.009 A 
ATOM     71  C   UNL A   1      45.547  34.354  27.781  1.00  0.00     0.009 A 
ATOM     72  C   UNL A   1      47.199  34.575  30.016  1.00  0.00     0.001 A 
ATOM     73  C   UNL A   1      46.215  35.552  28.042  1.00  0.00     0.001 A 
ATOM     74  C   UNL A   1      47.027  35.667  29.168  1.00  0.00     0.000 A 
ENDBRANCH  50  69
BRANCH  62  75
ATOM     75  C   UNL A   1      46.969  27.517  24.885  1.00  0.00    -0.014 A 
ATOM     76  C   UNL A   1      47.043  27.974  23.560  1.00  0.00     0.009 A 
ATOM     77  C   UNL A   1      48.005  26.711  25.384  1.00  0.00     0.009 A 
ATOM     78  C   UNL A   1      48.112  27.600  22.743  1.00  0.00     0.001 A 
ATOM     79  C   UNL A   1      49.090  26.368  24.575  1.00  0.00     0.001 A 
ATOM     80  C   UNL A   1      49.137  26.803  23.252  1.00  0.00     0.000 A 
ENDBRANCH  62  75
ENDBRANCH  36  37
ENDBRANCH  29  31
ENDBRANCH  28  29
ENDBRANCH  27  28
ENDBRANCH  26  27
ENDBRANCH  25  26
ENDBRANCH  24  25
ENDBRANCH   1  24
TORSDOF 22
ENDMDL
MODEL 3
REMARK VINA RESULT:      -8.7      1.024      5.874
REMARK SMILES COc1ccc(N[C@H](C)[C@H](C)C(=O)OCCOCCOCCOC(=O)c2ccc(-c3c4nc(c(-c5ccccc5)c5ccc([nH]5)c(-c5ccccc5)c5nc(c(-c6ccccc6)c6ccc3[nH]6)C=C5)C=C4)cc2)c(OC)c1
REMARK SMILES IDX 18 1 17 2 16 3 15 4 14 5 12 6 13 7 10 8 11 9 8 10 9 11 7 12
REMARK SMILES IDX 6 14 3 15 4 16 77 17 5 18 74 19 2 20 1 21 75 22 76 23 19 24
REMARK SMILES IDX 20 25 21 26 22 27 23 28 24 29 25 30 26 31 27 32 73 33 28 34
REMARK SMILES IDX 72 35 29 36 30 37 31 38 66 39 32 40 71 41 65 42 67 43 33 44
REMARK SMILES IDX 70 45 64 46 63 47 34 49 56 50 41 51 55 52 42 53 45 54 54 55
REMARK SMILES IDX 68 56 43 57 44 58 53 60 69 61 46 62 35 63 36 64 40 65 37 66
REMARK SMILES IDX 39 67 38 68 57 69 58 70 62 71 59 72 61 73 60 74 47 75 48 76
REMARK SMILES IDX 52 77 49 78 51 79 50 80
REMARK H PARENT 7 13 67 48 45 59
REMARK Flexibility Score: inf
ROOT
ATOM      1  C   UNL A   1      31.382  29.769  24.609  1.00  0.00     0.188 C 
ENDROOT
BRANCH   1   2
ATOM      2  O   UNL A   1      30.517  28.854  23.950  1.00  0.00    -0.376 OA
BRANCH   2   3
ATOM      3  C   UNL A   1      30.858  27.467  23.933  1.00  0.00     0.202 C 
BRANCH   3   4
ATOM      4  C   UNL A   1      30.040  26.464  24.767  1.00  0.00     0.261 C 
BRANCH   4   5
ATOM      5  O   UNL A   1      30.753  25.929  25.896  1.00  0.00    -0.463 OA
BRANCH   5   6
ATOM      6  C   UNL A   1      31.706  25.000  25.628  1.00  0.00     0.310 C 
ATOM      7  O   UNL A   1      32.835  25.283  25.241  1.00  0.00    -0.252 OA
BRANCH   6   8
ATOM      8  C   UNL A   1      31.296  23.586  26.054  1.00  0.00     0.118 C 
ATOM      9  C   UNL A   1      29.943  23.463  26.776  1.00  0.00     0.022 C 
BRANCH   8  10
ATOM     10  C   UNL A   1      31.589  22.637  24.854  1.00  0.00     0.090 C 
ATOM     11  C   UNL A   1      31.344  23.450  23.559  1.00  0.00     0.031 C 
BRANCH  10  12
ATOM     12  N   UNL A   1      32.934  22.079  24.897  1.00  0.00    -0.379 N 
ATOM     13  H   UNL A   1      33.662  22.739  24.951  1.00  0.00     0.160 HD
BRANCH  12  14
ATOM     14  C   UNL A   1      33.337  20.754  24.875  1.00  0.00     0.077 A 
ATOM     15  C   UNL A   1      34.322  18.158  24.463  1.00  0.00     0.122 A 
ATOM     16  C   UNL A   1      32.954  18.401  24.435  1.00  0.00     0.049 A 
ATOM     17  C   UNL A   1      35.215  19.195  24.736  1.00  0.00     0.095 A 
ATOM     18  C   UNL A   1      32.468  19.684  24.670  1.00  0.00     0.033 A 
ATOM     19  C   UNL A   1      34.728  20.487  24.950  1.00  0.00     0.145 A 
BRANCH  15  20
ATOM     20  O   UNL A   1      34.700  16.885  24.141  1.00  0.00    -0.497 OA
ATOM     21  C   UNL A   1      34.572  15.959  25.213  1.00  0.00     0.278 C 
ENDBRANCH  15  20
BRANCH  19  22
ATOM     22  O   UNL A   1      35.508  21.594  25.217  1.00  0.00    -0.494 OA
ATOM     23  C   UNL A   1      36.635  21.818  24.383  1.00  0.00     0.278 C 
ENDBRANCH  19  22
ENDBRANCH  12  14
ENDBRANCH  10  12
ENDBRANCH   8  10
ENDBRANCH   6   8
ENDBRANCH   5   6
ENDBRANCH   4   5
ENDBRANCH   3   4
ENDBRANCH   2   3
ENDBRANCH   1   2
BRANCH   1  24
ATOM     24  C   UNL A   1      31.846  29.439  26.036  1.00  0.00     0.188 C 
BRANCH  24  25
ATOM     25  O   UNL A   1      31.783  30.511  26.940  1.00  0.00    -0.376 OA
BRANCH  25  26
ATOM     26  C   UNL A   1      31.342  31.777  26.481  1.00  0.00     0.202 C 
BRANCH  26  27
ATOM     27  C   UNL A   1      32.080  33.098  26.787  1.00  0.00     0.261 C 
BRANCH  27  28
ATOM     28  O   UNL A   1      32.088  33.589  28.137  1.00  0.00    -0.460 OA
BRANCH  28  29
ATOM     29  C   UNL A   1      32.999  34.538  28.453  1.00  0.00     0.338 C 
ATOM     30  O   UNL A   1      32.805  35.743  28.545  1.00  0.00    -0.246 OA
BRANCH  29  31
ATOM     31  C   UNL A   1      34.227  33.848  28.914  1.00  0.00     0.060 A 
ATOM     32  C   UNL A   1      34.114  32.650  29.638  1.00  0.00     0.016 A 
ATOM     33  C   UNL A   1      35.486  34.372  28.620  1.00  0.00     0.016 A 
ATOM     34  C   UNL A   1      35.259  31.987  30.088  1.00  0.00     0.010 A 
ATOM     35  C   UNL A   1      36.630  33.723  29.095  1.00  0.00     0.010 A 
ATOM     36  C   UNL A   1      36.523  32.542  29.855  1.00  0.00    -0.014 A 
BRANCH  36  37
ATOM     37  C   UNL A   1      37.719  32.012  30.559  1.00  0.00     0.031 A 
ATOM     38  C   UNL A   1      38.513  30.920  29.890  1.00  0.00     0.074 A 
ATOM     39  C   UNL A   1      38.095  32.470  31.766  1.00  0.00     0.049 A 
ATOM     40  N   UNL A   1      39.529  30.232  30.345  1.00  0.00    -0.248 NA
ATOM     41  C   UNL A   1      38.098  30.550  28.526  1.00  0.00     0.031 C 
ATOM     42  C   UNL A   1      37.453  33.557  32.504  1.00  0.00     0.029 A 
ATOM     43  N   UNL A   1      39.112  32.058  32.595  1.00  0.00    -0.354 N 
ATOM     44  C   UNL A   1      39.858  29.336  29.335  1.00  0.00     0.074 A 
ATOM     45  C   UNL A   1      38.928  29.554  28.251  1.00  0.00     0.031 C 
ATOM     46  C   UNL A   1      38.083  33.715  33.683  1.00  0.00     0.029 A 
ATOM     47  C   UNL A   1      39.143  32.715  33.801  1.00  0.00     0.049 A 
ATOM     48  H   UNL A   1      39.759  31.358  32.346  1.00  0.00     0.167 HD
ATOM     49  C   UNL A   1      40.845  28.410  29.314  1.00  0.00     0.031 A 
ATOM     50  C   UNL A   1      39.918  32.511  34.886  1.00  0.00     0.031 A 
ATOM     51  C   UNL A   1      41.775  28.191  30.389  1.00  0.00     0.049 A 
ATOM     52  C   UNL A   1      40.956  31.415  34.863  1.00  0.00     0.074 A 
ATOM     53  C   UNL A   1      42.832  27.298  30.440  1.00  0.00     0.029 A 
ATOM     54  N   UNL A   1      41.754  28.858  31.602  1.00  0.00    -0.354 N 
ATOM     55  N   UNL A   1      41.286  30.603  33.887  1.00  0.00    -0.248 NA
ATOM     56  C   UNL A   1      41.735  31.213  36.095  1.00  0.00     0.031 C 
ATOM     57  C   UNL A   1      43.407  27.376  31.711  1.00  0.00     0.029 A 
ATOM     58  C   UNL A   1      42.756  28.370  32.424  1.00  0.00     0.049 A 
ATOM     59  H   UNL A   1      41.121  29.572  31.844  1.00  0.00     0.167 HD
ATOM     60  C   UNL A   1      42.333  29.829  34.375  1.00  0.00     0.074 A 
ATOM     61  C   UNL A   1      42.594  30.276  35.725  1.00  0.00     0.031 C 
ATOM     62  C   UNL A   1      43.019  28.834  33.759  1.00  0.00     0.031 A 
BRANCH  49  63
ATOM     63  C   UNL A   1      40.955  27.526  28.105  1.00  0.00    -0.014 A 
ATOM     64  C   UNL A   1      40.215  26.340  27.993  1.00  0.00     0.009 A 
ATOM     65  C   UNL A   1      41.758  27.932  27.026  1.00  0.00     0.009 A 
ATOM     66  C   UNL A   1      40.289  25.570  26.830  1.00  0.00     0.001 A 
ATOM     67  C   UNL A   1      41.808  27.177  25.855  1.00  0.00     0.001 A 
ATOM     68  C   UNL A   1      41.077  25.993  25.759  1.00  0.00     0.000 A 
ENDBRANCH  49  63
BRANCH  50  69
ATOM     69  C   UNL A   1      39.731  33.325  36.121  1.00  0.00    -0.014 A 
ATOM     70  C   UNL A   1      40.464  34.506  36.319  1.00  0.00     0.009 A 
ATOM     71  C   UNL A   1      38.879  32.880  37.144  1.00  0.00     0.009 A 
ATOM     72  C   UNL A   1      40.384  35.196  37.532  1.00  0.00     0.001 A 
ATOM     73  C   UNL A   1      38.773  33.593  38.340  1.00  0.00     0.001 A 
ATOM     74  C   UNL A   1      39.537  34.740  38.540  1.00  0.00     0.000 A 
ENDBRANCH  50  69
BRANCH  62  75
ATOM     75  C   UNL A   1      44.158  28.201  34.512  1.00  0.00    -0.014 A 
ATOM     76  C   UNL A   1      45.488  28.596  34.304  1.00  0.00     0.009 A 
ATOM     77  C   UNL A   1      43.884  27.221  35.480  1.00  0.00     0.009 A 
ATOM     78  C   UNL A   1      46.524  27.995  35.024  1.00  0.00     0.001 A 
ATOM     79  C   UNL A   1      44.918  26.647  36.223  1.00  0.00     0.001 A 
ATOM     80  C   UNL A   1      46.238  27.027  35.986  1.00  0.00     0.000 A 
ENDBRANCH  62  75
ENDBRANCH  36  37
ENDBRANCH  29  31
ENDBRANCH  28  29
ENDBRANCH  27  28
ENDBRANCH  26  27
ENDBRANCH  25  26
ENDBRANCH  24  25
ENDBRANCH   1  24
TORSDOF 22
ENDMDL
