MODEL 1
REMARK VINA RESULT:      -9.2      0.000      0.000
REMARK SMILES O=C(OCCOCCOCCOC(=O)c1ccc(-c2c3nc(c(-c4ccccc4)c4ccc([nH]4)c(-c4ccccc4)c4nc(c(-c5ccccc5)c5ccc2[nH]5)C=C4)C=C3)cc1)C1=Cc2cc(Cl)cc(-c3ccc(Cl)cc3)c2O[C@@H]1C(F)(F)F
REMARK SMILES IDX 8 1 7 2 6 3 5 4 4 5 3 6 2 7 1 8 63 9 64 10 80 11 65 12 79 13
REMARK SMILES IDX 66 14 78 15 67 16 70 17 68 18 69 19 81 20 82 21 83 22 84 23
REMARK SMILES IDX 71 24 72 25 77 26 73 27 76 28 74 29 75 30 9 31 10 32 11 33
REMARK SMILES IDX 12 34 13 35 14 36 15 37 16 38 62 39 17 40 61 41 18 42 19 43
REMARK SMILES IDX 20 44 55 45 21 46 60 47 54 48 56 49 22 50 59 51 53 52 52 53
REMARK SMILES IDX 23 55 45 56 30 57 44 58 31 59 34 60 43 61 57 62 32 63 33 64
REMARK SMILES IDX 42 66 58 67 35 68 24 69 25 70 29 71 26 72 28 73 27 74 46 75
REMARK SMILES IDX 47 76 51 77 48 78 50 79 49 80 36 81 37 82 41 83 38 84 40 85
REMARK SMILES IDX 39 86
REMARK H PARENT 56 54 34 65
REMARK Flexibility Score: inf
ROOT
ATOM      1  C   UNL A   1      50.088  23.387  35.266  1.00  0.00     0.188 C 
ENDROOT
BRANCH   1   2
ATOM      2  C   UNL A   1      49.685  21.934  35.557  1.00  0.00     0.188 C 
BRANCH   2   3
ATOM      3  O   UNL A   1      49.365  21.423  36.950  1.00  0.00    -0.376 OA
BRANCH   3   4
ATOM      4  C   UNL A   1      48.162  22.068  38.075  1.00  0.00     0.202 C 
BRANCH   4   5
ATOM      5  C   UNL A   1      46.234  22.830  37.406  1.00  0.00     0.261 C 
BRANCH   5   6
ATOM      6  O   UNL A   1      46.013  23.872  36.299  1.00  0.00    -0.460 OA
BRANCH   6   7
ATOM      7  C   UNL A   1      45.821  23.307  35.098  1.00  0.00     0.338 C 
ATOM      8  O   UNL A   1      46.435  22.411  34.574  1.00  0.00    -0.246 OA
BRANCH   7   9
ATOM      9  C   UNL A   1      45.072  24.412  34.533  1.00  0.00     0.087 C 
ATOM     10  C   UNL A   1      45.811  25.293  33.653  1.00  0.00     0.027 C 
ATOM     11  C   UNL A   1      43.581  23.326  34.016  1.00  0.00     0.316 C 
ATOM     12  C   UNL A   1      45.648  25.282  31.875  1.00  0.00     0.019 A 
ATOM     13  O   UNL A   1      43.497  23.169  32.054  1.00  0.00    -0.475 OA
ATOM     14  C   UNL A   1      46.553  26.032  31.169  1.00  0.00     0.032 A 
ATOM     15  C   UNL A   1      44.584  24.218  31.021  1.00  0.00     0.135 A 
ATOM     16  C   UNL A   1      46.486  25.901  29.780  1.00  0.00     0.042 A 
ATOM     17  C   UNL A   1      44.559  24.190  29.635  1.00  0.00     0.026 A 
ATOM     18  Cl  UNL A   1      47.633  26.797  28.841  1.00  0.00    -0.084 Cl
ATOM     19  C   UNL A   1      45.546  25.063  29.074  1.00  0.00     0.033 A 
BRANCH  11  20
ATOM     20  C   UNL A   1      42.579  24.117  35.174  1.00  0.00     0.430 C 
ATOM     21  F   UNL A   1      42.990  24.361  36.425  1.00  0.00    -0.167 F 
ATOM     22  F   UNL A   1      42.182  25.309  34.654  1.00  0.00    -0.167 F 
ATOM     23  F   UNL A   1      41.409  23.428  35.376  1.00  0.00    -0.167 F 
ENDBRANCH  11  20
BRANCH  17  24
ATOM     24  C   UNL A   1      43.716  23.480  28.681  1.00  0.00    -0.015 A 
ATOM     25  C   UNL A   1      44.041  23.419  27.322  1.00  0.00     0.010 A 
ATOM     26  C   UNL A   1      42.432  23.040  29.068  1.00  0.00     0.010 A 
ATOM     27  C   UNL A   1      43.160  22.837  26.399  1.00  0.00     0.021 A 
ATOM     28  C   UNL A   1      41.563  22.428  28.156  1.00  0.00     0.021 A 
ATOM     29  C   UNL A   1      41.944  22.308  26.827  1.00  0.00     0.041 A 
ATOM     30  Cl  UNL A   1      40.914  21.502  25.712  1.00  0.00    -0.084 Cl
ENDBRANCH  17  24
ENDBRANCH   7   9
ENDBRANCH   6   7
ENDBRANCH   5   6
ENDBRANCH   4   5
ENDBRANCH   3   4
ENDBRANCH   2   3
ENDBRANCH   1   2
BRANCH   1  31
ATOM     31  O   UNL A   1      49.131  24.399  35.395  1.00  0.00    -0.376 OA
BRANCH  31  32
ATOM     32  C   UNL A   1      49.242  25.178  36.566  1.00  0.00     0.202 C 
BRANCH  32  33
ATOM     33  C   UNL A   1      48.587  26.557  36.639  1.00  0.00     0.261 C 
BRANCH  33  34
ATOM     34  O   UNL A   1      47.273  26.555  37.207  1.00  0.00    -0.460 OA
BRANCH  34  35
ATOM     35  C   UNL A   1      46.718  27.773  37.404  1.00  0.00     0.338 C 
ATOM     36  O   UNL A   1      47.059  28.636  38.192  1.00  0.00    -0.246 OA
BRANCH  35  37
ATOM     37  C   UNL A   1      45.711  27.989  36.355  1.00  0.00     0.060 A 
ATOM     38  C   UNL A   1      46.057  28.708  35.201  1.00  0.00     0.016 A 
ATOM     39  C   UNL A   1      44.412  27.529  36.554  1.00  0.00     0.016 A 
ATOM     40  C   UNL A   1      45.095  28.973  34.235  1.00  0.00     0.010 A 
ATOM     41  C   UNL A   1      43.436  27.837  35.612  1.00  0.00     0.010 A 
ATOM     42  C   UNL A   1      43.772  28.587  34.470  1.00  0.00    -0.014 A 
BRANCH  42  43
ATOM     43  C   UNL A   1      42.699  29.208  33.670  1.00  0.00     0.031 A 
ATOM     44  C   UNL A   1      41.979  30.379  34.274  1.00  0.00     0.074 A 
ATOM     45  C   UNL A   1      42.387  28.752  32.448  1.00  0.00     0.049 A 
ATOM     46  N   UNL A   1      40.977  31.071  33.800  1.00  0.00    -0.248 NA
ATOM     47  C   UNL A   1      42.453  30.827  35.596  1.00  0.00     0.031 C 
ATOM     48  C   UNL A   1      43.060  27.659  31.751  1.00  0.00     0.029 A 
ATOM     49  N   UNL A   1      41.408  29.159  31.580  1.00  0.00    -0.354 N 
ATOM     50  C   UNL A   1      40.698  32.027  34.767  1.00  0.00     0.074 A 
ATOM     51  C   UNL A   1      41.611  31.811  35.865  1.00  0.00     0.031 C 
ATOM     52  C   UNL A   1      42.462  27.472  30.561  1.00  0.00     0.029 A 
ATOM     53  C   UNL A   1      41.345  28.407  30.434  1.00  0.00     0.049 A 
ATOM     54  H   UNL A   1      40.807  29.919  31.761  1.00  0.00     0.167 HD
ATOM     55  C   UNL A   1      39.759  33.000  34.740  1.00  0.00     0.031 A 
ATOM     56  C   UNL A   1      40.466  28.460  29.416  1.00  0.00     0.031 A 
ATOM     57  C   UNL A   1      38.830  33.180  33.659  1.00  0.00     0.049 A 
ATOM     58  C   UNL A   1      39.369  29.495  29.452  1.00  0.00     0.074 A 
ATOM     59  C   UNL A   1      37.840  34.134  33.524  1.00  0.00     0.029 A 
ATOM     60  N   UNL A   1      38.770  32.372  32.532  1.00  0.00    -0.354 N 
ATOM     61  N   UNL A   1      39.128  30.417  30.354  1.00  0.00    -0.248 NA
ATOM     62  C   UNL A   1      38.430  29.502  28.323  1.00  0.00     0.031 C 
ATOM     63  C   UNL A   1      37.129  33.857  32.353  1.00  0.00     0.029 A 
ATOM     64  C   UNL A   1      37.733  32.785  31.714  1.00  0.00     0.049 A 
ATOM     65  H   UNL A   1      39.373  31.618  32.344  1.00  0.00     0.167 HD
ATOM     66  C   UNL A   1      38.034  31.135  29.884  1.00  0.00     0.074 A 
ATOM     67  C   UNL A   1      37.671  30.550  28.610  1.00  0.00     0.031 C 
ATOM     68  C   UNL A   1      37.387  32.185  30.450  1.00  0.00     0.031 A 
BRANCH  55  69
ATOM     69  C   UNL A   1      39.658  33.898  35.941  1.00  0.00    -0.014 A 
ATOM     70  C   UNL A   1      38.785  33.611  37.004  1.00  0.00     0.009 A 
ATOM     71  C   UNL A   1      40.465  35.044  36.017  1.00  0.00     0.009 A 
ATOM     72  C   UNL A   1      38.699  34.473  38.099  1.00  0.00     0.001 A 
ATOM     73  C   UNL A   1      40.402  35.885  37.129  1.00  0.00     0.001 A 
ATOM     74  C   UNL A   1      39.511  35.604  38.165  1.00  0.00     0.000 A 
ENDBRANCH  55  69
BRANCH  56  75
ATOM     75  C   UNL A   1      40.564  27.494  28.290  1.00  0.00    -0.014 A 
ATOM     76  C   UNL A   1      41.202  27.845  27.091  1.00  0.00     0.009 A 
ATOM     77  C   UNL A   1      39.993  26.214  28.400  1.00  0.00     0.009 A 
ATOM     78  C   UNL A   1      41.238  26.951  26.018  1.00  0.00     0.001 A 
ATOM     79  C   UNL A   1      40.062  25.310  27.339  1.00  0.00     0.001 A 
ATOM     80  C   UNL A   1      40.674  25.684  26.144  1.00  0.00     0.000 A 
ENDBRANCH  56  75
BRANCH  68  81
ATOM     81  C   UNL A   1      36.255  32.801  29.675  1.00  0.00    -0.014 A 
ATOM     82  C   UNL A   1      36.427  33.968  28.915  1.00  0.00     0.009 A 
ATOM     83  C   UNL A   1      35.000  32.167  29.668  1.00  0.00     0.009 A 
ATOM     84  C   UNL A   1      35.357  34.511  28.201  1.00  0.00     0.001 A 
ATOM     85  C   UNL A   1      33.944  32.688  28.921  1.00  0.00     0.001 A 
ATOM     86  C   UNL A   1      34.120  33.868  28.199  1.00  0.00     0.000 A 
ENDBRANCH  68  81
ENDBRANCH  42  43
ENDBRANCH  35  37
ENDBRANCH  34  35
ENDBRANCH  33  34
ENDBRANCH  32  33
ENDBRANCH  31  32
ENDBRANCH   1  31
TORSDOF 19
ENDMDL
MODEL 2
REMARK VINA RESULT:      -9.2      5.544     10.747
REMARK SMILES O=C(OCCOCCOCCOC(=O)c1ccc(-c2c3nc(c(-c4ccccc4)c4ccc([nH]4)c(-c4ccccc4)c4nc(c(-c5ccccc5)c5ccc2[nH]5)C=C4)C=C3)cc1)C1=Cc2cc(Cl)cc(-c3ccc(Cl)cc3)c2O[C@@H]1C(F)(F)F
REMARK SMILES IDX 8 1 7 2 6 3 5 4 4 5 3 6 2 7 1 8 63 9 64 10 80 11 65 12 79 13
REMARK SMILES IDX 66 14 78 15 67 16 70 17 68 18 69 19 81 20 82 21 83 22 84 23
REMARK SMILES IDX 71 24 72 25 77 26 73 27 76 28 74 29 75 30 9 31 10 32 11 33
REMARK SMILES IDX 12 34 13 35 14 36 15 37 16 38 62 39 17 40 61 41 18 42 19 43
REMARK SMILES IDX 20 44 55 45 21 46 60 47 54 48 56 49 22 50 59 51 53 52 52 53
REMARK SMILES IDX 23 55 45 56 30 57 44 58 31 59 34 60 43 61 57 62 32 63 33 64
REMARK SMILES IDX 42 66 58 67 35 68 24 69 25 70 29 71 26 72 28 73 27 74 46 75
REMARK SMILES IDX 47 76 51 77 48 78 50 79 49 80 36 81 37 82 41 83 38 84 40 85
REMARK SMILES IDX 39 86
REMARK H PARENT 56 54 34 65
REMARK Flexibility Score: inf
ROOT
ATOM      1  C   UNL A   1      30.728  27.082  24.782  1.00  0.00     0.188 C 
ENDROOT
BRANCH   1   2
ATOM      2  C   UNL A   1      29.919  25.789  24.960  1.00  0.00     0.188 C 
BRANCH   2   3
ATOM      3  O   UNL A   1      30.310  24.469  24.321  1.00  0.00    -0.376 OA
BRANCH   3   4
ATOM      4  C   UNL A   1      31.834  23.594  24.521  1.00  0.00     0.202 C 
BRANCH   4   5
ATOM      5  C   UNL A   1      33.494  24.397  25.682  1.00  0.00     0.261 C 
BRANCH   5   6
ATOM      6  O   UNL A   1      34.177  23.707  26.872  1.00  0.00    -0.460 OA
BRANCH   6   7
ATOM      7  C   UNL A   1      34.990  22.713  26.487  1.00  0.00     0.338 C 
ATOM      8  O   UNL A   1      35.120  21.612  26.962  1.00  0.00    -0.246 OA
BRANCH   7   9
ATOM      9  C   UNL A   1      35.915  23.553  25.753  1.00  0.00     0.087 C 
ATOM     10  C   UNL A   1      36.751  24.423  26.553  1.00  0.00     0.027 C 
ATOM     11  C   UNL A   1      36.546  22.131  24.635  1.00  0.00     0.316 C 
ATOM     12  C   UNL A   1      38.483  24.119  26.867  1.00  0.00     0.019 A 
ATOM     13  O   UNL A   1      38.406  21.674  25.095  1.00  0.00    -0.475 OA
ATOM     14  C   UNL A   1      39.089  24.920  27.799  1.00  0.00     0.032 A 
ATOM     15  C   UNL A   1      39.340  22.752  26.241  1.00  0.00     0.135 A 
ATOM     16  C   UNL A   1      40.404  24.575  28.121  1.00  0.00     0.042 A 
ATOM     17  C   UNL A   1      40.662  22.516  26.586  1.00  0.00     0.026 A 
ATOM     18  Cl  UNL A   1      41.205  25.530  29.323  1.00  0.00    -0.084 Cl
ATOM     19  C   UNL A   1      41.135  23.474  27.540  1.00  0.00     0.033 A 
BRANCH  11  20
ATOM     20  C   UNL A   1      35.826  22.871  23.254  1.00  0.00     0.430 C 
ATOM     21  F   UNL A   1      35.518  24.174  23.222  1.00  0.00    -0.167 F 
ATOM     22  F   UNL A   1      36.620  22.630  22.177  1.00  0.00    -0.167 F 
ATOM     23  F   UNL A   1      34.630  22.277  22.936  1.00  0.00    -0.167 F 
ENDBRANCH  11  20
BRANCH  17  24
ATOM     24  C   UNL A   1      41.631  21.521  26.142  1.00  0.00    -0.015 A 
ATOM     25  C   UNL A   1      41.399  20.152  26.307  1.00  0.00     0.010 A 
ATOM     26  C   UNL A   1      42.926  21.924  25.754  1.00  0.00     0.010 A 
ATOM     27  C   UNL A   1      42.391  19.213  25.987  1.00  0.00     0.021 A 
ATOM     28  C   UNL A   1      43.908  20.991  25.402  1.00  0.00     0.021 A 
ATOM     29  C   UNL A   1      43.625  19.635  25.498  1.00  0.00     0.041 A 
ATOM     30  Cl  UNL A   1      44.800  18.480  25.008  1.00  0.00    -0.084 Cl
ENDBRANCH  17  24
ENDBRANCH   7   9
ENDBRANCH   6   7
ENDBRANCH   5   6
ENDBRANCH   4   5
ENDBRANCH   3   4
ENDBRANCH   2   3
ENDBRANCH   1   2
BRANCH   1  31
ATOM     31  O   UNL A   1      31.215  27.744  25.915  1.00  0.00    -0.376 OA
BRANCH  31  32
ATOM     32  C   UNL A   1      32.239  28.681  25.661  1.00  0.00     0.202 C 
BRANCH  32  33
ATOM     33  C   UNL A   1      32.154  30.091  26.248  1.00  0.00     0.261 C 
BRANCH  33  34
ATOM     34  O   UNL A   1      32.901  30.272  27.455  1.00  0.00    -0.460 OA
BRANCH  34  35
ATOM     35  C   UNL A   1      33.603  31.425  27.541  1.00  0.00     0.338 C 
ATOM     36  O   UNL A   1      33.178  32.566  27.545  1.00  0.00    -0.246 OA
BRANCH  35  37
ATOM     37  C   UNL A   1      35.004  31.084  27.826  1.00  0.00     0.060 A 
ATOM     38  C   UNL A   1      35.363  29.741  28.021  1.00  0.00     0.016 A 
ATOM     39  C   UNL A   1      35.940  32.107  27.961  1.00  0.00     0.016 A 
ATOM     40  C   UNL A   1      36.672  29.416  28.354  1.00  0.00     0.010 A 
ATOM     41  C   UNL A   1      37.238  31.786  28.344  1.00  0.00     0.010 A 
ATOM     42  C   UNL A   1      37.594  30.444  28.573  1.00  0.00    -0.014 A 
BRANCH  42  43
ATOM     43  C   UNL A   1      38.835  30.139  29.309  1.00  0.00     0.031 A 
ATOM     44  C   UNL A   1      38.914  30.582  30.741  1.00  0.00     0.074 A 
ATOM     45  C   UNL A   1      39.849  29.482  28.725  1.00  0.00     0.049 A 
ATOM     46  N   UNL A   1      39.902  30.475  31.589  1.00  0.00    -0.248 NA
ATOM     47  C   UNL A   1      37.713  31.239  31.290  1.00  0.00     0.031 C 
ATOM     48  C   UNL A   1      39.850  28.962  27.360  1.00  0.00     0.029 A 
ATOM     49  N   UNL A   1      41.082  29.148  29.220  1.00  0.00    -0.354 N 
ATOM     50  C   UNL A   1      39.445  31.059  32.765  1.00  0.00     0.074 A 
ATOM     51  C   UNL A   1      38.108  31.543  32.515  1.00  0.00     0.031 C 
ATOM     52  C   UNL A   1      41.041  28.383  27.120  1.00  0.00     0.029 A 
ATOM     53  C   UNL A   1      41.890  28.527  28.302  1.00  0.00     0.049 A 
ATOM     54  H   UNL A   1      41.362  29.336  30.146  1.00  0.00     0.167 HD
ATOM     55  C   UNL A   1      40.089  31.179  33.947  1.00  0.00     0.031 A 
ATOM     56  C   UNL A   1      43.177  28.144  28.406  1.00  0.00     0.031 A 
ATOM     57  C   UNL A   1      41.434  30.729  34.171  1.00  0.00     0.049 A 
ATOM     58  C   UNL A   1      43.904  28.374  29.707  1.00  0.00     0.074 A 
ATOM     59  C   UNL A   1      42.184  30.796  35.330  1.00  0.00     0.029 A 
ATOM     60  N   UNL A   1      42.237  30.141  33.205  1.00  0.00    -0.354 N 
ATOM     61  N   UNL A   1      43.458  28.898  30.825  1.00  0.00    -0.248 NA
ATOM     62  C   UNL A   1      45.309  27.950  29.763  1.00  0.00     0.031 C 
ATOM     63  C   UNL A   1      43.466  30.320  35.045  1.00  0.00     0.029 A 
ATOM     64  C   UNL A   1      43.488  29.874  33.732  1.00  0.00     0.049 A 
ATOM     65  H   UNL A   1      41.959  29.944  32.281  1.00  0.00     0.167 HD
ATOM     66  C   UNL A   1      44.515  28.832  31.726  1.00  0.00     0.074 A 
ATOM     67  C   UNL A   1      45.617  28.203  31.027  1.00  0.00     0.031 C 
ATOM     68  C   UNL A   1      44.572  29.250  33.016  1.00  0.00     0.031 A 
BRANCH  55  69
ATOM     69  C   UNL A   1      39.361  31.877  35.063  1.00  0.00    -0.014 A 
ATOM     70  C   UNL A   1      39.461  33.265  35.251  1.00  0.00     0.009 A 
ATOM     71  C   UNL A   1      38.548  31.132  35.930  1.00  0.00     0.009 A 
ATOM     72  C   UNL A   1      38.788  33.885  36.306  1.00  0.00     0.001 A 
ATOM     73  C   UNL A   1      37.850  31.759  36.963  1.00  0.00     0.001 A 
ATOM     74  C   UNL A   1      37.979  33.134  37.157  1.00  0.00     0.000 A 
ENDBRANCH  55  69
BRANCH  56  75
ATOM     75  C   UNL A   1      43.872  27.531  27.243  1.00  0.00    -0.014 A 
ATOM     76  C   UNL A   1      43.789  26.153  26.997  1.00  0.00     0.009 A 
ATOM     77  C   UNL A   1      44.651  28.323  26.382  1.00  0.00     0.009 A 
ATOM     78  C   UNL A   1      44.492  25.576  25.937  1.00  0.00     0.001 A 
ATOM     79  C   UNL A   1      45.325  27.751  25.302  1.00  0.00     0.001 A 
ATOM     80  C   UNL A   1      45.255  26.375  25.088  1.00  0.00     0.000 A 
ENDBRANCH  56  75
BRANCH  68  81
ATOM     81  C   UNL A   1      45.849  28.996  33.770  1.00  0.00    -0.014 A 
ATOM     82  C   UNL A   1      46.843  29.979  33.893  1.00  0.00     0.009 A 
ATOM     83  C   UNL A   1      46.035  27.761  34.414  1.00  0.00     0.009 A 
ATOM     84  C   UNL A   1      48.014  29.714  34.605  1.00  0.00     0.001 A 
ATOM     85  C   UNL A   1      47.187  27.513  35.159  1.00  0.00     0.001 A 
ATOM     86  C   UNL A   1      48.182  28.485  35.243  1.00  0.00     0.000 A 
ENDBRANCH  68  81
ENDBRANCH  42  43
ENDBRANCH  35  37
ENDBRANCH  34  35
ENDBRANCH  33  34
ENDBRANCH  32  33
ENDBRANCH  31  32
ENDBRANCH   1  31
TORSDOF 19
ENDMDL
MODEL 3
REMARK VINA RESULT:      -9.0      8.194     12.717
REMARK SMILES O=C(OCCOCCOCCOC(=O)c1ccc(-c2c3nc(c(-c4ccccc4)c4ccc([nH]4)c(-c4ccccc4)c4nc(c(-c5ccccc5)c5ccc2[nH]5)C=C4)C=C3)cc1)C1=Cc2cc(Cl)cc(-c3ccc(Cl)cc3)c2O[C@@H]1C(F)(F)F
REMARK SMILES IDX 8 1 7 2 6 3 5 4 4 5 3 6 2 7 1 8 63 9 64 10 80 11 65 12 79 13
REMARK SMILES IDX 66 14 78 15 67 16 70 17 68 18 69 19 81 20 82 21 83 22 84 23
REMARK SMILES IDX 71 24 72 25 77 26 73 27 76 28 74 29 75 30 9 31 10 32 11 33
REMARK SMILES IDX 12 34 13 35 14 36 15 37 16 38 62 39 17 40 61 41 18 42 19 43
REMARK SMILES IDX 20 44 55 45 21 46 60 47 54 48 56 49 22 50 59 51 53 52 52 53
REMARK SMILES IDX 23 55 45 56 30 57 44 58 31 59 34 60 43 61 57 62 32 63 33 64
REMARK SMILES IDX 42 66 58 67 35 68 24 69 25 70 29 71 26 72 28 73 27 74 46 75
REMARK SMILES IDX 47 76 51 77 48 78 50 79 49 80 36 81 37 82 41 83 38 84 40 85
REMARK SMILES IDX 39 86
REMARK H PARENT 56 54 34 65
REMARK Flexibility Score: inf
ROOT
ATOM      1  C   UNL A   1      35.852  31.932  28.632  1.00  0.00     0.188 C 
ENDROOT
BRANCH   1   2
ATOM      2  C   UNL A   1      34.919  31.185  27.669  1.00  0.00     0.188 C 
BRANCH   2   3
ATOM      3  O   UNL A   1      33.409  31.169  27.818  1.00  0.00    -0.376 OA
BRANCH   3   4
ATOM      4  C   UNL A   1      32.258  30.150  26.943  1.00  0.00     0.202 C 
BRANCH   4   5
ATOM      5  C   UNL A   1      32.363  27.974  26.986  1.00  0.00     0.261 C 
BRANCH   5   6
ATOM      6  O   UNL A   1      32.031  27.034  25.818  1.00  0.00    -0.460 OA
BRANCH   6   7
ATOM      7  C   UNL A   1      32.138  25.741  26.157  1.00  0.00     0.338 C 
ATOM      8  O   UNL A   1      32.141  25.243  27.256  1.00  0.00    -0.246 OA
BRANCH   7   9
ATOM      9  C   UNL A   1      32.736  25.309  24.910  1.00  0.00     0.087 C 
ATOM     10  C   UNL A   1      34.167  25.091  24.936  1.00  0.00     0.027 C 
ATOM     11  C   UNL A   1      31.416  23.962  24.576  1.00  0.00     0.316 C 
ATOM     12  C   UNL A   1      34.922  23.472  24.964  1.00  0.00     0.019 A 
ATOM     13  O   UNL A   1      32.204  22.168  24.774  1.00  0.00    -0.475 OA
ATOM     14  C   UNL A   1      36.273  23.427  25.187  1.00  0.00     0.032 A 
ATOM     15  C   UNL A   1      34.016  21.997  24.957  1.00  0.00     0.135 A 
ATOM     16  C   UNL A   1      36.814  22.148  25.335  1.00  0.00     0.042 A 
ATOM     17  C   UNL A   1      34.649  20.769  25.067  1.00  0.00     0.026 A 
ATOM     18  Cl  UNL A   1      38.512  22.034  25.658  1.00  0.00    -0.084 Cl
ATOM     19  C   UNL A   1      36.060  20.918  25.257  1.00  0.00     0.033 A 
BRANCH  11  20
ATOM     20  C   UNL A   1      30.833  24.844  23.214  1.00  0.00     0.430 C 
ATOM     21  F   UNL A   1      30.591  26.161  23.266  1.00  0.00    -0.167 F 
ATOM     22  F   UNL A   1      31.689  24.645  22.177  1.00  0.00    -0.167 F 
ATOM     23  F   UNL A   1      29.636  24.342  22.768  1.00  0.00    -0.167 F 
ENDBRANCH  11  20
BRANCH  17  24
ATOM     24  C   UNL A   1      34.154  19.399  24.995  1.00  0.00    -0.015 A 
ATOM     25  C   UNL A   1      32.927  19.034  25.559  1.00  0.00     0.010 A 
ATOM     26  C   UNL A   1      35.010  18.364  24.563  1.00  0.00     0.010 A 
ATOM     27  C   UNL A   1      32.523  17.692  25.589  1.00  0.00     0.021 A 
ATOM     28  C   UNL A   1      34.596  17.026  24.560  1.00  0.00     0.021 A 
ATOM     29  C   UNL A   1      33.340  16.700  25.052  1.00  0.00     0.041 A 
ATOM     30  Cl  UNL A   1      32.796  15.070  24.995  1.00  0.00    -0.084 Cl
ENDBRANCH  17  24
ENDBRANCH   7   9
ENDBRANCH   6   7
ENDBRANCH   5   6
ENDBRANCH   4   5
ENDBRANCH   3   4
ENDBRANCH   2   3
ENDBRANCH   1   2
BRANCH   1  31
ATOM     31  O   UNL A   1      35.451  33.168  29.151  1.00  0.00    -0.376 OA
BRANCH  31  32
ATOM     32  C   UNL A   1      35.897  33.437  30.462  1.00  0.00     0.202 C 
BRANCH  32  33
ATOM     33  C   UNL A   1      35.539  32.489  31.606  1.00  0.00     0.261 C 
BRANCH  33  34
ATOM     34  O   UNL A   1      36.616  32.224  32.511  1.00  0.00    -0.460 OA
BRANCH  34  35
ATOM     35  C   UNL A   1      37.212  31.017  32.374  1.00  0.00     0.338 C 
ATOM     36  O   UNL A   1      36.718  29.914  32.523  1.00  0.00    -0.246 OA
BRANCH  35  37
ATOM     37  C   UNL A   1      38.554  31.232  31.816  1.00  0.00     0.060 A 
ATOM     38  C   UNL A   1      39.516  31.917  32.574  1.00  0.00     0.016 A 
ATOM     39  C   UNL A   1      38.828  30.809  30.517  1.00  0.00     0.016 A 
ATOM     40  C   UNL A   1      40.766  32.182  32.029  1.00  0.00     0.010 A 
ATOM     41  C   UNL A   1      40.061  31.119  29.953  1.00  0.00     0.010 A 
ATOM     42  C   UNL A   1      41.016  31.834  30.698  1.00  0.00    -0.014 A 
BRANCH  42  43
ATOM     43  C   UNL A   1      42.155  32.463  30.002  1.00  0.00     0.031 A 
ATOM     44  C   UNL A   1      43.413  31.654  29.869  1.00  0.00     0.074 A 
ATOM     45  C   UNL A   1      42.066  33.703  29.499  1.00  0.00     0.049 A 
ATOM     46  N   UNL A   1      44.562  31.988  29.343  1.00  0.00    -0.248 NA
ATOM     47  C   UNL A   1      43.369  30.282  30.407  1.00  0.00     0.031 C 
ATOM     48  C   UNL A   1      40.876  34.549  29.528  1.00  0.00     0.029 A 
ATOM     49  N   UNL A   1      43.013  34.466  28.868  1.00  0.00    -0.354 N 
ATOM     50  C   UNL A   1      45.376  30.873  29.495  1.00  0.00     0.074 A 
ATOM     51  C   UNL A   1      44.605  29.866  30.186  1.00  0.00     0.031 C 
ATOM     52  C   UNL A   1      41.168  35.727  28.949  1.00  0.00     0.029 A 
ATOM     53  C   UNL A   1      42.574  35.726  28.546  1.00  0.00     0.049 A 
ATOM     54  H   UNL A   1      43.921  34.142  28.665  1.00  0.00     0.167 HD
ATOM     55  C   UNL A   1      46.656  30.707  29.093  1.00  0.00     0.031 A 
ATOM     56  C   UNL A   1      43.247  36.761  28.009  1.00  0.00     0.031 A 
ATOM     57  C   UNL A   1      47.425  31.731  28.442  1.00  0.00     0.049 A 
ATOM     58  C   UNL A   1      44.701  36.581  27.654  1.00  0.00     0.074 A 
ATOM     59  C   UNL A   1      48.729  31.671  27.988  1.00  0.00     0.029 A 
ATOM     60  N   UNL A   1      46.960  33.009  28.169  1.00  0.00    -0.354 N 
ATOM     61  N   UNL A   1      45.458  35.515  27.771  1.00  0.00    -0.248 NA
ATOM     62  C   UNL A   1      45.391  37.745  27.083  1.00  0.00     0.031 C 
ATOM     63  C   UNL A   1      49.079  32.937  27.511  1.00  0.00     0.029 A 
ATOM     64  C   UNL A   1      47.966  33.759  27.585  1.00  0.00     0.049 A 
ATOM     65  H   UNL A   1      46.051  33.334  28.363  1.00  0.00     0.167 HD
ATOM     66  C   UNL A   1      46.700  35.870  27.256  1.00  0.00     0.074 A 
ATOM     67  C   UNL A   1      46.588  37.244  26.811  1.00  0.00     0.031 C 
ATOM     68  C   UNL A   1      47.832  35.128  27.154  1.00  0.00     0.031 A 
BRANCH  55  69
ATOM     69  C   UNL A   1      47.313  29.391  29.404  1.00  0.00    -0.014 A 
ATOM     70  C   UNL A   1      48.040  29.193  30.589  1.00  0.00     0.009 A 
ATOM     71  C   UNL A   1      47.188  28.326  28.499  1.00  0.00     0.009 A 
ATOM     72  C   UNL A   1      48.656  27.965  30.844  1.00  0.00     0.001 A 
ATOM     73  C   UNL A   1      47.776  27.089  28.772  1.00  0.00     0.001 A 
ATOM     74  C   UNL A   1      48.518  26.914  29.940  1.00  0.00     0.000 A 
ENDBRANCH  55  69
BRANCH  56  75
ATOM     75  C   UNL A   1      42.567  38.067  27.798  1.00  0.00    -0.014 A 
ATOM     76  C   UNL A   1      41.969  38.378  26.567  1.00  0.00     0.009 A 
ATOM     77  C   UNL A   1      42.536  39.027  28.824  1.00  0.00     0.009 A 
ATOM     78  C   UNL A   1      41.384  39.630  26.359  1.00  0.00     0.001 A 
ATOM     79  C   UNL A   1      41.920  40.263  28.625  1.00  0.00     0.001 A 
ATOM     80  C   UNL A   1      41.355  40.568  27.388  1.00  0.00     0.000 A 
ENDBRANCH  56  75
BRANCH  68  81
ATOM     81  C   UNL A   1      49.023  35.769  26.495  1.00  0.00    -0.014 A 
ATOM     82  C   UNL A   1      50.020  36.418  27.240  1.00  0.00     0.009 A 
ATOM     83  C   UNL A   1      49.172  35.675  25.101  1.00  0.00     0.009 A 
ATOM     84  C   UNL A   1      51.117  36.997  26.598  1.00  0.00     0.001 A 
ATOM     85  C   UNL A   1      50.288  36.218  24.466  1.00  0.00     0.001 A 
ATOM     86  C   UNL A   1      51.254  36.891  25.214  1.00  0.00     0.000 A 
ENDBRANCH  68  81
ENDBRANCH  42  43
ENDBRANCH  35  37
ENDBRANCH  34  35
ENDBRANCH  33  34
ENDBRANCH  32  33
ENDBRANCH  31  32
ENDBRANCH   1  31
TORSDOF 19
ENDMDL
