MODEL 1
REMARK VINA RESULT:     -10.4      0.000      0.000
REMARK SMILES O=C(OCCOCCOCCOC(=O)[C@@]1(Cc2cn3ccccc3n2)CCC[NH2+]C1)c1ccc(-c2c3nc(c(-c4ccccc4)c4ccc([nH]4)c(-c4ccccc4)c4nc(c(-c5ccccc5)c5ccc2[nH]5)C=C4)C=C3)cc1
REMARK SMILES IDX 7 1 6 2 5 3 4 4 3 5 2 6 1 7 31 8 32 9 78 10 33 11 77 12
REMARK SMILES IDX 34 13 35 14 36 15 71 16 37 17 76 18 70 19 72 20 38 21 75 22
REMARK SMILES IDX 69 23 68 24 39 26 61 27 46 28 60 29 47 30 50 31 59 32 73 33
REMARK SMILES IDX 48 34 49 35 58 37 74 38 51 39 40 40 41 41 45 42 42 43 44 44
REMARK SMILES IDX 43 45 62 46 63 47 67 48 64 49 66 50 65 51 52 52 53 53 57 54
REMARK SMILES IDX 54 55 56 56 55 57 8 58 9 59 10 60 11 61 12 62 13 63 14 64
REMARK SMILES IDX 15 65 26 66 30 67 27 68 29 69 28 70 16 73 17 74 18 75 25 76
REMARK SMILES IDX 19 77 24 78 20 79 23 80 21 81 22 82
REMARK H PARENT 72 25 50 36 29 71 29 72
REMARK Flexibility Score: inf
ROOT
ATOM      1  C   UNL A   1      36.271  21.553  25.187  1.00  0.00     0.188 C 
ENDROOT
BRANCH   1   2
ATOM      2  O   UNL A   1      37.271  20.984  24.331  1.00  0.00    -0.376 OA
BRANCH   2   3
ATOM      3  C   UNL A   1      37.937  19.857  24.915  1.00  0.00     0.202 C 
BRANCH   3   4
ATOM      4  C   UNL A   1      39.136  20.202  25.815  1.00  0.00     0.261 C 
BRANCH   4   5
ATOM      5  O   UNL A   1      40.177  19.208  25.803  1.00  0.00    -0.460 OA
BRANCH   5   6
ATOM      6  C   UNL A   1      41.502  19.353  26.045  1.00  0.00     0.338 C 
ATOM      7  O   UNL A   1      42.243  18.385  25.856  1.00  0.00    -0.246 OA
BRANCH   6   8
ATOM      8  C   UNL A   1      42.135  20.622  26.518  1.00  0.00     0.060 A 
ATOM      9  C   UNL A   1      42.175  21.047  27.843  1.00  0.00     0.016 A 
ATOM     10  C   UNL A   1      42.772  21.429  25.557  1.00  0.00     0.016 A 
ATOM     11  C   UNL A   1      42.702  22.277  28.200  1.00  0.00     0.010 A 
ATOM     12  C   UNL A   1      43.358  22.650  25.913  1.00  0.00     0.010 A 
ATOM     13  C   UNL A   1      43.275  23.097  27.236  1.00  0.00    -0.014 A 
BRANCH  13  14
ATOM     14  C   UNL A   1      43.592  24.481  27.631  1.00  0.00     0.031 A 
ATOM     15  C   UNL A   1      45.013  24.934  27.499  1.00  0.00     0.074 A 
ATOM     16  C   UNL A   1      42.605  25.354  27.906  1.00  0.00     0.049 A 
ATOM     17  N   UNL A   1      45.528  26.109  27.732  1.00  0.00    -0.248 NA
ATOM     18  C   UNL A   1      45.979  23.936  27.003  1.00  0.00     0.031 C 
ATOM     19  C   UNL A   1      41.180  25.039  27.869  1.00  0.00     0.029 A 
ATOM     20  N   UNL A   1      42.636  26.683  28.221  1.00  0.00    -0.354 N 
ATOM     21  C   UNL A   1      46.877  25.988  27.428  1.00  0.00     0.074 A 
ATOM     22  C   UNL A   1      47.108  24.623  27.016  1.00  0.00     0.031 C 
ATOM     23  C   UNL A   1      40.468  26.143  28.136  1.00  0.00     0.029 A 
ATOM     24  C   UNL A   1      41.389  27.224  28.433  1.00  0.00     0.049 A 
ATOM     25  H   UNL A   1      43.469  27.204  28.292  1.00  0.00     0.167 HD
ATOM     26  C   UNL A   1      47.834  26.940  27.489  1.00  0.00     0.031 A 
ATOM     27  C   UNL A   1      41.033  28.451  28.849  1.00  0.00     0.031 A 
ATOM     28  C   UNL A   1      47.572  28.284  27.921  1.00  0.00     0.049 A 
ATOM     29  C   UNL A   1      42.134  29.445  29.066  1.00  0.00     0.074 A 
ATOM     30  C   UNL A   1      48.459  29.328  28.091  1.00  0.00     0.029 A 
ATOM     31  N   UNL A   1      46.312  28.763  28.261  1.00  0.00    -0.354 N 
ATOM     32  N   UNL A   1      43.419  29.305  28.840  1.00  0.00    -0.248 NA
ATOM     33  C   UNL A   1      41.743  30.761  29.579  1.00  0.00     0.031 C 
ATOM     34  C   UNL A   1      47.744  30.421  28.594  1.00  0.00     0.029 A 
ATOM     35  C   UNL A   1      46.402  30.080  28.672  1.00  0.00     0.049 A 
ATOM     36  H   UNL A   1      45.478  28.241  28.216  1.00  0.00     0.167 HD
ATOM     37  C   UNL A   1      43.992  30.527  29.150  1.00  0.00     0.074 A 
ATOM     38  C   UNL A   1      42.906  31.397  29.569  1.00  0.00     0.031 C 
ATOM     39  C   UNL A   1      45.293  30.904  29.089  1.00  0.00     0.031 A 
BRANCH  26  40
ATOM     40  C   UNL A   1      49.238  26.505  27.178  1.00  0.00    -0.014 A 
ATOM     41  C   UNL A   1      49.739  26.490  25.865  1.00  0.00     0.009 A 
ATOM     42  C   UNL A   1      50.053  26.032  28.218  1.00  0.00     0.009 A 
ATOM     43  C   UNL A   1      51.006  25.961  25.597  1.00  0.00     0.001 A 
ATOM     44  C   UNL A   1      51.328  25.533  27.952  1.00  0.00     0.001 A 
ATOM     45  C   UNL A   1      51.797  25.483  26.641  1.00  0.00     0.000 A 
ENDBRANCH  26  40
BRANCH  27  46
ATOM     46  C   UNL A   1      39.605  28.776  29.111  1.00  0.00    -0.014 A 
ATOM     47  C   UNL A   1      38.783  29.302  28.105  1.00  0.00     0.009 A 
ATOM     48  C   UNL A   1      39.049  28.551  30.383  1.00  0.00     0.009 A 
ATOM     49  C   UNL A   1      37.447  29.617  28.372  1.00  0.00     0.001 A 
ATOM     50  C   UNL A   1      37.706  28.837  30.640  1.00  0.00     0.001 A 
ATOM     51  C   UNL A   1      36.908  29.380  29.637  1.00  0.00     0.000 A 
ENDBRANCH  27  46
BRANCH  39  52
ATOM     52  C   UNL A   1      45.588  32.330  29.444  1.00  0.00    -0.014 A 
ATOM     53  C   UNL A   1      45.543  33.347  28.479  1.00  0.00     0.009 A 
ATOM     54  C   UNL A   1      45.891  32.657  30.774  1.00  0.00     0.009 A 
ATOM     55  C   UNL A   1      45.839  34.662  28.834  1.00  0.00     0.001 A 
ATOM     56  C   UNL A   1      46.152  33.978  31.133  1.00  0.00     0.001 A 
ATOM     57  C   UNL A   1      46.136  34.976  30.160  1.00  0.00     0.000 A 
ENDBRANCH  39  52
ENDBRANCH  13  14
ENDBRANCH   6   8
ENDBRANCH   5   6
ENDBRANCH   4   5
ENDBRANCH   3   4
ENDBRANCH   2   3
ENDBRANCH   1   2
BRANCH   1  58
ATOM     58  C   UNL A   1      34.893  20.929  24.978  1.00  0.00     0.188 C 
BRANCH  58  59
ATOM     59  O   UNL A   1      33.990  21.630  24.129  1.00  0.00    -0.376 OA
BRANCH  59  60
ATOM     60  C   UNL A   1      34.378  22.920  23.675  1.00  0.00     0.202 C 
BRANCH  60  61
ATOM     61  C   UNL A   1      33.534  23.600  22.586  1.00  0.00     0.261 C 
BRANCH  61  62
ATOM     62  O   UNL A   1      33.820  24.986  22.329  1.00  0.00    -0.463 OA
BRANCH  62  63
ATOM     63  C   UNL A   1      32.732  25.807  22.276  1.00  0.00     0.318 C 
ATOM     64  O   UNL A   1      32.005  25.908  21.290  1.00  0.00    -0.251 OA
BRANCH  63  65
ATOM     65  C   UNL A   1      32.515  26.633  23.554  1.00  0.00     0.122 C 
ATOM     66  C   UNL A   1      31.201  26.123  24.196  1.00  0.00     0.031 C 
ATOM     67  C   UNL A   1      33.643  26.386  24.577  1.00  0.00     0.279 C 
ATOM     68  C   UNL A   1      30.956  26.605  25.627  1.00  0.00     0.063 C 
ATOM     69  N   UNL A   1      33.412  27.024  25.875  1.00  0.00    -0.345 N 
ATOM     70  C   UNL A   1      32.193  26.543  26.519  1.00  0.00     0.260 C 
ATOM     71  H   UNL A   1      34.206  26.825  26.485  1.00  0.00     0.346 HD
ATOM     72  H   UNL A   1      33.308  28.026  25.718  1.00  0.00     0.346 HD
BRANCH  65  73
ATOM     73  C   UNL A   1      32.474  28.100  23.024  1.00  0.00     0.082 C 
BRANCH  73  74
ATOM     74  C   UNL A   1      31.153  28.787  22.982  1.00  0.00     0.061 A 
ATOM     75  C   UNL A   1      30.140  28.679  22.055  1.00  0.00     0.116 A 
ATOM     76  N   UNL A   1      30.810  29.703  23.955  1.00  0.00    -0.234 NA
ATOM     77  N   UNL A   1      29.263  29.688  22.344  1.00  0.00    -0.307 N 
ATOM     78  C   UNL A   1      29.684  30.248  23.544  1.00  0.00     0.136 A 
ATOM     79  C   UNL A   1      28.188  30.164  21.599  1.00  0.00     0.093 A 
ATOM     80  C   UNL A   1      28.914  31.330  24.054  1.00  0.00     0.048 A 
ATOM     81  C   UNL A   1      27.496  31.221  22.058  1.00  0.00     0.018 A 
ATOM     82  C   UNL A   1      27.874  31.804  23.339  1.00  0.00     0.005 A 
ENDBRANCH  73  74
ENDBRANCH  65  73
ENDBRANCH  63  65
ENDBRANCH  62  63
ENDBRANCH  61  62
ENDBRANCH  60  61
ENDBRANCH  59  60
ENDBRANCH  58  59
ENDBRANCH   1  58
TORSDOF 19
ENDMDL
MODEL 2
REMARK VINA RESULT:     -10.2      2.732      4.244
REMARK SMILES O=C(OCCOCCOCCOC(=O)[C@@]1(Cc2cn3ccccc3n2)CCC[NH2+]C1)c1ccc(-c2c3nc(c(-c4ccccc4)c4ccc([nH]4)c(-c4ccccc4)c4nc(c(-c5ccccc5)c5ccc2[nH]5)C=C4)C=C3)cc1
REMARK SMILES IDX 7 1 6 2 5 3 4 4 3 5 2 6 1 7 31 8 32 9 78 10 33 11 77 12
REMARK SMILES IDX 34 13 35 14 36 15 71 16 37 17 76 18 70 19 72 20 38 21 75 22
REMARK SMILES IDX 69 23 68 24 39 26 61 27 46 28 60 29 47 30 50 31 59 32 73 33
REMARK SMILES IDX 48 34 49 35 58 37 74 38 51 39 40 40 41 41 45 42 42 43 44 44
REMARK SMILES IDX 43 45 62 46 63 47 67 48 64 49 66 50 65 51 52 52 53 53 57 54
REMARK SMILES IDX 54 55 56 56 55 57 8 58 9 59 10 60 11 61 12 62 13 63 14 64
REMARK SMILES IDX 15 65 26 66 30 67 27 68 29 69 28 70 16 73 17 74 18 75 25 76
REMARK SMILES IDX 19 77 24 78 20 79 23 80 21 81 22 82
REMARK H PARENT 72 25 50 36 29 71 29 72
REMARK Flexibility Score: inf
ROOT
ATOM      1  C   UNL A   1      35.046  20.720  25.261  1.00  0.00     0.188 C 
ENDROOT
BRANCH   1   2
ATOM      2  O   UNL A   1      35.434  21.607  24.203  1.00  0.00    -0.376 OA
BRANCH   2   3
ATOM      3  C   UNL A   1      36.629  22.343  24.495  1.00  0.00     0.202 C 
BRANCH   3   4
ATOM      4  C   UNL A   1      37.829  21.488  24.940  1.00  0.00     0.261 C 
BRANCH   4   5
ATOM      5  O   UNL A   1      38.457  21.953  26.149  1.00  0.00    -0.460 OA
BRANCH   5   6
ATOM      6  C   UNL A   1      39.632  22.611  26.305  1.00  0.00     0.338 C 
ATOM      7  O   UNL A   1      40.675  22.033  25.988  1.00  0.00    -0.246 OA
BRANCH   6   8
ATOM      8  C   UNL A   1      39.750  24.006  26.828  1.00  0.00     0.060 A 
ATOM      9  C   UNL A   1      40.301  25.076  26.127  1.00  0.00     0.016 A 
ATOM     10  C   UNL A   1      39.231  24.267  28.109  1.00  0.00     0.016 A 
ATOM     11  C   UNL A   1      40.458  26.324  26.704  1.00  0.00     0.010 A 
ATOM     12  C   UNL A   1      39.333  25.540  28.684  1.00  0.00     0.010 A 
ATOM     13  C   UNL A   1      39.999  26.559  27.993  1.00  0.00    -0.014 A 
BRANCH  13  14
ATOM     14  C   UNL A   1      40.410  27.821  28.637  1.00  0.00     0.031 A 
ATOM     15  C   UNL A   1      41.864  28.004  28.942  1.00  0.00     0.074 A 
ATOM     16  C   UNL A   1      39.539  28.839  28.756  1.00  0.00     0.049 A 
ATOM     17  N   UNL A   1      42.475  29.035  29.454  1.00  0.00    -0.248 NA
ATOM     18  C   UNL A   1      42.758  26.885  28.589  1.00  0.00     0.031 C 
ATOM     19  C   UNL A   1      38.151  28.806  28.306  1.00  0.00     0.029 A 
ATOM     20  N   UNL A   1      39.693  30.108  29.241  1.00  0.00    -0.354 N 
ATOM     21  C   UNL A   1      43.817  28.686  29.501  1.00  0.00     0.074 A 
ATOM     22  C   UNL A   1      43.933  27.340  28.988  1.00  0.00     0.031 C 
ATOM     23  C   UNL A   1      37.579  29.999  28.520  1.00  0.00     0.029 A 
ATOM     24  C   UNL A   1      38.541  30.857  29.188  1.00  0.00     0.049 A 
ATOM     25  H   UNL A   1      40.545  30.453  29.595  1.00  0.00     0.167 HD
ATOM     26  C   UNL A   1      44.858  29.429  29.935  1.00  0.00     0.031 A 
ATOM     27  C   UNL A   1      38.284  32.091  29.654  1.00  0.00     0.031 A 
ATOM     28  C   UNL A   1      44.704  30.758  30.457  1.00  0.00     0.049 A 
ATOM     29  C   UNL A   1      39.423  32.835  30.281  1.00  0.00     0.074 A 
ATOM     30  C   UNL A   1      45.664  31.597  30.989  1.00  0.00     0.029 A 
ATOM     31  N   UNL A   1      43.493  31.439  30.516  1.00  0.00    -0.354 N 
ATOM     32  N   UNL A   1      40.680  32.473  30.384  1.00  0.00    -0.248 NA
ATOM     33  C   UNL A   1      39.120  34.154  30.843  1.00  0.00     0.031 C 
ATOM     34  C   UNL A   1      45.021  32.760  31.428  1.00  0.00     0.029 A 
ATOM     35  C   UNL A   1      43.674  32.676  31.105  1.00  0.00     0.049 A 
ATOM     36  H   UNL A   1      42.634  31.090  30.185  1.00  0.00     0.167 HD
ATOM     37  C   UNL A   1      41.331  33.533  30.991  1.00  0.00     0.074 A 
ATOM     38  C   UNL A   1      40.326  34.556  31.222  1.00  0.00     0.031 C 
ATOM     39  C   UNL A   1      42.640  33.658  31.323  1.00  0.00     0.031 A 
BRANCH  26  40
ATOM     40  C   UNL A   1      46.204  28.762  29.948  1.00  0.00    -0.014 A 
ATOM     41  C   UNL A   1      46.554  27.812  30.922  1.00  0.00     0.009 A 
ATOM     42  C   UNL A   1      47.167  29.148  29.003  1.00  0.00     0.009 A 
ATOM     43  C   UNL A   1      47.856  27.304  30.979  1.00  0.00     0.001 A 
ATOM     44  C   UNL A   1      48.457  28.617  29.044  1.00  0.00     0.001 A 
ATOM     45  C   UNL A   1      48.805  27.708  30.040  1.00  0.00     0.000 A 
ENDBRANCH  26  40
BRANCH  27  46
ATOM     46  C   UNL A   1      36.910  32.659  29.575  1.00  0.00    -0.014 A 
ATOM     47  C   UNL A   1      35.975  32.443  30.597  1.00  0.00     0.009 A 
ATOM     48  C   UNL A   1      36.528  33.435  28.467  1.00  0.00     0.009 A 
ATOM     49  C   UNL A   1      34.684  32.971  30.499  1.00  0.00     0.001 A 
ATOM     50  C   UNL A   1      35.248  33.988  28.386  1.00  0.00     0.001 A 
ATOM     51  C   UNL A   1      34.323  33.746  29.398  1.00  0.00     0.000 A 
ENDBRANCH  27  46
BRANCH  39  52
ATOM     52  C   UNL A   1      43.048  34.968  31.927  1.00  0.00    -0.014 A 
ATOM     53  C   UNL A   1      43.540  36.016  31.136  1.00  0.00     0.009 A 
ATOM     54  C   UNL A   1      42.912  35.157  33.311  1.00  0.00     0.009 A 
ATOM     55  C   UNL A   1      43.929  37.217  31.727  1.00  0.00     0.001 A 
ATOM     56  C   UNL A   1      43.267  36.371  33.894  1.00  0.00     0.001 A 
ATOM     57  C   UNL A   1      43.786  37.395  33.104  1.00  0.00     0.000 A 
ENDBRANCH  39  52
ENDBRANCH  13  14
ENDBRANCH   6   8
ENDBRANCH   5   6
ENDBRANCH   4   5
ENDBRANCH   3   4
ENDBRANCH   2   3
ENDBRANCH   1   2
BRANCH   1  58
ATOM     58  C   UNL A   1      33.656  21.031  25.810  1.00  0.00     0.188 C 
BRANCH  58  59
ATOM     59  O   UNL A   1      33.148  22.341  25.573  1.00  0.00    -0.376 OA
BRANCH  59  60
ATOM     60  C   UNL A   1      33.030  23.214  26.689  1.00  0.00     0.202 C 
BRANCH  60  61
ATOM     61  C   UNL A   1      32.158  24.471  26.548  1.00  0.00     0.261 C 
BRANCH  61  62
ATOM     62  O   UNL A   1      32.851  25.732  26.537  1.00  0.00    -0.463 OA
BRANCH  62  63
ATOM     63  C   UNL A   1      32.064  26.832  26.707  1.00  0.00     0.318 C 
ATOM     64  O   UNL A   1      30.908  26.783  27.123  1.00  0.00    -0.251 OA
BRANCH  63  65
ATOM     65  C   UNL A   1      32.739  28.149  26.289  1.00  0.00     0.122 C 
ATOM     66  C   UNL A   1      31.943  29.291  26.970  1.00  0.00     0.031 C 
ATOM     67  C   UNL A   1      34.186  28.228  26.820  1.00  0.00     0.279 C 
ATOM     68  C   UNL A   1      32.624  30.661  26.926  1.00  0.00     0.063 C 
ATOM     69  N   UNL A   1      34.828  29.524  26.588  1.00  0.00    -0.345 N 
ATOM     70  C   UNL A   1      34.117  30.619  27.241  1.00  0.00     0.260 C 
ATOM     71  H   UNL A   1      35.781  29.488  26.954  1.00  0.00     0.346 HD
ATOM     72  H   UNL A   1      34.823  29.702  25.584  1.00  0.00     0.346 HD
BRANCH  65  73
ATOM     73  C   UNL A   1      32.654  28.112  24.732  1.00  0.00     0.082 C 
BRANCH  73  74
ATOM     74  C   UNL A   1      31.374  28.530  24.096  1.00  0.00     0.061 A 
ATOM     75  C   UNL A   1      30.964  29.782  23.695  1.00  0.00     0.116 A 
ATOM     76  N   UNL A   1      30.377  27.606  23.856  1.00  0.00    -0.234 NA
ATOM     77  N   UNL A   1      29.634  29.663  23.403  1.00  0.00    -0.307 N 
ATOM     78  C   UNL A   1      29.334  28.307  23.461  1.00  0.00     0.136 A 
ATOM     79  C   UNL A   1      28.690  30.656  23.161  1.00  0.00     0.093 A 
ATOM     80  C   UNL A   1      27.990  27.932  23.188  1.00  0.00     0.048 A 
ATOM     81  C   UNL A   1      27.409  30.301  22.957  1.00  0.00     0.018 A 
ATOM     82  C   UNL A   1      27.065  28.886  22.958  1.00  0.00     0.005 A 
ENDBRANCH  73  74
ENDBRANCH  65  73
ENDBRANCH  63  65
ENDBRANCH  62  63
ENDBRANCH  61  62
ENDBRANCH  60  61
ENDBRANCH  59  60
ENDBRANCH  58  59
ENDBRANCH   1  58
TORSDOF 19
ENDMDL
MODEL 3
REMARK VINA RESULT:     -10.1      2.845      8.371
REMARK SMILES O=C(OCCOCCOCCOC(=O)[C@@]1(Cc2cn3ccccc3n2)CCC[NH2+]C1)c1ccc(-c2c3nc(c(-c4ccccc4)c4ccc([nH]4)c(-c4ccccc4)c4nc(c(-c5ccccc5)c5ccc2[nH]5)C=C4)C=C3)cc1
REMARK SMILES IDX 7 1 6 2 5 3 4 4 3 5 2 6 1 7 31 8 32 9 78 10 33 11 77 12
REMARK SMILES IDX 34 13 35 14 36 15 71 16 37 17 76 18 70 19 72 20 38 21 75 22
REMARK SMILES IDX 69 23 68 24 39 26 61 27 46 28 60 29 47 30 50 31 59 32 73 33
REMARK SMILES IDX 48 34 49 35 58 37 74 38 51 39 40 40 41 41 45 42 42 43 44 44
REMARK SMILES IDX 43 45 62 46 63 47 67 48 64 49 66 50 65 51 52 52 53 53 57 54
REMARK SMILES IDX 54 55 56 56 55 57 8 58 9 59 10 60 11 61 12 62 13 63 14 64
REMARK SMILES IDX 15 65 26 66 30 67 27 68 29 69 28 70 16 73 17 74 18 75 25 76
REMARK SMILES IDX 19 77 24 78 20 79 23 80 21 81 22 82
REMARK H PARENT 72 25 50 36 29 71 29 72
REMARK Flexibility Score: inf
ROOT
ATOM      1  C   UNL A   1      33.224  29.224  27.017  1.00  0.00     0.188 C 
ENDROOT
BRANCH   1   2
ATOM      2  O   UNL A   1      33.261  30.486  27.696  1.00  0.00    -0.376 OA
BRANCH   2   3
ATOM      3  C   UNL A   1      34.481  31.207  27.478  1.00  0.00     0.202 C 
BRANCH   3   4
ATOM      4  C   UNL A   1      34.827  32.247  28.558  1.00  0.00     0.261 C 
BRANCH   4   5
ATOM      5  O   UNL A   1      34.789  31.725  29.899  1.00  0.00    -0.460 OA
BRANCH   5   6
ATOM      6  C   UNL A   1      35.808  31.532  30.771  1.00  0.00     0.338 C 
ATOM      7  O   UNL A   1      35.717  32.022  31.900  1.00  0.00    -0.246 OA
BRANCH   6   8
ATOM      8  C   UNL A   1      37.042  30.747  30.460  1.00  0.00     0.060 A 
ATOM      9  C   UNL A   1      37.776  30.015  31.389  1.00  0.00     0.016 A 
ATOM     10  C   UNL A   1      37.472  30.714  29.121  1.00  0.00     0.016 A 
ATOM     11  C   UNL A   1      38.959  29.381  31.050  1.00  0.00     0.010 A 
ATOM     12  C   UNL A   1      38.637  30.030  28.753  1.00  0.00     0.010 A 
ATOM     13  C   UNL A   1      39.411  29.404  29.737  1.00  0.00    -0.014 A 
BRANCH  13  14
ATOM     14  C   UNL A   1      40.784  28.928  29.487  1.00  0.00     0.031 A 
ATOM     15  C   UNL A   1      40.956  27.520  29.008  1.00  0.00     0.074 A 
ATOM     16  C   UNL A   1      41.816  29.791  29.500  1.00  0.00     0.049 A 
ATOM     17  N   UNL A   1      42.048  26.892  28.673  1.00  0.00    -0.248 NA
ATOM     18  C   UNL A   1      39.726  26.723  28.849  1.00  0.00     0.031 C 
ATOM     19  C   UNL A   1      41.703  31.222  29.770  1.00  0.00     0.029 A 
ATOM     20  N   UNL A   1      43.146  29.615  29.237  1.00  0.00    -0.354 N 
ATOM     21  C   UNL A   1      41.641  25.624  28.282  1.00  0.00     0.074 A 
ATOM     22  C   UNL A   1      40.206  25.561  28.441  1.00  0.00     0.031 C 
ATOM     23  C   UNL A   1      42.906  31.800  29.647  1.00  0.00     0.029 A 
ATOM     24  C   UNL A   1      43.885  30.768  29.359  1.00  0.00     0.049 A 
ATOM     25  H   UNL A   1      43.537  28.746  28.985  1.00  0.00     0.167 HD
ATOM     26  C   UNL A   1      42.404  24.605  27.829  1.00  0.00     0.031 A 
ATOM     27  C   UNL A   1      45.212  30.962  29.277  1.00  0.00     0.031 A 
ATOM     28  C   UNL A   1      43.832  24.696  27.702  1.00  0.00     0.049 A 
ATOM     29  C   UNL A   1      46.056  29.773  28.930  1.00  0.00     0.074 A 
ATOM     30  C   UNL A   1      44.732  23.722  27.318  1.00  0.00     0.029 A 
ATOM     31  N   UNL A   1      44.568  25.845  27.968  1.00  0.00    -0.354 N 
ATOM     32  N   UNL A   1      45.671  28.557  28.626  1.00  0.00    -0.248 NA
ATOM     33  C   UNL A   1      47.507  29.980  28.904  1.00  0.00     0.031 C 
ATOM     34  C   UNL A   1      46.018  24.264  27.414  1.00  0.00     0.029 A 
ATOM     35  C   UNL A   1      45.916  25.596  27.789  1.00  0.00     0.049 A 
ATOM     36  H   UNL A   1      44.185  26.710  28.244  1.00  0.00     0.167 HD
ATOM     37  C   UNL A   1      46.829  27.855  28.335  1.00  0.00     0.074 A 
ATOM     38  C   UNL A   1      47.928  28.792  28.491  1.00  0.00     0.031 C 
ATOM     39  C   UNL A   1      46.976  26.559  27.965  1.00  0.00     0.031 A 
BRANCH  26  40
ATOM     40  C   UNL A   1      41.701  23.307  27.554  1.00  0.00    -0.014 A 
ATOM     41  C   UNL A   1      41.878  22.177  28.371  1.00  0.00     0.009 A 
ATOM     42  C   UNL A   1      40.898  23.195  26.408  1.00  0.00     0.009 A 
ATOM     43  C   UNL A   1      41.307  20.951  28.014  1.00  0.00     0.001 A 
ATOM     44  C   UNL A   1      40.305  21.977  26.072  1.00  0.00     0.001 A 
ATOM     45  C   UNL A   1      40.522  20.853  26.866  1.00  0.00     0.000 A 
ENDBRANCH  26  40
BRANCH  27  46
ATOM     46  C   UNL A   1      45.800  32.301  29.557  1.00  0.00    -0.014 A 
ATOM     47  C   UNL A   1      45.895  33.276  28.554  1.00  0.00     0.009 A 
ATOM     48  C   UNL A   1      46.265  32.614  30.846  1.00  0.00     0.009 A 
ATOM     49  C   UNL A   1      46.464  34.523  28.830  1.00  0.00     0.001 A 
ATOM     50  C   UNL A   1      46.804  33.872  31.127  1.00  0.00     0.001 A 
ATOM     51  C   UNL A   1      46.914  34.822  30.116  1.00  0.00     0.000 A 
ENDBRANCH  27  46
BRANCH  39  52
ATOM     52  C   UNL A   1      48.374  26.109  27.665  1.00  0.00    -0.014 A 
ATOM     53  C   UNL A   1      49.172  25.501  28.646  1.00  0.00     0.009 A 
ATOM     54  C   UNL A   1      48.885  26.278  26.370  1.00  0.00     0.009 A 
ATOM     55  C   UNL A   1      50.475  25.108  28.344  1.00  0.00     0.001 A 
ATOM     56  C   UNL A   1      50.175  25.852  26.061  1.00  0.00     0.001 A 
ATOM     57  C   UNL A   1      50.972  25.278  27.051  1.00  0.00     0.000 A 
ENDBRANCH  39  52
ENDBRANCH  13  14
ENDBRANCH   6   8
ENDBRANCH   5   6
ENDBRANCH   4   5
ENDBRANCH   3   4
ENDBRANCH   2   3
ENDBRANCH   1   2
BRANCH   1  58
ATOM     58  C   UNL A   1      31.871  28.944  26.368  1.00  0.00     0.188 C 
BRANCH  58  59
ATOM     59  O   UNL A   1      31.769  29.172  24.965  1.00  0.00    -0.376 OA
BRANCH  59  60
ATOM     60  C   UNL A   1      32.977  29.339  24.235  1.00  0.00     0.202 C 
BRANCH  60  61
ATOM     61  C   UNL A   1      32.991  28.970  22.744  1.00  0.00     0.261 C 
BRANCH  61  62
ATOM     62  O   UNL A   1      32.150  27.871  22.350  1.00  0.00    -0.463 OA
BRANCH  62  63
ATOM     63  C   UNL A   1      32.771  26.659  22.273  1.00  0.00     0.318 C 
ATOM     64  O   UNL A   1      33.653  26.398  21.458  1.00  0.00    -0.251 OA
BRANCH  63  65
ATOM     65  C   UNL A   1      32.236  25.624  23.275  1.00  0.00     0.122 C 
ATOM     66  C   UNL A   1      33.091  25.766  24.560  1.00  0.00     0.031 C 
ATOM     67  C   UNL A   1      30.776  25.929  23.669  1.00  0.00     0.279 C 
ATOM     68  C   UNL A   1      32.536  25.036  25.785  1.00  0.00     0.063 C 
ATOM     69  N   UNL A   1      30.261  25.070  24.738  1.00  0.00    -0.345 N 
ATOM     70  C   UNL A   1      31.030  25.202  25.973  1.00  0.00     0.260 C 
ATOM     71  H   UNL A   1      29.291  25.326  24.927  1.00  0.00     0.346 HD
ATOM     72  H   UNL A   1      30.336  24.102  24.426  1.00  0.00     0.346 HD
BRANCH  65  73
ATOM     73  C   UNL A   1      32.399  24.273  22.511  1.00  0.00     0.082 C 
BRANCH  73  74
ATOM     74  C   UNL A   1      33.440  23.323  22.995  1.00  0.00     0.061 A 
ATOM     75  C   UNL A   1      33.297  22.180  23.749  1.00  0.00     0.116 A 
ATOM     76  N   UNL A   1      34.773  23.548  22.721  1.00  0.00    -0.234 NA
ATOM     77  N   UNL A   1      34.563  21.818  24.119  1.00  0.00    -0.307 N 
ATOM     78  C   UNL A   1      35.433  22.648  23.422  1.00  0.00     0.136 A 
ATOM     79  C   UNL A   1      34.974  20.873  25.053  1.00  0.00     0.093 A 
ATOM     80  C   UNL A   1      36.824  22.455  23.644  1.00  0.00     0.048 A 
ATOM     81  C   UNL A   1      36.288  20.731  25.301  1.00  0.00     0.018 A 
ATOM     82  C   UNL A   1      37.235  21.546  24.551  1.00  0.00     0.005 A 
ENDBRANCH  73  74
ENDBRANCH  65  73
ENDBRANCH  63  65
ENDBRANCH  62  63
ENDBRANCH  61  62
ENDBRANCH  60  61
ENDBRANCH  59  60
ENDBRANCH  58  59
ENDBRANCH   1  58
TORSDOF 19
ENDMDL
