MODEL 1
REMARK VINA RESULT:     -11.2      0.000      0.000
REMARK SMILES O=C1CC[C@H](CNC(=O)N[C@@H]2C=C[C@@H](C(=O)OCCOCCOCCOC(=O)c3ccc(-c4c5nc(c(-c6ccccc6)c6ccc([nH]6)c(-c6ccccc6)c6nc(c(-c7ccccc7)c7ccc4[nH]7)C=C6)C=C5)cc3)C2)N1
REMARK SMILES IDX 21 1 20 2 19 3 18 4 17 5 15 6 16 7 14 8 11 9 12 10 77 11
REMARK SMILES IDX 13 12 10 13 7 14 8 15 9 17 6 19 5 20 1 21 2 22 3 23 78 24
REMARK SMILES IDX 4 25 22 27 23 28 24 29 25 30 26 31 27 32 28 33 29 34 30 35
REMARK SMILES IDX 76 36 31 37 75 38 32 39 33 40 34 41 69 42 35 43 74 44 68 45
REMARK SMILES IDX 70 46 36 47 73 48 67 49 66 50 37 52 59 53 44 54 58 55 45 56
REMARK SMILES IDX 48 57 57 58 71 59 46 60 47 61 56 63 72 64 49 65 38 66 39 67
REMARK SMILES IDX 43 68 40 69 42 70 41 71 60 72 61 73 65 74 62 75 64 76 63 77
REMARK SMILES IDX 50 78 51 79 55 80 52 81 54 82 53 83
REMARK H PARENT 7 16 10 18 78 26 70 51 48 62
REMARK Flexibility Score: inf
ROOT
ATOM      1  C   UNL A   1      32.945  35.837  29.727  1.00  0.00     0.188 C 
ENDROOT
BRANCH   1   2
ATOM      2  O   UNL A   1      32.592  34.570  29.198  1.00  0.00    -0.376 OA
BRANCH   2   3
ATOM      3  C   UNL A   1      33.251  34.099  28.030  1.00  0.00     0.202 C 
BRANCH   3   4
ATOM      4  C   UNL A   1      34.090  32.824  28.149  1.00  0.00     0.261 C 
BRANCH   4   5
ATOM      5  O   UNL A   1      33.387  31.667  27.670  1.00  0.00    -0.463 OA
BRANCH   5   6
ATOM      6  C   UNL A   1      34.127  30.541  27.488  1.00  0.00     0.312 C 
ATOM      7  O   UNL A   1      35.298  30.425  27.831  1.00  0.00    -0.252 OA
BRANCH   6   8
ATOM      8  C   UNL A   1      33.301  29.390  26.898  1.00  0.00     0.124 C 
ATOM      9  C   UNL A   1      32.204  28.847  24.727  1.00  0.00     0.107 C 
ATOM     10  C   UNL A   1      33.535  28.184  24.885  1.00  0.00    -0.006 C 
ATOM     11  C   UNL A   1      32.183  29.791  25.929  1.00  0.00     0.048 C 
ATOM     12  C   UNL A   1      34.133  28.483  26.045  1.00  0.00    -0.014 C 
BRANCH   9  13
ATOM     13  N   UNL A   1      31.160  27.848  24.758  1.00  0.00    -0.332 N 
ATOM     14  N   UNL A   1      29.891  28.118  22.764  1.00  0.00    -0.336 N 
ATOM     15  C   UNL A   1      30.205  27.470  23.897  1.00  0.00     0.315 C 
ATOM     16  H   UNL A   1      29.270  27.617  22.189  1.00  0.00     0.165 HD
ATOM     17  O   UNL A   1      29.558  26.455  24.165  1.00  0.00    -0.249 OA
ATOM     18  H   UNL A   1      31.147  27.331  25.597  1.00  0.00     0.165 HD
BRANCH  14  19
ATOM     19  C   UNL A   1      30.272  29.403  22.210  1.00  0.00     0.142 C 
BRANCH  19  20
ATOM     20  C   UNL A   1      29.103  30.362  21.926  1.00  0.00     0.101 C 
ATOM     21  O   UNL A   1      29.001  33.720  22.978  1.00  0.00    -0.275 OA
ATOM     22  C   UNL A   1      28.792  32.547  22.787  1.00  0.00     0.220 C 
ATOM     23  C   UNL A   1      27.639  31.742  23.320  1.00  0.00     0.102 C 
ATOM     24  N   UNL A   1      29.556  31.727  21.992  1.00  0.00    -0.352 N 
ATOM     25  C   UNL A   1      27.967  30.294  22.948  1.00  0.00     0.036 C 
ATOM     26  H   UNL A   1      30.350  32.048  21.506  1.00  0.00     0.163 HD
ENDBRANCH  19  20
ENDBRANCH  14  19
ENDBRANCH   9  13
ENDBRANCH   6   8
ENDBRANCH   5   6
ENDBRANCH   4   5
ENDBRANCH   3   4
ENDBRANCH   2   3
ENDBRANCH   1   2
BRANCH   1  27
ATOM     27  C   UNL A   1      32.545  36.234  31.160  1.00  0.00     0.188 C 
BRANCH  27  28
ATOM     28  O   UNL A   1      32.565  35.331  32.243  1.00  0.00    -0.376 OA
BRANCH  28  29
ATOM     29  C   UNL A   1      33.808  34.817  32.690  1.00  0.00     0.202 C 
BRANCH  29  30
ATOM     30  C   UNL A   1      33.894  33.324  33.011  1.00  0.00     0.261 C 
BRANCH  30  31
ATOM     31  O   UNL A   1      34.961  32.655  32.314  1.00  0.00    -0.460 OA
BRANCH  31  32
ATOM     32  C   UNL A   1      36.018  32.319  33.088  1.00  0.00     0.338 C 
ATOM     33  O   UNL A   1      36.143  32.471  34.291  1.00  0.00    -0.246 OA
BRANCH  32  34
ATOM     34  C   UNL A   1      37.012  31.564  32.320  1.00  0.00     0.060 A 
ATOM     35  C   UNL A   1      37.929  30.769  33.022  1.00  0.00     0.016 A 
ATOM     36  C   UNL A   1      37.132  31.764  30.947  1.00  0.00     0.016 A 
ATOM     37  C   UNL A   1      38.997  30.186  32.349  1.00  0.00     0.010 A 
ATOM     38  C   UNL A   1      38.210  31.191  30.277  1.00  0.00     0.010 A 
ATOM     39  C   UNL A   1      39.157  30.422  30.978  1.00  0.00    -0.014 A 
BRANCH  39  40
ATOM     40  C   UNL A   1      40.356  29.929  30.272  1.00  0.00     0.031 A 
ATOM     41  C   UNL A   1      41.520  30.854  30.067  1.00  0.00     0.074 A 
ATOM     42  C   UNL A   1      40.366  28.679  29.781  1.00  0.00     0.049 A 
ATOM     43  N   UNL A   1      42.593  30.681  29.340  1.00  0.00    -0.248 NA
ATOM     44  C   UNL A   1      41.466  32.149  30.766  1.00  0.00     0.031 C 
ATOM     45  C   UNL A   1      39.300  27.693  29.961  1.00  0.00     0.029 A 
ATOM     46  N   UNL A   1      41.294  28.035  29.005  1.00  0.00    -0.354 N 
ATOM     47  C   UNL A   1      43.328  31.853  29.470  1.00  0.00     0.074 A 
ATOM     48  C   UNL A   1      42.579  32.732  30.341  1.00  0.00     0.031 C 
ATOM     49  C   UNL A   1      39.621  26.577  29.287  1.00  0.00     0.029 A 
ATOM     50  C   UNL A   1      40.887  26.790  28.594  1.00  0.00     0.049 A 
ATOM     51  H   UNL A   1      42.165  28.427  28.767  1.00  0.00     0.167 HD
ATOM     52  C   UNL A   1      44.515  32.165  28.900  1.00  0.00     0.031 A 
ATOM     53  C   UNL A   1      41.454  25.941  27.719  1.00  0.00     0.031 A 
ATOM     54  C   UNL A   1      45.243  31.278  28.031  1.00  0.00     0.049 A 
ATOM     55  C   UNL A   1      42.748  26.335  27.060  1.00  0.00     0.074 A 
ATOM     56  C   UNL A   1      46.468  31.482  27.421  1.00  0.00     0.029 A 
ATOM     57  N   UNL A   1      44.804  30.021  27.644  1.00  0.00    -0.354 N 
ATOM     58  N   UNL A   1      43.447  27.435  27.207  1.00  0.00    -0.248 NA
ATOM     59  C   UNL A   1      43.331  25.371  26.119  1.00  0.00     0.031 C 
ATOM     60  C   UNL A   1      46.745  30.368  26.621  1.00  0.00     0.029 A 
ATOM     61  C   UNL A   1      45.721  29.447  26.782  1.00  0.00     0.049 A 
ATOM     62  H   UNL A   1      43.965  29.599  27.940  1.00  0.00     0.167 HD
ATOM     63  C   UNL A   1      44.565  27.283  26.398  1.00  0.00     0.074 A 
ATOM     64  C   UNL A   1      44.458  25.978  25.777  1.00  0.00     0.031 C 
ATOM     65  C   UNL A   1      45.590  28.145  26.183  1.00  0.00     0.031 A 
BRANCH  52  66
ATOM     66  C   UNL A   1      45.085  33.531  29.158  1.00  0.00    -0.014 A 
ATOM     67  C   UNL A   1      46.168  33.722  30.030  1.00  0.00     0.009 A 
ATOM     68  C   UNL A   1      44.567  34.639  28.469  1.00  0.00     0.009 A 
ATOM     69  C   UNL A   1      46.707  34.997  30.219  1.00  0.00     0.001 A 
ATOM     70  C   UNL A   1      45.122  35.908  28.640  1.00  0.00     0.001 A 
ATOM     71  C   UNL A   1      46.189  36.086  29.520  1.00  0.00     0.000 A 
ENDBRANCH  52  66
BRANCH  53  72
ATOM     72  C   UNL A   1      40.782  24.660  27.378  1.00  0.00    -0.014 A 
ATOM     73  C   UNL A   1      39.669  24.637  26.526  1.00  0.00     0.009 A 
ATOM     74  C   UNL A   1      41.245  23.449  27.921  1.00  0.00     0.009 A 
ATOM     75  C   UNL A   1      39.014  23.434  26.249  1.00  0.00     0.001 A 
ATOM     76  C   UNL A   1      40.609  22.244  27.616  1.00  0.00     0.001 A 
ATOM     77  C   UNL A   1      39.486  22.239  26.789  1.00  0.00     0.000 A 
ENDBRANCH  53  72
BRANCH  65  78
ATOM     78  C   UNL A   1      46.690  27.681  25.273  1.00  0.00    -0.014 A 
ATOM     79  C   UNL A   1      47.713  26.838  25.736  1.00  0.00     0.009 A 
ATOM     80  C   UNL A   1      46.680  28.066  23.923  1.00  0.00     0.009 A 
ATOM     81  C   UNL A   1      48.723  26.417  24.869  1.00  0.00     0.001 A 
ATOM     82  C   UNL A   1      47.674  27.618  23.053  1.00  0.00     0.001 A 
ATOM     83  C   UNL A   1      48.699  26.804  23.528  1.00  0.00     0.000 A 
ENDBRANCH  65  78
ENDBRANCH  39  40
ENDBRANCH  32  34
ENDBRANCH  31  32
ENDBRANCH  30  31
ENDBRANCH  29  30
ENDBRANCH  28  29
ENDBRANCH  27  28
ENDBRANCH   1  27
TORSDOF 20
ENDMDL
MODEL 2
REMARK VINA RESULT:     -10.7      0.638      5.883
REMARK SMILES O=C1CC[C@H](CNC(=O)N[C@@H]2C=C[C@@H](C(=O)OCCOCCOCCOC(=O)c3ccc(-c4c5nc(c(-c6ccccc6)c6ccc([nH]6)c(-c6ccccc6)c6nc(c(-c7ccccc7)c7ccc4[nH]7)C=C6)C=C5)cc3)C2)N1
REMARK SMILES IDX 21 1 20 2 19 3 18 4 17 5 15 6 16 7 14 8 11 9 12 10 77 11
REMARK SMILES IDX 13 12 10 13 7 14 8 15 9 17 6 19 5 20 1 21 2 22 3 23 78 24
REMARK SMILES IDX 4 25 22 27 23 28 24 29 25 30 26 31 27 32 28 33 29 34 30 35
REMARK SMILES IDX 76 36 31 37 75 38 32 39 33 40 34 41 69 42 35 43 74 44 68 45
REMARK SMILES IDX 70 46 36 47 73 48 67 49 66 50 37 52 59 53 44 54 58 55 45 56
REMARK SMILES IDX 48 57 57 58 71 59 46 60 47 61 56 63 72 64 49 65 38 66 39 67
REMARK SMILES IDX 43 68 40 69 42 70 41 71 60 72 61 73 65 74 62 75 64 76 63 77
REMARK SMILES IDX 50 78 51 79 55 80 52 81 54 82 53 83
REMARK H PARENT 7 16 10 18 78 26 70 51 48 62
REMARK Flexibility Score: inf
ROOT
ATOM      1  C   UNL A   1      33.302  35.734  29.771  1.00  0.00     0.188 C 
ENDROOT
BRANCH   1   2
ATOM      2  O   UNL A   1      32.744  34.578  29.170  1.00  0.00    -0.376 OA
BRANCH   2   3
ATOM      3  C   UNL A   1      33.430  33.957  28.091  1.00  0.00     0.202 C 
BRANCH   3   4
ATOM      4  C   UNL A   1      34.117  32.616  28.360  1.00  0.00     0.261 C 
BRANCH   4   5
ATOM      5  O   UNL A   1      33.407  31.516  27.768  1.00  0.00    -0.463 OA
BRANCH   5   6
ATOM      6  C   UNL A   1      34.158  30.452  27.374  1.00  0.00     0.312 C 
ATOM      7  O   UNL A   1      35.363  30.350  27.574  1.00  0.00    -0.252 OA
BRANCH   6   8
ATOM      8  C   UNL A   1      33.308  29.342  26.743  1.00  0.00     0.124 C 
ATOM      9  C   UNL A   1      32.046  28.980  24.625  1.00  0.00     0.107 C 
ATOM     10  C   UNL A   1      33.398  28.341  24.609  1.00  0.00    -0.006 C 
ATOM     11  C   UNL A   1      32.107  29.803  25.910  1.00  0.00     0.048 C 
ATOM     12  C   UNL A   1      34.084  28.544  25.741  1.00  0.00    -0.014 C 
BRANCH   9  13
ATOM     13  N   UNL A   1      31.027  27.954  24.641  1.00  0.00    -0.332 N 
ATOM     14  N   UNL A   1      29.781  28.191  22.629  1.00  0.00    -0.336 N 
ATOM     15  C   UNL A   1      30.095  27.551  23.767  1.00  0.00     0.315 C 
ATOM     16  H   UNL A   1      29.182  27.673  22.045  1.00  0.00     0.165 HD
ATOM     17  O   UNL A   1      29.470  26.521  24.027  1.00  0.00    -0.249 OA
ATOM     18  H   UNL A   1      31.016  27.438  25.480  1.00  0.00     0.165 HD
BRANCH  14  19
ATOM     19  C   UNL A   1      30.138  29.484  22.079  1.00  0.00     0.142 C 
BRANCH  19  20
ATOM     20  C   UNL A   1      28.964  30.462  21.900  1.00  0.00     0.101 C 
ATOM     21  O   UNL A   1      28.962  33.783  23.068  1.00  0.00    -0.275 OA
ATOM     22  C   UNL A   1      28.729  32.619  22.852  1.00  0.00     0.220 C 
ATOM     23  C   UNL A   1      27.603  31.805  23.429  1.00  0.00     0.102 C 
ATOM     24  N   UNL A   1      29.433  31.820  21.984  1.00  0.00    -0.352 N 
ATOM     25  C   UNL A   1      27.893  30.368  22.989  1.00  0.00     0.036 C 
ATOM     26  H   UNL A   1      30.199  32.151  21.459  1.00  0.00     0.163 HD
ENDBRANCH  19  20
ENDBRANCH  14  19
ENDBRANCH   9  13
ENDBRANCH   6   8
ENDBRANCH   5   6
ENDBRANCH   4   5
ENDBRANCH   3   4
ENDBRANCH   2   3
ENDBRANCH   1   2
BRANCH   1  27
ATOM     27  C   UNL A   1      32.903  36.155  31.196  1.00  0.00     0.188 C 
BRANCH  27  28
ATOM     28  O   UNL A   1      32.751  35.237  32.256  1.00  0.00    -0.376 OA
BRANCH  28  29
ATOM     29  C   UNL A   1      33.907  34.737  32.906  1.00  0.00     0.202 C 
BRANCH  29  30
ATOM     30  C   UNL A   1      34.015  33.226  33.117  1.00  0.00     0.261 C 
BRANCH  30  31
ATOM     31  O   UNL A   1      35.048  32.616  32.321  1.00  0.00    -0.460 OA
BRANCH  31  32
ATOM     32  C   UNL A   1      36.164  32.278  33.008  1.00  0.00     0.338 C 
ATOM     33  O   UNL A   1      36.365  32.379  34.206  1.00  0.00    -0.246 OA
BRANCH  32  34
ATOM     34  C   UNL A   1      37.124  31.589  32.142  1.00  0.00     0.060 A 
ATOM     35  C   UNL A   1      38.067  30.740  32.739  1.00  0.00     0.016 A 
ATOM     36  C   UNL A   1      37.191  31.902  30.786  1.00  0.00     0.016 A 
ATOM     37  C   UNL A   1      39.106  30.215  31.978  1.00  0.00     0.010 A 
ATOM     38  C   UNL A   1      38.240  31.387  30.029  1.00  0.00     0.010 A 
ATOM     39  C   UNL A   1      39.212  30.563  30.626  1.00  0.00    -0.014 A 
BRANCH  39  40
ATOM     40  C   UNL A   1      40.381  30.131  29.835  1.00  0.00     0.031 A 
ATOM     41  C   UNL A   1      40.363  28.783  29.175  1.00  0.00     0.074 A 
ATOM     42  C   UNL A   1      41.459  30.929  29.759  1.00  0.00     0.049 A 
ATOM     43  N   UNL A   1      41.335  28.144  28.578  1.00  0.00    -0.248 NA
ATOM     44  C   UNL A   1      39.085  28.052  29.200  1.00  0.00     0.031 C 
ATOM     45  C   UNL A   1      41.558  32.271  30.332  1.00  0.00     0.029 A 
ATOM     46  N   UNL A   1      42.688  30.712  29.191  1.00  0.00    -0.354 N 
ATOM     47  C   UNL A   1      40.795  26.927  28.180  1.00  0.00     0.074 A 
ATOM     48  C   UNL A   1      39.413  26.913  28.607  1.00  0.00     0.031 C 
ATOM     49  C   UNL A   1      42.794  32.748  30.113  1.00  0.00     0.029 A 
ATOM     50  C   UNL A   1      43.581  31.727  29.430  1.00  0.00     0.049 A 
ATOM     51  H   UNL A   1      42.906  29.909  28.666  1.00  0.00     0.167 HD
ATOM     52  C   UNL A   1      41.409  25.912  27.528  1.00  0.00     0.031 A 
ATOM     53  C   UNL A   1      44.898  31.799  29.165  1.00  0.00     0.031 A 
ATOM     54  C   UNL A   1      42.788  25.943  27.115  1.00  0.00     0.049 A 
ATOM     55  C   UNL A   1      45.566  30.634  28.486  1.00  0.00     0.074 A 
ATOM     56  C   UNL A   1      43.503  24.982  26.425  1.00  0.00     0.029 A 
ATOM     57  N   UNL A   1      43.660  26.992  27.366  1.00  0.00    -0.354 N 
ATOM     58  N   UNL A   1      45.043  29.497  28.093  1.00  0.00    -0.248 NA
ATOM     59  C   UNL A   1      47.002  30.764  28.212  1.00  0.00     0.031 C 
ATOM     60  C   UNL A   1      44.824  25.426  26.304  1.00  0.00     0.029 A 
ATOM     61  C   UNL A   1      44.914  26.690  26.868  1.00  0.00     0.049 A 
ATOM     62  H   UNL A   1      43.422  27.827  27.829  1.00  0.00     0.167 HD
ATOM     63  C   UNL A   1      46.080  28.789  27.501  1.00  0.00     0.074 A 
ATOM     64  C   UNL A   1      47.256  29.632  27.572  1.00  0.00     0.031 C 
ATOM     65  C   UNL A   1      46.065  27.551  26.949  1.00  0.00     0.031 A 
BRANCH  52  66
ATOM     66  C   UNL A   1      40.614  24.666  27.254  1.00  0.00    -0.014 A 
ATOM     67  C   UNL A   1      39.484  24.683  26.423  1.00  0.00     0.009 A 
ATOM     68  C   UNL A   1      41.042  23.441  27.791  1.00  0.00     0.009 A 
ATOM     69  C   UNL A   1      38.789  23.503  26.150  1.00  0.00     0.001 A 
ATOM     70  C   UNL A   1      40.361  22.259  27.498  1.00  0.00     0.001 A 
ATOM     71  C   UNL A   1      39.232  22.292  26.681  1.00  0.00     0.000 A 
ENDBRANCH  52  66
BRANCH  53  72
ATOM     72  C   UNL A   1      45.680  32.991  29.584  1.00  0.00    -0.014 A 
ATOM     73  C   UNL A   1      46.285  33.045  30.849  1.00  0.00     0.009 A 
ATOM     74  C   UNL A   1      45.813  34.092  28.723  1.00  0.00     0.009 A 
ATOM     75  C   UNL A   1      46.978  34.189  31.253  1.00  0.00     0.001 A 
ATOM     76  C   UNL A   1      46.535  35.220  29.116  1.00  0.00     0.001 A 
ATOM     77  C   UNL A   1      47.107  35.272  30.386  1.00  0.00     0.000 A 
ENDBRANCH  53  72
BRANCH  65  78
ATOM     78  C   UNL A   1      47.348  27.058  26.345  1.00  0.00    -0.014 A 
ATOM     79  C   UNL A   1      47.675  27.327  25.006  1.00  0.00     0.009 A 
ATOM     80  C   UNL A   1      48.259  26.347  27.141  1.00  0.00     0.009 A 
ATOM     81  C   UNL A   1      48.876  26.862  24.469  1.00  0.00     0.001 A 
ATOM     82  C   UNL A   1      49.473  25.910  26.609  1.00  0.00     0.001 A 
ATOM     83  C   UNL A   1      49.775  26.159  25.272  1.00  0.00     0.000 A 
ENDBRANCH  65  78
ENDBRANCH  39  40
ENDBRANCH  32  34
ENDBRANCH  31  32
ENDBRANCH  30  31
ENDBRANCH  29  30
ENDBRANCH  28  29
ENDBRANCH  27  28
ENDBRANCH   1  27
TORSDOF 20
ENDMDL
MODEL 3
REMARK VINA RESULT:     -10.4      3.527      5.556
REMARK SMILES O=C1CC[C@H](CNC(=O)N[C@@H]2C=C[C@@H](C(=O)OCCOCCOCCOC(=O)c3ccc(-c4c5nc(c(-c6ccccc6)c6ccc([nH]6)c(-c6ccccc6)c6nc(c(-c7ccccc7)c7ccc4[nH]7)C=C6)C=C5)cc3)C2)N1
REMARK SMILES IDX 21 1 20 2 19 3 18 4 17 5 15 6 16 7 14 8 11 9 12 10 77 11
REMARK SMILES IDX 13 12 10 13 7 14 8 15 9 17 6 19 5 20 1 21 2 22 3 23 78 24
REMARK SMILES IDX 4 25 22 27 23 28 24 29 25 30 26 31 27 32 28 33 29 34 30 35
REMARK SMILES IDX 76 36 31 37 75 38 32 39 33 40 34 41 69 42 35 43 74 44 68 45
REMARK SMILES IDX 70 46 36 47 73 48 67 49 66 50 37 52 59 53 44 54 58 55 45 56
REMARK SMILES IDX 48 57 57 58 71 59 46 60 47 61 56 63 72 64 49 65 38 66 39 67
REMARK SMILES IDX 43 68 40 69 42 70 41 71 60 72 61 73 65 74 62 75 64 76 63 77
REMARK SMILES IDX 50 78 51 79 55 80 52 81 54 82 53 83
REMARK H PARENT 7 16 10 18 78 26 70 51 48 62
REMARK Flexibility Score: inf
ROOT
ATOM      1  C   UNL A   1      32.613  31.002  26.909  1.00  0.00     0.188 C 
ENDROOT
BRANCH   1   2
ATOM      2  O   UNL A   1      33.702  30.270  26.372  1.00  0.00    -0.376 OA
BRANCH   2   3
ATOM      3  C   UNL A   1      33.521  28.900  26.040  1.00  0.00     0.202 C 
BRANCH   3   4
ATOM      4  C   UNL A   1      32.166  28.478  25.467  1.00  0.00     0.261 C 
BRANCH   4   5
ATOM      5  O   UNL A   1      32.139  27.087  25.112  1.00  0.00    -0.463 OA
BRANCH   5   6
ATOM      6  C   UNL A   1      32.328  26.198  26.125  1.00  0.00     0.312 C 
ATOM      7  O   UNL A   1      31.588  26.098  27.098  1.00  0.00    -0.252 OA
BRANCH   6   8
ATOM      8  C   UNL A   1      33.513  25.260  25.864  1.00  0.00     0.124 C 
ATOM      9  C   UNL A   1      33.858  22.908  25.115  1.00  0.00     0.107 C 
ATOM     10  C   UNL A   1      34.036  23.899  24.009  1.00  0.00    -0.006 C 
ATOM     11  C   UNL A   1      33.301  23.788  26.233  1.00  0.00     0.048 C 
ATOM     12  C   UNL A   1      33.840  25.163  24.405  1.00  0.00    -0.014 C 
BRANCH   9  13
ATOM     13  N   UNL A   1      35.132  22.304  25.433  1.00  0.00    -0.332 N 
ATOM     14  N   UNL A   1      34.892  19.965  25.074  1.00  0.00    -0.336 N 
ATOM     15  C   UNL A   1      35.619  21.058  25.353  1.00  0.00     0.315 C 
ATOM     16  H   UNL A   1      35.441  19.165  24.913  1.00  0.00     0.165 HD
ATOM     17  O   UNL A   1      36.825  20.898  25.559  1.00  0.00    -0.249 OA
ATOM     18  H   UNL A   1      35.786  22.951  25.785  1.00  0.00     0.165 HD
BRANCH  14  19
ATOM     19  C   UNL A   1      33.469  19.714  24.961  1.00  0.00     0.142 C 
BRANCH  19  20
ATOM     20  C   UNL A   1      33.080  18.237  24.781  1.00  0.00     0.101 C 
ATOM     21  O   UNL A   1      35.292  15.539  25.254  1.00  0.00    -0.275 OA
ATOM     22  C   UNL A   1      34.519  16.355  24.814  1.00  0.00     0.220 C 
ATOM     23  C   UNL A   1      33.943  16.390  23.426  1.00  0.00     0.102 C 
ATOM     24  N   UNL A   1      33.976  17.394  25.530  1.00  0.00    -0.352 N 
ATOM     25  C   UNL A   1      33.197  17.724  23.344  1.00  0.00     0.036 C 
ATOM     26  H   UNL A   1      34.181  17.550  26.481  1.00  0.00     0.163 HD
ENDBRANCH  19  20
ENDBRANCH  14  19
ENDBRANCH   9  13
ENDBRANCH   6   8
ENDBRANCH   5   6
ENDBRANCH   4   5
ENDBRANCH   3   4
ENDBRANCH   2   3
ENDBRANCH   1   2
BRANCH   1  27
ATOM     27  C   UNL A   1      32.835  32.364  27.591  1.00  0.00     0.188 C 
BRANCH  27  28
ATOM     28  O   UNL A   1      33.988  32.668  28.344  1.00  0.00    -0.376 OA
BRANCH  28  29
ATOM     29  C   UNL A   1      34.024  33.867  29.099  1.00  0.00     0.202 C 
BRANCH  29  30
ATOM     30  C   UNL A   1      34.400  33.774  30.578  1.00  0.00     0.261 C 
BRANCH  30  31
ATOM     31  O   UNL A   1      34.499  32.419  31.053  1.00  0.00    -0.460 OA
BRANCH  31  32
ATOM     32  C   UNL A   1      35.456  32.217  31.987  1.00  0.00     0.338 C 
ATOM     33  O   UNL A   1      35.417  32.501  33.173  1.00  0.00    -0.246 OA
BRANCH  32  34
ATOM     34  C   UNL A   1      36.566  31.432  31.440  1.00  0.00     0.060 A 
ATOM     35  C   UNL A   1      37.527  30.930  32.331  1.00  0.00     0.016 A 
ATOM     36  C   UNL A   1      36.737  31.332  30.062  1.00  0.00     0.016 A 
ATOM     37  C   UNL A   1      38.687  30.342  31.838  1.00  0.00     0.010 A 
ATOM     38  C   UNL A   1      37.906  30.755  29.570  1.00  0.00     0.010 A 
ATOM     39  C   UNL A   1      38.893  30.282  30.454  1.00  0.00    -0.014 A 
BRANCH  39  40
ATOM     40  C   UNL A   1      40.174  29.789  29.912  1.00  0.00     0.031 A 
ATOM     41  C   UNL A   1      41.316  30.747  29.740  1.00  0.00     0.074 A 
ATOM     42  C   UNL A   1      40.281  28.504  29.537  1.00  0.00     0.049 A 
ATOM     43  N   UNL A   1      42.461  30.565  29.137  1.00  0.00    -0.248 NA
ATOM     44  C   UNL A   1      41.142  32.092  30.313  1.00  0.00     0.031 C 
ATOM     45  C   UNL A   1      39.243  27.487  29.700  1.00  0.00     0.029 A 
ATOM     46  N   UNL A   1      41.307  27.842  28.914  1.00  0.00    -0.354 N 
ATOM     47  C   UNL A   1      43.134  31.778  29.233  1.00  0.00     0.074 A 
ATOM     48  C   UNL A   1      42.268  32.690  29.948  1.00  0.00     0.031 C 
ATOM     49  C   UNL A   1      39.672  26.335  29.161  1.00  0.00     0.029 A 
ATOM     50  C   UNL A   1      40.992  26.549  28.577  1.00  0.00     0.049 A 
ATOM     51  H   UNL A   1      42.181  28.253  28.727  1.00  0.00     0.167 HD
ATOM     52  C   UNL A   1      44.359  32.097  28.754  1.00  0.00     0.031 A 
ATOM     53  C   UNL A   1      41.676  25.657  27.838  1.00  0.00     0.031 A 
ATOM     54  C   UNL A   1      45.204  31.175  28.040  1.00  0.00     0.049 A 
ATOM     55  C   UNL A   1      43.012  26.055  27.274  1.00  0.00     0.074 A 
ATOM     56  C   UNL A   1      46.474  31.385  27.535  1.00  0.00     0.029 A 
ATOM     57  N   UNL A   1      44.855  29.871  27.725  1.00  0.00    -0.354 N 
ATOM     58  N   UNL A   1      43.650  27.196  27.390  1.00  0.00    -0.248 NA
ATOM     59  C   UNL A   1      43.724  25.044  26.482  1.00  0.00     0.031 C 
ATOM     60  C   UNL A   1      46.873  30.223  26.867  1.00  0.00     0.029 A 
ATOM     61  C   UNL A   1      45.875  29.271  27.009  1.00  0.00     0.049 A 
ATOM     62  H   UNL A   1      44.008  29.435  27.975  1.00  0.00     0.167 HD
ATOM     63  C   UNL A   1      44.849  27.030  26.708  1.00  0.00     0.074 A 
ATOM     64  C   UNL A   1      44.855  25.674  26.198  1.00  0.00     0.031 C 
ATOM     65  C   UNL A   1      45.855  27.918  26.518  1.00  0.00     0.031 A 
BRANCH  52  66
ATOM     66  C   UNL A   1      44.847  33.505  28.945  1.00  0.00    -0.014 A 
ATOM     67  C   UNL A   1      45.545  33.890  30.099  1.00  0.00     0.009 A 
ATOM     68  C   UNL A   1      44.656  34.448  27.922  1.00  0.00     0.009 A 
ATOM     69  C   UNL A   1      46.026  35.195  30.232  1.00  0.00     0.001 A 
ATOM     70  C   UNL A   1      45.158  35.744  28.046  1.00  0.00     0.001 A 
ATOM     71  C   UNL A   1      45.838  36.118  29.203  1.00  0.00     0.000 A 
ENDBRANCH  52  66
BRANCH  53  72
ATOM     72  C   UNL A   1      41.092  24.321  27.549  1.00  0.00    -0.014 A 
ATOM     73  C   UNL A   1      40.010  24.186  26.667  1.00  0.00     0.009 A 
ATOM     74  C   UNL A   1      41.607  23.171  28.169  1.00  0.00     0.009 A 
ATOM     75  C   UNL A   1      39.436  22.933  26.438  1.00  0.00     0.001 A 
ATOM     76  C   UNL A   1      41.054  21.915  27.913  1.00  0.00     0.001 A 
ATOM     77  C   UNL A   1      39.960  21.799  27.056  1.00  0.00     0.000 A 
ENDBRANCH  53  72
BRANCH  65  78
ATOM     78  C   UNL A   1      47.058  27.433  25.761  1.00  0.00    -0.014 A 
ATOM     79  C   UNL A   1      47.174  27.624  24.375  1.00  0.00     0.009 A 
ATOM     80  C   UNL A   1      48.106  26.808  26.456  1.00  0.00     0.009 A 
ATOM     81  C   UNL A   1      48.304  27.167  23.695  1.00  0.00     0.001 A 
ATOM     82  C   UNL A   1      49.247  26.381  25.777  1.00  0.00     0.001 A 
ATOM     83  C   UNL A   1      49.341  26.551  24.398  1.00  0.00     0.000 A 
ENDBRANCH  65  78
ENDBRANCH  39  40
ENDBRANCH  32  34
ENDBRANCH  31  32
ENDBRANCH  30  31
ENDBRANCH  29  30
ENDBRANCH  28  29
ENDBRANCH  27  28
ENDBRANCH   1  27
TORSDOF 20
ENDMDL
