MODEL 1
REMARK VINA RESULT:     -10.4      0.000      0.000
REMARK SMILES O=C(OCCOCCOCCOC(=O)c1ccc(-c2c3nc(c(-c4ccccc4)c4ccc([nH]4)c(-c4ccccc4)c4nc(c(-c5ccccc5)c5ccc2[nH]5)C=C4)C=C3)cc1)C1=Cc2c(ccc(Cl)c2Cl)O[C@H]1C(F)(F)F
REMARK SMILES IDX 8 1 7 2 6 3 5 4 4 5 3 6 2 7 1 8 63 9 64 10 74 11 65 12 73 13
REMARK SMILES IDX 66 14 71 15 67 16 69 17 72 18 68 19 70 20 75 21 76 22 77 23
REMARK SMILES IDX 78 24 9 25 10 26 11 27 12 28 13 29 14 30 15 31 16 32 62 33
REMARK SMILES IDX 17 34 61 35 18 36 19 37 20 38 55 39 21 40 60 41 54 42 56 43
REMARK SMILES IDX 22 44 59 45 53 46 52 47 23 49 45 50 30 51 44 52 31 53 34 54
REMARK SMILES IDX 43 55 57 56 32 57 33 58 42 60 58 61 35 62 24 63 25 64 29 65
REMARK SMILES IDX 26 66 28 67 27 68 46 69 47 70 51 71 48 72 50 73 49 74 36 75
REMARK SMILES IDX 37 76 41 77 38 78 40 79 39 80
REMARK H PARENT 56 48 34 59
REMARK Flexibility Score: inf
ROOT
ATOM      1  C   UNL A   1      34.408  34.278  28.144  1.00  0.00     0.188 C 
ENDROOT
BRANCH   1   2
ATOM      2  C   UNL A   1      33.629  32.963  27.990  1.00  0.00     0.188 C 
BRANCH   2   3
ATOM      3  O   UNL A   1      34.464  31.824  27.827  1.00  0.00    -0.376 OA
BRANCH   3   4
ATOM      4  C   UNL A   1      33.736  30.720  27.291  1.00  0.00     0.202 C 
BRANCH   4   5
ATOM      5  C   UNL A   1      34.596  29.447  27.270  1.00  0.00     0.261 C 
BRANCH   5   6
ATOM      6  O   UNL A   1      33.903  28.297  26.719  1.00  0.00    -0.460 OA
BRANCH   6   7
ATOM      7  C   UNL A   1      33.693  27.899  25.445  1.00  0.00     0.338 C 
ATOM      8  O   UNL A   1      33.913  28.702  24.542  1.00  0.00    -0.246 OA
BRANCH   7   9
ATOM      9  C   UNL A   1      33.259  26.531  25.062  1.00  0.00     0.087 C 
ATOM     10  C   UNL A   1      33.862  25.416  25.475  1.00  0.00     0.029 C 
ATOM     11  C   UNL A   1      32.041  26.445  24.148  1.00  0.00     0.316 C 
ATOM     12  C   UNL A   1      33.554  24.115  24.911  1.00  0.00     0.037 A 
ATOM     13  O   UNL A   1      31.763  25.111  23.606  1.00  0.00    -0.475 OA
ATOM     14  C   UNL A   1      32.475  24.030  24.036  1.00  0.00     0.129 A 
ATOM     15  C   UNL A   1      34.335  22.967  25.182  1.00  0.00     0.070 A 
ATOM     16  C   UNL A   1      32.108  22.792  23.507  1.00  0.00     0.049 A 
ATOM     17  C   UNL A   1      33.969  21.732  24.636  1.00  0.00     0.060 A 
ATOM     18  Cl  UNL A   1      35.797  23.090  26.124  1.00  0.00    -0.082 Cl
ATOM     19  C   UNL A   1      32.842  21.645  23.819  1.00  0.00     0.026 A 
ATOM     20  Cl  UNL A   1      34.874  20.286  24.918  1.00  0.00    -0.083 Cl
BRANCH  11  21
ATOM     21  C   UNL A   1      30.736  26.926  24.832  1.00  0.00     0.430 C 
ATOM     22  F   UNL A   1      29.645  26.622  24.086  1.00  0.00    -0.167 F 
ATOM     23  F   UNL A   1      30.538  26.416  26.063  1.00  0.00    -0.167 F 
ATOM     24  F   UNL A   1      30.741  28.277  24.985  1.00  0.00    -0.167 F 
ENDBRANCH  11  21
ENDBRANCH   7   9
ENDBRANCH   6   7
ENDBRANCH   5   6
ENDBRANCH   4   5
ENDBRANCH   3   4
ENDBRANCH   2   3
ENDBRANCH   1   2
BRANCH   1  25
ATOM     25  O   UNL A   1      34.998  34.550  29.410  1.00  0.00    -0.376 OA
BRANCH  25  26
ATOM     26  C   UNL A   1      34.129  34.890  30.497  1.00  0.00     0.202 C 
BRANCH  26  27
ATOM     27  C   UNL A   1      34.105  33.967  31.721  1.00  0.00     0.261 C 
BRANCH  27  28
ATOM     28  O   UNL A   1      34.721  32.692  31.464  1.00  0.00    -0.460 OA
BRANCH  28  29
ATOM     29  C   UNL A   1      35.590  32.275  32.407  1.00  0.00     0.338 C 
ATOM     30  O   UNL A   1      35.549  32.490  33.618  1.00  0.00    -0.246 OA
BRANCH  29  31
ATOM     31  C   UNL A   1      36.659  31.485  31.795  1.00  0.00     0.060 A 
ATOM     32  C   UNL A   1      37.563  30.775  32.594  1.00  0.00     0.016 A 
ATOM     33  C   UNL A   1      36.847  31.580  30.416  1.00  0.00     0.016 A 
ATOM     34  C   UNL A   1      38.668  30.157  32.011  1.00  0.00     0.010 A 
ATOM     35  C   UNL A   1      37.956  30.970  29.835  1.00  0.00     0.010 A 
ATOM     36  C   UNL A   1      38.882  30.278  30.633  1.00  0.00    -0.014 A 
BRANCH  36  37
ATOM     37  C   UNL A   1      40.136  29.790  30.023  1.00  0.00     0.031 A 
ATOM     38  C   UNL A   1      41.273  30.751  29.834  1.00  0.00     0.074 A 
ATOM     39  C   UNL A   1      40.228  28.518  29.602  1.00  0.00     0.049 A 
ATOM     40  N   UNL A   1      42.404  30.577  29.201  1.00  0.00    -0.248 NA
ATOM     41  C   UNL A   1      41.116  32.086  30.435  1.00  0.00     0.031 C 
ATOM     42  C   UNL A   1      39.201  27.493  29.780  1.00  0.00     0.029 A 
ATOM     43  N   UNL A   1      41.229  27.881  28.915  1.00  0.00    -0.354 N 
ATOM     44  C   UNL A   1      43.086  31.782  29.314  1.00  0.00     0.074 A 
ATOM     45  C   UNL A   1      42.244  32.681  30.071  1.00  0.00     0.031 C 
ATOM     46  C   UNL A   1      39.612  26.359  29.186  1.00  0.00     0.029 A 
ATOM     47  C   UNL A   1      40.908  26.596  28.556  1.00  0.00     0.049 A 
ATOM     48  H   UNL A   1      42.092  28.304  28.701  1.00  0.00     0.167 HD
ATOM     49  C   UNL A   1      44.302  32.108  28.818  1.00  0.00     0.031 A 
ATOM     50  C   UNL A   1      41.571  25.728  27.769  1.00  0.00     0.031 A 
ATOM     51  C   UNL A   1      45.122  31.214  28.047  1.00  0.00     0.049 A 
ATOM     52  C   UNL A   1      42.880  26.149  27.157  1.00  0.00     0.074 A 
ATOM     53  C   UNL A   1      46.380  31.438  27.517  1.00  0.00     0.029 A 
ATOM     54  N   UNL A   1      44.753  29.929  27.682  1.00  0.00    -0.354 N 
ATOM     55  N   UNL A   1      43.535  27.277  27.299  1.00  0.00    -0.248 NA
ATOM     56  C   UNL A   1      43.538  25.181  26.268  1.00  0.00     0.031 C 
ATOM     57  C   UNL A   1      46.749  30.307  26.782  1.00  0.00     0.029 A 
ATOM     58  C   UNL A   1      45.741  29.362  26.897  1.00  0.00     0.049 A 
ATOM     59  H   UNL A   1      43.914  29.486  27.942  1.00  0.00     0.167 HD
ATOM     60  C   UNL A   1      44.684  27.148  26.530  1.00  0.00     0.074 A 
ATOM     61  C   UNL A   1      44.650  25.825  25.942  1.00  0.00     0.031 C 
ATOM     62  C   UNL A   1      45.679  28.045  26.321  1.00  0.00     0.031 A 
BRANCH  49  63
ATOM     63  C   UNL A   1      44.799  33.505  29.050  1.00  0.00    -0.014 A 
ATOM     64  C   UNL A   1      45.545  33.833  30.193  1.00  0.00     0.009 A 
ATOM     65  C   UNL A   1      44.564  34.493  28.081  1.00  0.00     0.009 A 
ATOM     66  C   UNL A   1      46.031  35.131  30.367  1.00  0.00     0.001 A 
ATOM     67  C   UNL A   1      45.068  35.783  28.249  1.00  0.00     0.001 A 
ATOM     68  C   UNL A   1      45.798  36.103  29.393  1.00  0.00     0.000 A 
ENDBRANCH  49  63
BRANCH  50  69
ATOM     69  C   UNL A   1      40.984  24.399  27.455  1.00  0.00    -0.014 A 
ATOM     70  C   UNL A   1      39.853  24.290  26.632  1.00  0.00     0.009 A 
ATOM     71  C   UNL A   1      41.532  23.232  28.011  1.00  0.00     0.009 A 
ATOM     72  C   UNL A   1      39.265  23.043  26.400  1.00  0.00     0.001 A 
ATOM     73  C   UNL A   1      40.960  21.985  27.754  1.00  0.00     0.001 A 
ATOM     74  C   UNL A   1      39.820  21.893  26.959  1.00  0.00     0.000 A 
ENDBRANCH  50  69
BRANCH  62  75
ATOM     75  C   UNL A   1      46.810  27.619  25.430  1.00  0.00    -0.014 A 
ATOM     76  C   UNL A   1      47.856  26.825  25.923  1.00  0.00     0.009 A 
ATOM     77  C   UNL A   1      46.801  27.975  24.073  1.00  0.00     0.009 A 
ATOM     78  C   UNL A   1      48.887  26.415  25.076  1.00  0.00     0.001 A 
ATOM     79  C   UNL A   1      47.819  27.541  23.224  1.00  0.00     0.001 A 
ATOM     80  C   UNL A   1      48.864  26.768  23.727  1.00  0.00     0.000 A 
ENDBRANCH  62  75
ENDBRANCH  36  37
ENDBRANCH  29  31
ENDBRANCH  28  29
ENDBRANCH  27  28
ENDBRANCH  26  27
ENDBRANCH  25  26
ENDBRANCH   1  25
TORSDOF 18
ENDMDL
MODEL 2
REMARK VINA RESULT:     -10.3      4.807      7.569
REMARK SMILES O=C(OCCOCCOCCOC(=O)c1ccc(-c2c3nc(c(-c4ccccc4)c4ccc([nH]4)c(-c4ccccc4)c4nc(c(-c5ccccc5)c5ccc2[nH]5)C=C4)C=C3)cc1)C1=Cc2c(ccc(Cl)c2Cl)O[C@H]1C(F)(F)F
REMARK SMILES IDX 8 1 7 2 6 3 5 4 4 5 3 6 2 7 1 8 63 9 64 10 74 11 65 12 73 13
REMARK SMILES IDX 66 14 71 15 67 16 69 17 72 18 68 19 70 20 75 21 76 22 77 23
REMARK SMILES IDX 78 24 9 25 10 26 11 27 12 28 13 29 14 30 15 31 16 32 62 33
REMARK SMILES IDX 17 34 61 35 18 36 19 37 20 38 55 39 21 40 60 41 54 42 56 43
REMARK SMILES IDX 22 44 59 45 53 46 52 47 23 49 45 50 30 51 44 52 31 53 34 54
REMARK SMILES IDX 43 55 57 56 32 57 33 58 42 60 58 61 35 62 24 63 25 64 29 65
REMARK SMILES IDX 26 66 28 67 27 68 46 69 47 70 51 71 48 72 50 73 49 74 36 75
REMARK SMILES IDX 37 76 41 77 38 78 40 79 39 80
REMARK H PARENT 56 48 34 59
REMARK Flexibility Score: inf
ROOT
ATOM      1  C   UNL A   1      33.587  35.818  28.857  1.00  0.00     0.188 C 
ENDROOT
BRANCH   1   2
ATOM      2  C   UNL A   1      32.911  35.748  30.235  1.00  0.00     0.188 C 
BRANCH   2   3
ATOM      3  O   UNL A   1      32.589  37.024  30.774  1.00  0.00    -0.376 OA
BRANCH   3   4
ATOM      4  C   UNL A   1      33.147  37.192  32.077  1.00  0.00     0.202 C 
BRANCH   4   5
ATOM      5  C   UNL A   1      33.222  35.853  32.824  1.00  0.00     0.261 C 
BRANCH   5   6
ATOM      6  O   UNL A   1      34.484  35.652  33.513  1.00  0.00    -0.460 OA
BRANCH   6   7
ATOM      7  C   UNL A   1      35.229  34.543  33.719  1.00  0.00     0.338 C 
ATOM      8  O   UNL A   1      34.684  33.563  34.219  1.00  0.00    -0.246 OA
BRANCH   7   9
ATOM      9  C   UNL A   1      36.657  34.418  33.332  1.00  0.00     0.087 C 
ATOM     10  C   UNL A   1      37.667  34.408  34.203  1.00  0.00     0.029 C 
ATOM     11  C   UNL A   1      36.939  34.286  31.839  1.00  0.00     0.316 C 
ATOM     12  C   UNL A   1      39.052  34.506  33.784  1.00  0.00     0.037 A 
ATOM     13  O   UNL A   1      38.352  34.385  31.462  1.00  0.00    -0.475 OA
ATOM     14  C   UNL A   1      39.320  34.438  32.420  1.00  0.00     0.129 A 
ATOM     15  C   UNL A   1      40.108  34.717  34.702  1.00  0.00     0.070 A 
ATOM     16  C   UNL A   1      40.640  34.477  31.972  1.00  0.00     0.049 A 
ATOM     17  C   UNL A   1      41.429  34.770  34.242  1.00  0.00     0.060 A 
ATOM     18  Cl  UNL A   1      39.776  34.993  36.391  1.00  0.00    -0.082 Cl
ATOM     19  C   UNL A   1      41.692  34.626  32.880  1.00  0.00     0.026 A 
ATOM     20  Cl  UNL A   1      42.772  35.027  35.300  1.00  0.00    -0.083 Cl
BRANCH  11  21
ATOM     21  C   UNL A   1      36.412  32.958  31.239  1.00  0.00     0.430 C 
ATOM     22  F   UNL A   1      35.069  32.993  31.061  1.00  0.00    -0.167 F 
ATOM     23  F   UNL A   1      36.966  32.629  30.055  1.00  0.00    -0.167 F 
ATOM     24  F   UNL A   1      36.670  31.915  32.072  1.00  0.00    -0.167 F 
ENDBRANCH  11  21
ENDBRANCH   7   9
ENDBRANCH   6   7
ENDBRANCH   5   6
ENDBRANCH   4   5
ENDBRANCH   3   4
ENDBRANCH   2   3
ENDBRANCH   1   2
BRANCH   1  25
ATOM     25  O   UNL A   1      34.361  34.697  28.446  1.00  0.00    -0.376 OA
BRANCH  25  26
ATOM     26  C   UNL A   1      33.671  33.483  28.127  1.00  0.00     0.202 C 
BRANCH  26  27
ATOM     27  C   UNL A   1      34.499  32.272  27.685  1.00  0.00     0.261 C 
BRANCH  27  28
ATOM     28  O   UNL A   1      34.431  31.183  28.624  1.00  0.00    -0.460 OA
BRANCH  28  29
ATOM     29  C   UNL A   1      34.871  29.996  28.158  1.00  0.00     0.338 C 
ATOM     30  O   UNL A   1      34.225  29.134  27.563  1.00  0.00    -0.246 OA
BRANCH  29  31
ATOM     31  C   UNL A   1      36.295  29.834  28.454  1.00  0.00     0.060 A 
ATOM     32  C   UNL A   1      37.253  30.030  27.453  1.00  0.00     0.016 A 
ATOM     33  C   UNL A   1      36.659  29.333  29.704  1.00  0.00     0.016 A 
ATOM     34  C   UNL A   1      38.590  29.720  27.702  1.00  0.00     0.010 A 
ATOM     35  C   UNL A   1      37.992  29.015  29.949  1.00  0.00     0.010 A 
ATOM     36  C   UNL A   1      38.957  29.184  28.942  1.00  0.00    -0.014 A 
BRANCH  36  37
ATOM     37  C   UNL A   1      40.327  28.679  29.164  1.00  0.00     0.031 A 
ATOM     38  C   UNL A   1      41.377  29.625  29.669  1.00  0.00     0.074 A 
ATOM     39  C   UNL A   1      40.629  27.404  28.869  1.00  0.00     0.049 A 
ATOM     40  N   UNL A   1      42.664  29.436  29.803  1.00  0.00    -0.248 NA
ATOM     41  C   UNL A   1      40.918  30.965  30.074  1.00  0.00     0.031 C 
ATOM     42  C   UNL A   1      39.676  26.392  28.419  1.00  0.00     0.029 A 
ATOM     43  N   UNL A   1      41.836  26.753  28.882  1.00  0.00    -0.354 N 
ATOM     44  C   UNL A   1      43.170  30.633  30.293  1.00  0.00     0.074 A 
ATOM     45  C   UNL A   1      42.056  31.544  30.430  1.00  0.00     0.031 C 
ATOM     46  C   UNL A   1      40.341  25.251  28.166  1.00  0.00     0.029 A 
ATOM     47  C   UNL A   1      41.766  25.470  28.398  1.00  0.00     0.049 A 
ATOM     48  H   UNL A   1      42.670  27.164  29.206  1.00  0.00     0.167 HD
ATOM     49  C   UNL A   1      44.453  30.943  30.589  1.00  0.00     0.031 A 
ATOM     50  C   UNL A   1      42.751  24.591  28.134  1.00  0.00     0.031 A 
ATOM     51  C   UNL A   1      45.557  30.036  30.428  1.00  0.00     0.049 A 
ATOM     52  C   UNL A   1      44.178  24.995  28.390  1.00  0.00     0.074 A 
ATOM     53  C   UNL A   1      46.893  30.243  30.721  1.00  0.00     0.029 A 
ATOM     54  N   UNL A   1      45.451  28.754  29.913  1.00  0.00    -0.354 N 
ATOM     55  N   UNL A   1      44.645  26.115  28.888  1.00  0.00    -0.248 NA
ATOM     56  C   UNL A   1      45.217  24.015  28.039  1.00  0.00     0.031 C 
ATOM     57  C   UNL A   1      47.605  29.106  30.328  1.00  0.00     0.029 A 
ATOM     58  C   UNL A   1      46.704  28.172  29.839  1.00  0.00     0.049 A 
ATOM     59  H   UNL A   1      44.610  28.322  29.640  1.00  0.00     0.167 HD
ATOM     60  C   UNL A   1      46.025  25.970  28.921  1.00  0.00     0.074 A 
ATOM     61  C   UNL A   1      46.321  24.645  28.416  1.00  0.00     0.031 C 
ATOM     62  C   UNL A   1      46.970  26.854  29.327  1.00  0.00     0.031 A 
BRANCH  49  63
ATOM     63  C   UNL A   1      44.742  32.334  31.070  1.00  0.00    -0.014 A 
ATOM     64  C   UNL A   1      44.809  33.416  30.178  1.00  0.00     0.009 A 
ATOM     65  C   UNL A   1      44.893  32.574  32.445  1.00  0.00     0.009 A 
ATOM     66  C   UNL A   1      45.039  34.708  30.655  1.00  0.00     0.001 A 
ATOM     67  C   UNL A   1      45.103  33.868  32.920  1.00  0.00     0.001 A 
ATOM     68  C   UNL A   1      45.180  34.935  32.025  1.00  0.00     0.000 A 
ENDBRANCH  49  63
BRANCH  50  69
ATOM     69  C   UNL A   1      42.436  23.269  27.534  1.00  0.00    -0.014 A 
ATOM     70  C   UNL A   1      42.179  22.154  28.347  1.00  0.00     0.009 A 
ATOM     71  C   UNL A   1      42.428  23.105  26.139  1.00  0.00     0.009 A 
ATOM     72  C   UNL A   1      41.955  20.898  27.775  1.00  0.00     0.001 A 
ATOM     73  C   UNL A   1      42.175  21.857  25.570  1.00  0.00     0.001 A 
ATOM     74  C   UNL A   1      41.950  20.752  26.389  1.00  0.00     0.000 A 
ENDBRANCH  50  69
BRANCH  62  75
ATOM     75  C   UNL A   1      48.402  26.412  29.249  1.00  0.00    -0.014 A 
ATOM     76  C   UNL A   1      49.017  25.768  30.333  1.00  0.00     0.009 A 
ATOM     77  C   UNL A   1      49.126  26.596  28.061  1.00  0.00     0.009 A 
ATOM     78  C   UNL A   1      50.342  25.338  30.235  1.00  0.00     0.001 A 
ATOM     79  C   UNL A   1      50.441  26.143  27.959  1.00  0.00     0.001 A 
ATOM     80  C   UNL A   1      51.050  25.521  29.048  1.00  0.00     0.000 A 
ENDBRANCH  62  75
ENDBRANCH  36  37
ENDBRANCH  29  31
ENDBRANCH  28  29
ENDBRANCH  27  28
ENDBRANCH  26  27
ENDBRANCH  25  26
ENDBRANCH   1  25
TORSDOF 18
ENDMDL
MODEL 3
REMARK VINA RESULT:     -10.3      4.277      6.591
REMARK SMILES O=C(OCCOCCOCCOC(=O)c1ccc(-c2c3nc(c(-c4ccccc4)c4ccc([nH]4)c(-c4ccccc4)c4nc(c(-c5ccccc5)c5ccc2[nH]5)C=C4)C=C3)cc1)C1=Cc2c(ccc(Cl)c2Cl)O[C@H]1C(F)(F)F
REMARK SMILES IDX 8 1 7 2 6 3 5 4 4 5 3 6 2 7 1 8 63 9 64 10 74 11 65 12 73 13
REMARK SMILES IDX 66 14 71 15 67 16 69 17 72 18 68 19 70 20 75 21 76 22 77 23
REMARK SMILES IDX 78 24 9 25 10 26 11 27 12 28 13 29 14 30 15 31 16 32 62 33
REMARK SMILES IDX 17 34 61 35 18 36 19 37 20 38 55 39 21 40 60 41 54 42 56 43
REMARK SMILES IDX 22 44 59 45 53 46 52 47 23 49 45 50 30 51 44 52 31 53 34 54
REMARK SMILES IDX 43 55 57 56 32 57 33 58 42 60 58 61 35 62 24 63 25 64 29 65
REMARK SMILES IDX 26 66 28 67 27 68 46 69 47 70 51 71 48 72 50 73 49 74 36 75
REMARK SMILES IDX 37 76 41 77 38 78 40 79 39 80
REMARK H PARENT 56 48 34 59
REMARK Flexibility Score: inf
ROOT
ATOM      1  C   UNL A   1      35.330  33.499  28.471  1.00  0.00     0.188 C 
ENDROOT
BRANCH   1   2
ATOM      2  C   UNL A   1      34.426  32.379  29.011  1.00  0.00     0.188 C 
BRANCH   2   3
ATOM      3  O   UNL A   1      33.878  31.553  27.994  1.00  0.00    -0.376 OA
BRANCH   3   4
ATOM      4  C   UNL A   1      34.712  30.423  27.737  1.00  0.00     0.202 C 
BRANCH   4   5
ATOM      5  C   UNL A   1      34.157  29.576  26.582  1.00  0.00     0.261 C 
BRANCH   5   6
ATOM      6  O   UNL A   1      32.781  29.162  26.786  1.00  0.00    -0.460 OA
BRANCH   6   7
ATOM      7  C   UNL A   1      32.208  27.939  26.836  1.00  0.00     0.338 C 
ATOM      8  O   UNL A   1      31.429  27.701  27.754  1.00  0.00    -0.246 OA
BRANCH   7   9
ATOM      9  C   UNL A   1      32.423  26.878  25.819  1.00  0.00     0.087 C 
ATOM     10  C   UNL A   1      32.733  25.615  26.114  1.00  0.00     0.029 C 
ATOM     11  C   UNL A   1      32.258  27.301  24.363  1.00  0.00     0.316 C 
ATOM     12  C   UNL A   1      33.150  24.663  25.102  1.00  0.00     0.037 A 
ATOM     13  O   UNL A   1      32.687  26.307  23.375  1.00  0.00    -0.475 OA
ATOM     14  C   UNL A   1      33.054  25.054  23.770  1.00  0.00     0.129 A 
ATOM     15  C   UNL A   1      33.689  23.397  25.430  1.00  0.00     0.070 A 
ATOM     16  C   UNL A   1      33.395  24.156  22.759  1.00  0.00     0.049 A 
ATOM     17  C   UNL A   1      34.043  22.507  24.409  1.00  0.00     0.060 A 
ATOM     18  Cl  UNL A   1      33.993  22.963  27.091  1.00  0.00    -0.082 Cl
ATOM     19  C   UNL A   1      33.873  22.882  23.077  1.00  0.00     0.026 A 
ATOM     20  Cl  UNL A   1      34.709  20.944  24.728  1.00  0.00    -0.083 Cl
BRANCH  11  21
ATOM     21  C   UNL A   1      30.800  27.683  24.004  1.00  0.00     0.430 C 
ATOM     22  F   UNL A   1      30.538  28.977  24.310  1.00  0.00    -0.167 F 
ATOM     23  F   UNL A   1      30.487  27.504  22.705  1.00  0.00    -0.167 F 
ATOM     24  F   UNL A   1      29.916  26.928  24.708  1.00  0.00    -0.167 F 
ENDBRANCH  11  21
ENDBRANCH   7   9
ENDBRANCH   6   7
ENDBRANCH   5   6
ENDBRANCH   4   5
ENDBRANCH   3   4
ENDBRANCH   2   3
ENDBRANCH   1   2
BRANCH   1  25
ATOM     25  O   UNL A   1      35.018  34.836  28.846  1.00  0.00    -0.376 OA
BRANCH  25  26
ATOM     26  C   UNL A   1      33.698  35.321  28.573  1.00  0.00     0.202 C 
BRANCH  26  27
ATOM     27  C   UNL A   1      32.958  36.073  29.683  1.00  0.00     0.261 C 
BRANCH  27  28
ATOM     28  O   UNL A   1      32.548  35.209  30.759  1.00  0.00    -0.460 OA
BRANCH  28  29
ATOM     29  C   UNL A   1      32.774  35.690  31.998  1.00  0.00     0.338 C 
ATOM     30  O   UNL A   1      32.136  36.553  32.599  1.00  0.00    -0.246 OA
BRANCH  29  31
ATOM     31  C   UNL A   1      33.936  35.028  32.594  1.00  0.00     0.060 A 
ATOM     32  C   UNL A   1      35.217  35.570  32.437  1.00  0.00     0.016 A 
ATOM     33  C   UNL A   1      33.755  33.776  33.182  1.00  0.00     0.016 A 
ATOM     34  C   UNL A   1      36.331  34.852  32.871  1.00  0.00     0.010 A 
ATOM     35  C   UNL A   1      34.869  33.056  33.606  1.00  0.00     0.010 A 
ATOM     36  C   UNL A   1      36.161  33.580  33.430  1.00  0.00    -0.014 A 
BRANCH  36  37
ATOM     37  C   UNL A   1      37.331  32.728  33.726  1.00  0.00     0.031 A 
ATOM     38  C   UNL A   1      38.100  32.965  34.992  1.00  0.00     0.074 A 
ATOM     39  C   UNL A   1      37.721  31.793  32.844  1.00  0.00     0.049 A 
ATOM     40  N   UNL A   1      39.229  32.435  35.384  1.00  0.00    -0.248 NA
ATOM     41  C   UNL A   1      37.522  33.930  35.944  1.00  0.00     0.031 C 
ATOM     42  C   UNL A   1      37.019  31.450  31.609  1.00  0.00     0.029 A 
ATOM     43  N   UNL A   1      38.823  30.977  32.847  1.00  0.00    -0.354 N 
ATOM     44  C   UNL A   1      39.505  33.011  36.618  1.00  0.00     0.074 A 
ATOM     45  C   UNL A   1      38.430  33.933  36.911  1.00  0.00     0.031 C 
ATOM     46  C   UNL A   1      37.727  30.514  30.953  1.00  0.00     0.029 A 
ATOM     47  C   UNL A   1      38.946  30.226  31.704  1.00  0.00     0.049 A 
ATOM     48  H   UNL A   1      39.463  30.934  33.594  1.00  0.00     0.167 HD
ATOM     49  C   UNL A   1      40.568  32.795  37.426  1.00  0.00     0.031 A 
ATOM     50  C   UNL A   1      39.952  29.431  31.297  1.00  0.00     0.031 A 
ATOM     51  C   UNL A   1      41.644  31.892  37.115  1.00  0.00     0.049 A 
ATOM     52  C   UNL A   1      41.164  29.278  32.176  1.00  0.00     0.074 A 
ATOM     53  C   UNL A   1      42.757  31.583  37.877  1.00  0.00     0.029 A 
ATOM     54  N   UNL A   1      41.745  31.168  35.939  1.00  0.00    -0.354 N 
ATOM     55  N   UNL A   1      41.400  29.796  33.358  1.00  0.00    -0.248 NA
ATOM     56  C   UNL A   1      42.254  28.436  31.661  1.00  0.00     0.031 C 
ATOM     57  C   UNL A   1      43.562  30.714  37.134  1.00  0.00     0.029 A 
ATOM     58  C   UNL A   1      42.924  30.444  35.933  1.00  0.00     0.049 A 
ATOM     59  H   UNL A   1      41.079  31.169  35.215  1.00  0.00     0.167 HD
ATOM     60  C   UNL A   1      42.656  29.335  33.731  1.00  0.00     0.074 A 
ATOM     61  C   UNL A   1      43.122  28.475  32.662  1.00  0.00     0.031 C 
ATOM     62  C   UNL A   1      43.366  29.601  34.854  1.00  0.00     0.031 A 
BRANCH  49  63
ATOM     63  C   UNL A   1      40.648  33.582  38.701  1.00  0.00    -0.014 A 
ATOM     64  C   UNL A   1      41.308  34.820  38.753  1.00  0.00     0.009 A 
ATOM     65  C   UNL A   1      40.003  33.104  39.852  1.00  0.00     0.009 A 
ATOM     66  C   UNL A   1      41.334  35.554  39.942  1.00  0.00     0.001 A 
ATOM     67  C   UNL A   1      40.015  33.848  41.032  1.00  0.00     0.001 A 
ATOM     68  C   UNL A   1      40.683  35.071  41.078  1.00  0.00     0.000 A 
ENDBRANCH  49  63
BRANCH  50  69
ATOM     69  C   UNL A   1      39.895  28.769  29.967  1.00  0.00    -0.014 A 
ATOM     70  C   UNL A   1      40.304  29.448  28.809  1.00  0.00     0.009 A 
ATOM     71  C   UNL A   1      39.394  27.463  29.845  1.00  0.00     0.009 A 
ATOM     72  C   UNL A   1      40.180  28.843  27.555  1.00  0.00     0.001 A 
ATOM     73  C   UNL A   1      39.299  26.851  28.595  1.00  0.00     0.001 A 
ATOM     74  C   UNL A   1      39.681  27.546  27.449  1.00  0.00     0.000 A 
ENDBRANCH  50  69
BRANCH  62  75
ATOM     75  C   UNL A   1      44.712  28.949  34.985  1.00  0.00    -0.014 A 
ATOM     76  C   UNL A   1      44.852  27.708  35.624  1.00  0.00     0.009 A 
ATOM     77  C   UNL A   1      45.841  29.560  34.418  1.00  0.00     0.009 A 
ATOM     78  C   UNL A   1      46.107  27.102  35.714  1.00  0.00     0.001 A 
ATOM     79  C   UNL A   1      47.088  28.939  34.488  1.00  0.00     0.001 A 
ATOM     80  C   UNL A   1      47.221  27.714  35.142  1.00  0.00     0.000 A 
ENDBRANCH  62  75
ENDBRANCH  36  37
ENDBRANCH  29  31
ENDBRANCH  28  29
ENDBRANCH  27  28
ENDBRANCH  26  27
ENDBRANCH  25  26
ENDBRANCH   1  25
TORSDOF 18
ENDMDL
