MODEL 1
REMARK VINA RESULT:     -11.6      0.000      0.000
REMARK SMILES O=C(OCCOCCOCCOC(=O)c1ccc(-c2c3nc(c(-c4ccccc4)c4ccc([nH]4)c(-c4ccccc4)c4nc(c(-c5ccccc5)c5ccc2[nH]5)C=C4)C=C3)cc1)C1=Cc2cc(Cl)c(Cl)cc2O[C@@H]1C(F)(F)F
REMARK SMILES IDX 8 1 7 2 6 3 5 4 4 5 3 6 2 7 1 8 63 9 64 10 74 11 65 12 73 13
REMARK SMILES IDX 66 14 72 15 67 16 71 17 68 18 69 19 70 20 75 21 76 22 77 23
REMARK SMILES IDX 78 24 9 25 10 26 11 27 12 28 13 29 14 30 15 31 16 32 62 33
REMARK SMILES IDX 17 34 61 35 18 36 19 37 20 38 55 39 21 40 60 41 54 42 56 43
REMARK SMILES IDX 22 44 59 45 53 46 52 47 23 49 45 50 30 51 44 52 31 53 34 54
REMARK SMILES IDX 43 55 57 56 32 57 33 58 42 60 58 61 35 62 24 63 25 64 29 65
REMARK SMILES IDX 26 66 28 67 27 68 46 69 47 70 51 71 48 72 50 73 49 74 36 75
REMARK SMILES IDX 37 76 41 77 38 78 40 79 39 80
REMARK H PARENT 56 48 34 59
REMARK Flexibility Score: inf
ROOT
ATOM      1  C   UNL A   1      42.915  19.130  25.834  1.00  0.00     0.188 C 
ENDROOT
BRANCH   1   2
ATOM      2  C   UNL A   1      41.484  19.602  26.134  1.00  0.00     0.188 C 
BRANCH   2   3
ATOM      3  O   UNL A   1      41.076  21.038  26.154  1.00  0.00    -0.376 OA
BRANCH   3   4
ATOM      4  C   UNL A   1      39.489  21.699  26.297  1.00  0.00     0.202 C 
BRANCH   4   5
ATOM      5  C   UNL A   1      37.763  21.057  25.148  1.00  0.00     0.261 C 
BRANCH   5   6
ATOM      6  O   UNL A   1      36.308  21.095  25.604  1.00  0.00    -0.460 OA
BRANCH   6   7
ATOM      7  C   UNL A   1      35.506  21.641  24.680  1.00  0.00     0.338 C 
ATOM      8  O   UNL A   1      35.804  22.359  23.758  1.00  0.00    -0.246 OA
BRANCH   7   9
ATOM      9  C   UNL A   1      34.279  21.542  25.450  1.00  0.00     0.087 C 
ATOM     10  C   UNL A   1      33.875  22.750  26.166  1.00  0.00     0.027 C 
ATOM     11  C   UNL A   1      33.303  20.741  24.004  1.00  0.00     0.316 C 
ATOM     12  C   UNL A   1      32.561  23.849  25.617  1.00  0.00     0.019 A 
ATOM     13  O   UNL A   1      31.980  21.987  23.292  1.00  0.00    -0.475 OA
ATOM     14  C   UNL A   1      32.342  25.022  26.283  1.00  0.00     0.034 A 
ATOM     15  C   UNL A   1      31.648  23.550  24.182  1.00  0.00     0.129 A 
ATOM     16  C   UNL A   1      31.340  25.851  25.733  1.00  0.00     0.060 A 
ATOM     17  C   UNL A   1      30.675  24.387  23.716  1.00  0.00     0.069 A 
ATOM     18  Cl  UNL A   1      31.099  27.347  26.603  1.00  0.00    -0.083 Cl
ATOM     19  C   UNL A   1      30.543  25.545  24.531  1.00  0.00     0.063 A 
ATOM     20  Cl  UNL A   1      29.316  26.681  24.031  1.00  0.00    -0.083 Cl
BRANCH  11  21
ATOM     21  C   UNL A   1      33.161  19.275  24.805  1.00  0.00     0.430 C 
ATOM     22  F   UNL A   1      32.877  19.205  26.103  1.00  0.00    -0.167 F 
ATOM     23  F   UNL A   1      32.195  18.548  24.179  1.00  0.00    -0.167 F 
ATOM     24  F   UNL A   1      34.293  18.513  24.679  1.00  0.00    -0.167 F 
ENDBRANCH  11  21
ENDBRANCH   7   9
ENDBRANCH   6   7
ENDBRANCH   5   6
ENDBRANCH   4   5
ENDBRANCH   3   4
ENDBRANCH   2   3
ENDBRANCH   1   2
BRANCH   1  25
ATOM     25  O   UNL A   1      43.577  19.657  24.715  1.00  0.00    -0.376 OA
BRANCH  25  26
ATOM     26  C   UNL A   1      44.927  20.040  24.936  1.00  0.00     0.202 C 
BRANCH  26  27
ATOM     27  C   UNL A   1      45.250  21.544  25.025  1.00  0.00     0.261 C 
BRANCH  27  28
ATOM     28  O   UNL A   1      44.479  22.258  26.023  1.00  0.00    -0.460 OA
BRANCH  28  29
ATOM     29  C   UNL A   1      43.751  23.325  25.607  1.00  0.00     0.338 C 
ATOM     30  O   UNL A   1      43.258  23.498  24.506  1.00  0.00    -0.246 OA
BRANCH  29  31
ATOM     31  C   UNL A   1      43.492  24.234  26.745  1.00  0.00     0.060 A 
ATOM     32  C   UNL A   1      42.659  23.815  27.797  1.00  0.00     0.016 A 
ATOM     33  C   UNL A   1      44.019  25.525  26.744  1.00  0.00     0.016 A 
ATOM     34  C   UNL A   1      42.387  24.672  28.867  1.00  0.00     0.010 A 
ATOM     35  C   UNL A   1      43.703  26.400  27.789  1.00  0.00     0.010 A 
ATOM     36  C   UNL A   1      42.876  25.984  28.848  1.00  0.00    -0.014 A 
BRANCH  36  37
ATOM     37  C   UNL A   1      42.327  26.992  29.790  1.00  0.00     0.031 A 
ATOM     38  C   UNL A   1      43.035  27.173  31.105  1.00  0.00     0.074 A 
ATOM     39  C   UNL A   1      41.232  27.719  29.507  1.00  0.00     0.049 A 
ATOM     40  N   UNL A   1      42.730  27.944  32.117  1.00  0.00    -0.248 NA
ATOM     41  C   UNL A   1      44.249  26.366  31.305  1.00  0.00     0.031 C 
ATOM     42  C   UNL A   1      40.481  27.674  28.256  1.00  0.00     0.029 A 
ATOM     43  N   UNL A   1      40.557  28.641  30.273  1.00  0.00    -0.354 N 
ATOM     44  C   UNL A   1      43.711  27.710  33.073  1.00  0.00     0.074 A 
ATOM     45  C   UNL A   1      44.599  26.704  32.536  1.00  0.00     0.031 C 
ATOM     46  C   UNL A   1      39.442  28.525  28.341  1.00  0.00     0.029 A 
ATOM     47  C   UNL A   1      39.434  29.147  29.665  1.00  0.00     0.049 A 
ATOM     48  H   UNL A   1      40.852  28.913  31.172  1.00  0.00     0.167 HD
ATOM     49  C   UNL A   1      43.863  28.281  34.291  1.00  0.00     0.031 A 
ATOM     50  C   UNL A   1      38.497  29.997  30.135  1.00  0.00     0.031 A 
ATOM     51  C   UNL A   1      42.956  29.249  34.843  1.00  0.00     0.049 A 
ATOM     52  C   UNL A   1      38.633  30.546  31.536  1.00  0.00     0.074 A 
ATOM     53  C   UNL A   1      43.023  29.892  36.066  1.00  0.00     0.029 A 
ATOM     54  N   UNL A   1      41.805  29.700  34.214  1.00  0.00    -0.354 N 
ATOM     55  N   UNL A   1      39.585  30.349  32.417  1.00  0.00    -0.248 NA
ATOM     56  C   UNL A   1      37.563  31.441  32.004  1.00  0.00     0.031 C 
ATOM     57  C   UNL A   1      41.871  30.671  36.211  1.00  0.00     0.029 A 
ATOM     58  C   UNL A   1      41.132  30.584  35.042  1.00  0.00     0.049 A 
ATOM     59  H   UNL A   1      41.509  29.431  33.315  1.00  0.00     0.167 HD
ATOM     60  C   UNL A   1      39.248  31.120  33.524  1.00  0.00     0.074 A 
ATOM     61  C   UNL A   1      38.014  31.804  33.197  1.00  0.00     0.031 C 
ATOM     62  C   UNL A   1      39.902  31.254  34.705  1.00  0.00     0.031 A 
BRANCH  49  63
ATOM     63  C   UNL A   1      45.027  27.824  35.125  1.00  0.00    -0.014 A 
ATOM     64  C   UNL A   1      44.904  26.763  36.039  1.00  0.00     0.009 A 
ATOM     65  C   UNL A   1      46.272  28.456  34.985  1.00  0.00     0.009 A 
ATOM     66  C   UNL A   1      45.993  26.376  36.823  1.00  0.00     0.001 A 
ATOM     67  C   UNL A   1      47.368  28.041  35.744  1.00  0.00     0.001 A 
ATOM     68  C   UNL A   1      47.224  27.011  36.671  1.00  0.00     0.000 A 
ENDBRANCH  49  63
BRANCH  50  69
ATOM     69  C   UNL A   1      37.326  30.373  29.293  1.00  0.00    -0.014 A 
ATOM     70  C   UNL A   1      36.318  29.441  29.001  1.00  0.00     0.009 A 
ATOM     71  C   UNL A   1      37.230  31.661  28.739  1.00  0.00     0.009 A 
ATOM     72  C   UNL A   1      35.261  29.778  28.152  1.00  0.00     0.001 A 
ATOM     73  C   UNL A   1      36.152  32.006  27.920  1.00  0.00     0.001 A 
ATOM     74  C   UNL A   1      35.175  31.061  27.616  1.00  0.00     0.000 A 
ENDBRANCH  50  69
BRANCH  62  75
ATOM     75  C   UNL A   1      39.324  32.207  35.719  1.00  0.00    -0.014 A 
ATOM     76  C   UNL A   1      38.301  31.819  36.599  1.00  0.00     0.009 A 
ATOM     77  C   UNL A   1      39.852  33.505  35.827  1.00  0.00     0.009 A 
ATOM     78  C   UNL A   1      37.793  32.724  37.534  1.00  0.00     0.001 A 
ATOM     79  C   UNL A   1      39.370  34.393  36.788  1.00  0.00     0.001 A 
ATOM     80  C   UNL A   1      38.332  34.006  37.633  1.00  0.00     0.000 A 
ENDBRANCH  62  75
ENDBRANCH  36  37
ENDBRANCH  29  31
ENDBRANCH  28  29
ENDBRANCH  27  28
ENDBRANCH  26  27
ENDBRANCH  25  26
ENDBRANCH   1  25
TORSDOF 18
ENDMDL
MODEL 2
REMARK VINA RESULT:     -11.3      4.645      9.294
REMARK SMILES O=C(OCCOCCOCCOC(=O)c1ccc(-c2c3nc(c(-c4ccccc4)c4ccc([nH]4)c(-c4ccccc4)c4nc(c(-c5ccccc5)c5ccc2[nH]5)C=C4)C=C3)cc1)C1=Cc2cc(Cl)c(Cl)cc2O[C@@H]1C(F)(F)F
REMARK SMILES IDX 8 1 7 2 6 3 5 4 4 5 3 6 2 7 1 8 63 9 64 10 74 11 65 12 73 13
REMARK SMILES IDX 66 14 72 15 67 16 71 17 68 18 69 19 70 20 75 21 76 22 77 23
REMARK SMILES IDX 78 24 9 25 10 26 11 27 12 28 13 29 14 30 15 31 16 32 62 33
REMARK SMILES IDX 17 34 61 35 18 36 19 37 20 38 55 39 21 40 60 41 54 42 56 43
REMARK SMILES IDX 22 44 59 45 53 46 52 47 23 49 45 50 30 51 44 52 31 53 34 54
REMARK SMILES IDX 43 55 57 56 32 57 33 58 42 60 58 61 35 62 24 63 25 64 29 65
REMARK SMILES IDX 26 66 28 67 27 68 46 69 47 70 51 71 48 72 50 73 49 74 36 75
REMARK SMILES IDX 37 76 41 77 38 78 40 79 39 80
REMARK H PARENT 56 48 34 59
REMARK Flexibility Score: inf
ROOT
ATOM      1  C   UNL A   1      34.938  33.322  29.140  1.00  0.00     0.188 C 
ENDROOT
BRANCH   1   2
ATOM      2  C   UNL A   1      35.553  32.569  27.949  1.00  0.00     0.188 C 
BRANCH   2   3
ATOM      3  O   UNL A   1      36.402  31.350  28.093  1.00  0.00    -0.376 OA
BRANCH   3   4
ATOM      4  C   UNL A   1      36.022  29.723  27.664  1.00  0.00     0.202 C 
BRANCH   4   5
ATOM      5  C   UNL A   1      34.022  28.969  27.284  1.00  0.00     0.261 C 
BRANCH   5   6
ATOM      6  O   UNL A   1      33.658  27.770  26.413  1.00  0.00    -0.460 OA
BRANCH   6   7
ATOM      7  C   UNL A   1      33.279  28.141  25.182  1.00  0.00     0.338 C 
ATOM      8  O   UNL A   1      33.939  28.665  24.320  1.00  0.00    -0.246 OA
BRANCH   7   9
ATOM      9  C   UNL A   1      31.855  28.205  25.463  1.00  0.00     0.087 C 
ATOM     10  C   UNL A   1      31.266  29.543  25.467  1.00  0.00     0.027 C 
ATOM     11  C   UNL A   1      31.428  26.819  24.206  1.00  0.00     0.316 C 
ATOM     12  C   UNL A   1      30.272  30.205  24.123  1.00  0.00     0.019 A 
ATOM     13  O   UNL A   1      30.489  27.555  22.661  1.00  0.00    -0.475 OA
ATOM     14  C   UNL A   1      29.873  31.512  24.161  1.00  0.00     0.034 A 
ATOM     15  C   UNL A   1      29.918  29.292  22.701  1.00  0.00     0.129 A 
ATOM     16  C   UNL A   1      29.160  31.959  23.027  1.00  0.00     0.060 A 
ATOM     17  C   UNL A   1      29.203  29.781  21.645  1.00  0.00     0.069 A 
ATOM     18  Cl  UNL A   1      28.679  33.637  23.106  1.00  0.00    -0.083 Cl
ATOM     19  C   UNL A   1      28.832  31.139  21.846  1.00  0.00     0.063 A 
ATOM     20  Cl  UNL A   1      27.902  31.863  20.558  1.00  0.00    -0.083 Cl
BRANCH  11  21
ATOM     21  C   UNL A   1      30.960  25.756  25.416  1.00  0.00     0.430 C 
ATOM     22  F   UNL A   1      30.155  26.126  26.407  1.00  0.00    -0.167 F 
ATOM     23  F   UNL A   1      30.348  24.694  24.824  1.00  0.00    -0.167 F 
ATOM     24  F   UNL A   1      32.039  25.209  26.060  1.00  0.00    -0.167 F 
ENDBRANCH  11  21
ENDBRANCH   7   9
ENDBRANCH   6   7
ENDBRANCH   5   6
ENDBRANCH   4   5
ENDBRANCH   3   4
ENDBRANCH   2   3
ENDBRANCH   1   2
BRANCH   1  25
ATOM     25  O   UNL A   1      34.696  34.698  29.013  1.00  0.00    -0.376 OA
BRANCH  25  26
ATOM     26  C   UNL A   1      33.343  35.053  28.761  1.00  0.00     0.202 C 
BRANCH  26  27
ATOM     27  C   UNL A   1      32.660  36.038  29.728  1.00  0.00     0.261 C 
BRANCH  27  28
ATOM     28  O   UNL A   1      33.396  36.272  30.954  1.00  0.00    -0.460 OA
BRANCH  28  29
ATOM     29  C   UNL A   1      33.054  35.534  32.041  1.00  0.00     0.338 C 
ATOM     30  O   UNL A   1      31.933  35.350  32.484  1.00  0.00    -0.246 OA
BRANCH  29  31
ATOM     31  C   UNL A   1      34.244  34.831  32.569  1.00  0.00     0.060 A 
ATOM     32  C   UNL A   1      35.521  35.386  32.384  1.00  0.00     0.016 A 
ATOM     33  C   UNL A   1      34.104  33.591  33.191  1.00  0.00     0.016 A 
ATOM     34  C   UNL A   1      36.656  34.721  32.857  1.00  0.00     0.010 A 
ATOM     35  C   UNL A   1      35.245  32.901  33.617  1.00  0.00     0.010 A 
ATOM     36  C   UNL A   1      36.525  33.455  33.441  1.00  0.00    -0.014 A 
BRANCH  36  37
ATOM     37  C   UNL A   1      37.726  32.603  33.637  1.00  0.00     0.031 A 
ATOM     38  C   UNL A   1      38.543  32.828  34.879  1.00  0.00     0.074 A 
ATOM     39  C   UNL A   1      38.098  31.668  32.744  1.00  0.00     0.049 A 
ATOM     40  N   UNL A   1      39.659  32.258  35.258  1.00  0.00    -0.248 NA
ATOM     41  C   UNL A   1      38.032  33.841  35.817  1.00  0.00     0.031 C 
ATOM     42  C   UNL A   1      37.373  31.319  31.526  1.00  0.00     0.029 A 
ATOM     43  N   UNL A   1      39.197  30.841  32.732  1.00  0.00    -0.354 N 
ATOM     44  C   UNL A   1      39.983  32.847  36.474  1.00  0.00     0.074 A 
ATOM     45  C   UNL A   1      38.969  33.840  36.753  1.00  0.00     0.031 C 
ATOM     46  C   UNL A   1      38.051  30.355  30.877  1.00  0.00     0.029 A 
ATOM     47  C   UNL A   1      39.275  30.044  31.615  1.00  0.00     0.049 A 
ATOM     48  H   UNL A   1      39.865  30.822  33.455  1.00  0.00     0.167 HD
ATOM     49  C   UNL A   1      41.032  32.588  37.290  1.00  0.00     0.031 A 
ATOM     50  C   UNL A   1      40.236  29.180  31.228  1.00  0.00     0.031 A 
ATOM     51  C   UNL A   1      42.064  31.633  36.993  1.00  0.00     0.049 A 
ATOM     52  C   UNL A   1      41.448  28.979  32.106  1.00  0.00     0.074 A 
ATOM     53  C   UNL A   1      43.167  31.292  37.756  1.00  0.00     0.029 A 
ATOM     54  N   UNL A   1      42.130  30.880  35.831  1.00  0.00    -0.354 N 
ATOM     55  N   UNL A   1      41.727  29.512  33.273  1.00  0.00    -0.248 NA
ATOM     56  C   UNL A   1      42.478  28.050  31.614  1.00  0.00     0.031 C 
ATOM     57  C   UNL A   1      43.942  30.392  37.020  1.00  0.00     0.029 A 
ATOM     58  C   UNL A   1      43.277  30.104  35.838  1.00  0.00     0.049 A 
ATOM     59  H   UNL A   1      41.463  30.895  35.108  1.00  0.00     0.167 HD
ATOM     60  C   UNL A   1      42.939  28.958  33.667  1.00  0.00     0.074 A 
ATOM     61  C   UNL A   1      43.335  28.034  32.625  1.00  0.00     0.031 C 
ATOM     62  C   UNL A   1      43.661  29.191  34.792  1.00  0.00     0.031 A 
BRANCH  49  63
ATOM     63  C   UNL A   1      41.136  33.395  38.555  1.00  0.00    -0.014 A 
ATOM     64  C   UNL A   1      41.819  34.622  38.589  1.00  0.00     0.009 A 
ATOM     65  C   UNL A   1      40.528  32.925  39.730  1.00  0.00     0.009 A 
ATOM     66  C   UNL A   1      41.927  35.339  39.783  1.00  0.00     0.001 A 
ATOM     67  C   UNL A   1      40.606  33.663  40.912  1.00  0.00     0.001 A 
ATOM     68  C   UNL A   1      41.315  34.861  40.941  1.00  0.00     0.000 A 
ENDBRANCH  49  63
BRANCH  50  69
ATOM     69  C   UNL A   1      40.119  28.449  29.934  1.00  0.00    -0.014 A 
ATOM     70  C   UNL A   1      39.498  27.191  29.869  1.00  0.00     0.009 A 
ATOM     71  C   UNL A   1      40.667  28.988  28.758  1.00  0.00     0.009 A 
ATOM     72  C   UNL A   1      39.456  26.479  28.668  1.00  0.00     0.001 A 
ATOM     73  C   UNL A   1      40.591  28.289  27.550  1.00  0.00     0.001 A 
ATOM     74  C   UNL A   1      39.997  27.029  27.509  1.00  0.00     0.000 A 
ENDBRANCH  50  69
BRANCH  62  75
ATOM     75  C   UNL A   1      44.932  28.403  34.982  1.00  0.00    -0.014 A 
ATOM     76  C   UNL A   1      44.935  27.143  35.599  1.00  0.00     0.009 A 
ATOM     77  C   UNL A   1      46.142  28.915  34.484  1.00  0.00     0.009 A 
ATOM     78  C   UNL A   1      46.129  26.433  35.750  1.00  0.00     0.001 A 
ATOM     79  C   UNL A   1      47.326  28.187  34.601  1.00  0.00     0.001 A 
ATOM     80  C   UNL A   1      47.321  26.952  35.246  1.00  0.00     0.000 A 
ENDBRANCH  62  75
ENDBRANCH  36  37
ENDBRANCH  29  31
ENDBRANCH  28  29
ENDBRANCH  27  28
ENDBRANCH  26  27
ENDBRANCH  25  26
ENDBRANCH   1  25
TORSDOF 18
ENDMDL
MODEL 3
REMARK VINA RESULT:     -11.0      5.168      9.963
REMARK SMILES O=C(OCCOCCOCCOC(=O)c1ccc(-c2c3nc(c(-c4ccccc4)c4ccc([nH]4)c(-c4ccccc4)c4nc(c(-c5ccccc5)c5ccc2[nH]5)C=C4)C=C3)cc1)C1=Cc2cc(Cl)c(Cl)cc2O[C@@H]1C(F)(F)F
REMARK SMILES IDX 8 1 7 2 6 3 5 4 4 5 3 6 2 7 1 8 63 9 64 10 74 11 65 12 73 13
REMARK SMILES IDX 66 14 72 15 67 16 71 17 68 18 69 19 70 20 75 21 76 22 77 23
REMARK SMILES IDX 78 24 9 25 10 26 11 27 12 28 13 29 14 30 15 31 16 32 62 33
REMARK SMILES IDX 17 34 61 35 18 36 19 37 20 38 55 39 21 40 60 41 54 42 56 43
REMARK SMILES IDX 22 44 59 45 53 46 52 47 23 49 45 50 30 51 44 52 31 53 34 54
REMARK SMILES IDX 43 55 57 56 32 57 33 58 42 60 58 61 35 62 24 63 25 64 29 65
REMARK SMILES IDX 26 66 28 67 27 68 46 69 47 70 51 71 48 72 50 73 49 74 36 75
REMARK SMILES IDX 37 76 41 77 38 78 40 79 39 80
REMARK H PARENT 56 48 34 59
REMARK Flexibility Score: inf
ROOT
ATOM      1  C   UNL A   1      34.736  32.068  27.654  1.00  0.00     0.188 C 
ENDROOT
BRANCH   1   2
ATOM      2  C   UNL A   1      33.691  30.944  27.710  1.00  0.00     0.188 C 
BRANCH   2   3
ATOM      3  O   UNL A   1      33.139  30.268  26.497  1.00  0.00    -0.376 OA
BRANCH   3   4
ATOM      4  C   UNL A   1      31.596  30.486  25.759  1.00  0.00     0.202 C 
BRANCH   4   5
ATOM      5  C   UNL A   1      30.714  29.147  24.296  1.00  0.00     0.261 C 
BRANCH   5   6
ATOM      6  O   UNL A   1      30.359  27.679  24.512  1.00  0.00    -0.460 OA
BRANCH   6   7
ATOM      7  C   UNL A   1      30.977  26.878  23.633  1.00  0.00     0.338 C 
ATOM      8  O   UNL A   1      30.492  26.048  22.904  1.00  0.00    -0.246 OA
BRANCH   7   9
ATOM      9  C   UNL A   1      32.296  26.961  24.236  1.00  0.00     0.087 C 
ATOM     10  C   UNL A   1      32.532  26.079  25.377  1.00  0.00     0.027 C 
ATOM     11  C   UNL A   1      33.200  26.843  22.547  1.00  0.00     0.316 C 
ATOM     12  C   UNL A   1      33.488  24.559  25.288  1.00  0.00     0.019 A 
ATOM     13  O   UNL A   1      34.110  25.124  22.372  1.00  0.00    -0.475 OA
ATOM     14  C   UNL A   1      33.546  23.735  26.377  1.00  0.00     0.034 A 
ATOM     15  C   UNL A   1      34.227  24.018  23.824  1.00  0.00     0.129 A 
ATOM     16  C   UNL A   1      34.259  22.531  26.187  1.00  0.00     0.060 A 
ATOM     17  C   UNL A   1      34.921  22.847  23.714  1.00  0.00     0.069 A 
ATOM     18  Cl  UNL A   1      34.299  21.498  27.595  1.00  0.00    -0.083 Cl
ATOM     19  C   UNL A   1      34.920  22.118  24.935  1.00  0.00     0.063 A 
ATOM     20  Cl  UNL A   1      35.792  20.607  24.909  1.00  0.00    -0.083 Cl
BRANCH  11  21
ATOM     21  C   UNL A   1      33.765  28.418  22.648  1.00  0.00     0.430 C 
ATOM     22  F   UNL A   1      34.093  28.977  23.809  1.00  0.00    -0.167 F 
ATOM     23  F   UNL A   1      34.878  28.513  21.869  1.00  0.00    -0.167 F 
ATOM     24  F   UNL A   1      32.887  29.311  22.093  1.00  0.00    -0.167 F 
ENDBRANCH  11  21
ENDBRANCH   7   9
ENDBRANCH   6   7
ENDBRANCH   5   6
ENDBRANCH   4   5
ENDBRANCH   3   4
ENDBRANCH   2   3
ENDBRANCH   1   2
BRANCH   1  25
ATOM     25  O   UNL A   1      34.331  33.379  27.950  1.00  0.00    -0.376 OA
BRANCH  25  26
ATOM     26  C   UNL A   1      34.897  33.935  29.129  1.00  0.00     0.202 C 
BRANCH  26  27
ATOM     27  C   UNL A   1      34.346  33.464  30.489  1.00  0.00     0.261 C 
BRANCH  27  28
ATOM     28  O   UNL A   1      35.114  32.401  31.103  1.00  0.00    -0.460 OA
BRANCH  28  29
ATOM     29  C   UNL A   1      36.304  32.731  31.668  1.00  0.00     0.338 C 
ATOM     30  O   UNL A   1      36.500  33.552  32.547  1.00  0.00    -0.246 OA
BRANCH  29  31
ATOM     31  C   UNL A   1      37.368  31.835  31.165  1.00  0.00     0.060 A 
ATOM     32  C   UNL A   1      38.267  31.245  32.068  1.00  0.00     0.016 A 
ATOM     33  C   UNL A   1      37.518  31.628  29.794  1.00  0.00     0.016 A 
ATOM     34  C   UNL A   1      39.292  30.415  31.605  1.00  0.00     0.010 A 
ATOM     35  C   UNL A   1      38.576  30.841  29.327  1.00  0.00     0.010 A 
ATOM     36  C   UNL A   1      39.475  30.241  30.228  1.00  0.00    -0.014 A 
BRANCH  36  37
ATOM     37  C   UNL A   1      40.739  29.649  29.718  1.00  0.00     0.031 A 
ATOM     38  C   UNL A   1      41.929  30.559  29.588  1.00  0.00     0.074 A 
ATOM     39  C   UNL A   1      40.837  28.355  29.365  1.00  0.00     0.049 A 
ATOM     40  N   UNL A   1      43.125  30.306  29.122  1.00  0.00    -0.248 NA
ATOM     41  C   UNL A   1      41.738  31.947  30.040  1.00  0.00     0.031 C 
ATOM     42  C   UNL A   1      39.775  27.359  29.484  1.00  0.00     0.029 A 
ATOM     43  N   UNL A   1      41.894  27.661  28.825  1.00  0.00    -0.354 N 
ATOM     44  C   UNL A   1      43.825  31.503  29.221  1.00  0.00     0.074 A 
ATOM     45  C   UNL A   1      42.912  32.488  29.758  1.00  0.00     0.031 C 
ATOM     46  C   UNL A   1      40.232  26.180  29.021  1.00  0.00     0.029 A 
ATOM     47  C   UNL A   1      41.603  26.348  28.541  1.00  0.00     0.049 A 
ATOM     48  H   UNL A   1      42.775  28.066  28.658  1.00  0.00     0.167 HD
ATOM     49  C   UNL A   1      45.113  31.763  28.895  1.00  0.00     0.031 A 
ATOM     50  C   UNL A   1      42.354  25.400  27.942  1.00  0.00     0.031 A 
ATOM     51  C   UNL A   1      46.007  30.796  28.320  1.00  0.00     0.049 A 
ATOM     52  C   UNL A   1      43.756  25.740  27.496  1.00  0.00     0.074 A 
ATOM     53  C   UNL A   1      47.333  30.957  27.959  1.00  0.00     0.029 A 
ATOM     54  N   UNL A   1      45.660  29.490  28.006  1.00  0.00    -0.354 N 
ATOM     55  N   UNL A   1      44.422  26.863  27.629  1.00  0.00    -0.248 NA
ATOM     56  C   UNL A   1      44.513  24.675  26.819  1.00  0.00     0.031 C 
ATOM     57  C   UNL A   1      47.765  29.774  27.352  1.00  0.00     0.029 A 
ATOM     58  C   UNL A   1      46.736  28.847  27.417  1.00  0.00     0.049 A 
ATOM     59  H   UNL A   1      44.781  29.082  28.174  1.00  0.00     0.167 HD
ATOM     60  C   UNL A   1      45.681  26.629  27.088  1.00  0.00     0.074 A 
ATOM     61  C   UNL A   1      45.694  25.252  26.641  1.00  0.00     0.031 C 
ATOM     62  C   UNL A   1      46.734  27.476  26.973  1.00  0.00     0.031 A 
BRANCH  49  63
ATOM     63  C   UNL A   1      45.606  33.168  29.104  1.00  0.00    -0.014 A 
ATOM     64  C   UNL A   1      45.304  34.195  28.194  1.00  0.00     0.009 A 
ATOM     65  C   UNL A   1      46.373  33.472  30.239  1.00  0.00     0.009 A 
ATOM     66  C   UNL A   1      45.798  35.486  28.396  1.00  0.00     0.001 A 
ATOM     67  C   UNL A   1      46.834  34.772  30.456  1.00  0.00     0.001 A 
ATOM     68  C   UNL A   1      46.557  35.774  29.529  1.00  0.00     0.000 A 
ENDBRANCH  49  63
BRANCH  50  69
ATOM     69  C   UNL A   1      41.800  24.037  27.699  1.00  0.00    -0.014 A 
ATOM     70  C   UNL A   1      42.065  22.982  28.586  1.00  0.00     0.009 A 
ATOM     71  C   UNL A   1      41.033  23.774  26.552  1.00  0.00     0.009 A 
ATOM     72  C   UNL A   1      41.604  21.691  28.315  1.00  0.00     0.001 A 
ATOM     73  C   UNL A   1      40.542  22.490  26.303  1.00  0.00     0.001 A 
ATOM     74  C   UNL A   1      40.839  21.446  27.177  1.00  0.00     0.000 A 
ENDBRANCH  50  69
BRANCH  62  75
ATOM     75  C   UNL A   1      48.007  26.931  26.379  1.00  0.00    -0.014 A 
ATOM     76  C   UNL A   1      48.297  27.053  25.012  1.00  0.00     0.009 A 
ATOM     77  C   UNL A   1      48.957  26.327  27.220  1.00  0.00     0.009 A 
ATOM     78  C   UNL A   1      49.491  26.546  24.494  1.00  0.00     0.001 A 
ATOM     79  C   UNL A   1      50.167  25.856  26.708  1.00  0.00     0.001 A 
ATOM     80  C   UNL A   1      50.427  25.954  25.342  1.00  0.00     0.000 A 
ENDBRANCH  62  75
ENDBRANCH  36  37
ENDBRANCH  29  31
ENDBRANCH  28  29
ENDBRANCH  27  28
ENDBRANCH  26  27
ENDBRANCH  25  26
ENDBRANCH   1  25
TORSDOF 18
ENDMDL
