MODEL 1
REMARK VINA RESULT:      -8.5      0.000      0.000
REMARK SMILES CC1(C)[C@@H](C(=O)NCCc2ccc(S(N)(=O)=O)cc2)[C@@H]1C(=O)OCCOCCOCCOC(=O)c1ccc(-c2c3nc(c(-c4ccccc4)c4ccc([nH]4)c(-c4ccccc4)c4nc(c(-c5ccccc5)c5ccc2[nH]5)C=C4)C=C3)cc1
REMARK SMILES IDX 25 1 24 2 23 3 21 4 22 5 20 6 1 7 2 8 3 9 4 10 5 11 6 12
REMARK SMILES IDX 7 13 8 15 9 16 10 17 11 18 19 19 12 20 18 21 13 22 14 23
REMARK SMILES IDX 16 24 17 25 15 26 26 29 27 30 28 31 29 32 30 33 31 34 32 35
REMARK SMILES IDX 33 36 34 37 35 38 36 39 82 40 37 41 81 42 38 43 39 44 40 45
REMARK SMILES IDX 75 46 41 47 80 48 74 49 76 50 42 51 79 52 73 53 72 54 43 56
REMARK SMILES IDX 65 57 50 58 64 59 51 60 54 61 63 62 77 63 52 64 53 65 62 67
REMARK SMILES IDX 78 68 55 69 44 70 45 71 49 72 46 73 48 74 47 75 66 76 67 77
REMARK SMILES IDX 71 78 68 79 70 80 69 81 56 82 57 83 61 84 58 85 60 86 59 87
REMARK H PARENT 7 14 15 27 15 28 76 55 54 66
REMARK Flexibility Score: inf
ROOT
ATOM      1  C   UNL A   1      34.132  36.332  33.110  1.00  0.00     0.202 C 
ENDROOT
BRANCH   1   2
ATOM      2  C   UNL A   1      35.360  35.422  32.909  1.00  0.00     0.261 C 
BRANCH   2   3
ATOM      3  O   UNL A   1      35.913  34.840  34.101  1.00  0.00    -0.463 OA
BRANCH   3   4
ATOM      4  C   UNL A   1      35.963  33.481  34.114  1.00  0.00     0.310 C 
ATOM      5  O   UNL A   1      35.211  32.735  33.505  1.00  0.00    -0.252 OA
BRANCH   4   6
ATOM      6  C   UNL A   1      37.169  32.977  34.827  1.00  0.00     0.118 C 
ATOM      7  C   UNL A   1      39.671  33.463  35.034  1.00  0.00     0.013 C 
ATOM      8  C   UNL A   1      38.526  32.986  34.164  1.00  0.00    -0.009 C 
ATOM      9  C   UNL A   1      38.667  33.401  32.722  1.00  0.00     0.013 C 
ATOM     10  C   UNL A   1      37.813  31.655  34.477  1.00  0.00     0.100 C 
BRANCH  10  11
ATOM     11  C   UNL A   1      38.516  30.748  35.423  1.00  0.00     0.224 C 
ATOM     12  O   UNL A   1      38.202  30.762  36.609  1.00  0.00    -0.275 OA
ATOM     13  N   UNL A   1      39.485  29.878  35.011  1.00  0.00    -0.355 N 
ATOM     14  H   UNL A   1      39.757  29.221  35.691  1.00  0.00     0.163 HD
BRANCH  13  15
ATOM     15  C   UNL A   1      40.184  29.753  33.748  1.00  0.00     0.120 C 
BRANCH  15  16
ATOM     16  C   UNL A   1      40.421  28.313  33.264  1.00  0.00     0.056 C 
BRANCH  16  17
ATOM     17  C   UNL A   1      41.603  27.550  33.829  1.00  0.00    -0.046 A 
ATOM     18  C   UNL A   1      42.869  27.670  33.227  1.00  0.00     0.005 A 
ATOM     19  C   UNL A   1      41.503  26.823  35.023  1.00  0.00     0.005 A 
ATOM     20  C   UNL A   1      44.000  27.076  33.800  1.00  0.00     0.022 A 
ATOM     21  C   UNL A   1      42.620  26.200  35.584  1.00  0.00     0.022 A 
ATOM     22  C   UNL A   1      43.866  26.339  34.977  1.00  0.00     0.082 A 
BRANCH  22  23
ATOM     23  S   UNL A   1      45.289  25.630  35.748  1.00  0.00     0.238 S 
ATOM     24  O   UNL A   1      45.132  24.188  35.767  1.00  0.00    -0.207 OA
ATOM     25  O   UNL A   1      46.477  26.273  35.253  1.00  0.00    -0.207 OA
BRANCH  23  26
ATOM     26  N   UNL A   1      45.144  26.134  37.343  1.00  0.00    -0.225 NA
ATOM     27  H   UNL A   1      44.549  26.961  37.386  1.00  0.00     0.137 HD
ATOM     28  H   UNL A   1      46.066  26.359  37.715  1.00  0.00     0.137 HD
ENDBRANCH  23  26
ENDBRANCH  22  23
ENDBRANCH  16  17
ENDBRANCH  15  16
ENDBRANCH  13  15
ENDBRANCH  10  11
ENDBRANCH   4   6
ENDBRANCH   3   4
ENDBRANCH   2   3
ENDBRANCH   1   2
BRANCH   1  29
ATOM     29  O   UNL A   1      33.701  37.221  32.088  1.00  0.00    -0.376 OA
BRANCH  29  30
ATOM     30  C   UNL A   1      32.918  36.746  31.003  1.00  0.00     0.188 C 
BRANCH  30  31
ATOM     31  C   UNL A   1      32.918  35.249  30.647  1.00  0.00     0.188 C 
BRANCH  31  32
ATOM     32  O   UNL A   1      32.621  34.951  29.307  1.00  0.00    -0.376 OA
BRANCH  32  33
ATOM     33  C   UNL A   1      33.561  34.195  28.560  1.00  0.00     0.202 C 
BRANCH  33  34
ATOM     34  C   UNL A   1      34.733  33.426  29.211  1.00  0.00     0.261 C 
BRANCH  34  35
ATOM     35  O   UNL A   1      34.564  32.027  29.486  1.00  0.00    -0.460 OA
BRANCH  35  36
ATOM     36  C   UNL A   1      34.645  31.176  28.435  1.00  0.00     0.338 C 
ATOM     37  O   UNL A   1      33.913  31.146  27.462  1.00  0.00    -0.246 OA
BRANCH  36  38
ATOM     38  C   UNL A   1      35.919  30.426  28.539  1.00  0.00     0.060 A 
ATOM     39  C   UNL A   1      36.230  29.786  29.748  1.00  0.00     0.016 A 
ATOM     40  C   UNL A   1      36.808  30.366  27.464  1.00  0.00     0.016 A 
ATOM     41  C   UNL A   1      37.447  29.119  29.898  1.00  0.00     0.010 A 
ATOM     42  C   UNL A   1      38.037  29.716  27.624  1.00  0.00     0.010 A 
ATOM     43  C   UNL A   1      38.380  29.120  28.852  1.00  0.00    -0.014 A 
BRANCH  43  44
ATOM     44  C   UNL A   1      39.772  28.671  29.107  1.00  0.00     0.031 A 
ATOM     45  C   UNL A   1      40.714  29.610  29.816  1.00  0.00     0.074 A 
ATOM     46  C   UNL A   1      40.196  27.446  28.750  1.00  0.00     0.049 A 
ATOM     47  N   UNL A   1      41.975  29.449  30.126  1.00  0.00    -0.248 NA
ATOM     48  C   UNL A   1      40.153  30.908  30.229  1.00  0.00     0.031 C 
ATOM     49  C   UNL A   1      39.381  26.421  28.103  1.00  0.00     0.029 A 
ATOM     50  N   UNL A   1      41.433  26.861  28.882  1.00  0.00    -0.354 N 
ATOM     51  C   UNL A   1      42.360  30.625  30.759  1.00  0.00     0.074 A 
ATOM     52  C   UNL A   1      41.210  31.502  30.760  1.00  0.00     0.031 C 
ATOM     53  C   UNL A   1      40.140  25.331  27.889  1.00  0.00     0.029 A 
ATOM     54  C   UNL A   1      41.502  25.594  28.351  1.00  0.00     0.049 A 
ATOM     55  H   UNL A   1      42.196  27.305  29.316  1.00  0.00     0.167 HD
ATOM     56  C   UNL A   1      43.561  30.947  31.297  1.00  0.00     0.031 A 
ATOM     57  C   UNL A   1      42.549  24.754  28.234  1.00  0.00     0.031 A 
ATOM     58  C   UNL A   1      44.713  30.085  31.283  1.00  0.00     0.049 A 
ATOM     59  C   UNL A   1      43.898  25.168  28.766  1.00  0.00     0.074 A 
ATOM     60  C   UNL A   1      45.969  30.319  31.814  1.00  0.00     0.029 A 
ATOM     61  N   UNL A   1      44.752  28.829  30.698  1.00  0.00    -0.354 N 
ATOM     62  N   UNL A   1      44.243  26.271  29.386  1.00  0.00    -0.248 NA
ATOM     63  C   UNL A   1      45.001  24.211  28.590  1.00  0.00     0.031 C 
ATOM     64  C   UNL A   1      46.787  29.231  31.493  1.00  0.00     0.029 A 
ATOM     65  C   UNL A   1      46.020  28.288  30.829  1.00  0.00     0.049 A 
ATOM     66  H   UNL A   1      43.992  28.388  30.255  1.00  0.00     0.167 HD
ATOM     67  C   UNL A   1      45.589  26.123  29.707  1.00  0.00     0.074 A 
ATOM     68  C   UNL A   1      45.993  24.819  29.225  1.00  0.00     0.031 C 
ATOM     69  C   UNL A   1      46.413  26.988  30.349  1.00  0.00     0.031 A 
BRANCH  56  70
ATOM     70  C   UNL A   1      43.699  32.313  31.913  1.00  0.00    -0.014 A 
ATOM     71  C   UNL A   1      44.071  33.430  31.147  1.00  0.00     0.009 A 
ATOM     72  C   UNL A   1      43.419  32.490  33.276  1.00  0.00     0.009 A 
ATOM     73  C   UNL A   1      44.197  34.687  31.743  1.00  0.00     0.001 A 
ATOM     74  C   UNL A   1      43.512  33.754  33.863  1.00  0.00     0.001 A 
ATOM     75  C   UNL A   1      43.912  34.849  33.098  1.00  0.00     0.000 A 
ENDBRANCH  56  70
BRANCH  57  76
ATOM     76  C   UNL A   1      42.378  23.432  27.571  1.00  0.00    -0.014 A 
ATOM     77  C   UNL A   1      42.621  23.280  26.197  1.00  0.00     0.009 A 
ATOM     78  C   UNL A   1      41.938  22.320  28.306  1.00  0.00     0.009 A 
ATOM     79  C   UNL A   1      42.400  22.052  25.569  1.00  0.00     0.001 A 
ATOM     80  C   UNL A   1      41.750  21.085  27.683  1.00  0.00     0.001 A 
ATOM     81  C   UNL A   1      41.971  20.955  26.313  1.00  0.00     0.000 A 
ENDBRANCH  57  76
BRANCH  69  82
ATOM     82  C   UNL A   1      47.822  26.534  30.619  1.00  0.00    -0.014 A 
ATOM     83  C   UNL A   1      48.836  26.657  29.655  1.00  0.00     0.009 A 
ATOM     84  C   UNL A   1      48.148  26.006  31.879  1.00  0.00     0.009 A 
ATOM     85  C   UNL A   1      50.135  26.224  29.936  1.00  0.00     0.001 A 
ATOM     86  C   UNL A   1      49.453  25.606  32.169  1.00  0.00     0.001 A 
ATOM     87  C   UNL A   1      50.443  25.704  31.193  1.00  0.00     0.000 A 
ENDBRANCH  69  82
ENDBRANCH  43  44
ENDBRANCH  36  38
ENDBRANCH  35  36
ENDBRANCH  34  35
ENDBRANCH  33  34
ENDBRANCH  32  33
ENDBRANCH  31  32
ENDBRANCH  30  31
ENDBRANCH  29  30
ENDBRANCH   1  29
TORSDOF 23
ENDMDL
MODEL 2
REMARK VINA RESULT:      -7.6      7.164     13.476
REMARK SMILES CC1(C)[C@@H](C(=O)NCCc2ccc(S(N)(=O)=O)cc2)[C@@H]1C(=O)OCCOCCOCCOC(=O)c1ccc(-c2c3nc(c(-c4ccccc4)c4ccc([nH]4)c(-c4ccccc4)c4nc(c(-c5ccccc5)c5ccc2[nH]5)C=C4)C=C3)cc1
REMARK SMILES IDX 25 1 24 2 23 3 21 4 22 5 20 6 1 7 2 8 3 9 4 10 5 11 6 12
REMARK SMILES IDX 7 13 8 15 9 16 10 17 11 18 19 19 12 20 18 21 13 22 14 23
REMARK SMILES IDX 16 24 17 25 15 26 26 29 27 30 28 31 29 32 30 33 31 34 32 35
REMARK SMILES IDX 33 36 34 37 35 38 36 39 82 40 37 41 81 42 38 43 39 44 40 45
REMARK SMILES IDX 75 46 41 47 80 48 74 49 76 50 42 51 79 52 73 53 72 54 43 56
REMARK SMILES IDX 65 57 50 58 64 59 51 60 54 61 63 62 77 63 52 64 53 65 62 67
REMARK SMILES IDX 78 68 55 69 44 70 45 71 49 72 46 73 48 74 47 75 66 76 67 77
REMARK SMILES IDX 71 78 68 79 70 80 69 81 56 82 57 83 61 84 58 85 60 86 59 87
REMARK H PARENT 7 14 15 27 15 28 76 55 54 66
REMARK Flexibility Score: inf
ROOT
ATOM      1  C   UNL A   1      31.687  29.667  26.393  1.00  0.00     0.202 C 
ENDROOT
BRANCH   1   2
ATOM      2  C   UNL A   1      31.845  29.689  24.861  1.00  0.00     0.261 C 
BRANCH   2   3
ATOM      3  O   UNL A   1      32.122  28.423  24.239  1.00  0.00    -0.463 OA
BRANCH   3   4
ATOM      4  C   UNL A   1      31.032  27.749  23.783  1.00  0.00     0.310 C 
ATOM      5  O   UNL A   1      29.905  28.207  23.675  1.00  0.00    -0.252 OA
BRANCH   4   6
ATOM      6  C   UNL A   1      31.393  26.407  23.249  1.00  0.00     0.118 C 
ATOM      7  C   UNL A   1      30.792  23.942  23.568  1.00  0.00     0.013 C 
ATOM      8  C   UNL A   1      31.420  25.192  24.147  1.00  0.00    -0.009 C 
ATOM      9  C   UNL A   1      31.193  25.336  25.630  1.00  0.00     0.013 C 
ATOM     10  C   UNL A   1      32.725  25.757  23.548  1.00  0.00     0.100 C 
BRANCH  10  11
ATOM     11  C   UNL A   1      33.474  24.843  22.645  1.00  0.00     0.224 C 
ATOM     12  O   UNL A   1      33.173  24.800  21.456  1.00  0.00    -0.275 OA
ATOM     13  N   UNL A   1      34.505  24.066  23.090  1.00  0.00    -0.355 N 
ATOM     14  H   UNL A   1      35.025  23.633  22.375  1.00  0.00     0.163 HD
BRANCH  13  15
ATOM     15  C   UNL A   1      34.968  23.767  24.430  1.00  0.00     0.120 C 
BRANCH  15  16
ATOM     16  C   UNL A   1      34.086  22.797  25.232  1.00  0.00     0.056 C 
BRANCH  16  17
ATOM     17  C   UNL A   1      34.074  21.335  24.829  1.00  0.00    -0.046 A 
ATOM     18  C   UNL A   1      35.193  20.524  25.097  1.00  0.00     0.005 A 
ATOM     19  C   UNL A   1      32.922  20.727  24.311  1.00  0.00     0.005 A 
ATOM     20  C   UNL A   1      35.160  19.146  24.848  1.00  0.00     0.022 A 
ATOM     21  C   UNL A   1      32.893  19.359  24.030  1.00  0.00     0.022 A 
ATOM     22  C   UNL A   1      34.008  18.572  24.311  1.00  0.00     0.082 A 
BRANCH  22  23
ATOM     23  S   UNL A   1      33.926  16.827  24.044  1.00  0.00     0.238 S 
ATOM     24  O   UNL A   1      33.762  16.586  22.623  1.00  0.00    -0.207 OA
ATOM     25  O   UNL A   1      34.937  16.171  24.829  1.00  0.00    -0.207 OA
BRANCH  23  26
ATOM     26  N   UNL A   1      32.466  16.405  24.758  1.00  0.00    -0.225 NA
ATOM     27  H   UNL A   1      31.797  17.166  24.640  1.00  0.00     0.137 HD
ATOM     28  H   UNL A   1      32.611  16.232  25.753  1.00  0.00     0.137 HD
ENDBRANCH  23  26
ENDBRANCH  22  23
ENDBRANCH  16  17
ENDBRANCH  15  16
ENDBRANCH  13  15
ENDBRANCH  10  11
ENDBRANCH   4   6
ENDBRANCH   3   4
ENDBRANCH   2   3
ENDBRANCH   1   2
BRANCH   1  29
ATOM     29  O   UNL A   1      32.810  29.823  27.251  1.00  0.00    -0.376 OA
BRANCH  29  30
ATOM     30  C   UNL A   1      33.925  28.952  27.143  1.00  0.00     0.188 C 
BRANCH  30  31
ATOM     31  C   UNL A   1      35.349  29.490  27.365  1.00  0.00     0.188 C 
BRANCH  31  32
ATOM     32  O   UNL A   1      35.581  30.080  28.618  1.00  0.00    -0.376 OA
BRANCH  32  33
ATOM     33  C   UNL A   1      36.900  30.060  29.140  1.00  0.00     0.202 C 
BRANCH  33  34
ATOM     34  C   UNL A   1      37.325  29.160  30.322  1.00  0.00     0.261 C 
BRANCH  34  35
ATOM     35  O   UNL A   1      36.836  29.479  31.634  1.00  0.00    -0.460 OA
BRANCH  35  36
ATOM     36  C   UNL A   1      37.488  28.930  32.687  1.00  0.00     0.338 C 
ATOM     37  O   UNL A   1      37.767  27.754  32.841  1.00  0.00    -0.246 OA
BRANCH  36  38
ATOM     38  C   UNL A   1      38.024  30.026  33.527  1.00  0.00     0.060 A 
ATOM     39  C   UNL A   1      39.197  29.802  34.265  1.00  0.00     0.016 A 
ATOM     40  C   UNL A   1      37.372  31.258  33.604  1.00  0.00     0.016 A 
ATOM     41  C   UNL A   1      39.697  30.794  35.110  1.00  0.00     0.010 A 
ATOM     42  C   UNL A   1      37.862  32.243  34.469  1.00  0.00     0.010 A 
ATOM     43  C   UNL A   1      39.006  32.005  35.254  1.00  0.00    -0.014 A 
BRANCH  43  44
ATOM     44  C   UNL A   1      39.367  32.932  36.356  1.00  0.00     0.031 A 
ATOM     45  C   UNL A   1      40.447  33.955  36.112  1.00  0.00     0.074 A 
ATOM     46  C   UNL A   1      38.737  32.899  37.544  1.00  0.00     0.049 A 
ATOM     47  N   UNL A   1      40.945  34.850  36.926  1.00  0.00    -0.248 NA
ATOM     48  C   UNL A   1      41.043  33.967  34.765  1.00  0.00     0.031 C 
ATOM     49  C   UNL A   1      37.645  31.996  37.899  1.00  0.00     0.029 A 
ATOM     50  N   UNL A   1      38.936  33.651  38.676  1.00  0.00    -0.354 N 
ATOM     51  C   UNL A   1      41.918  35.522  36.196  1.00  0.00     0.074 A 
ATOM     52  C   UNL A   1      41.963  34.911  34.885  1.00  0.00     0.031 C 
ATOM     53  C   UNL A   1      37.271  32.244  39.167  1.00  0.00     0.029 A 
ATOM     54  C   UNL A   1      38.120  33.296  39.724  1.00  0.00     0.049 A 
ATOM     55  H   UNL A   1      39.599  34.377  38.732  1.00  0.00     0.167 HD
ATOM     56  C   UNL A   1      42.704  36.559  36.576  1.00  0.00     0.031 A 
ATOM     57  C   UNL A   1      38.077  33.754  40.991  1.00  0.00     0.031 A 
ATOM     58  C   UNL A   1      42.676  37.159  37.883  1.00  0.00     0.049 A 
ATOM     59  C   UNL A   1      39.019  34.852  41.416  1.00  0.00     0.074 A 
ATOM     60  C   UNL A   1      43.424  38.221  38.359  1.00  0.00     0.029 A 
ATOM     61  N   UNL A   1      41.865  36.741  38.927  1.00  0.00    -0.354 N 
ATOM     62  N   UNL A   1      39.915  35.497  40.709  1.00  0.00    -0.248 NA
ATOM     63  C   UNL A   1      38.932  35.292  42.817  1.00  0.00     0.031 C 
ATOM     64  C   UNL A   1      43.113  38.404  39.710  1.00  0.00     0.029 A 
ATOM     65  C   UNL A   1      42.116  37.505  40.054  1.00  0.00     0.049 A 
ATOM     66  H   UNL A   1      41.209  36.009  38.875  1.00  0.00     0.167 HD
ATOM     67  C   UNL A   1      40.470  36.442  41.567  1.00  0.00     0.074 A 
ATOM     68  C   UNL A   1      39.799  36.295  42.841  1.00  0.00     0.031 C 
ATOM     69  C   UNL A   1      41.442  37.354  41.318  1.00  0.00     0.031 A 
BRANCH  56  70
ATOM     70  C   UNL A   1      43.692  37.084  35.570  1.00  0.00    -0.014 A 
ATOM     71  C   UNL A   1      43.366  38.140  34.703  1.00  0.00     0.009 A 
ATOM     72  C   UNL A   1      44.981  36.533  35.512  1.00  0.00     0.009 A 
ATOM     73  C   UNL A   1      44.300  38.605  33.774  1.00  0.00     0.001 A 
ATOM     74  C   UNL A   1      45.924  37.023  34.606  1.00  0.00     0.001 A 
ATOM     75  C   UNL A   1      45.578  38.051  33.730  1.00  0.00     0.000 A 
ENDBRANCH  56  70
BRANCH  57  76
ATOM     76  C   UNL A   1      37.118  33.169  41.966  1.00  0.00    -0.014 A 
ATOM     77  C   UNL A   1      37.488  32.084  42.778  1.00  0.00     0.009 A 
ATOM     78  C   UNL A   1      35.811  33.673  42.069  1.00  0.00     0.009 A 
ATOM     79  C   UNL A   1      36.564  31.501  43.648  1.00  0.00     0.001 A 
ATOM     80  C   UNL A   1      34.899  33.110  42.964  1.00  0.00     0.001 A 
ATOM     81  C   UNL A   1      35.273  32.018  43.744  1.00  0.00     0.000 A 
ENDBRANCH  57  76
BRANCH  69  82
ATOM     82  C   UNL A   1      41.804  38.303  42.428  1.00  0.00    -0.014 A 
ATOM     83  C   UNL A   1      42.851  38.030  43.323  1.00  0.00     0.009 A 
ATOM     84  C   UNL A   1      41.106  39.516  42.555  1.00  0.00     0.009 A 
ATOM     85  C   UNL A   1      43.162  38.930  44.345  1.00  0.00     0.001 A 
ATOM     86  C   UNL A   1      41.441  40.430  43.555  1.00  0.00     0.001 A 
ATOM     87  C   UNL A   1      42.461  40.131  44.456  1.00  0.00     0.000 A 
ENDBRANCH  69  82
ENDBRANCH  43  44
ENDBRANCH  36  38
ENDBRANCH  35  36
ENDBRANCH  34  35
ENDBRANCH  33  34
ENDBRANCH  32  33
ENDBRANCH  31  32
ENDBRANCH  30  31
ENDBRANCH  29  30
ENDBRANCH   1  29
TORSDOF 23
ENDMDL
MODEL 3
REMARK VINA RESULT:      -7.5      2.719      6.965
REMARK SMILES CC1(C)[C@@H](C(=O)NCCc2ccc(S(N)(=O)=O)cc2)[C@@H]1C(=O)OCCOCCOCCOC(=O)c1ccc(-c2c3nc(c(-c4ccccc4)c4ccc([nH]4)c(-c4ccccc4)c4nc(c(-c5ccccc5)c5ccc2[nH]5)C=C4)C=C3)cc1
REMARK SMILES IDX 25 1 24 2 23 3 21 4 22 5 20 6 1 7 2 8 3 9 4 10 5 11 6 12
REMARK SMILES IDX 7 13 8 15 9 16 10 17 11 18 19 19 12 20 18 21 13 22 14 23
REMARK SMILES IDX 16 24 17 25 15 26 26 29 27 30 28 31 29 32 30 33 31 34 32 35
REMARK SMILES IDX 33 36 34 37 35 38 36 39 82 40 37 41 81 42 38 43 39 44 40 45
REMARK SMILES IDX 75 46 41 47 80 48 74 49 76 50 42 51 79 52 73 53 72 54 43 56
REMARK SMILES IDX 65 57 50 58 64 59 51 60 54 61 63 62 77 63 52 64 53 65 62 67
REMARK SMILES IDX 78 68 55 69 44 70 45 71 49 72 46 73 48 74 47 75 66 76 67 77
REMARK SMILES IDX 71 78 68 79 70 80 69 81 56 82 57 83 61 84 58 85 60 86 59 87
REMARK H PARENT 7 14 15 27 15 28 76 55 54 66
REMARK Flexibility Score: inf
ROOT
ATOM      1  C   UNL A   1      34.771  35.189  33.706  1.00  0.00     0.202 C 
ENDROOT
BRANCH   1   2
ATOM      2  C   UNL A   1      36.181  34.584  33.854  1.00  0.00     0.261 C 
BRANCH   2   3
ATOM      3  O   UNL A   1      36.330  33.222  33.422  1.00  0.00    -0.463 OA
BRANCH   3   4
ATOM      4  C   UNL A   1      37.584  32.870  33.032  1.00  0.00     0.310 C 
ATOM      5  O   UNL A   1      37.996  32.862  31.882  1.00  0.00    -0.252 OA
BRANCH   4   6
ATOM      6  C   UNL A   1      38.487  32.654  34.195  1.00  0.00     0.118 C 
ATOM      7  C   UNL A   1      40.280  31.022  35.010  1.00  0.00     0.013 C 
ATOM      8  C   UNL A   1      38.823  31.260  34.672  1.00  0.00    -0.009 C 
ATOM      9  C   UNL A   1      38.157  30.060  34.050  1.00  0.00     0.013 C 
ATOM     10  C   UNL A   1      37.967  32.204  35.541  1.00  0.00     0.100 C 
BRANCH  10  11
ATOM     11  C   UNL A   1      38.540  32.567  36.865  1.00  0.00     0.224 C 
ATOM     12  O   UNL A   1      38.320  31.841  37.830  1.00  0.00    -0.275 OA
ATOM     13  N   UNL A   1      39.325  33.670  37.039  1.00  0.00    -0.355 N 
ATOM     14  H   UNL A   1      39.776  33.714  37.913  1.00  0.00     0.163 HD
BRANCH  13  15
ATOM     15  C   UNL A   1      39.611  34.788  36.163  1.00  0.00     0.120 C 
BRANCH  15  16
ATOM     16  C   UNL A   1      41.083  35.226  36.111  1.00  0.00     0.056 C 
BRANCH  16  17
ATOM     17  C   UNL A   1      41.677  35.592  34.765  1.00  0.00    -0.046 A 
ATOM     18  C   UNL A   1      42.558  36.685  34.659  1.00  0.00     0.005 A 
ATOM     19  C   UNL A   1      41.478  34.789  33.633  1.00  0.00     0.005 A 
ATOM     20  C   UNL A   1      43.216  36.967  33.455  1.00  0.00     0.022 A 
ATOM     21  C   UNL A   1      42.104  35.084  32.420  1.00  0.00     0.022 A 
ATOM     22  C   UNL A   1      42.980  36.164  32.339  1.00  0.00     0.082 A 
BRANCH  22  23
ATOM     23  S   UNL A   1      43.843  36.469  30.827  1.00  0.00     0.238 S 
ATOM     24  O   UNL A   1      43.781  37.889  30.540  1.00  0.00    -0.207 OA
ATOM     25  O   UNL A   1      45.077  35.730  30.819  1.00  0.00    -0.207 OA
BRANCH  23  26
ATOM     26  N   UNL A   1      42.871  35.719  29.682  1.00  0.00    -0.225 NA
ATOM     27  H   UNL A   1      42.676  34.762  29.974  1.00  0.00     0.137 HD
ATOM     28  H   UNL A   1      43.351  35.709  28.782  1.00  0.00     0.137 HD
ENDBRANCH  23  26
ENDBRANCH  22  23
ENDBRANCH  16  17
ENDBRANCH  15  16
ENDBRANCH  13  15
ENDBRANCH  10  11
ENDBRANCH   4   6
ENDBRANCH   3   4
ENDBRANCH   2   3
ENDBRANCH   1   2
BRANCH   1  29
ATOM     29  O   UNL A   1      34.575  36.456  33.093  1.00  0.00    -0.376 OA
BRANCH  29  30
ATOM     30  C   UNL A   1      33.604  36.620  32.071  1.00  0.00     0.188 C 
BRANCH  30  31
ATOM     31  C   UNL A   1      32.798  35.409  31.571  1.00  0.00     0.188 C 
BRANCH  31  32
ATOM     32  O   UNL A   1      32.750  35.254  30.176  1.00  0.00    -0.376 OA
BRANCH  32  33
ATOM     33  C   UNL A   1      33.865  34.668  29.523  1.00  0.00     0.202 C 
BRANCH  33  34
ATOM     34  C   UNL A   1      34.963  33.881  30.274  1.00  0.00     0.261 C 
BRANCH  34  35
ATOM     35  O   UNL A   1      34.789  32.466  30.454  1.00  0.00    -0.460 OA
BRANCH  35  36
ATOM     36  C   UNL A   1      34.879  31.688  29.348  1.00  0.00     0.338 C 
ATOM     37  O   UNL A   1      34.150  31.718  28.373  1.00  0.00    -0.246 OA
BRANCH  36  38
ATOM     38  C   UNL A   1      36.157  30.941  29.406  1.00  0.00     0.060 A 
ATOM     39  C   UNL A   1      36.360  30.028  30.452  1.00  0.00     0.016 A 
ATOM     40  C   UNL A   1      37.155  31.148  28.452  1.00  0.00     0.016 A 
ATOM     41  C   UNL A   1      37.575  29.349  30.568  1.00  0.00     0.010 A 
ATOM     42  C   UNL A   1      38.381  30.484  28.583  1.00  0.00     0.010 A 
ATOM     43  C   UNL A   1      38.611  29.608  29.661  1.00  0.00    -0.014 A 
BRANCH  43  44
ATOM     44  C   UNL A   1      39.982  29.117  29.950  1.00  0.00     0.031 A 
ATOM     45  C   UNL A   1      40.413  27.797  29.364  1.00  0.00     0.074 A 
ATOM     46  C   UNL A   1      40.849  29.833  30.689  1.00  0.00     0.049 A 
ATOM     47  N   UNL A   1      41.547  27.158  29.496  1.00  0.00    -0.248 NA
ATOM     48  C   UNL A   1      39.427  27.107  28.515  1.00  0.00     0.031 C 
ATOM     49  C   UNL A   1      40.582  31.144  31.275  1.00  0.00     0.029 A 
ATOM     50  N   UNL A   1      42.136  29.545  31.075  1.00  0.00    -0.354 N 
ATOM     51  C   UNL A   1      41.407  25.988  28.758  1.00  0.00     0.074 A 
ATOM     52  C   UNL A   1      40.069  25.991  28.208  1.00  0.00     0.031 C 
ATOM     53  C   UNL A   1      41.672  31.548  31.951  1.00  0.00     0.029 A 
ATOM     54  C   UNL A   1      42.699  30.510  31.876  1.00  0.00     0.049 A 
ATOM     55  H   UNL A   1      42.610  28.727  30.802  1.00  0.00     0.167 HD
ATOM     56  C   UNL A   1      42.311  25.000  28.550  1.00  0.00     0.031 A 
ATOM     57  C   UNL A   1      43.897  30.541  32.493  1.00  0.00     0.031 A 
ATOM     58  C   UNL A   1      43.636  24.984  29.108  1.00  0.00     0.049 A 
ATOM     59  C   UNL A   1      44.855  29.390  32.315  1.00  0.00     0.074 A 
ATOM     60  C   UNL A   1      44.628  24.034  28.944  1.00  0.00     0.029 A 
ATOM     61  N   UNL A   1      44.151  25.959  29.948  1.00  0.00    -0.354 N 
ATOM     62  N   UNL A   1      44.722  28.303  31.593  1.00  0.00    -0.248 NA
ATOM     63  C   UNL A   1      46.137  29.480  33.031  1.00  0.00     0.031 C 
ATOM     64  C   UNL A   1      45.720  24.400  29.737  1.00  0.00     0.029 A 
ATOM     65  C   UNL A   1      45.437  25.618  30.335  1.00  0.00     0.049 A 
ATOM     66  H   UNL A   1      43.674  26.773  30.229  1.00  0.00     0.167 HD
ATOM     67  C   UNL A   1      45.914  27.601  31.738  1.00  0.00     0.074 A 
ATOM     68  C   UNL A   1      46.763  28.392  32.604  1.00  0.00     0.031 C 
ATOM     69  C   UNL A   1      46.275  26.412  31.196  1.00  0.00     0.031 A 
BRANCH  56  70
ATOM     70  C   UNL A   1      41.876  23.830  27.709  1.00  0.00    -0.014 A 
ATOM     71  C   UNL A   1      40.884  22.939  28.149  1.00  0.00     0.009 A 
ATOM     72  C   UNL A   1      42.446  23.637  26.442  1.00  0.00     0.009 A 
ATOM     73  C   UNL A   1      40.501  21.858  27.352  1.00  0.00     0.001 A 
ATOM     74  C   UNL A   1      42.038  22.575  25.632  1.00  0.00     0.001 A 
ATOM     75  C   UNL A   1      41.073  21.680  26.093  1.00  0.00     0.000 A 
ENDBRANCH  56  70
BRANCH  57  76
ATOM     76  C   UNL A   1      44.264  31.696  33.357  1.00  0.00    -0.014 A 
ATOM     77  C   UNL A   1      43.838  31.759  34.693  1.00  0.00     0.009 A 
ATOM     78  C   UNL A   1      45.019  32.760  32.839  1.00  0.00     0.009 A 
ATOM     79  C   UNL A   1      44.135  32.874  35.481  1.00  0.00     0.001 A 
ATOM     80  C   UNL A   1      45.343  33.858  33.637  1.00  0.00     0.001 A 
ATOM     81  C   UNL A   1      44.891  33.919  34.955  1.00  0.00     0.000 A 
ENDBRANCH  57  76
BRANCH  69  82
ATOM     82  C   UNL A   1      47.668  25.915  31.476  1.00  0.00    -0.014 A 
ATOM     83  C   UNL A   1      48.004  25.308  32.696  1.00  0.00     0.009 A 
ATOM     84  C   UNL A   1      48.654  26.023  30.481  1.00  0.00     0.009 A 
ATOM     85  C   UNL A   1      49.307  24.858  32.928  1.00  0.00     0.001 A 
ATOM     86  C   UNL A   1      49.945  25.543  30.701  1.00  0.00     0.001 A 
ATOM     87  C   UNL A   1      50.274  24.971  31.929  1.00  0.00     0.000 A 
ENDBRANCH  69  82
ENDBRANCH  43  44
ENDBRANCH  36  38
ENDBRANCH  35  36
ENDBRANCH  34  35
ENDBRANCH  33  34
ENDBRANCH  32  33
ENDBRANCH  31  32
ENDBRANCH  30  31
ENDBRANCH  29  30
ENDBRANCH   1  29
TORSDOF 23
ENDMDL
