MODEL 1
REMARK VINA RESULT:      -9.7      0.000      0.000
REMARK SMILES O=C(NC(=S)Nc1cc(C(=O)OCCOCCOCCOC(=O)c2ccc(-c3c4nc(c(-c5ccccc5)c5ccc([nH]5)c(-c5ccccc5)c5nc(c(-c6ccccc6)c6ccc3[nH]6)C=C5)C=C4)cc2)ccc1Br)c1ccc(F)cc1
REMARK SMILES IDX 16 1 15 2 14 3 13 4 12 5 10 6 11 7 9 8 7 9 8 10 74 11 73 12
REMARK SMILES IDX 75 13 72 14 6 15 4 17 5 18 3 19 1 20 2 21 76 23 77 24 82 25
REMARK SMILES IDX 78 26 81 27 79 28 80 29 17 30 18 31 19 32 20 33 21 34 22 35
REMARK SMILES IDX 23 36 24 37 25 38 71 39 26 40 70 41 27 42 28 43 29 44 64 45
REMARK SMILES IDX 30 46 69 47 63 48 65 49 31 50 68 51 62 52 61 53 32 55 54 56
REMARK SMILES IDX 39 57 53 58 40 59 43 60 52 61 66 62 41 63 42 64 51 66 67 67
REMARK SMILES IDX 44 68 33 69 34 70 38 71 35 72 37 73 36 74 55 75 56 76 60 77
REMARK SMILES IDX 57 78 59 79 58 80 45 81 46 82 50 83 47 84 49 85 48 86
REMARK H PARENT 6 16 3 22 65 54 43 65
REMARK Flexibility Score: inf
ROOT
ATOM      1  C   UNL A   1      34.168  32.325  28.115  1.00  0.00     0.188 C 
ENDROOT
BRANCH   1   2
ATOM      2  O   UNL A   1      34.262  31.171  27.286  1.00  0.00    -0.376 OA
BRANCH   2   3
ATOM      3  C   UNL A   1      33.059  30.400  27.194  1.00  0.00     0.202 C 
BRANCH   3   4
ATOM      4  C   UNL A   1      32.632  30.100  25.747  1.00  0.00     0.261 C 
BRANCH   4   5
ATOM      5  O   UNL A   1      33.734  29.603  24.955  1.00  0.00    -0.460 OA
BRANCH   5   6
ATOM      6  C   UNL A   1      33.411  28.670  24.034  1.00  0.00     0.338 C 
ATOM      7  O   UNL A   1      33.745  28.608  22.865  1.00  0.00    -0.246 OA
BRANCH   6   8
ATOM      8  C   UNL A   1      32.708  27.554  24.679  1.00  0.00     0.062 A 
ATOM      9  C   UNL A   1      32.739  24.747  26.492  1.00  0.00     0.055 A 
ATOM     10  C   UNL A   1      33.770  26.284  25.806  1.00  0.00     0.043 A 
ATOM     11  C   UNL A   1      30.829  24.323  26.238  1.00  0.00     0.041 A 
ATOM     12  C   UNL A   1      29.776  25.602  25.112  1.00  0.00     0.019 A 
ATOM     13  Br  UNL A   1      30.062  22.714  26.861  1.00  0.00    -0.049 Br
ATOM     14  C   UNL A   1      30.808  27.129  24.422  1.00  0.00     0.017 A 
BRANCH   9  15
ATOM     15  N   UNL A   1      33.562  23.680  26.838  1.00  0.00    -0.331 N 
ATOM     16  H   UNL A   1      33.882  23.622  27.767  1.00  0.00     0.169 HD
BRANCH  15  17
ATOM     17  C   UNL A   1      33.947  22.722  25.972  1.00  0.00     0.177 C 
ATOM     18  S   UNL A   1      35.360  22.949  25.107  1.00  0.00    -0.040 S 
BRANCH  17  19
ATOM     19  N   UNL A   1      33.193  21.593  25.714  1.00  0.00    -0.299 N 
ATOM     20  O   UNL A   1      31.990  19.810  24.989  1.00  0.00    -0.269 OA
ATOM     21  C   UNL A   1      32.449  20.924  24.722  1.00  0.00     0.257 C 
ATOM     22  H   UNL A   1      33.167  21.049  26.535  1.00  0.00     0.172 HD
BRANCH  21  23
ATOM     23  C   UNL A   1      32.183  21.383  23.348  1.00  0.00     0.040 A 
ATOM     24  C   UNL A   1      32.732  22.244  22.565  1.00  0.00     0.017 A 
ATOM     25  C   UNL A   1      31.868  22.620  23.128  1.00  0.00     0.017 A 
ATOM     26  C   UNL A   1      33.064  24.112  21.793  1.00  0.00     0.040 A 
ATOM     27  C   UNL A   1      32.185  24.496  22.360  1.00  0.00     0.040 A 
ATOM     28  C   UNL A   1      32.922  25.386  21.802  1.00  0.00     0.123 A 
ATOM     29  F   UNL A   1      32.585  26.128  20.748  1.00  0.00    -0.207 F 
ENDBRANCH  21  23
ENDBRANCH  17  19
ENDBRANCH  15  17
ENDBRANCH   9  15
ENDBRANCH   6   8
ENDBRANCH   5   6
ENDBRANCH   4   5
ENDBRANCH   3   4
ENDBRANCH   2   3
ENDBRANCH   1   2
BRANCH   1  30
ATOM     30  C   UNL A   1      35.248  33.374  27.867  1.00  0.00     0.188 C 
BRANCH  30  31
ATOM     31  O   UNL A   1      35.064  34.516  28.706  1.00  0.00    -0.376 OA
BRANCH  31  32
ATOM     32  C   UNL A   1      33.979  34.412  29.637  1.00  0.00     0.202 C 
BRANCH  32  33
ATOM     33  C   UNL A   1      34.406  34.558  31.105  1.00  0.00     0.261 C 
BRANCH  33  34
ATOM     34  O   UNL A   1      34.136  33.361  31.859  1.00  0.00    -0.460 OA
BRANCH  34  35
ATOM     35  C   UNL A   1      35.129  32.439  31.846  1.00  0.00     0.338 C 
ATOM     36  O   UNL A   1      35.452  31.734  30.905  1.00  0.00    -0.246 OA
BRANCH  35  37
ATOM     37  C   UNL A   1      35.916  32.559  33.096  1.00  0.00     0.060 A 
ATOM     38  C   UNL A   1      35.629  33.631  33.952  1.00  0.00     0.016 A 
ATOM     39  C   UNL A   1      36.901  31.626  33.442  1.00  0.00     0.016 A 
ATOM     40  C   UNL A   1      36.368  33.807  35.122  1.00  0.00     0.010 A 
ATOM     41  C   UNL A   1      37.643  31.803  34.611  1.00  0.00     0.010 A 
ATOM     42  C   UNL A   1      37.406  32.916  35.432  1.00  0.00    -0.014 A 
BRANCH  42  43
ATOM     43  C   UNL A   1      38.392  33.278  36.473  1.00  0.00     0.031 A 
ATOM     44  C   UNL A   1      39.585  34.095  36.060  1.00  0.00     0.074 A 
ATOM     45  C   UNL A   1      38.242  32.898  37.753  1.00  0.00     0.049 A 
ATOM     46  N   UNL A   1      40.569  34.556  36.788  1.00  0.00    -0.248 NA
ATOM     47  C   UNL A   1      39.677  34.441  34.630  1.00  0.00     0.031 C 
ATOM     48  C   UNL A   1      37.131  32.113  38.288  1.00  0.00     0.029 A 
ATOM     49  N   UNL A   1      39.048  33.127  38.840  1.00  0.00    -0.354 N 
ATOM     50  C   UNL A   1      41.386  35.254  35.911  1.00  0.00     0.074 A 
ATOM     51  C   UNL A   1      40.802  35.138  34.593  1.00  0.00     0.031 C 
ATOM     52  C   UNL A   1      37.329  31.922  39.605  1.00  0.00     0.029 A 
ATOM     53  C   UNL A   1      38.584  32.560  39.999  1.00  0.00     0.049 A 
ATOM     54  H   UNL A   1      39.882  33.649  38.791  1.00  0.00     0.167 HD
ATOM     55  C   UNL A   1      42.520  35.942  36.173  1.00  0.00     0.031 A 
ATOM     56  C   UNL A   1      39.118  32.556  41.235  1.00  0.00     0.031 A 
ATOM     57  C   UNL A   1      43.131  36.038  37.467  1.00  0.00     0.049 A 
ATOM     58  C   UNL A   1      40.420  33.269  41.489  1.00  0.00     0.074 A 
ATOM     59  C   UNL A   1      44.283  36.713  37.831  1.00  0.00     0.029 A 
ATOM     60  N   UNL A   1      42.642  35.425  38.608  1.00  0.00    -0.354 N 
ATOM     61  N   UNL A   1      41.159  33.963  40.658  1.00  0.00    -0.248 NA
ATOM     62  C   UNL A   1      40.956  33.198  42.858  1.00  0.00     0.031 C 
ATOM     63  C   UNL A   1      44.506  36.484  39.194  1.00  0.00     0.029 A 
ATOM     64  C   UNL A   1      43.478  35.690  39.677  1.00  0.00     0.049 A 
ATOM     65  H   UNL A   1      41.822  34.883  38.652  1.00  0.00     0.167 HD
ATOM     66  C   UNL A   1      42.232  34.430  41.407  1.00  0.00     0.074 A 
ATOM     67  C   UNL A   1      42.049  33.943  42.758  1.00  0.00     0.031 C 
ATOM     68  C   UNL A   1      43.275  35.198  41.012  1.00  0.00     0.031 A 
BRANCH  55  69
ATOM     69  C   UNL A   1      43.174  36.626  35.013  1.00  0.00    -0.014 A 
ATOM     70  C   UNL A   1      42.828  37.944  34.675  1.00  0.00     0.009 A 
ATOM     71  C   UNL A   1      44.128  35.945  34.244  1.00  0.00     0.009 A 
ATOM     72  C   UNL A   1      43.410  38.560  33.567  1.00  0.00     0.001 A 
ATOM     73  C   UNL A   1      44.717  36.570  33.143  1.00  0.00     0.001 A 
ATOM     74  C   UNL A   1      44.353  37.873  32.802  1.00  0.00     0.000 A 
ENDBRANCH  55  69
BRANCH  56  75
ATOM     75  C   UNL A   1      38.431  31.850  42.343  1.00  0.00    -0.014 A 
ATOM     76  C   UNL A   1      38.658  30.484  42.562  1.00  0.00     0.009 A 
ATOM     77  C   UNL A   1      37.515  32.532  43.158  1.00  0.00     0.009 A 
ATOM     78  C   UNL A   1      37.963  29.806  43.566  1.00  0.00     0.001 A 
ATOM     79  C   UNL A   1      36.833  31.854  44.171  1.00  0.00     0.001 A 
ATOM     80  C   UNL A   1      37.051  30.491  44.370  1.00  0.00     0.000 A 
ENDBRANCH  56  75
BRANCH  68  81
ATOM     81  C   UNL A   1      44.281  35.580  42.055  1.00  0.00    -0.014 A 
ATOM     82  C   UNL A   1      45.421  34.794  42.277  1.00  0.00     0.009 A 
ATOM     83  C   UNL A   1      44.114  36.769  42.782  1.00  0.00     0.009 A 
ATOM     84  C   UNL A   1      46.368  35.183  43.226  1.00  0.00     0.001 A 
ATOM     85  C   UNL A   1      45.070  37.164  43.718  1.00  0.00     0.001 A 
ATOM     86  C   UNL A   1      46.194  36.368  43.942  1.00  0.00     0.000 A 
ENDBRANCH  68  81
ENDBRANCH  42  43
ENDBRANCH  35  37
ENDBRANCH  34  35
ENDBRANCH  33  34
ENDBRANCH  32  33
ENDBRANCH  31  32
ENDBRANCH  30  31
ENDBRANCH   1  30
TORSDOF 21
ENDMDL
MODEL 2
REMARK VINA RESULT:      -9.5      6.299      9.751
REMARK SMILES O=C(NC(=S)Nc1cc(C(=O)OCCOCCOCCOC(=O)c2ccc(-c3c4nc(c(-c5ccccc5)c5ccc([nH]5)c(-c5ccccc5)c5nc(c(-c6ccccc6)c6ccc3[nH]6)C=C5)C=C4)cc2)ccc1Br)c1ccc(F)cc1
REMARK SMILES IDX 16 1 15 2 14 3 13 4 12 5 10 6 11 7 9 8 7 9 8 10 74 11 73 12
REMARK SMILES IDX 75 13 72 14 6 15 4 17 5 18 3 19 1 20 2 21 76 23 77 24 82 25
REMARK SMILES IDX 78 26 81 27 79 28 80 29 17 30 18 31 19 32 20 33 21 34 22 35
REMARK SMILES IDX 23 36 24 37 25 38 71 39 26 40 70 41 27 42 28 43 29 44 64 45
REMARK SMILES IDX 30 46 69 47 63 48 65 49 31 50 68 51 62 52 61 53 32 55 54 56
REMARK SMILES IDX 39 57 53 58 40 59 43 60 52 61 66 62 41 63 42 64 51 66 67 67
REMARK SMILES IDX 44 68 33 69 34 70 38 71 35 72 37 73 36 74 55 75 56 76 60 77
REMARK SMILES IDX 57 78 59 79 58 80 45 81 46 82 50 83 47 84 49 85 48 86
REMARK H PARENT 6 16 3 22 65 54 43 65
REMARK Flexibility Score: inf
ROOT
ATOM      1  C   UNL A   1      33.625  34.805  28.565  1.00  0.00     0.188 C 
ENDROOT
BRANCH   1   2
ATOM      2  O   UNL A   1      32.874  33.596  28.576  1.00  0.00    -0.376 OA
BRANCH   2   3
ATOM      3  C   UNL A   1      33.654  32.406  28.413  1.00  0.00     0.202 C 
BRANCH   3   4
ATOM      4  C   UNL A   1      33.402  31.685  27.078  1.00  0.00     0.261 C 
BRANCH   4   5
ATOM      5  O   UNL A   1      32.724  30.423  27.270  1.00  0.00    -0.460 OA
BRANCH   5   6
ATOM      6  C   UNL A   1      33.479  29.323  27.064  1.00  0.00     0.338 C 
ATOM      7  O   UNL A   1      34.216  28.749  27.846  1.00  0.00    -0.246 OA
BRANCH   6   8
ATOM      8  C   UNL A   1      33.160  28.736  25.758  1.00  0.00     0.062 A 
ATOM      9  C   UNL A   1      31.347  26.676  23.851  1.00  0.00     0.055 A 
ATOM     10  C   UNL A   1      31.579  27.515  25.622  1.00  0.00     0.043 A 
ATOM     11  C   UNL A   1      32.436  26.900  22.221  1.00  0.00     0.041 A 
ATOM     12  C   UNL A   1      34.013  28.126  22.366  1.00  0.00     0.019 A 
ATOM     13  Br  UNL A   1      32.130  25.887  20.657  1.00  0.00    -0.049 Br
ATOM     14  C   UNL A   1      34.247  28.956  24.136  1.00  0.00     0.017 A 
BRANCH   9  15
ATOM     15  N   UNL A   1      30.579  25.518  23.919  1.00  0.00    -0.331 N 
ATOM     16  H   UNL A   1      29.651  25.555  23.592  1.00  0.00     0.169 HD
BRANCH  15  17
ATOM     17  C   UNL A   1      31.034  24.347  24.409  1.00  0.00     0.177 C 
ATOM     18  S   UNL A   1      32.167  23.496  23.521  1.00  0.00    -0.040 S 
BRANCH  17  19
ATOM     19  N   UNL A   1      30.556  23.783  25.577  1.00  0.00    -0.299 N 
ATOM     20  O   UNL A   1      30.045  22.935  27.619  1.00  0.00    -0.269 OA
ATOM     21  C   UNL A   1      30.934  23.303  26.846  1.00  0.00     0.257 C 
ATOM     22  H   UNL A   1      29.580  23.678  25.488  1.00  0.00     0.172 HD
BRANCH  21  23
ATOM     23  C   UNL A   1      32.297  23.228  27.399  1.00  0.00     0.040 A 
ATOM     24  C   UNL A   1      33.478  23.267  26.890  1.00  0.00     0.017 A 
ATOM     25  C   UNL A   1      33.083  22.257  27.057  1.00  0.00     0.017 A 
ATOM     26  C   UNL A   1      35.143  22.485  25.989  1.00  0.00     0.040 A 
ATOM     27  C   UNL A   1      34.746  21.459  26.160  1.00  0.00     0.040 A 
ATOM     28  C   UNL A   1      35.778  21.539  25.401  1.00  0.00     0.123 A 
ATOM     29  F   UNL A   1      37.008  21.132  25.711  1.00  0.00    -0.207 F 
ENDBRANCH  21  23
ENDBRANCH  17  19
ENDBRANCH  15  17
ENDBRANCH   9  15
ENDBRANCH   6   8
ENDBRANCH   5   6
ENDBRANCH   4   5
ENDBRANCH   3   4
ENDBRANCH   2   3
ENDBRANCH   1   2
BRANCH   1  30
ATOM     30  C   UNL A   1      32.891  36.013  29.144  1.00  0.00     0.188 C 
BRANCH  30  31
ATOM     31  O   UNL A   1      32.832  35.950  30.569  1.00  0.00    -0.376 OA
BRANCH  31  32
ATOM     32  C   UNL A   1      34.106  35.936  31.226  1.00  0.00     0.202 C 
BRANCH  32  33
ATOM     33  C   UNL A   1      34.051  35.434  32.677  1.00  0.00     0.261 C 
BRANCH  33  34
ATOM     34  O   UNL A   1      35.083  34.468  32.945  1.00  0.00    -0.460 OA
BRANCH  34  35
ATOM     35  C   UNL A   1      34.716  33.174  32.776  1.00  0.00     0.338 C 
ATOM     36  O   UNL A   1      33.619  32.695  33.007  1.00  0.00    -0.246 OA
BRANCH  35  37
ATOM     37  C   UNL A   1      35.798  32.456  32.061  1.00  0.00     0.060 A 
ATOM     38  C   UNL A   1      36.536  31.502  32.775  1.00  0.00     0.016 A 
ATOM     39  C   UNL A   1      36.072  32.690  30.709  1.00  0.00     0.016 A 
ATOM     40  C   UNL A   1      37.587  30.826  32.154  1.00  0.00     0.010 A 
ATOM     41  C   UNL A   1      37.125  32.018  30.088  1.00  0.00     0.010 A 
ATOM     42  C   UNL A   1      37.912  31.115  30.821  1.00  0.00    -0.014 A 
BRANCH  42  43
ATOM     43  C   UNL A   1      39.206  30.660  30.270  1.00  0.00     0.031 A 
ATOM     44  C   UNL A   1      40.358  31.627  30.287  1.00  0.00     0.074 A 
ATOM     45  C   UNL A   1      39.366  29.425  29.766  1.00  0.00     0.049 A 
ATOM     46  N   UNL A   1      41.591  31.456  29.886  1.00  0.00    -0.248 NA
ATOM     47  C   UNL A   1      40.079  32.966  30.834  1.00  0.00     0.031 C 
ATOM     48  C   UNL A   1      38.337  28.389  29.695  1.00  0.00     0.029 A 
ATOM     49  N   UNL A   1      40.475  28.839  29.208  1.00  0.00    -0.354 N 
ATOM     50  C   UNL A   1      42.236  32.657  30.145  1.00  0.00     0.074 A 
ATOM     51  C   UNL A   1      41.257  33.559  30.712  1.00  0.00     0.031 C 
ATOM     52  C   UNL A   1      38.863  27.293  29.121  1.00  0.00     0.029 A 
ATOM     53  C   UNL A   1      40.260  27.555  28.774  1.00  0.00     0.049 A 
ATOM     54  H   UNL A   1      41.342  29.297  29.126  1.00  0.00     0.167 HD
ATOM     55  C   UNL A   1      43.531  32.987  29.939  1.00  0.00     0.031 A 
ATOM     56  C   UNL A   1      41.097  26.696  28.164  1.00  0.00     0.031 A 
ATOM     57  C   UNL A   1      44.506  32.118  29.347  1.00  0.00     0.049 A 
ATOM     58  C   UNL A   1      42.517  27.109  27.880  1.00  0.00     0.074 A 
ATOM     59  C   UNL A   1      45.844  32.364  29.097  1.00  0.00     0.029 A 
ATOM     60  N   UNL A   1      44.238  30.837  28.898  1.00  0.00    -0.354 N 
ATOM     61  N   UNL A   1      43.124  28.234  28.171  1.00  0.00    -0.248 NA
ATOM     62  C   UNL A   1      43.364  26.128  27.186  1.00  0.00     0.031 C 
ATOM     63  C   UNL A   1      46.382  31.235  28.468  1.00  0.00     0.029 A 
ATOM     64  C   UNL A   1      45.382  30.282  28.354  1.00  0.00     0.049 A 
ATOM     65  H   UNL A   1      43.365  30.387  28.957  1.00  0.00     0.167 HD
ATOM     66  C   UNL A   1      44.429  28.086  27.717  1.00  0.00     0.074 A 
ATOM     67  C   UNL A   1      44.527  26.765  27.133  1.00  0.00     0.031 C 
ATOM     68  C   UNL A   1      45.457  28.965  27.782  1.00  0.00     0.031 A 
BRANCH  55  69
ATOM     69  C   UNL A   1      43.947  34.365  30.350  1.00  0.00    -0.014 A 
ATOM     70  C   UNL A   1      44.423  34.609  31.648  1.00  0.00     0.009 A 
ATOM     71  C   UNL A   1      43.847  35.429  29.442  1.00  0.00     0.009 A 
ATOM     72  C   UNL A   1      44.767  35.904  32.038  1.00  0.00     0.001 A 
ATOM     73  C   UNL A   1      44.205  36.721  29.832  1.00  0.00     0.001 A 
ATOM     74  C   UNL A   1      44.658  36.958  31.130  1.00  0.00     0.000 A 
ENDBRANCH  55  69
BRANCH  56  75
ATOM     75  C   UNL A   1      40.625  25.347  27.768  1.00  0.00    -0.014 A 
ATOM     76  C   UNL A   1      39.567  25.204  26.859  1.00  0.00     0.009 A 
ATOM     77  C   UNL A   1      41.204  24.200  28.331  1.00  0.00     0.009 A 
ATOM     78  C   UNL A   1      39.082  23.935  26.535  1.00  0.00     0.001 A 
ATOM     79  C   UNL A   1      40.726  22.932  27.994  1.00  0.00     0.001 A 
ATOM     80  C   UNL A   1      39.661  22.800  27.102  1.00  0.00     0.000 A 
ENDBRANCH  56  75
BRANCH  68  81
ATOM     81  C   UNL A   1      46.779  28.519  27.234  1.00  0.00    -0.014 A 
ATOM     82  C   UNL A   1      47.745  27.938  28.067  1.00  0.00     0.009 A 
ATOM     83  C   UNL A   1      47.035  28.632  25.858  1.00  0.00     0.009 A 
ATOM     84  C   UNL A   1      48.956  27.494  27.534  1.00  0.00     0.001 A 
ATOM     85  C   UNL A   1      48.240  28.172  25.326  1.00  0.00     0.001 A 
ATOM     86  C   UNL A   1      49.201  27.607  26.165  1.00  0.00     0.000 A 
ENDBRANCH  68  81
ENDBRANCH  42  43
ENDBRANCH  35  37
ENDBRANCH  34  35
ENDBRANCH  33  34
ENDBRANCH  32  33
ENDBRANCH  31  32
ENDBRANCH  30  31
ENDBRANCH   1  30
TORSDOF 21
ENDMDL
MODEL 3
REMARK VINA RESULT:      -9.3      1.603      2.052
REMARK SMILES O=C(NC(=S)Nc1cc(C(=O)OCCOCCOCCOC(=O)c2ccc(-c3c4nc(c(-c5ccccc5)c5ccc([nH]5)c(-c5ccccc5)c5nc(c(-c6ccccc6)c6ccc3[nH]6)C=C5)C=C4)cc2)ccc1Br)c1ccc(F)cc1
REMARK SMILES IDX 16 1 15 2 14 3 13 4 12 5 10 6 11 7 9 8 7 9 8 10 74 11 73 12
REMARK SMILES IDX 75 13 72 14 6 15 4 17 5 18 3 19 1 20 2 21 76 23 77 24 82 25
REMARK SMILES IDX 78 26 81 27 79 28 80 29 17 30 18 31 19 32 20 33 21 34 22 35
REMARK SMILES IDX 23 36 24 37 25 38 71 39 26 40 70 41 27 42 28 43 29 44 64 45
REMARK SMILES IDX 30 46 69 47 63 48 65 49 31 50 68 51 62 52 61 53 32 55 54 56
REMARK SMILES IDX 39 57 53 58 40 59 43 60 52 61 66 62 41 63 42 64 51 66 67 67
REMARK SMILES IDX 44 68 33 69 34 70 38 71 35 72 37 73 36 74 55 75 56 76 60 77
REMARK SMILES IDX 57 78 59 79 58 80 45 81 46 82 50 83 47 84 49 85 48 86
REMARK H PARENT 6 16 3 22 65 54 43 65
REMARK Flexibility Score: inf
ROOT
ATOM      1  C   UNL A   1      34.257  32.376  28.138  1.00  0.00     0.188 C 
ENDROOT
BRANCH   1   2
ATOM      2  O   UNL A   1      34.291  31.245  27.274  1.00  0.00    -0.376 OA
BRANCH   2   3
ATOM      3  C   UNL A   1      33.063  30.513  27.198  1.00  0.00     0.202 C 
BRANCH   3   4
ATOM      4  C   UNL A   1      32.753  29.980  25.789  1.00  0.00     0.261 C 
BRANCH   4   5
ATOM      5  O   UNL A   1      33.879  29.273  25.223  1.00  0.00    -0.460 OA
BRANCH   5   6
ATOM      6  C   UNL A   1      33.572  28.337  24.300  1.00  0.00     0.338 C 
ATOM      7  O   UNL A   1      33.979  28.233  23.157  1.00  0.00    -0.246 OA
BRANCH   6   8
ATOM      8  C   UNL A   1      32.775  27.270  24.917  1.00  0.00     0.062 A 
ATOM      9  C   UNL A   1      32.553  24.283  26.400  1.00  0.00     0.055 A 
ATOM     10  C   UNL A   1      33.737  25.717  25.739  1.00  0.00     0.043 A 
ATOM     11  C   UNL A   1      30.582  24.196  26.379  1.00  0.00     0.041 A 
ATOM     12  C   UNL A   1      29.630  25.756  25.559  1.00  0.00     0.019 A 
ATOM     13  Br  UNL A   1      29.635  22.659  26.933  1.00  0.00    -0.049 Br
ATOM     14  C   UNL A   1      30.813  27.181  24.893  1.00  0.00     0.017 A 
BRANCH   9  15
ATOM     15  N   UNL A   1      33.218  23.066  26.508  1.00  0.00    -0.331 N 
ATOM     16  H   UNL A   1      33.689  22.867  27.350  1.00  0.00     0.169 HD
BRANCH  15  17
ATOM     17  C   UNL A   1      33.255  22.145  25.526  1.00  0.00     0.177 C 
ATOM     18  S   UNL A   1      33.495  20.543  25.942  1.00  0.00    -0.040 S 
BRANCH  17  19
ATOM     19  N   UNL A   1      33.176  22.470  24.185  1.00  0.00    -0.299 N 
ATOM     20  O   UNL A   1      33.356  22.978  21.980  1.00  0.00    -0.269 OA
ATOM     21  C   UNL A   1      33.926  22.897  23.072  1.00  0.00     0.257 C 
ATOM     22  H   UNL A   1      32.240  22.359  23.899  1.00  0.00     0.172 HD
BRANCH  21  23
ATOM     23  C   UNL A   1      35.362  23.225  23.039  1.00  0.00     0.040 A 
ATOM     24  C   UNL A   1      36.426  22.648  23.473  1.00  0.00     0.017 A 
ATOM     25  C   UNL A   1      36.010  23.409  24.145  1.00  0.00     0.017 A 
ATOM     26  C   UNL A   1      37.844  22.165  24.870  1.00  0.00     0.040 A 
ATOM     27  C   UNL A   1      37.425  22.939  25.553  1.00  0.00     0.040 A 
ATOM     28  C   UNL A   1      38.300  22.153  26.068  1.00  0.00     0.123 A 
ATOM     29  F   UNL A   1      39.539  22.489  26.421  1.00  0.00    -0.207 F 
ENDBRANCH  21  23
ENDBRANCH  17  19
ENDBRANCH  15  17
ENDBRANCH   9  15
ENDBRANCH   6   8
ENDBRANCH   5   6
ENDBRANCH   4   5
ENDBRANCH   3   4
ENDBRANCH   2   3
ENDBRANCH   1   2
BRANCH   1  30
ATOM     30  C   UNL A   1      35.324  33.428  27.850  1.00  0.00     0.188 C 
BRANCH  30  31
ATOM     31  O   UNL A   1      35.211  34.540  28.739  1.00  0.00    -0.376 OA
BRANCH  31  32
ATOM     32  C   UNL A   1      34.112  34.469  29.657  1.00  0.00     0.202 C 
BRANCH  32  33
ATOM     33  C   UNL A   1      34.532  34.531  31.133  1.00  0.00     0.261 C 
BRANCH  33  34
ATOM     34  O   UNL A   1      34.193  33.321  31.835  1.00  0.00    -0.460 OA
BRANCH  34  35
ATOM     35  C   UNL A   1      35.168  32.380  31.860  1.00  0.00     0.338 C 
ATOM     36  O   UNL A   1      35.484  31.638  30.946  1.00  0.00    -0.246 OA
BRANCH  35  37
ATOM     37  C   UNL A   1      35.950  32.528  33.111  1.00  0.00     0.060 A 
ATOM     38  C   UNL A   1      35.687  33.640  33.921  1.00  0.00     0.016 A 
ATOM     39  C   UNL A   1      36.907  31.583  33.500  1.00  0.00     0.016 A 
ATOM     40  C   UNL A   1      36.423  33.842  35.090  1.00  0.00     0.010 A 
ATOM     41  C   UNL A   1      37.645  31.785  34.667  1.00  0.00     0.010 A 
ATOM     42  C   UNL A   1      37.434  32.936  35.442  1.00  0.00    -0.014 A 
BRANCH  42  43
ATOM     43  C   UNL A   1      38.422  33.311  36.476  1.00  0.00     0.031 A 
ATOM     44  C   UNL A   1      39.601  34.144  36.054  1.00  0.00     0.074 A 
ATOM     45  C   UNL A   1      38.286  32.930  37.757  1.00  0.00     0.049 A 
ATOM     46  N   UNL A   1      40.583  34.618  36.775  1.00  0.00    -0.248 NA
ATOM     47  C   UNL A   1      39.678  34.491  34.624  1.00  0.00     0.031 C 
ATOM     48  C   UNL A   1      37.190  32.130  38.300  1.00  0.00     0.029 A 
ATOM     49  N   UNL A   1      39.098  33.170  38.838  1.00  0.00    -0.354 N 
ATOM     50  C   UNL A   1      41.385  35.328  35.892  1.00  0.00     0.074 A 
ATOM     51  C   UNL A   1      40.793  35.203  34.578  1.00  0.00     0.031 C 
ATOM     52  C   UNL A   1      37.401  31.941  39.616  1.00  0.00     0.029 A 
ATOM     53  C   UNL A   1      38.650  32.597  40.000  1.00  0.00     0.049 A 
ATOM     54  H   UNL A   1      39.923  33.703  38.783  1.00  0.00     0.167 HD
ATOM     55  C   UNL A   1      42.512  36.031  36.146  1.00  0.00     0.031 A 
ATOM     56  C   UNL A   1      39.193  32.600  41.232  1.00  0.00     0.031 A 
ATOM     57  C   UNL A   1      43.131  36.136  37.435  1.00  0.00     0.049 A 
ATOM     58  C   UNL A   1      40.487  33.331  41.478  1.00  0.00     0.074 A 
ATOM     59  C   UNL A   1      44.275  36.826  37.791  1.00  0.00     0.029 A 
ATOM     60  N   UNL A   1      42.658  35.517  38.580  1.00  0.00    -0.354 N 
ATOM     61  N   UNL A   1      41.210  34.035  40.641  1.00  0.00    -0.248 NA
ATOM     62  C   UNL A   1      41.033  33.267  42.842  1.00  0.00     0.031 C 
ATOM     63  C   UNL A   1      44.512  36.601  39.152  1.00  0.00     0.029 A 
ATOM     64  C   UNL A   1      43.498  35.793  39.642  1.00  0.00     0.049 A 
ATOM     65  H   UNL A   1      41.846  34.963  38.630  1.00  0.00     0.167 HD
ATOM     66  C   UNL A   1      42.282  34.516  41.382  1.00  0.00     0.074 A 
ATOM     67  C   UNL A   1      42.115  34.027  42.734  1.00  0.00     0.031 C 
ATOM     68  C   UNL A   1      43.311  35.299  40.979  1.00  0.00     0.031 A 
BRANCH  55  69
ATOM     69  C   UNL A   1      43.148  36.723  34.981  1.00  0.00    -0.014 A 
ATOM     70  C   UNL A   1      44.077  36.050  34.172  1.00  0.00     0.009 A 
ATOM     71  C   UNL A   1      42.830  38.059  34.699  1.00  0.00     0.009 A 
ATOM     72  C   UNL A   1      44.699  36.714  33.114  1.00  0.00     0.001 A 
ATOM     73  C   UNL A   1      43.445  38.717  33.632  1.00  0.00     0.001 A 
ATOM     74  C   UNL A   1      44.382  38.046  32.846  1.00  0.00     0.000 A 
ENDBRANCH  55  69
BRANCH  56  75
ATOM     75  C   UNL A   1      38.524  31.885  42.346  1.00  0.00    -0.014 A 
ATOM     76  C   UNL A   1      38.744  30.514  42.543  1.00  0.00     0.009 A 
ATOM     77  C   UNL A   1      37.630  32.563  43.189  1.00  0.00     0.009 A 
ATOM     78  C   UNL A   1      38.065  29.829  43.552  1.00  0.00     0.001 A 
ATOM     79  C   UNL A   1      36.964  31.877  44.206  1.00  0.00     0.001 A 
ATOM     80  C   UNL A   1      37.175  30.510  44.383  1.00  0.00     0.000 A 
ENDBRANCH  56  75
BRANCH  68  81
ATOM     81  C   UNL A   1      44.320  35.694  42.015  1.00  0.00    -0.014 A 
ATOM     82  C   UNL A   1      45.425  34.876  42.293  1.00  0.00     0.009 A 
ATOM     83  C   UNL A   1      44.193  36.925  42.676  1.00  0.00     0.009 A 
ATOM     84  C   UNL A   1      46.376  35.277  43.233  1.00  0.00     0.001 A 
ATOM     85  C   UNL A   1      45.153  37.330  43.604  1.00  0.00     0.001 A 
ATOM     86  C   UNL A   1      46.241  36.504  43.884  1.00  0.00     0.000 A 
ENDBRANCH  68  81
ENDBRANCH  42  43
ENDBRANCH  35  37
ENDBRANCH  34  35
ENDBRANCH  33  34
ENDBRANCH  32  33
ENDBRANCH  31  32
ENDBRANCH  30  31
ENDBRANCH   1  30
TORSDOF 21
ENDMDL
