MODEL 1
REMARK VINA RESULT:      -9.7      0.000      0.000
REMARK SMILES CC(C)N1C[C@H](C(=O)N[C@@H]2C=C[C@@H](C(=O)OCCOCCOCCOC(=O)c3ccc(-c4c5nc(c(-c6ccccc6)c6ccc([nH]6)c(-c6ccccc6)c6nc(c(-c7ccccc7)c7ccc4[nH]7)C=C6)C=C5)cc3)C2)CC1=O
REMARK SMILES IDX 20 1 19 2 18 3 17 4 16 5 14 6 15 7 13 8 10 9 11 10 76 11
REMARK SMILES IDX 12 12 9 13 7 14 8 15 6 17 4 18 5 19 78 20 77 21 79 22 2 23
REMARK SMILES IDX 1 24 3 25 21 26 22 27 23 28 24 29 25 30 26 31 27 32 28 33
REMARK SMILES IDX 29 34 75 35 30 36 74 37 31 38 32 39 33 40 68 41 34 42 73 43
REMARK SMILES IDX 67 44 69 45 35 46 72 47 66 48 65 49 36 51 58 52 43 53 57 54
REMARK SMILES IDX 44 55 47 56 56 57 70 58 45 59 46 60 55 62 71 63 48 64 37 65
REMARK SMILES IDX 38 66 42 67 39 68 41 69 40 70 59 71 60 72 64 73 61 74 63 75
REMARK SMILES IDX 62 76 49 77 50 78 54 79 51 80 53 81 52 82
REMARK H PARENT 9 16 69 50 47 61
REMARK Flexibility Score: inf
ROOT
ATOM      1  C   UNL A   1      32.627  35.788  31.597  1.00  0.00     0.188 C 
ENDROOT
BRANCH   1   2
ATOM      2  O   UNL A   1      32.360  35.420  30.249  1.00  0.00    -0.376 OA
BRANCH   2   3
ATOM      3  C   UNL A   1      33.274  35.812  29.228  1.00  0.00     0.202 C 
BRANCH   3   4
ATOM      4  C   UNL A   1      34.249  34.770  28.652  1.00  0.00     0.261 C 
BRANCH   4   5
ATOM      5  O   UNL A   1      33.648  33.498  28.332  1.00  0.00    -0.463 OA
BRANCH   5   6
ATOM      6  C   UNL A   1      34.487  32.525  27.897  1.00  0.00     0.312 C 
ATOM      7  O   UNL A   1      35.639  32.728  27.522  1.00  0.00    -0.252 OA
BRANCH   6   8
ATOM      8  C   UNL A   1      33.904  31.109  27.988  1.00  0.00     0.124 C 
ATOM      9  C   UNL A   1      33.174  29.341  26.398  1.00  0.00     0.106 C 
ATOM     10  C   UNL A   1      34.611  29.228  26.763  1.00  0.00    -0.006 C 
ATOM     11  C   UNL A   1      32.775  30.680  27.030  1.00  0.00     0.048 C 
ATOM     12  C   UNL A   1      34.999  30.151  27.644  1.00  0.00    -0.014 C 
BRANCH   9  13
ATOM     13  N   UNL A   1      32.445  28.225  26.977  1.00  0.00    -0.350 N 
ATOM     14  C   UNL A   1      31.750  27.223  26.353  1.00  0.00     0.225 C 
ATOM     15  O   UNL A   1      31.122  26.426  27.045  1.00  0.00    -0.275 OA
ATOM     16  H   UNL A   1      32.449  28.183  27.960  1.00  0.00     0.164 HD
BRANCH  14  17
ATOM     17  C   UNL A   1      31.835  27.116  24.842  1.00  0.00     0.107 C 
ATOM     18  N   UNL A   1      32.467  24.963  24.141  1.00  0.00    -0.339 N 
ATOM     19  C   UNL A   1      33.018  26.243  24.479  1.00  0.00     0.133 C 
ATOM     20  C   UNL A   1      31.108  25.030  23.889  1.00  0.00     0.223 C 
ATOM     21  C   UNL A   1      30.635  26.431  24.193  1.00  0.00     0.115 C 
ATOM     22  O   UNL A   1      30.400  24.145  23.438  1.00  0.00    -0.275 OA
BRANCH  18  23
ATOM     23  C   UNL A   1      33.348  23.818  23.912  1.00  0.00     0.078 C 
ATOM     24  C   UNL A   1      33.515  23.480  22.433  1.00  0.00     0.031 C 
ATOM     25  C   UNL A   1      34.691  24.010  24.606  1.00  0.00     0.031 C 
ENDBRANCH  18  23
ENDBRANCH  14  17
ENDBRANCH   9  13
ENDBRANCH   6   8
ENDBRANCH   5   6
ENDBRANCH   4   5
ENDBRANCH   3   4
ENDBRANCH   2   3
ENDBRANCH   1   2
BRANCH   1  26
ATOM     26  C   UNL A   1      33.846  35.185  32.313  1.00  0.00     0.188 C 
BRANCH  26  27
ATOM     27  O   UNL A   1      34.030  33.805  32.121  1.00  0.00    -0.376 OA
BRANCH  27  28
ATOM     28  C   UNL A   1      35.257  33.218  32.516  1.00  0.00     0.202 C 
BRANCH  28  29
ATOM     29  C   UNL A   1      36.466  33.139  31.560  1.00  0.00     0.261 C 
BRANCH  29  30
ATOM     30  O   UNL A   1      36.575  31.984  30.713  1.00  0.00    -0.460 OA
BRANCH  30  31
ATOM     31  C   UNL A   1      36.801  30.792  31.319  1.00  0.00     0.338 C 
ATOM     32  O   UNL A   1      36.060  30.205  32.081  1.00  0.00    -0.246 OA
BRANCH  31  33
ATOM     33  C   UNL A   1      38.010  30.199  30.698  1.00  0.00     0.060 A 
ATOM     34  C   UNL A   1      38.978  29.604  31.523  1.00  0.00     0.016 A 
ATOM     35  C   UNL A   1      38.182  30.219  29.314  1.00  0.00     0.016 A 
ATOM     36  C   UNL A   1      40.130  29.045  30.967  1.00  0.00     0.010 A 
ATOM     37  C   UNL A   1      39.350  29.685  28.760  1.00  0.00     0.010 A 
ATOM     38  C   UNL A   1      40.341  29.120  29.584  1.00  0.00    -0.014 A 
BRANCH  38  39
ATOM     39  C   UNL A   1      41.670  28.785  29.014  1.00  0.00     0.031 A 
ATOM     40  C   UNL A   1      41.902  27.384  28.518  1.00  0.00     0.074 A 
ATOM     41  C   UNL A   1      42.655  29.697  28.935  1.00  0.00     0.049 A 
ATOM     42  N   UNL A   1      42.998  26.833  28.063  1.00  0.00    -0.248 NA
ATOM     43  C   UNL A   1      40.739  26.481  28.547  1.00  0.00     0.031 C 
ATOM     44  C   UNL A   1      42.549  31.100  29.327  1.00  0.00     0.029 A 
ATOM     45  N   UNL A   1      43.954  29.562  28.506  1.00  0.00    -0.354 N 
ATOM     46  C   UNL A   1      42.662  25.517  27.770  1.00  0.00     0.074 A 
ATOM     47  C   UNL A   1      41.270  25.346  28.118  1.00  0.00     0.031 C 
ATOM     48  C   UNL A   1      43.739  31.697  29.131  1.00  0.00     0.029 A 
ATOM     49  C   UNL A   1      44.699  30.708  28.641  1.00  0.00     0.049 A 
ATOM     50  H   UNL A   1      44.316  28.725  28.136  1.00  0.00     0.167 HD
ATOM     51  C   UNL A   1      43.444  24.538  27.257  1.00  0.00     0.031 A 
ATOM     52  C   UNL A   1      46.011  30.926  28.424  1.00  0.00     0.031 A 
ATOM     53  C   UNL A   1      44.833  24.702  26.923  1.00  0.00     0.049 A 
ATOM     54  C   UNL A   1      46.881  29.797  27.934  1.00  0.00     0.074 A 
ATOM     55  C   UNL A   1      45.702  23.772  26.379  1.00  0.00     0.029 A 
ATOM     56  N   UNL A   1      45.559  25.867  27.111  1.00  0.00    -0.354 N 
ATOM     57  N   UNL A   1      46.550  28.562  27.641  1.00  0.00    -0.248 NA
ATOM     58  C   UNL A   1      48.308  30.097  27.740  1.00  0.00     0.031 C 
ATOM     59  C   UNL A   1      46.971  24.354  26.302  1.00  0.00     0.029 A 
ATOM     60  C   UNL A   1      46.875  25.670  26.727  1.00  0.00     0.049 A 
ATOM     61  H   UNL A   1      45.193  26.710  27.465  1.00  0.00     0.167 HD
ATOM     62  C   UNL A   1      47.719  27.950  27.199  1.00  0.00     0.074 A 
ATOM     63  C   UNL A   1      48.762  28.952  27.250  1.00  0.00     0.031 C 
ATOM     64  C   UNL A   1      47.907  26.673  26.783  1.00  0.00     0.031 A 
BRANCH  51  65
ATOM     65  C   UNL A   1      42.822  23.181  27.074  1.00  0.00    -0.014 A 
ATOM     66  C   UNL A   1      42.401  22.729  25.814  1.00  0.00     0.009 A 
ATOM     67  C   UNL A   1      42.688  22.327  28.180  1.00  0.00     0.009 A 
ATOM     68  C   UNL A   1      41.828  21.463  25.672  1.00  0.00     0.001 A 
ATOM     69  C   UNL A   1      42.145  21.051  28.032  1.00  0.00     0.001 A 
ATOM     70  C   UNL A   1      41.706  20.623  26.779  1.00  0.00     0.000 A 
ENDBRANCH  51  65
BRANCH  52  71
ATOM     71  C   UNL A   1      46.598  32.267  28.689  1.00  0.00    -0.014 A 
ATOM     72  C   UNL A   1      46.655  33.238  27.677  1.00  0.00     0.009 A 
ATOM     73  C   UNL A   1      47.125  32.577  29.953  1.00  0.00     0.009 A 
ATOM     74  C   UNL A   1      47.248  34.480  27.918  1.00  0.00     0.001 A 
ATOM     75  C   UNL A   1      47.690  33.831  30.200  1.00  0.00     0.001 A 
ATOM     76  C   UNL A   1      47.759  34.777  29.180  1.00  0.00     0.000 A 
ENDBRANCH  52  71
BRANCH  64  77
ATOM     77  C   UNL A   1      49.282  26.292  26.304  1.00  0.00    -0.014 A 
ATOM     78  C   UNL A   1      49.772  26.718  25.060  1.00  0.00     0.009 A 
ATOM     79  C   UNL A   1      50.120  25.534  27.138  1.00  0.00     0.009 A 
ATOM     80  C   UNL A   1      51.059  26.362  24.648  1.00  0.00     0.001 A 
ATOM     81  C   UNL A   1      51.416  25.208  26.740  1.00  0.00     0.001 A 
ATOM     82  C   UNL A   1      51.882  25.614  25.490  1.00  0.00     0.000 A 
ENDBRANCH  64  77
ENDBRANCH  38  39
ENDBRANCH  31  33
ENDBRANCH  30  31
ENDBRANCH  29  30
ENDBRANCH  28  29
ENDBRANCH  27  28
ENDBRANCH  26  27
ENDBRANCH   1  26
TORSDOF 20
ENDMDL
MODEL 2
REMARK VINA RESULT:      -9.6      2.033      6.566
REMARK SMILES CC(C)N1C[C@H](C(=O)N[C@@H]2C=C[C@@H](C(=O)OCCOCCOCCOC(=O)c3ccc(-c4c5nc(c(-c6ccccc6)c6ccc([nH]6)c(-c6ccccc6)c6nc(c(-c7ccccc7)c7ccc4[nH]7)C=C6)C=C5)cc3)C2)CC1=O
REMARK SMILES IDX 20 1 19 2 18 3 17 4 16 5 14 6 15 7 13 8 10 9 11 10 76 11
REMARK SMILES IDX 12 12 9 13 7 14 8 15 6 17 4 18 5 19 78 20 77 21 79 22 2 23
REMARK SMILES IDX 1 24 3 25 21 26 22 27 23 28 24 29 25 30 26 31 27 32 28 33
REMARK SMILES IDX 29 34 75 35 30 36 74 37 31 38 32 39 33 40 68 41 34 42 73 43
REMARK SMILES IDX 67 44 69 45 35 46 72 47 66 48 65 49 36 51 58 52 43 53 57 54
REMARK SMILES IDX 44 55 47 56 56 57 70 58 45 59 46 60 55 62 71 63 48 64 37 65
REMARK SMILES IDX 38 66 42 67 39 68 41 69 40 70 59 71 60 72 64 73 61 74 63 75
REMARK SMILES IDX 62 76 49 77 50 78 54 79 51 80 53 81 52 82
REMARK H PARENT 9 16 69 50 47 61
REMARK Flexibility Score: inf
ROOT
ATOM      1  C   UNL A   1      33.749  33.736  28.094  1.00  0.00     0.188 C 
ENDROOT
BRANCH   1   2
ATOM      2  O   UNL A   1      34.865  32.910  27.785  1.00  0.00    -0.376 OA
BRANCH   2   3
ATOM      3  C   UNL A   1      34.880  31.561  28.245  1.00  0.00     0.202 C 
BRANCH   3   4
ATOM      4  C   UNL A   1      34.393  30.442  27.308  1.00  0.00     0.261 C 
BRANCH   4   5
ATOM      5  O   UNL A   1      32.988  30.135  27.420  1.00  0.00    -0.463 OA
BRANCH   5   6
ATOM      6  C   UNL A   1      32.224  30.394  26.330  1.00  0.00     0.312 C 
ATOM      7  O   UNL A   1      31.496  31.378  26.221  1.00  0.00    -0.252 OA
BRANCH   6   8
ATOM      8  C   UNL A   1      32.401  29.389  25.186  1.00  0.00     0.124 C 
ATOM      9  C   UNL A   1      31.881  26.991  24.779  1.00  0.00     0.106 C 
ATOM     10  C   UNL A   1      30.773  27.896  24.375  1.00  0.00    -0.006 C 
ATOM     11  C   UNL A   1      32.846  27.945  25.495  1.00  0.00     0.048 C 
ATOM     12  C   UNL A   1      31.061  29.186  24.556  1.00  0.00    -0.014 C 
BRANCH   9  13
ATOM     13  N   UNL A   1      32.476  26.401  23.591  1.00  0.00    -0.350 N 
ATOM     14  C   UNL A   1      33.513  25.515  23.486  1.00  0.00     0.225 C 
ATOM     15  O   UNL A   1      33.920  25.217  22.366  1.00  0.00    -0.275 OA
ATOM     16  H   UNL A   1      32.074  26.681  22.737  1.00  0.00     0.164 HD
BRANCH  14  17
ATOM     17  C   UNL A   1      34.075  24.905  24.757  1.00  0.00     0.107 C 
ATOM     18  N   UNL A   1      33.635  22.599  24.900  1.00  0.00    -0.339 N 
ATOM     19  C   UNL A   1      33.096  23.873  25.277  1.00  0.00     0.133 C 
ATOM     20  C   UNL A   1      34.972  22.682  24.553  1.00  0.00     0.223 C 
ATOM     21  C   UNL A   1      35.378  24.135  24.560  1.00  0.00     0.115 C 
ATOM     22  O   UNL A   1      35.733  21.753  24.334  1.00  0.00    -0.275 OA
BRANCH  18  23
ATOM     23  C   UNL A   1      32.850  21.380  25.089  1.00  0.00     0.078 C 
ATOM     24  C   UNL A   1      32.897  20.446  23.883  1.00  0.00     0.031 C 
ATOM     25  C   UNL A   1      33.244  20.665  26.376  1.00  0.00     0.031 C 
ENDBRANCH  18  23
ENDBRANCH  14  17
ENDBRANCH   9  13
ENDBRANCH   6   8
ENDBRANCH   5   6
ENDBRANCH   4   5
ENDBRANCH   3   4
ENDBRANCH   2   3
ENDBRANCH   1   2
BRANCH   1  26
ATOM     26  C   UNL A   1      33.944  34.945  29.023  1.00  0.00     0.188 C 
BRANCH  26  27
ATOM     27  O   UNL A   1      33.228  34.893  30.231  1.00  0.00    -0.376 OA
BRANCH  27  28
ATOM     28  C   UNL A   1      33.933  34.639  31.433  1.00  0.00     0.202 C 
BRANCH  28  29
ATOM     29  C   UNL A   1      34.425  33.224  31.803  1.00  0.00     0.261 C 
BRANCH  29  30
ATOM     30  O   UNL A   1      35.399  33.108  32.854  1.00  0.00    -0.460 OA
BRANCH  30  31
ATOM     31  C   UNL A   1      36.551  33.810  32.709  1.00  0.00     0.338 C 
ATOM     32  O   UNL A   1      36.846  34.853  33.254  1.00  0.00    -0.246 OA
BRANCH  31  33
ATOM     33  C   UNL A   1      37.501  32.954  31.957  1.00  0.00     0.060 A 
ATOM     34  C   UNL A   1      38.353  32.095  32.668  1.00  0.00     0.016 A 
ATOM     35  C   UNL A   1      37.542  32.990  30.563  1.00  0.00     0.016 A 
ATOM     36  C   UNL A   1      39.263  31.284  31.988  1.00  0.00     0.010 A 
ATOM     37  C   UNL A   1      38.474  32.198  29.884  1.00  0.00     0.010 A 
ATOM     38  C   UNL A   1      39.356  31.362  30.593  1.00  0.00    -0.014 A 
BRANCH  38  39
ATOM     39  C   UNL A   1      40.493  30.723  29.885  1.00  0.00     0.031 A 
ATOM     40  C   UNL A   1      41.745  31.530  29.669  1.00  0.00     0.074 A 
ATOM     41  C   UNL A   1      40.426  29.457  29.437  1.00  0.00     0.049 A 
ATOM     42  N   UNL A   1      42.829  31.223  29.005  1.00  0.00    -0.248 NA
ATOM     43  C   UNL A   1      41.770  32.869  30.280  1.00  0.00     0.031 C 
ATOM     44  C   UNL A   1      39.298  28.547  29.625  1.00  0.00     0.029 A 
ATOM     45  N   UNL A   1      41.336  28.724  28.713  1.00  0.00    -0.354 N 
ATOM     46  C   UNL A   1      43.657  32.334  29.104  1.00  0.00     0.074 A 
ATOM     47  C   UNL A   1      42.942  33.330  29.870  1.00  0.00     0.031 C 
ATOM     48  C   UNL A   1      39.579  27.379  29.021  1.00  0.00     0.029 A 
ATOM     49  C   UNL A   1      40.884  27.474  28.369  1.00  0.00     0.049 A 
ATOM     50  H   UNL A   1      42.226  29.062  28.465  1.00  0.00     0.167 HD
ATOM     51  C   UNL A   1      44.901  32.511  28.600  1.00  0.00     0.031 A 
ATOM     52  C   UNL A   1      41.446  26.527  27.591  1.00  0.00     0.031 A 
ATOM     53  C   UNL A   1      45.608  31.527  27.825  1.00  0.00     0.049 A 
ATOM     54  C   UNL A   1      42.795  26.780  26.969  1.00  0.00     0.074 A 
ATOM     55  C   UNL A   1      46.882  31.608  27.288  1.00  0.00     0.029 A 
ATOM     56  N   UNL A   1      45.100  30.289  27.466  1.00  0.00    -0.354 N 
ATOM     57  N   UNL A   1      43.579  27.826  27.084  1.00  0.00    -0.248 NA
ATOM     58  C   UNL A   1      43.340  25.715  26.113  1.00  0.00     0.031 C 
ATOM     59  C   UNL A   1      47.117  30.446  26.547  1.00  0.00     0.029 A 
ATOM     60  C   UNL A   1      46.021  29.610  26.686  1.00  0.00     0.049 A 
ATOM     61  H   UNL A   1      44.216  29.943  27.728  1.00  0.00     0.167 HD
ATOM     62  C   UNL A   1      44.719  27.531  26.344  1.00  0.00     0.074 A 
ATOM     63  C   UNL A   1      44.531  26.205  25.795  1.00  0.00     0.031 C 
ATOM     64  C   UNL A   1      45.824  28.290  26.142  1.00  0.00     0.031 A 
BRANCH  51  65
ATOM     65  C   UNL A   1      45.558  33.844  28.830  1.00  0.00    -0.014 A 
ATOM     66  C   UNL A   1      46.525  34.024  29.831  1.00  0.00     0.009 A 
ATOM     67  C   UNL A   1      45.226  34.930  28.004  1.00  0.00     0.009 A 
ATOM     68  C   UNL A   1      47.119  35.273  30.023  1.00  0.00     0.001 A 
ATOM     69  C   UNL A   1      45.844  36.168  28.176  1.00  0.00     0.001 A 
ATOM     70  C   UNL A   1      46.784  36.342  29.191  1.00  0.00     0.000 A 
ENDBRANCH  51  65
BRANCH  52  71
ATOM     71  C   UNL A   1      40.726  25.251  27.331  1.00  0.00    -0.014 A 
ATOM     72  C   UNL A   1      39.584  25.226  26.516  1.00  0.00     0.009 A 
ATOM     73  C   UNL A   1      41.166  24.053  27.915  1.00  0.00     0.009 A 
ATOM     74  C   UNL A   1      38.885  24.034  26.310  1.00  0.00     0.001 A 
ATOM     75  C   UNL A   1      40.484  22.856  27.682  1.00  0.00     0.001 A 
ATOM     76  C   UNL A   1      39.339  22.849  26.888  1.00  0.00     0.000 A 
ENDBRANCH  52  71
BRANCH  64  77
ATOM     77  C   UNL A   1      46.942  27.693  25.330  1.00  0.00    -0.014 A 
ATOM     78  C   UNL A   1      46.980  27.812  23.932  1.00  0.00     0.009 A 
ATOM     79  C   UNL A   1      48.001  27.043  25.984  1.00  0.00     0.009 A 
ATOM     80  C   UNL A   1      48.038  27.261  23.205  1.00  0.00     0.001 A 
ATOM     81  C   UNL A   1      49.074  26.524  25.259  1.00  0.00     0.001 A 
ATOM     82  C   UNL A   1      49.086  26.624  23.868  1.00  0.00     0.000 A 
ENDBRANCH  64  77
ENDBRANCH  38  39
ENDBRANCH  31  33
ENDBRANCH  30  31
ENDBRANCH  29  30
ENDBRANCH  28  29
ENDBRANCH  27  28
ENDBRANCH  26  27
ENDBRANCH   1  26
TORSDOF 20
ENDMDL
MODEL 3
REMARK VINA RESULT:      -9.4      4.652     10.502
REMARK SMILES CC(C)N1C[C@H](C(=O)N[C@@H]2C=C[C@@H](C(=O)OCCOCCOCCOC(=O)c3ccc(-c4c5nc(c(-c6ccccc6)c6ccc([nH]6)c(-c6ccccc6)c6nc(c(-c7ccccc7)c7ccc4[nH]7)C=C6)C=C5)cc3)C2)CC1=O
REMARK SMILES IDX 20 1 19 2 18 3 17 4 16 5 14 6 15 7 13 8 10 9 11 10 76 11
REMARK SMILES IDX 12 12 9 13 7 14 8 15 6 17 4 18 5 19 78 20 77 21 79 22 2 23
REMARK SMILES IDX 1 24 3 25 21 26 22 27 23 28 24 29 25 30 26 31 27 32 28 33
REMARK SMILES IDX 29 34 75 35 30 36 74 37 31 38 32 39 33 40 68 41 34 42 73 43
REMARK SMILES IDX 67 44 69 45 35 46 72 47 66 48 65 49 36 51 58 52 43 53 57 54
REMARK SMILES IDX 44 55 47 56 56 57 70 58 45 59 46 60 55 62 71 63 48 64 37 65
REMARK SMILES IDX 38 66 42 67 39 68 41 69 40 70 59 71 60 72 64 73 61 74 63 75
REMARK SMILES IDX 62 76 49 77 50 78 54 79 51 80 53 81 52 82
REMARK H PARENT 9 16 69 50 47 61
REMARK Flexibility Score: inf
ROOT
ATOM      1  C   UNL A   1      41.608  22.079  26.738  1.00  0.00     0.188 C 
ENDROOT
BRANCH   1   2
ATOM      2  O   UNL A   1      40.577  21.853  25.785  1.00  0.00    -0.376 OA
BRANCH   2   3
ATOM      3  C   UNL A   1      39.506  20.972  26.114  1.00  0.00     0.202 C 
BRANCH   3   4
ATOM      4  C   UNL A   1      38.188  21.065  25.327  1.00  0.00     0.261 C 
BRANCH   4   5
ATOM      5  O   UNL A   1      37.937  22.352  24.725  1.00  0.00    -0.463 OA
BRANCH   5   6
ATOM      6  C   UNL A   1      37.398  23.301  25.530  1.00  0.00     0.312 C 
ATOM      7  O   UNL A   1      38.058  24.037  26.260  1.00  0.00    -0.252 OA
BRANCH   6   8
ATOM      8  C   UNL A   1      35.877  23.445  25.398  1.00  0.00     0.124 C 
ATOM      9  C   UNL A   1      34.293  24.715  23.963  1.00  0.00     0.106 C 
ATOM     10  C   UNL A   1      34.640  23.385  23.397  1.00  0.00    -0.006 C 
ATOM     11  C   UNL A   1      35.256  24.834  25.150  1.00  0.00     0.048 C 
ATOM     12  C   UNL A   1      35.460  22.684  24.181  1.00  0.00    -0.014 C 
BRANCH   9  13
ATOM     13  N   UNL A   1      32.902  24.707  24.386  1.00  0.00    -0.350 N 
ATOM     14  C   UNL A   1      31.979  25.717  24.359  1.00  0.00     0.225 C 
ATOM     15  O   UNL A   1      30.874  25.518  24.859  1.00  0.00    -0.275 OA
ATOM     16  H   UNL A   1      32.576  23.851  24.746  1.00  0.00     0.164 HD
BRANCH  14  17
ATOM     17  C   UNL A   1      32.347  27.016  23.665  1.00  0.00     0.107 C 
ATOM     18  N   UNL A   1      30.601  28.589  23.747  1.00  0.00    -0.339 N 
ATOM     19  C   UNL A   1      31.131  27.538  22.928  1.00  0.00     0.133 C 
ATOM     20  C   UNL A   1      31.517  29.030  24.686  1.00  0.00     0.223 C 
ATOM     21  C   UNL A   1      32.738  28.146  24.615  1.00  0.00     0.115 C 
ATOM     22  O   UNL A   1      31.410  30.002  25.416  1.00  0.00    -0.275 OA
BRANCH  18  23
ATOM     23  C   UNL A   1      29.313  29.199  23.422  1.00  0.00     0.078 C 
ATOM     24  C   UNL A   1      29.408  30.236  22.306  1.00  0.00     0.031 C 
ATOM     25  C   UNL A   1      28.262  28.137  23.121  1.00  0.00     0.031 C 
ENDBRANCH  18  23
ENDBRANCH  14  17
ENDBRANCH   9  13
ENDBRANCH   6   8
ENDBRANCH   5   6
ENDBRANCH   4   5
ENDBRANCH   3   4
ENDBRANCH   2   3
ENDBRANCH   1   2
BRANCH   1  26
ATOM     26  C   UNL A   1      43.056  21.708  26.380  1.00  0.00     0.188 C 
BRANCH  26  27
ATOM     27  O   UNL A   1      43.275  21.387  25.030  1.00  0.00    -0.376 OA
BRANCH  27  28
ATOM     28  C   UNL A   1      44.473  21.817  24.410  1.00  0.00     0.202 C 
BRANCH  28  29
ATOM     29  C   UNL A   1      45.186  23.119  24.834  1.00  0.00     0.261 C 
BRANCH  29  30
ATOM     30  O   UNL A   1      44.444  24.346  24.749  1.00  0.00    -0.460 OA
BRANCH  30  31
ATOM     31  C   UNL A   1      45.070  25.477  25.157  1.00  0.00     0.338 C 
ATOM     32  O   UNL A   1      46.023  26.017  24.633  1.00  0.00    -0.246 OA
BRANCH  31  33
ATOM     33  C   UNL A   1      44.236  26.089  26.220  1.00  0.00     0.060 A 
ATOM     34  C   UNL A   1      44.337  27.470  26.455  1.00  0.00     0.016 A 
ATOM     35  C   UNL A   1      43.353  25.311  26.970  1.00  0.00     0.016 A 
ATOM     36  C   UNL A   1      43.570  28.072  27.453  1.00  0.00     0.010 A 
ATOM     37  C   UNL A   1      42.607  25.911  27.989  1.00  0.00     0.010 A 
ATOM     38  C   UNL A   1      42.731  27.288  28.254  1.00  0.00    -0.014 A 
BRANCH  38  39
ATOM     39  C   UNL A   1      42.128  27.857  29.484  1.00  0.00     0.031 A 
ATOM     40  C   UNL A   1      40.781  28.521  29.379  1.00  0.00     0.074 A 
ATOM     41  C   UNL A   1      42.753  27.794  30.673  1.00  0.00     0.049 A 
ATOM     42  N   UNL A   1      40.098  29.164  30.289  1.00  0.00    -0.248 NA
ATOM     43  C   UNL A   1      40.123  28.455  28.064  1.00  0.00     0.031 C 
ATOM     44  C   UNL A   1      44.032  27.133  30.927  1.00  0.00     0.029 A 
ATOM     45  N   UNL A   1      42.391  28.312  31.893  1.00  0.00    -0.354 N 
ATOM     46  C   UNL A   1      38.939  29.594  29.654  1.00  0.00     0.074 A 
ATOM     47  C   UNL A   1      39.023  29.160  28.278  1.00  0.00     0.031 C 
ATOM     48  C   UNL A   1      44.354  27.297  32.223  1.00  0.00     0.029 A 
ATOM     49  C   UNL A   1      43.328  28.108  32.877  1.00  0.00     0.049 A 
ATOM     50  H   UNL A   1      41.541  28.784  32.048  1.00  0.00     0.167 HD
ATOM     51  C   UNL A   1      37.899  30.291  30.170  1.00  0.00     0.031 A 
ATOM     52  C   UNL A   1      43.367  28.550  34.149  1.00  0.00     0.031 A 
ATOM     53  C   UNL A   1      37.820  30.736  31.535  1.00  0.00     0.049 A 
ATOM     54  C   UNL A   1      42.237  29.397  34.677  1.00  0.00     0.074 A 
ATOM     55  C   UNL A   1      36.796  31.431  32.155  1.00  0.00     0.029 A 
ATOM     56  N   UNL A   1      38.807  30.542  32.488  1.00  0.00    -0.354 N 
ATOM     57  N   UNL A   1      41.137  29.782  34.075  1.00  0.00    -0.248 NA
ATOM     58  C   UNL A   1      42.354  29.866  36.067  1.00  0.00     0.031 C 
ATOM     59  C   UNL A   1      37.193  31.717  33.465  1.00  0.00     0.029 A 
ATOM     60  C   UNL A   1      38.431  31.134  33.683  1.00  0.00     0.049 A 
ATOM     61  H   UNL A   1      39.649  30.055  32.339  1.00  0.00     0.167 HD
ATOM     62  C   UNL A   1      40.419  30.508  35.019  1.00  0.00     0.074 A 
ATOM     63  C   UNL A   1      41.201  30.499  36.238  1.00  0.00     0.031 C 
ATOM     64  C   UNL A   1      39.217  31.122  34.890  1.00  0.00     0.031 A 
BRANCH  51  65
ATOM     65  C   UNL A   1      36.781  30.658  29.234  1.00  0.00    -0.014 A 
ATOM     66  C   UNL A   1      35.799  29.727  28.859  1.00  0.00     0.009 A 
ATOM     67  C   UNL A   1      36.690  31.972  28.747  1.00  0.00     0.009 A 
ATOM     68  C   UNL A   1      34.771  30.096  27.990  1.00  0.00     0.001 A 
ATOM     69  C   UNL A   1      35.644  32.347  27.905  1.00  0.00     0.001 A 
ATOM     70  C   UNL A   1      34.690  31.406  27.518  1.00  0.00     0.000 A 
ENDBRANCH  51  65
BRANCH  52  71
ATOM     71  C   UNL A   1      44.529  28.223  35.017  1.00  0.00    -0.014 A 
ATOM     72  C   UNL A   1      45.654  29.062  35.056  1.00  0.00     0.009 A 
ATOM     73  C   UNL A   1      44.530  27.056  35.798  1.00  0.00     0.009 A 
ATOM     74  C   UNL A   1      46.762  28.728  35.839  1.00  0.00     0.001 A 
ATOM     75  C   UNL A   1      45.627  26.740  36.603  1.00  0.00     0.001 A 
ATOM     76  C   UNL A   1      46.745  27.570  36.616  1.00  0.00     0.000 A 
ENDBRANCH  52  71
BRANCH  64  77
ATOM     77  C   UNL A   1      38.646  31.799  36.106  1.00  0.00    -0.014 A 
ATOM     78  C   UNL A   1      38.801  33.177  36.322  1.00  0.00     0.009 A 
ATOM     79  C   UNL A   1      37.893  31.051  37.025  1.00  0.00     0.009 A 
ATOM     80  C   UNL A   1      38.246  33.783  37.452  1.00  0.00     0.001 A 
ATOM     81  C   UNL A   1      37.311  31.663  38.135  1.00  0.00     0.001 A 
ATOM     82  C   UNL A   1      37.496  33.027  38.353  1.00  0.00     0.000 A 
ENDBRANCH  64  77
ENDBRANCH  38  39
ENDBRANCH  31  33
ENDBRANCH  30  31
ENDBRANCH  29  30
ENDBRANCH  28  29
ENDBRANCH  27  28
ENDBRANCH  26  27
ENDBRANCH   1  26
TORSDOF 20
ENDMDL
