MODEL 1
REMARK VINA RESULT:     -10.6      0.000      0.000
REMARK SMILES Cc1ccccc1/C=C1\SC(=O)N(CC(=O)Nc2ccccc2C(=O)OCCOCCOCCOC(=O)c2ccc(-c3c4nc(c(-c5ccccc5)c5ccc([nH]5)c(-c5ccccc5)c5nc(c(-c6ccccc6)c6ccc3[nH]6)C=C5)C=C4)cc2)C1=O
REMARK SMILES IDX 30 1 29 2 28 3 27 4 26 5 24 6 25 7 23 8 18 9 19 10 20 11
REMARK SMILES IDX 22 12 21 13 17 14 15 15 16 16 14 18 13 19 8 20 9 21 10 22
REMARK SMILES IDX 86 23 11 24 87 25 12 26 7 27 1 28 2 29 3 30 4 31 6 32 5 33
REMARK SMILES IDX 31 34 32 35 33 36 34 37 35 38 36 39 37 40 38 41 39 42 85 43
REMARK SMILES IDX 40 44 84 45 41 46 42 47 43 48 78 49 44 50 83 51 77 52 79 53
REMARK SMILES IDX 45 54 82 55 76 56 75 57 46 59 68 60 53 61 67 62 54 63 57 64
REMARK SMILES IDX 66 65 80 66 55 67 56 68 65 70 81 71 58 72 47 73 48 74 52 75
REMARK SMILES IDX 49 76 51 77 50 78 69 79 70 80 74 81 71 82 73 83 72 84 59 85
REMARK SMILES IDX 60 86 64 87 61 88 63 89 62 90
REMARK H PARENT 17 17 79 58 57 69
REMARK Flexibility Score: inf
ROOT
ATOM      1  C   UNL A   1      35.257  33.681  31.702  1.00  0.00     0.188 C 
ENDROOT
BRANCH   1   2
ATOM      2  O   UNL A   1      35.336  32.813  32.808  1.00  0.00    -0.376 OA
BRANCH   2   3
ATOM      3  C   UNL A   1      36.582  32.297  33.244  1.00  0.00     0.202 C 
BRANCH   3   4
ATOM      4  C   UNL A   1      36.983  30.717  32.990  1.00  0.00     0.261 C 
BRANCH   4   5
ATOM      5  O   UNL A   1      38.464  29.442  33.581  1.00  0.00    -0.460 OA
BRANCH   5   6
ATOM      6  C   UNL A   1      40.081  29.237  33.660  1.00  0.00     0.340 C 
ATOM      7  O   UNL A   1      40.563  28.352  32.941  1.00  0.00    -0.246 OA
BRANCH   6   8
ATOM      8  C   UNL A   1      41.301  29.806  34.440  1.00  0.00     0.083 A 
ATOM      9  C   UNL A   1      41.835  28.981  35.432  1.00  0.00     0.055 A 
ATOM     10  C   UNL A   1      42.899  29.459  36.279  1.00  0.00     0.027 A 
ATOM     11  C   UNL A   1      43.475  30.725  36.157  1.00  0.00     0.002 A 
ATOM     12  C   UNL A   1      41.744  31.179  34.578  1.00  0.00     0.018 A 
ATOM     13  C   UNL A   1      42.871  31.612  35.307  1.00  0.00     0.001 A 
BRANCH   9  14
ATOM     14  N   UNL A   1      41.320  27.731  35.812  1.00  0.00    -0.324 N 
ATOM     15  C   UNL A   1      41.578  26.410  35.627  1.00  0.00     0.244 C 
ATOM     16  O   UNL A   1      40.621  25.711  36.026  1.00  0.00    -0.273 OA
ATOM     17  H   UNL A   1      40.529  27.848  36.388  1.00  0.00     0.170 HD
BRANCH  15  18
ATOM     18  C   UNL A   1      42.905  25.612  35.281  1.00  0.00     0.230 C 
BRANCH  18  19
ATOM     19  N   UNL A   1      43.683  24.461  35.843  1.00  0.00    -0.259 N 
ATOM     20  C   UNL A   1      46.548  21.040  35.828  1.00  0.00     0.029 C 
ATOM     21  C   UNL A   1      45.848  22.218  35.988  1.00  0.00     0.083 C 
ATOM     22  S   UNL A   1      46.019  23.315  37.946  1.00  0.00    -0.022 SA
ATOM     23  C   UNL A   1      44.405  23.079  34.930  1.00  0.00     0.268 C 
ATOM     24  C   UNL A   1      44.380  24.831  37.388  1.00  0.00     0.294 C 
ATOM     25  O   UNL A   1      43.846  22.506  33.997  1.00  0.00    -0.268 OA
ATOM     26  O   UNL A   1      43.933  25.671  38.156  1.00  0.00    -0.261 OA
BRANCH  20  27
ATOM     27  C   UNL A   1      47.730  20.370  36.536  1.00  0.00    -0.021 A 
ATOM     28  C   UNL A   1      46.530  19.247  38.500  1.00  0.00     0.045 C 
ATOM     29  C   UNL A   1      47.756  19.719  37.783  1.00  0.00    -0.044 A 
ATOM     30  C   UNL A   1      48.993  19.347  38.389  1.00  0.00     0.004 A 
ATOM     31  C   UNL A   1      50.208  19.487  37.731  1.00  0.00     0.000 A 
ATOM     32  C   UNL A   1      48.973  20.346  35.844  1.00  0.00     0.008 A 
ATOM     33  C   UNL A   1      50.190  19.938  36.427  1.00  0.00     0.001 A 
ENDBRANCH  20  27
ENDBRANCH  18  19
ENDBRANCH  15  18
ENDBRANCH   9  14
ENDBRANCH   6   8
ENDBRANCH   5   6
ENDBRANCH   4   5
ENDBRANCH   3   4
ENDBRANCH   2   3
ENDBRANCH   1   2
BRANCH   1  34
ATOM     34  C   UNL A   1      34.052  34.668  31.597  1.00  0.00     0.188 C 
BRANCH  34  35
ATOM     35  O   UNL A   1      33.340  34.635  30.364  1.00  0.00    -0.376 OA
BRANCH  35  36
ATOM     36  C   UNL A   1      34.027  34.491  29.102  1.00  0.00     0.202 C 
BRANCH  36  37
ATOM     37  C   UNL A   1      33.794  33.306  28.114  1.00  0.00     0.261 C 
BRANCH  37  38
ATOM     38  O   UNL A   1      34.116  32.035  28.808  1.00  0.00    -0.460 OA
BRANCH  38  39
ATOM     39  C   UNL A   1      34.968  31.138  28.194  1.00  0.00     0.338 C 
ATOM     40  O   UNL A   1      34.695  30.495  27.190  1.00  0.00    -0.246 OA
BRANCH  39  41
ATOM     41  C   UNL A   1      36.140  30.793  29.129  1.00  0.00     0.060 A 
ATOM     42  C   UNL A   1      37.259  31.628  29.171  1.00  0.00     0.016 A 
ATOM     43  C   UNL A   1      36.328  29.542  29.702  1.00  0.00     0.016 A 
ATOM     44  C   UNL A   1      38.561  31.106  29.487  1.00  0.00     0.010 A 
ATOM     45  C   UNL A   1      37.655  29.053  29.996  1.00  0.00     0.010 A 
ATOM     46  C   UNL A   1      38.858  29.739  29.647  1.00  0.00    -0.014 A 
BRANCH  46  47
ATOM     47  C   UNL A   1      40.285  28.841  29.473  1.00  0.00     0.031 A 
ATOM     48  C   UNL A   1      41.452  29.769  29.448  1.00  0.00     0.074 A 
ATOM     49  C   UNL A   1      40.793  27.520  29.150  1.00  0.00     0.049 A 
ATOM     50  N   UNL A   1      42.526  29.572  28.735  1.00  0.00    -0.248 NA
ATOM     51  C   UNL A   1      41.412  31.099  30.061  1.00  0.00     0.031 C 
ATOM     52  C   UNL A   1      42.090  26.934  29.554  1.00  0.00     0.029 A 
ATOM     53  N   UNL A   1      40.359  26.375  28.405  1.00  0.00    -0.354 N 
ATOM     54  C   UNL A   1      43.434  30.437  29.284  1.00  0.00     0.074 A 
ATOM     55  C   UNL A   1      42.623  31.537  29.725  1.00  0.00     0.031 C 
ATOM     56  C   UNL A   1      42.242  25.643  29.145  1.00  0.00     0.029 A 
ATOM     57  C   UNL A   1      41.074  25.171  28.407  1.00  0.00     0.049 A 
ATOM     58  H   UNL A   1      39.532  26.436  27.876  1.00  0.00     0.167 HD
ATOM     59  C   UNL A   1      44.621  29.942  29.746  1.00  0.00     0.031 A 
ATOM     60  C   UNL A   1      41.012  24.194  27.419  1.00  0.00     0.031 A 
ATOM     61  C   UNL A   1      44.996  28.623  29.161  1.00  0.00     0.049 A 
ATOM     62  C   UNL A   1      42.141  24.510  26.502  1.00  0.00     0.074 A 
ATOM     63  C   UNL A   1      45.506  27.448  29.698  1.00  0.00     0.029 A 
ATOM     64  N   UNL A   1      44.673  28.297  27.825  1.00  0.00    -0.354 N 
ATOM     65  N   UNL A   1      42.743  25.658  26.583  1.00  0.00    -0.248 NA
ATOM     66  C   UNL A   1      42.698  23.631  25.480  1.00  0.00     0.031 C 
ATOM     67  C   UNL A   1      45.476  26.434  28.707  1.00  0.00     0.029 A 
ATOM     68  C   UNL A   1      44.978  26.978  27.534  1.00  0.00     0.049 A 
ATOM     69  H   UNL A   1      44.279  28.928  27.182  1.00  0.00     0.167 HD
ATOM     70  C   UNL A   1      43.902  25.559  25.908  1.00  0.00     0.074 A 
ATOM     71  C   UNL A   1      43.774  24.349  25.107  1.00  0.00     0.031 C 
ATOM     72  C   UNL A   1      44.921  26.409  26.182  1.00  0.00     0.031 A 
BRANCH  59  73
ATOM     73  C   UNL A   1      45.251  30.537  31.031  1.00  0.00    -0.014 A 
ATOM     74  C   UNL A   1      46.043  31.695  30.973  1.00  0.00     0.009 A 
ATOM     75  C   UNL A   1      45.199  29.947  32.317  1.00  0.00     0.009 A 
ATOM     76  C   UNL A   1      46.771  32.171  32.084  1.00  0.00     0.001 A 
ATOM     77  C   UNL A   1      45.895  30.424  33.437  1.00  0.00     0.001 A 
ATOM     78  C   UNL A   1      46.701  31.533  33.316  1.00  0.00     0.000 A 
ENDBRANCH  59  73
BRANCH  60  79
ATOM     79  C   UNL A   1      39.807  23.432  26.870  1.00  0.00    -0.014 A 
ATOM     80  C   UNL A   1      38.644  24.127  26.466  1.00  0.00     0.009 A 
ATOM     81  C   UNL A   1      39.803  22.051  26.599  1.00  0.00     0.009 A 
ATOM     82  C   UNL A   1      37.683  23.542  25.599  1.00  0.00     0.001 A 
ATOM     83  C   UNL A   1      38.848  21.467  25.727  1.00  0.00     0.001 A 
ATOM     84  C   UNL A   1      37.828  22.230  25.171  1.00  0.00     0.000 A 
ENDBRANCH  60  79
BRANCH  72  85
ATOM     85  C   UNL A   1      46.097  26.551  25.290  1.00  0.00    -0.014 A 
ATOM     86  C   UNL A   1      46.244  27.599  24.374  1.00  0.00     0.009 A 
ATOM     87  C   UNL A   1      47.182  25.680  25.482  1.00  0.00     0.009 A 
ATOM     88  C   UNL A   1      47.418  27.734  23.635  1.00  0.00     0.001 A 
ATOM     89  C   UNL A   1      48.369  25.840  24.784  1.00  0.00     0.001 A 
ATOM     90  C   UNL A   1      48.481  26.861  23.851  1.00  0.00     0.000 A 
ENDBRANCH  72  85
ENDBRANCH  46  47
ENDBRANCH  39  41
ENDBRANCH  38  39
ENDBRANCH  37  38
ENDBRANCH  36  37
ENDBRANCH  35  36
ENDBRANCH  34  35
ENDBRANCH   1  34
TORSDOF 21
ENDMDL
MODEL 2
REMARK VINA RESULT:      -9.5      4.301     10.792
REMARK SMILES Cc1ccccc1/C=C1\SC(=O)N(CC(=O)Nc2ccccc2C(=O)OCCOCCOCCOC(=O)c2ccc(-c3c4nc(c(-c5ccccc5)c5ccc([nH]5)c(-c5ccccc5)c5nc(c(-c6ccccc6)c6ccc3[nH]6)C=C5)C=C4)cc2)C1=O
REMARK SMILES IDX 30 1 29 2 28 3 27 4 26 5 24 6 25 7 23 8 18 9 19 10 20 11
REMARK SMILES IDX 22 12 21 13 17 14 15 15 16 16 14 18 13 19 8 20 9 21 10 22
REMARK SMILES IDX 86 23 11 24 87 25 12 26 7 27 1 28 2 29 3 30 4 31 6 32 5 33
REMARK SMILES IDX 31 34 32 35 33 36 34 37 35 38 36 39 37 40 38 41 39 42 85 43
REMARK SMILES IDX 40 44 84 45 41 46 42 47 43 48 78 49 44 50 83 51 77 52 79 53
REMARK SMILES IDX 45 54 82 55 76 56 75 57 46 59 68 60 53 61 67 62 54 63 57 64
REMARK SMILES IDX 66 65 80 66 55 67 56 68 65 70 81 71 58 72 47 73 48 74 52 75
REMARK SMILES IDX 49 76 51 77 50 78 69 79 70 80 74 81 71 82 73 83 72 84 59 85
REMARK SMILES IDX 60 86 64 87 61 88 63 89 62 90
REMARK H PARENT 17 17 79 58 57 69
REMARK Flexibility Score: inf
ROOT
ATOM      1  C   UNL A   1      37.335  34.567  33.871  1.00  0.00     0.188 C 
ENDROOT
BRANCH   1   2
ATOM      2  O   UNL A   1      36.834  34.548  32.556  1.00  0.00    -0.376 OA
BRANCH   2   3
ATOM      3  C   UNL A   1      35.779  33.675  32.189  1.00  0.00     0.202 C 
BRANCH   3   4
ATOM      4  C   UNL A   1      35.747  32.112  32.717  1.00  0.00     0.261 C 
BRANCH   4   5
ATOM      5  O   UNL A   1      36.284  30.282  31.988  1.00  0.00    -0.460 OA
BRANCH   5   6
ATOM      6  C   UNL A   1      37.458  29.149  31.990  1.00  0.00     0.340 C 
ATOM      7  O   UNL A   1      37.493  28.390  32.967  1.00  0.00    -0.246 OA
BRANCH   6   8
ATOM      8  C   UNL A   1      38.669  28.709  31.117  1.00  0.00     0.083 A 
ATOM      9  C   UNL A   1      39.469  29.736  30.614  1.00  0.00     0.055 A 
ATOM     10  C   UNL A   1      40.552  29.438  29.711  1.00  0.00     0.027 A 
ATOM     11  C   UNL A   1      40.888  28.144  29.308  1.00  0.00     0.002 A 
ATOM     12  C   UNL A   1      38.896  27.455  30.427  1.00  0.00     0.018 A 
ATOM     13  C   UNL A   1      40.031  27.134  29.653  1.00  0.00     0.001 A 
BRANCH   9  14
ATOM     14  N   UNL A   1      39.226  31.110  30.781  1.00  0.00    -0.324 N 
ATOM     15  C   UNL A   1      38.644  32.142  30.116  1.00  0.00     0.244 C 
ATOM     16  O   UNL A   1      38.933  33.234  30.653  1.00  0.00    -0.273 OA
ATOM     17  H   UNL A   1      39.588  31.419  31.644  1.00  0.00     0.170 HD
BRANCH  15  18
ATOM     18  C   UNL A   1      37.501  32.206  29.019  1.00  0.00     0.230 C 
BRANCH  18  19
ATOM     19  N   UNL A   1      36.352  31.357  28.565  1.00  0.00    -0.259 N 
ATOM     20  C   UNL A   1      32.348  30.454  26.814  1.00  0.00     0.029 C 
ATOM     21  C   UNL A   1      33.681  30.614  27.132  1.00  0.00     0.083 C 
ATOM     22  S   UNL A   1      35.137  29.015  26.509  1.00  0.00    -0.022 SA
ATOM     23  C   UNL A   1      34.634  31.869  28.341  1.00  0.00     0.268 C 
ATOM     24  C   UNL A   1      36.877  29.961  27.679  1.00  0.00     0.294 C 
ATOM     25  O   UNL A   1      34.036  32.619  29.109  1.00  0.00    -0.268 OA
ATOM     26  O   UNL A   1      37.978  29.444  27.807  1.00  0.00    -0.261 OA
BRANCH  20  27
ATOM     27  C   UNL A   1      31.559  29.588  25.826  1.00  0.00    -0.021 A 
ATOM     28  C   UNL A   1      31.710  27.304  26.973  1.00  0.00     0.045 C 
ATOM     29  C   UNL A   1      31.409  28.190  25.805  1.00  0.00    -0.044 A 
ATOM     30  C   UNL A   1      30.822  27.533  24.682  1.00  0.00     0.004 A 
ATOM     31  C   UNL A   1      30.258  28.239  23.628  1.00  0.00     0.000 A 
ATOM     32  C   UNL A   1      30.833  30.265  24.807  1.00  0.00     0.008 A 
ATOM     33  C   UNL A   1      30.215  29.616  23.719  1.00  0.00     0.001 A 
ENDBRANCH  20  27
ENDBRANCH  18  19
ENDBRANCH  15  18
ENDBRANCH   9  14
ENDBRANCH   6   8
ENDBRANCH   5   6
ENDBRANCH   4   5
ENDBRANCH   3   4
ENDBRANCH   2   3
ENDBRANCH   1   2
BRANCH   1  34
ATOM     34  C   UNL A   1      38.603  33.721  34.211  1.00  0.00     0.188 C 
BRANCH  34  35
ATOM     35  O   UNL A   1      38.514  32.933  35.394  1.00  0.00    -0.376 OA
BRANCH  35  36
ATOM     36  C   UNL A   1      38.140  31.539  35.343  1.00  0.00     0.202 C 
BRANCH  36  37
ATOM     37  C   UNL A   1      39.166  30.364  35.331  1.00  0.00     0.261 C 
BRANCH  37  38
ATOM     38  O   UNL A   1      40.536  30.924  35.436  1.00  0.00    -0.460 OA
BRANCH  38  39
ATOM     39  C   UNL A   1      41.522  30.164  36.034  1.00  0.00     0.338 C 
ATOM     40  O   UNL A   1      42.122  30.479  37.052  1.00  0.00    -0.246 OA
BRANCH  39  41
ATOM     41  C   UNL A   1      42.009  29.071  35.067  1.00  0.00     0.060 A 
ATOM     42  C   UNL A   1      43.353  28.690  35.076  1.00  0.00     0.016 A 
ATOM     43  C   UNL A   1      41.295  28.651  33.953  1.00  0.00     0.016 A 
ATOM     44  C   UNL A   1      43.990  28.194  33.886  1.00  0.00     0.010 A 
ATOM     45  C   UNL A   1      41.975  28.168  32.774  1.00  0.00     0.010 A 
ATOM     46  C   UNL A   1      43.395  28.170  32.611  1.00  0.00    -0.014 A 
BRANCH  46  47
ATOM     47  C   UNL A   1      44.032  28.178  31.040  1.00  0.00     0.031 A 
ATOM     48  C   UNL A   1      44.206  26.773  30.571  1.00  0.00     0.074 A 
ATOM     49  C   UNL A   1      44.651  29.031  30.043  1.00  0.00     0.049 A 
ATOM     50  N   UNL A   1      45.177  26.377  29.796  1.00  0.00    -0.248 NA
ATOM     51  C   UNL A   1      43.419  25.661  31.112  1.00  0.00     0.031 C 
ATOM     52  C   UNL A   1      44.659  28.838  28.576  1.00  0.00     0.029 A 
ATOM     53  N   UNL A   1      45.424  30.239  30.019  1.00  0.00    -0.354 N 
ATOM     54  C   UNL A   1      44.745  25.158  29.346  1.00  0.00     0.074 A 
ATOM     55  C   UNL A   1      43.971  24.651  30.443  1.00  0.00     0.031 C 
ATOM     56  C   UNL A   1      45.271  29.856  27.908  1.00  0.00     0.029 A 
ATOM     57  C   UNL A   1      45.765  30.880  28.823  1.00  0.00     0.049 A 
ATOM     58  H   UNL A   1      45.725  30.629  30.871  1.00  0.00     0.167 HD
ATOM     59  C   UNL A   1      44.657  24.945  27.999  1.00  0.00     0.031 A 
ATOM     60  C   UNL A   1      46.838  31.750  28.651  1.00  0.00     0.031 A 
ATOM     61  C   UNL A   1      45.496  25.870  27.184  1.00  0.00     0.049 A 
ATOM     62  C   UNL A   1      47.945  30.891  28.149  1.00  0.00     0.074 A 
ATOM     63  C   UNL A   1      45.270  26.593  26.020  1.00  0.00     0.029 A 
ATOM     64  N   UNL A   1      46.747  26.328  27.653  1.00  0.00    -0.354 N 
ATOM     65  N   UNL A   1      47.850  29.598  28.223  1.00  0.00    -0.248 NA
ATOM     66  C   UNL A   1      49.184  31.350  27.533  1.00  0.00     0.031 C 
ATOM     67  C   UNL A   1      46.358  27.477  25.803  1.00  0.00     0.029 A 
ATOM     68  C   UNL A   1      47.288  27.287  26.813  1.00  0.00     0.049 A 
ATOM     69  H   UNL A   1      47.181  26.006  28.475  1.00  0.00     0.167 HD
ATOM     70  C   UNL A   1      48.791  29.073  27.418  1.00  0.00     0.074 A 
ATOM     71  C   UNL A   1      49.700  30.174  27.128  1.00  0.00     0.031 C 
ATOM     72  C   UNL A   1      48.653  27.810  26.947  1.00  0.00     0.031 A 
BRANCH  59  73
ATOM     73  C   UNL A   1      43.491  24.097  27.432  1.00  0.00    -0.014 A 
ATOM     74  C   UNL A   1      42.172  24.576  27.463  1.00  0.00     0.009 A 
ATOM     75  C   UNL A   1      43.602  22.768  26.954  1.00  0.00     0.009 A 
ATOM     76  C   UNL A   1      41.065  23.773  27.116  1.00  0.00     0.001 A 
ATOM     77  C   UNL A   1      42.515  21.967  26.580  1.00  0.00     0.001 A 
ATOM     78  C   UNL A   1      41.235  22.466  26.679  1.00  0.00     0.000 A 
ENDBRANCH  59  73
BRANCH  60  79
ATOM     79  C   UNL A   1      47.182  33.039  29.395  1.00  0.00    -0.014 A 
ATOM     80  C   UNL A   1      47.312  34.258  28.693  1.00  0.00     0.009 A 
ATOM     81  C   UNL A   1      47.257  33.144  30.797  1.00  0.00     0.009 A 
ATOM     82  C   UNL A   1      47.228  35.516  29.349  1.00  0.00     0.001 A 
ATOM     83  C   UNL A   1      47.167  34.399  31.454  1.00  0.00     0.001 A 
ATOM     84  C   UNL A   1      47.081  35.581  30.728  1.00  0.00     0.000 A 
ENDBRANCH  60  79
BRANCH  72  85
ATOM     85  C   UNL A   1      49.772  27.074  26.311  1.00  0.00    -0.014 A 
ATOM     86  C   UNL A   1      50.218  27.330  25.009  1.00  0.00     0.009 A 
ATOM     87  C   UNL A   1      50.517  26.188  27.106  1.00  0.00     0.009 A 
ATOM     88  C   UNL A   1      51.339  26.675  24.504  1.00  0.00     0.001 A 
ATOM     89  C   UNL A   1      51.661  25.572  26.622  1.00  0.00     0.001 A 
ATOM     90  C   UNL A   1      52.064  25.806  25.316  1.00  0.00     0.000 A 
ENDBRANCH  72  85
ENDBRANCH  46  47
ENDBRANCH  39  41
ENDBRANCH  38  39
ENDBRANCH  37  38
ENDBRANCH  36  37
ENDBRANCH  35  36
ENDBRANCH  34  35
ENDBRANCH   1  34
TORSDOF 21
ENDMDL
MODEL 3
REMARK VINA RESULT:      -9.1      5.469     11.470
REMARK SMILES Cc1ccccc1/C=C1\SC(=O)N(CC(=O)Nc2ccccc2C(=O)OCCOCCOCCOC(=O)c2ccc(-c3c4nc(c(-c5ccccc5)c5ccc([nH]5)c(-c5ccccc5)c5nc(c(-c6ccccc6)c6ccc3[nH]6)C=C5)C=C4)cc2)C1=O
REMARK SMILES IDX 30 1 29 2 28 3 27 4 26 5 24 6 25 7 23 8 18 9 19 10 20 11
REMARK SMILES IDX 22 12 21 13 17 14 15 15 16 16 14 18 13 19 8 20 9 21 10 22
REMARK SMILES IDX 86 23 11 24 87 25 12 26 7 27 1 28 2 29 3 30 4 31 6 32 5 33
REMARK SMILES IDX 31 34 32 35 33 36 34 37 35 38 36 39 37 40 38 41 39 42 85 43
REMARK SMILES IDX 40 44 84 45 41 46 42 47 43 48 78 49 44 50 83 51 77 52 79 53
REMARK SMILES IDX 45 54 82 55 76 56 75 57 46 59 68 60 53 61 67 62 54 63 57 64
REMARK SMILES IDX 66 65 80 66 55 67 56 68 65 70 81 71 58 72 47 73 48 74 52 75
REMARK SMILES IDX 49 76 51 77 50 78 69 79 70 80 74 81 71 82 73 83 72 84 59 85
REMARK SMILES IDX 60 86 64 87 61 88 63 89 62 90
REMARK H PARENT 17 17 79 58 57 69
REMARK Flexibility Score: inf
ROOT
ATOM      1  C   UNL A   1      41.798  35.639  39.598  1.00  0.00     0.188 C 
ENDROOT
BRANCH   1   2
ATOM      2  O   UNL A   1      42.247  34.656  40.499  1.00  0.00    -0.376 OA
BRANCH   2   3
ATOM      3  C   UNL A   1      41.948  33.285  40.294  1.00  0.00     0.202 C 
BRANCH   3   4
ATOM      4  C   UNL A   1      42.067  32.605  38.796  1.00  0.00     0.261 C 
BRANCH   4   5
ATOM      5  O   UNL A   1      43.027  31.010  37.956  1.00  0.00    -0.460 OA
BRANCH   5   6
ATOM      6  C   UNL A   1      43.328  30.236  36.552  1.00  0.00     0.340 C 
ATOM      7  O   UNL A   1      44.419  30.469  36.015  1.00  0.00    -0.246 OA
BRANCH   6   8
ATOM      8  C   UNL A   1      42.616  29.261  35.571  1.00  0.00     0.083 A 
ATOM      9  C   UNL A   1      41.878  29.853  34.544  1.00  0.00     0.055 A 
ATOM     10  C   UNL A   1      41.098  29.038  33.647  1.00  0.00     0.027 A 
ATOM     11  C   UNL A   1      41.047  27.644  33.716  1.00  0.00     0.002 A 
ATOM     12  C   UNL A   1      42.275  27.864  35.751  1.00  0.00     0.018 A 
ATOM     13  C   UNL A   1      41.627  27.046  34.802  1.00  0.00     0.001 A 
BRANCH   9  14
ATOM     14  N   UNL A   1      41.682  31.234  34.378  1.00  0.00    -0.324 N 
ATOM     15  C   UNL A   1      42.275  32.292  33.765  1.00  0.00     0.244 C 
ATOM     16  O   UNL A   1      41.774  33.368  34.158  1.00  0.00    -0.273 OA
ATOM     17  H   UNL A   1      40.867  31.524  34.849  1.00  0.00     0.170 HD
BRANCH  15  18
ATOM     18  C   UNL A   1      43.232  32.408  32.506  1.00  0.00     0.230 C 
BRANCH  18  19
ATOM     19  N   UNL A   1      43.602  33.442  31.487  1.00  0.00    -0.259 N 
ATOM     20  C   UNL A   1      43.277  37.262  29.203  1.00  0.00     0.029 C 
ATOM     21  C   UNL A   1      43.602  36.193  30.012  1.00  0.00     0.083 C 
ATOM     22  S   UNL A   1      45.776  35.714  30.345  1.00  0.00    -0.022 SA
ATOM     23  C   UNL A   1      42.526  34.704  30.768  1.00  0.00     0.268 C 
ATOM     24  C   UNL A   1      45.307  33.755  31.457  1.00  0.00     0.294 C 
ATOM     25  O   UNL A   1      41.360  34.504  30.435  1.00  0.00    -0.268 OA
ATOM     26  O   UNL A   1      46.156  32.951  31.816  1.00  0.00    -0.261 OA
BRANCH  20  27
ATOM     27  C   UNL A   1      44.022  38.491  28.670  1.00  0.00    -0.021 A 
ATOM     28  C   UNL A   1      44.431  39.778  30.846  1.00  0.00     0.045 C 
ATOM     29  C   UNL A   1      44.390  39.663  29.355  1.00  0.00    -0.044 A 
ATOM     30  C   UNL A   1      44.883  40.800  28.646  1.00  0.00     0.004 A 
ATOM     31  C   UNL A   1      45.144  40.763  27.283  1.00  0.00     0.000 A 
ATOM     32  C   UNL A   1      44.452  38.451  27.315  1.00  0.00     0.008 A 
ATOM     33  C   UNL A   1      44.980  39.562  26.624  1.00  0.00     0.001 A 
ENDBRANCH  20  27
ENDBRANCH  18  19
ENDBRANCH  15  18
ENDBRANCH   9  14
ENDBRANCH   6   8
ENDBRANCH   5   6
ENDBRANCH   4   5
ENDBRANCH   3   4
ENDBRANCH   2   3
ENDBRANCH   1   2
BRANCH   1  34
ATOM     34  C   UNL A   1      40.552  36.502  39.975  1.00  0.00     0.188 C 
BRANCH  34  35
ATOM     35  O   UNL A   1      39.289  35.893  39.728  1.00  0.00    -0.376 OA
BRANCH  35  36
ATOM     36  C   UNL A   1      38.525  35.284  40.791  1.00  0.00     0.202 C 
BRANCH  36  37
ATOM     37  C   UNL A   1      38.303  33.746  40.933  1.00  0.00     0.261 C 
BRANCH  37  38
ATOM     38  O   UNL A   1      37.380  33.297  39.861  1.00  0.00    -0.460 OA
BRANCH  38  39
ATOM     39  C   UNL A   1      37.429  31.979  39.449  1.00  0.00     0.338 C 
ATOM     40  O   UNL A   1      37.140  31.020  40.152  1.00  0.00    -0.246 OA
BRANCH  39  41
ATOM     41  C   UNL A   1      38.226  31.861  38.139  1.00  0.00     0.060 A 
ATOM     42  C   UNL A   1      38.826  32.996  37.591  1.00  0.00     0.016 A 
ATOM     43  C   UNL A   1      38.133  30.779  37.274  1.00  0.00     0.016 A 
ATOM     44  C   UNL A   1      39.022  33.118  36.171  1.00  0.00     0.010 A 
ATOM     45  C   UNL A   1      38.330  30.946  35.853  1.00  0.00     0.010 A 
ATOM     46  C   UNL A   1      38.531  32.209  35.215  1.00  0.00    -0.014 A 
BRANCH  46  47
ATOM     47  C   UNL A   1      38.139  32.362  33.573  1.00  0.00     0.031 A 
ATOM     48  C   UNL A   1      36.697  32.721  33.441  1.00  0.00     0.074 A 
ATOM     49  C   UNL A   1      38.627  32.092  32.233  1.00  0.00     0.049 A 
ATOM     50  N   UNL A   1      35.929  32.312  32.470  1.00  0.00    -0.248 NA
ATOM     51  C   UNL A   1      35.955  33.396  34.509  1.00  0.00     0.031 C 
ATOM     52  C   UNL A   1      38.248  32.787  30.983  1.00  0.00     0.029 A 
ATOM     53  N   UNL A   1      39.532  31.175  31.603  1.00  0.00    -0.354 N 
ATOM     54  C   UNL A   1      34.848  33.148  32.549  1.00  0.00     0.074 A 
ATOM     55  C   UNL A   1      34.747  33.433  33.952  1.00  0.00     0.031 C 
ATOM     56  C   UNL A   1      38.938  32.341  29.896  1.00  0.00     0.029 A 
ATOM     57  C   UNL A   1      39.878  31.282  30.251  1.00  0.00     0.049 A 
ATOM     58  H   UNL A   1      39.924  30.448  32.138  1.00  0.00     0.167 HD
ATOM     59  C   UNL A   1      34.495  33.877  31.448  1.00  0.00     0.031 A 
ATOM     60  C   UNL A   1      40.354  30.245  29.455  1.00  0.00     0.031 A 
ATOM     61  C   UNL A   1      35.008  33.320  30.164  1.00  0.00     0.049 A 
ATOM     62  C   UNL A   1      39.143  29.693  28.787  1.00  0.00     0.074 A 
ATOM     63  C   UNL A   1      35.606  33.886  29.045  1.00  0.00     0.029 A 
ATOM     64  N   UNL A   1      35.128  31.926  29.966  1.00  0.00    -0.354 N 
ATOM     65  N   UNL A   1      37.961  30.017  29.214  1.00  0.00    -0.248 NA
ATOM     66  C   UNL A   1      39.123  28.798  27.636  1.00  0.00     0.031 C 
ATOM     67  C   UNL A   1      36.084  32.852  28.200  1.00  0.00     0.029 A 
ATOM     68  C   UNL A   1      35.760  31.631  28.770  1.00  0.00     0.049 A 
ATOM     69  H   UNL A   1      34.802  31.248  30.601  1.00  0.00     0.167 HD
ATOM     70  C   UNL A   1      37.076  29.675  28.260  1.00  0.00     0.074 A 
ATOM     71  C   UNL A   1      37.803  28.784  27.368  1.00  0.00     0.031 C 
ATOM     72  C   UNL A   1      35.862  30.276  28.215  1.00  0.00     0.031 A 
BRANCH  59  73
ATOM     73  C   UNL A   1      33.969  35.323  31.622  1.00  0.00    -0.014 A 
ATOM     74  C   UNL A   1      33.235  35.949  30.603  1.00  0.00     0.009 A 
ATOM     75  C   UNL A   1      34.257  36.172  32.720  1.00  0.00     0.009 A 
ATOM     76  C   UNL A   1      32.885  37.316  30.650  1.00  0.00     0.001 A 
ATOM     77  C   UNL A   1      33.893  37.524  32.793  1.00  0.00     0.001 A 
ATOM     78  C   UNL A   1      33.219  38.105  31.743  1.00  0.00     0.000 A 
ENDBRANCH  59  73
BRANCH  60  79
ATOM     79  C   UNL A   1      41.566  29.336  29.654  1.00  0.00    -0.014 A 
ATOM     80  C   UNL A   1      42.875  29.862  29.572  1.00  0.00     0.009 A 
ATOM     81  C   UNL A   1      41.486  27.990  30.057  1.00  0.00     0.009 A 
ATOM     82  C   UNL A   1      43.993  29.185  30.130  1.00  0.00     0.001 A 
ATOM     83  C   UNL A   1      42.599  27.315  30.621  1.00  0.00     0.001 A 
ATOM     84  C   UNL A   1      43.837  27.940  30.722  1.00  0.00     0.000 A 
ENDBRANCH  60  79
BRANCH  72  85
ATOM     85  C   UNL A   1      34.746  29.748  27.394  1.00  0.00    -0.014 A 
ATOM     86  C   UNL A   1      34.454  28.384  27.282  1.00  0.00     0.009 A 
ATOM     87  C   UNL A   1      33.849  30.668  26.827  1.00  0.00     0.009 A 
ATOM     88  C   UNL A   1      33.331  27.957  26.576  1.00  0.00     0.001 A 
ATOM     89  C   UNL A   1      32.705  30.247  26.165  1.00  0.00     0.001 A 
ATOM     90  C   UNL A   1      32.454  28.890  26.030  1.00  0.00     0.000 A 
ENDBRANCH  72  85
ENDBRANCH  46  47
ENDBRANCH  39  41
ENDBRANCH  38  39
ENDBRANCH  37  38
ENDBRANCH  36  37
ENDBRANCH  35  36
ENDBRANCH  34  35
ENDBRANCH   1  34
TORSDOF 21
ENDMDL
