MODEL 1
REMARK VINA RESULT:     -10.3      0.000      0.000
REMARK SMILES Cc1c[nH]c(C[N@H+]2C[C@@H]3CN(S(C)(=O)=O)C[C@@]3(C(=O)OCCOCCOCCOC(=O)c3ccc(-c4c5nc(c(-c6ccccc6)c6ccc([nH]6)c(-c6ccccc6)c6nc(c(-c7ccccc7)c7ccc4[nH]7)C=C6)C=C5)cc3)C2)n1
REMARK SMILES IDX 24 1 23 2 22 3 21 4 20 5 18 6 19 7 17 8 7 9 8 10 80 11 9 13
REMARK SMILES IDX 10 14 16 15 11 16 6 17 5 18 1 19 2 20 3 21 81 22 4 23 12 25
REMARK SMILES IDX 13 26 14 27 15 28 25 29 26 30 27 31 28 32 29 33 30 34 31 35
REMARK SMILES IDX 32 36 33 37 79 38 34 39 78 40 35 41 36 42 37 43 72 44 38 45
REMARK SMILES IDX 77 46 71 47 73 48 39 49 76 50 70 51 69 52 40 54 62 55 47 56
REMARK SMILES IDX 61 57 48 58 51 59 60 60 74 61 49 62 50 63 59 65 75 66 52 67
REMARK SMILES IDX 41 68 42 69 46 70 43 71 45 72 44 73 63 74 64 75 68 76 65 77
REMARK SMILES IDX 67 78 66 79 53 80 54 81 58 82 55 83 57 84 56 85
REMARK H PARENT 7 12 4 24 73 53 51 64
REMARK Flexibility Score: inf
ROOT
ATOM      1  C   UNL A   1      39.968  21.876  26.856  1.00  0.00     0.188 C 
ENDROOT
BRANCH   1   2
ATOM      2  O   UNL A   1      39.186  21.474  25.744  1.00  0.00    -0.376 OA
BRANCH   2   3
ATOM      3  C   UNL A   1      37.837  21.925  25.604  1.00  0.00     0.202 C 
BRANCH   3   4
ATOM      4  C   UNL A   1      37.428  22.963  24.535  1.00  0.00     0.261 C 
BRANCH   4   5
ATOM      5  O   UNL A   1      36.165  23.531  24.877  1.00  0.00    -0.463 OA
BRANCH   5   6
ATOM      6  C   UNL A   1      35.144  23.706  23.982  1.00  0.00     0.319 C 
ATOM      7  O   UNL A   1      35.238  23.601  22.773  1.00  0.00    -0.251 OA
BRANCH   6   8
ATOM      8  C   UNL A   1      33.910  24.066  24.876  1.00  0.00     0.140 C 
ATOM      9  N   UNL A   1      32.724  21.898  24.377  1.00  0.00    -0.327 N 
ATOM     10  C   UNL A   1      31.772  22.944  24.095  1.00  0.00     0.268 C 
ATOM     11  C   UNL A   1      33.809  22.512  25.158  1.00  0.00     0.283 C 
ATOM     12  H   UNL A   1      33.101  21.527  23.505  1.00  0.00     0.348 HD
ATOM     13  C   UNL A   1      32.341  24.111  24.864  1.00  0.00     0.084 C 
ATOM     14  C   UNL A   1      31.727  25.423  24.448  1.00  0.00     0.113 C 
ATOM     15  C   UNL A   1      34.089  25.515  24.297  1.00  0.00     0.127 C 
ATOM     16  N   UNL A   1      32.834  26.164  23.934  1.00  0.00    -0.200 NA
BRANCH   9  17
ATOM     17  C   UNL A   1      32.151  20.672  24.949  1.00  0.00     0.338 C 
BRANCH  17  18
ATOM     18  C   UNL A   1      32.574  19.372  24.314  1.00  0.00     0.161 A 
ATOM     19  C   UNL A   1      34.281  16.253  24.087  1.00  0.00     0.068 C 
ATOM     20  C   UNL A   1      33.464  17.461  23.858  1.00  0.00     0.056 A 
ATOM     21  C   UNL A   1      32.722  17.802  22.752  1.00  0.00     0.107 A 
ATOM     22  N   UNL A   1      33.360  18.438  24.821  1.00  0.00    -0.233 NA
ATOM     23  N   UNL A   1      32.172  19.016  23.047  1.00  0.00    -0.344 N 
ATOM     24  H   UNL A   1      31.589  19.546  22.456  1.00  0.00     0.167 HD
ENDBRANCH  17  18
ENDBRANCH   9  17
BRANCH  16  25
ATOM     25  S   UNL A   1      32.738  27.053  22.525  1.00  0.00     0.211 S 
ATOM     26  C   UNL A   1      33.383  28.629  23.048  1.00  0.00     0.176 C 
ATOM     27  O   UNL A   1      33.664  26.474  21.571  1.00  0.00    -0.213 OA
ATOM     28  O   UNL A   1      31.340  27.227  22.207  1.00  0.00    -0.213 OA
ENDBRANCH  16  25
ENDBRANCH   6   8
ENDBRANCH   5   6
ENDBRANCH   4   5
ENDBRANCH   3   4
ENDBRANCH   2   3
ENDBRANCH   1   2
BRANCH   1  29
ATOM     29  C   UNL A   1      41.487  22.077  26.704  1.00  0.00     0.188 C 
BRANCH  29  30
ATOM     30  O   UNL A   1      42.149  21.604  25.559  1.00  0.00    -0.376 OA
BRANCH  30  31
ATOM     31  C   UNL A   1      43.521  21.934  25.375  1.00  0.00     0.202 C 
BRANCH  31  32
ATOM     32  C   UNL A   1      44.048  23.044  24.431  1.00  0.00     0.261 C 
BRANCH  32  33
ATOM     33  O   UNL A   1      43.568  24.382  24.633  1.00  0.00    -0.460 OA
BRANCH  33  34
ATOM     34  C   UNL A   1      44.441  25.240  25.232  1.00  0.00     0.338 C 
ATOM     35  O   UNL A   1      45.537  25.586  24.827  1.00  0.00    -0.246 OA
BRANCH  34  36
ATOM     36  C   UNL A   1      43.756  25.896  26.365  1.00  0.00     0.060 A 
ATOM     37  C   UNL A   1      44.146  27.189  26.742  1.00  0.00     0.016 A 
ATOM     38  C   UNL A   1      42.741  25.242  27.059  1.00  0.00     0.016 A 
ATOM     39  C   UNL A   1      43.479  27.856  27.766  1.00  0.00     0.010 A 
ATOM     40  C   UNL A   1      42.116  25.892  28.129  1.00  0.00     0.010 A 
ATOM     41  C   UNL A   1      42.479  27.203  28.490  1.00  0.00    -0.014 A 
BRANCH  41  42
ATOM     42  C   UNL A   1      41.922  27.817  29.721  1.00  0.00     0.031 A 
ATOM     43  C   UNL A   1      40.676  28.648  29.609  1.00  0.00     0.074 A 
ATOM     44  C   UNL A   1      42.491  27.636  30.926  1.00  0.00     0.049 A 
ATOM     45  N   UNL A   1      40.111  29.423  30.497  1.00  0.00    -0.248 NA
ATOM     46  C   UNL A   1      39.970  28.587  28.319  1.00  0.00     0.031 C 
ATOM     47  C   UNL A   1      43.615  26.748  31.214  1.00  0.00     0.029 A 
ATOM     48  N   UNL A   1      42.188  28.203  32.141  1.00  0.00    -0.354 N 
ATOM     49  C   UNL A   1      39.005  29.974  29.863  1.00  0.00     0.074 A 
ATOM     50  C   UNL A   1      38.978  29.443  28.517  1.00  0.00     0.031 C 
ATOM     51  C   UNL A   1      43.921  26.846  32.520  1.00  0.00     0.029 A 
ATOM     52  C   UNL A   1      43.061  27.851  33.142  1.00  0.00     0.049 A 
ATOM     53  H   UNL A   1      41.421  28.805  32.280  1.00  0.00     0.167 HD
ATOM     54  C   UNL A   1      38.100  30.854  30.354  1.00  0.00     0.031 A 
ATOM     55  C   UNL A   1      43.185  28.323  34.398  1.00  0.00     0.031 A 
ATOM     56  C   UNL A   1      38.134  31.391  31.688  1.00  0.00     0.049 A 
ATOM     57  C   UNL A   1      42.260  29.415  34.877  1.00  0.00     0.074 A 
ATOM     58  C   UNL A   1      37.267  32.298  32.273  1.00  0.00     0.029 A 
ATOM     59  N   UNL A   1      39.089  31.079  32.642  1.00  0.00    -0.354 N 
ATOM     60  N   UNL A   1      41.235  29.959  34.267  1.00  0.00    -0.248 NA
ATOM     61  C   UNL A   1      42.522  29.967  36.216  1.00  0.00     0.031 C 
ATOM     62  C   UNL A   1      37.739  32.589  33.557  1.00  0.00     0.029 A 
ATOM     63  C   UNL A   1      38.858  31.808  33.797  1.00  0.00     0.049 A 
ATOM     64  H   UNL A   1      39.822  30.434  32.517  1.00  0.00     0.167 HD
ATOM     65  C   UNL A   1      40.721  30.900  35.153  1.00  0.00     0.074 A 
ATOM     66  C   UNL A   1      41.531  30.839  36.350  1.00  0.00     0.031 C 
ATOM     67  C   UNL A   1      39.670  31.742  34.985  1.00  0.00     0.031 A 
BRANCH  54  68
ATOM     68  C   UNL A   1      37.037  31.347  29.414  1.00  0.00    -0.014 A 
ATOM     69  C   UNL A   1      37.075  32.639  28.866  1.00  0.00     0.009 A 
ATOM     70  C   UNL A   1      35.988  30.487  29.052  1.00  0.00     0.009 A 
ATOM     71  C   UNL A   1      36.063  33.071  28.006  1.00  0.00     0.001 A 
ATOM     72  C   UNL A   1      34.996  30.909  28.166  1.00  0.00     0.001 A 
ATOM     73  C   UNL A   1      35.028  32.204  27.653  1.00  0.00     0.000 A 
ENDBRANCH  54  68
BRANCH  55  74
ATOM     74  C   UNL A   1      44.274  27.824  35.283  1.00  0.00    -0.014 A 
ATOM     75  C   UNL A   1      44.054  26.749  36.157  1.00  0.00     0.009 A 
ATOM     76  C   UNL A   1      45.532  28.449  35.285  1.00  0.00     0.009 A 
ATOM     77  C   UNL A   1      45.063  26.325  37.027  1.00  0.00     0.001 A 
ATOM     78  C   UNL A   1      46.549  28.002  36.131  1.00  0.00     0.001 A 
ATOM     79  C   UNL A   1      46.311  26.947  37.008  1.00  0.00     0.000 A 
ENDBRANCH  55  74
BRANCH  67  80
ATOM     80  C   UNL A   1      39.311  32.651  36.130  1.00  0.00    -0.014 A 
ATOM     81  C   UNL A   1      39.900  33.917  36.267  1.00  0.00     0.009 A 
ATOM     82  C   UNL A   1      38.317  32.263  37.043  1.00  0.00     0.009 A 
ATOM     83  C   UNL A   1      39.518  34.766  37.309  1.00  0.00     0.001 A 
ATOM     84  C   UNL A   1      37.915  33.125  38.064  1.00  0.00     0.001 A 
ATOM     85  C   UNL A   1      38.520  34.373  38.201  1.00  0.00     0.000 A 
ENDBRANCH  67  80
ENDBRANCH  41  42
ENDBRANCH  34  36
ENDBRANCH  33  34
ENDBRANCH  32  33
ENDBRANCH  31  32
ENDBRANCH  30  31
ENDBRANCH  29  30
ENDBRANCH   1  29
TORSDOF 20
ENDMDL
MODEL 2
REMARK VINA RESULT:     -10.3      1.335      6.012
REMARK SMILES Cc1c[nH]c(C[N@H+]2C[C@@H]3CN(S(C)(=O)=O)C[C@@]3(C(=O)OCCOCCOCCOC(=O)c3ccc(-c4c5nc(c(-c6ccccc6)c6ccc([nH]6)c(-c6ccccc6)c6nc(c(-c7ccccc7)c7ccc4[nH]7)C=C6)C=C5)cc3)C2)n1
REMARK SMILES IDX 24 1 23 2 22 3 21 4 20 5 18 6 19 7 17 8 7 9 8 10 80 11 9 13
REMARK SMILES IDX 10 14 16 15 11 16 6 17 5 18 1 19 2 20 3 21 81 22 4 23 12 25
REMARK SMILES IDX 13 26 14 27 15 28 25 29 26 30 27 31 28 32 29 33 30 34 31 35
REMARK SMILES IDX 32 36 33 37 79 38 34 39 78 40 35 41 36 42 37 43 72 44 38 45
REMARK SMILES IDX 77 46 71 47 73 48 39 49 76 50 70 51 69 52 40 54 62 55 47 56
REMARK SMILES IDX 61 57 48 58 51 59 60 60 74 61 49 62 50 63 59 65 75 66 52 67
REMARK SMILES IDX 41 68 42 69 46 70 43 71 45 72 44 73 63 74 64 75 68 76 65 77
REMARK SMILES IDX 67 78 66 79 53 80 54 81 58 82 55 83 57 84 56 85
REMARK H PARENT 7 12 4 24 73 53 51 64
REMARK Flexibility Score: inf
ROOT
ATOM      1  C   UNL A   1      36.185  20.963  24.651  1.00  0.00     0.188 C 
ENDROOT
BRANCH   1   2
ATOM      2  O   UNL A   1      34.965  21.477  25.159  1.00  0.00    -0.376 OA
BRANCH   2   3
ATOM      3  C   UNL A   1      34.874  21.924  26.513  1.00  0.00     0.202 C 
BRANCH   3   4
ATOM      4  C   UNL A   1      34.350  23.332  26.876  1.00  0.00     0.261 C 
BRANCH   4   5
ATOM      5  O   UNL A   1      33.267  23.676  26.016  1.00  0.00    -0.463 OA
BRANCH   5   6
ATOM      6  C   UNL A   1      31.961  23.732  26.424  1.00  0.00     0.319 C 
ATOM      7  O   UNL A   1      31.573  23.604  27.572  1.00  0.00    -0.251 OA
BRANCH   6   8
ATOM      8  C   UNL A   1      31.157  23.976  25.104  1.00  0.00     0.140 C 
ATOM      9  N   UNL A   1      32.314  22.102  23.876  1.00  0.00    -0.327 N 
ATOM     10  C   UNL A   1      32.438  23.265  23.031  1.00  0.00     0.268 C 
ATOM     11  C   UNL A   1      31.284  22.415  24.877  1.00  0.00     0.283 C 
ATOM     12  H   UNL A   1      33.201  21.919  24.346  1.00  0.00     0.348 HD
ATOM     13  C   UNL A   1      31.343  24.160  23.555  1.00  0.00     0.084 C 
ATOM     14  C   UNL A   1      31.490  25.582  23.078  1.00  0.00     0.113 C 
ATOM     15  C   UNL A   1      31.334  25.499  25.441  1.00  0.00     0.127 C 
ATOM     16  N   UNL A   1      31.670  26.324  24.285  1.00  0.00    -0.200 NA
BRANCH   9  17
ATOM     17  C   UNL A   1      32.136  20.830  23.162  1.00  0.00     0.338 C 
BRANCH  17  18
ATOM     18  C   UNL A   1      32.470  19.577  23.928  1.00  0.00     0.161 A 
ATOM     19  C   UNL A   1      33.328  16.146  24.361  1.00  0.00     0.068 C 
ATOM     20  C   UNL A   1      32.974  17.569  24.534  1.00  0.00     0.056 A 
ATOM     21  C   UNL A   1      32.802  18.278  25.698  1.00  0.00     0.107 A 
ATOM     22  N   UNL A   1      32.773  18.384  23.444  1.00  0.00    -0.233 NA
ATOM     23  N   UNL A   1      32.474  19.544  25.304  1.00  0.00    -0.344 N 
ATOM     24  H   UNL A   1      32.274  20.302  25.901  1.00  0.00     0.167 HD
ENDBRANCH  17  18
ENDBRANCH   9  17
BRANCH  16  25
ATOM     25  S   UNL A   1      32.816  27.528  24.432  1.00  0.00     0.211 S 
ATOM     26  C   UNL A   1      33.569  27.122  25.995  1.00  0.00     0.176 C 
ATOM     27  O   UNL A   1      33.802  27.334  23.386  1.00  0.00    -0.213 OA
ATOM     28  O   UNL A   1      32.120  28.784  24.587  1.00  0.00    -0.213 OA
ENDBRANCH  16  25
ENDBRANCH   6   8
ENDBRANCH   5   6
ENDBRANCH   4   5
ENDBRANCH   3   4
ENDBRANCH   2   3
ENDBRANCH   1   2
BRANCH   1  29
ATOM     29  C   UNL A   1      37.516  21.668  24.970  1.00  0.00     0.188 C 
BRANCH  29  30
ATOM     30  O   UNL A   1      38.592  20.937  25.500  1.00  0.00    -0.376 OA
BRANCH  30  31
ATOM     31  C   UNL A   1      39.629  21.637  26.177  1.00  0.00     0.202 C 
BRANCH  31  32
ATOM     32  C   UNL A   1      41.146  21.417  25.949  1.00  0.00     0.261 C 
BRANCH  32  33
ATOM     33  O   UNL A   1      42.063  22.210  26.717  1.00  0.00    -0.460 OA
BRANCH  33  34
ATOM     34  C   UNL A   1      42.511  23.348  26.115  1.00  0.00     0.338 C 
ATOM     35  O   UNL A   1      42.951  23.465  24.985  1.00  0.00    -0.246 OA
BRANCH  34  36
ATOM     36  C   UNL A   1      42.163  24.502  26.969  1.00  0.00     0.060 A 
ATOM     37  C   UNL A   1      42.920  25.678  26.866  1.00  0.00     0.016 A 
ATOM     38  C   UNL A   1      41.105  24.428  27.871  1.00  0.00     0.016 A 
ATOM     39  C   UNL A   1      42.579  26.803  27.613  1.00  0.00     0.010 A 
ATOM     40  C   UNL A   1      40.805  25.540  28.666  1.00  0.00     0.010 A 
ATOM     41  C   UNL A   1      41.539  26.735  28.542  1.00  0.00    -0.014 A 
BRANCH  41  42
ATOM     42  C   UNL A   1      41.315  27.847  29.499  1.00  0.00     0.031 A 
ATOM     43  C   UNL A   1      42.201  27.943  30.708  1.00  0.00     0.074 A 
ATOM     44  C   UNL A   1      40.360  28.774  29.303  1.00  0.00     0.049 A 
ATOM     45  N   UNL A   1      42.086  28.706  31.764  1.00  0.00    -0.248 NA
ATOM     46  C   UNL A   1      43.378  27.061  30.722  1.00  0.00     0.031 C 
ATOM     47  C   UNL A   1      39.520  28.894  28.113  1.00  0.00     0.029 A 
ATOM     48  N   UNL A   1      39.939  29.797  30.119  1.00  0.00    -0.354 N 
ATOM     49  C   UNL A   1      43.155  28.371  32.586  1.00  0.00     0.074 A 
ATOM     50  C   UNL A   1      43.905  27.336  31.906  1.00  0.00     0.031 C 
ATOM     51  C   UNL A   1      38.669  29.921  28.286  1.00  0.00     0.029 A 
ATOM     52  C   UNL A   1      38.858  30.484  29.622  1.00  0.00     0.049 A 
ATOM     53  H   UNL A   1      40.369  30.015  30.978  1.00  0.00     0.167 HD
ATOM     54  C   UNL A   1      43.474  28.869  33.804  1.00  0.00     0.031 A 
ATOM     55  C   UNL A   1      38.080  31.421  30.198  1.00  0.00     0.031 A 
ATOM     56  C   UNL A   1      42.721  29.889  34.484  1.00  0.00     0.049 A 
ATOM     57  C   UNL A   1      38.362  31.854  31.615  1.00  0.00     0.074 A 
ATOM     58  C   UNL A   1      42.960  30.449  35.728  1.00  0.00     0.029 A 
ATOM     59  N   UNL A   1      41.579  30.493  33.986  1.00  0.00    -0.354 N 
ATOM     60  N   UNL A   1      39.351  31.512  32.405  1.00  0.00    -0.248 NA
ATOM     61  C   UNL A   1      37.407  32.793  32.226  1.00  0.00     0.031 C 
ATOM     62  C   UNL A   1      41.921  31.341  36.011  1.00  0.00     0.029 A 
ATOM     63  C   UNL A   1      41.076  31.390  34.914  1.00  0.00     0.049 A 
ATOM     64  H   UNL A   1      41.183  30.312  33.103  1.00  0.00     0.167 HD
ATOM     65  C   UNL A   1      39.149  32.207  33.592  1.00  0.00     0.074 A 
ATOM     66  C   UNL A   1      37.956  33.007  33.414  1.00  0.00     0.031 C 
ATOM     67  C   UNL A   1      39.887  32.182  34.730  1.00  0.00     0.031 A 
BRANCH  54  68
ATOM     68  C   UNL A   1      44.653  28.261  34.510  1.00  0.00    -0.014 A 
ATOM     69  C   UNL A   1      45.945  28.795  34.386  1.00  0.00     0.009 A 
ATOM     70  C   UNL A   1      44.456  27.143  35.336  1.00  0.00     0.009 A 
ATOM     71  C   UNL A   1      47.021  28.197  35.045  1.00  0.00     0.001 A 
ATOM     72  C   UNL A   1      45.527  26.567  36.020  1.00  0.00     0.001 A 
ATOM     73  C   UNL A   1      46.811  27.088  35.865  1.00  0.00     0.000 A 
ENDBRANCH  54  68
BRANCH  55  74
ATOM     74  C   UNL A   1      36.904  31.971  29.468  1.00  0.00    -0.014 A 
ATOM     75  C   UNL A   1      35.677  31.292  29.468  1.00  0.00     0.009 A 
ATOM     76  C   UNL A   1      37.015  33.162  28.733  1.00  0.00     0.009 A 
ATOM     77  C   UNL A   1      34.594  31.782  28.733  1.00  0.00     0.001 A 
ATOM     78  C   UNL A   1      35.922  33.669  28.026  1.00  0.00     0.001 A 
ATOM     79  C   UNL A   1      34.716  32.973  28.018  1.00  0.00     0.000 A 
ENDBRANCH  55  74
BRANCH  67  80
ATOM     80  C   UNL A   1      39.448  33.062  35.869  1.00  0.00    -0.014 A 
ATOM     81  C   UNL A   1      38.598  32.581  36.876  1.00  0.00     0.009 A 
ATOM     82  C   UNL A   1      39.951  34.369  35.974  1.00  0.00     0.009 A 
ATOM     83  C   UNL A   1      38.241  33.399  37.952  1.00  0.00     0.001 A 
ATOM     84  C   UNL A   1      39.619  35.173  37.065  1.00  0.00     0.001 A 
ATOM     85  C   UNL A   1      38.759  34.691  38.049  1.00  0.00     0.000 A 
ENDBRANCH  67  80
ENDBRANCH  41  42
ENDBRANCH  34  36
ENDBRANCH  33  34
ENDBRANCH  32  33
ENDBRANCH  31  32
ENDBRANCH  30  31
ENDBRANCH  29  30
ENDBRANCH   1  29
TORSDOF 20
ENDMDL
MODEL 3
REMARK VINA RESULT:     -10.2      3.814      9.796
REMARK SMILES Cc1c[nH]c(C[N@H+]2C[C@@H]3CN(S(C)(=O)=O)C[C@@]3(C(=O)OCCOCCOCCOC(=O)c3ccc(-c4c5nc(c(-c6ccccc6)c6ccc([nH]6)c(-c6ccccc6)c6nc(c(-c7ccccc7)c7ccc4[nH]7)C=C6)C=C5)cc3)C2)n1
REMARK SMILES IDX 24 1 23 2 22 3 21 4 20 5 18 6 19 7 17 8 7 9 8 10 80 11 9 13
REMARK SMILES IDX 10 14 16 15 11 16 6 17 5 18 1 19 2 20 3 21 81 22 4 23 12 25
REMARK SMILES IDX 13 26 14 27 15 28 25 29 26 30 27 31 28 32 29 33 30 34 31 35
REMARK SMILES IDX 32 36 33 37 79 38 34 39 78 40 35 41 36 42 37 43 72 44 38 45
REMARK SMILES IDX 77 46 71 47 73 48 39 49 76 50 70 51 69 52 40 54 62 55 47 56
REMARK SMILES IDX 61 57 48 58 51 59 60 60 74 61 49 62 50 63 59 65 75 66 52 67
REMARK SMILES IDX 41 68 42 69 46 70 43 71 45 72 44 73 63 74 64 75 68 76 65 77
REMARK SMILES IDX 67 78 66 79 53 80 54 81 58 82 55 83 57 84 56 85
REMARK H PARENT 7 12 4 24 73 53 51 64
REMARK Flexibility Score: inf
ROOT
ATOM      1  C   UNL A   1      34.998  32.457  28.522  1.00  0.00     0.188 C 
ENDROOT
BRANCH   1   2
ATOM      2  O   UNL A   1      33.867  31.604  28.462  1.00  0.00    -0.376 OA
BRANCH   2   3
ATOM      3  C   UNL A   1      33.686  30.714  27.360  1.00  0.00     0.202 C 
BRANCH   3   4
ATOM      4  C   UNL A   1      33.670  29.180  27.540  1.00  0.00     0.261 C 
BRANCH   4   5
ATOM      5  O   UNL A   1      32.929  28.581  26.480  1.00  0.00    -0.463 OA
BRANCH   5   6
ATOM      6  C   UNL A   1      32.474  27.289  26.506  1.00  0.00     0.319 C 
ATOM      7  O   UNL A   1      31.701  26.829  27.328  1.00  0.00    -0.251 OA
BRANCH   6   8
ATOM      8  C   UNL A   1      33.179  26.610  25.286  1.00  0.00     0.140 C 
ATOM      9  N   UNL A   1      31.637  27.683  23.604  1.00  0.00    -0.327 N 
ATOM     10  C   UNL A   1      31.618  26.270  23.315  1.00  0.00     0.268 C 
ATOM     11  C   UNL A   1      32.792  27.918  24.484  1.00  0.00     0.283 C 
ATOM     12  H   UNL A   1      30.780  27.950  24.089  1.00  0.00     0.348 HD
ATOM     13  C   UNL A   1      32.882  25.788  23.981  1.00  0.00     0.084 C 
ATOM     14  C   UNL A   1      32.914  24.289  24.131  1.00  0.00     0.113 C 
ATOM     15  C   UNL A   1      33.273  25.350  26.219  1.00  0.00     0.127 C 
ATOM     16  N   UNL A   1      32.963  24.094  25.544  1.00  0.00    -0.200 NA
BRANCH   9  17
ATOM     17  C   UNL A   1      31.550  28.561  22.429  1.00  0.00     0.338 C 
BRANCH  17  18
ATOM     18  C   UNL A   1      30.407  29.543  22.407  1.00  0.00     0.161 A 
ATOM     19  C   UNL A   1      27.592  31.305  23.698  1.00  0.00     0.068 C 
ATOM     20  C   UNL A   1      28.690  30.761  22.873  1.00  0.00     0.056 A 
ATOM     21  C   UNL A   1      29.021  31.063  21.574  1.00  0.00     0.107 A 
ATOM     22  N   UNL A   1      29.558  29.824  23.381  1.00  0.00    -0.233 NA
ATOM     23  N   UNL A   1      30.102  30.281  21.286  1.00  0.00    -0.344 N 
ATOM     24  H   UNL A   1      30.580  30.248  20.426  1.00  0.00     0.167 HD
ENDBRANCH  17  18
ENDBRANCH   9  17
BRANCH  16  25
ATOM     25  S   UNL A   1      32.037  22.943  26.321  1.00  0.00     0.211 S 
ATOM     26  C   UNL A   1      33.284  21.835  26.944  1.00  0.00     0.176 C 
ATOM     27  O   UNL A   1      31.389  23.583  27.450  1.00  0.00    -0.213 OA
ATOM     28  O   UNL A   1      31.275  22.238  25.317  1.00  0.00    -0.213 OA
ENDBRANCH  16  25
ENDBRANCH   6   8
ENDBRANCH   5   6
ENDBRANCH   4   5
ENDBRANCH   3   4
ENDBRANCH   2   3
ENDBRANCH   1   2
BRANCH   1  29
ATOM     29  C   UNL A   1      34.866  33.947  28.154  1.00  0.00     0.188 C 
BRANCH  29  30
ATOM     30  O   UNL A   1      33.658  34.626  28.387  1.00  0.00    -0.376 OA
BRANCH  30  31
ATOM     31  C   UNL A   1      33.700  35.909  29.000  1.00  0.00     0.202 C 
BRANCH  31  32
ATOM     32  C   UNL A   1      32.694  36.421  30.061  1.00  0.00     0.261 C 
BRANCH  32  33
ATOM     33  O   UNL A   1      32.413  35.572  31.185  1.00  0.00    -0.460 OA
BRANCH  33  34
ATOM     34  C   UNL A   1      33.029  35.912  32.352  1.00  0.00     0.338 C 
ATOM     35  O   UNL A   1      32.627  36.681  33.206  1.00  0.00    -0.246 OA
BRANCH  34  36
ATOM     36  C   UNL A   1      34.185  35.013  32.555  1.00  0.00     0.060 A 
ATOM     37  C   UNL A   1      33.970  33.741  33.106  1.00  0.00     0.016 A 
ATOM     38  C   UNL A   1      35.472  35.420  32.214  1.00  0.00     0.016 A 
ATOM     39  C   UNL A   1      35.030  32.850  33.253  1.00  0.00     0.010 A 
ATOM     40  C   UNL A   1      36.543  34.544  32.423  1.00  0.00     0.010 A 
ATOM     41  C   UNL A   1      36.330  33.253  32.942  1.00  0.00    -0.014 A 
BRANCH  41  42
ATOM     42  C   UNL A   1      37.487  32.397  33.306  1.00  0.00     0.031 A 
ATOM     43  C   UNL A   1      38.190  32.657  34.608  1.00  0.00     0.074 A 
ATOM     44  C   UNL A   1      37.905  31.392  32.516  1.00  0.00     0.049 A 
ATOM     45  N   UNL A   1      39.319  32.170  35.053  1.00  0.00    -0.248 NA
ATOM     46  C   UNL A   1      37.523  33.588  35.531  1.00  0.00     0.031 C 
ATOM     47  C   UNL A   1      37.242  30.932  31.299  1.00  0.00     0.029 A 
ATOM     48  N   UNL A   1      39.006  30.577  32.631  1.00  0.00    -0.354 N 
ATOM     49  C   UNL A   1      39.518  32.764  36.293  1.00  0.00     0.074 A 
ATOM     50  C   UNL A   1      38.394  33.645  36.528  1.00  0.00     0.031 C 
ATOM     51  C   UNL A   1      37.961  29.927  30.767  1.00  0.00     0.029 A 
ATOM     52  C   UNL A   1      39.167  29.722  31.567  1.00  0.00     0.049 A 
ATOM     53  H   UNL A   1      39.620  30.604  33.400  1.00  0.00     0.167 HD
ATOM     54  C   UNL A   1      40.552  32.600  37.152  1.00  0.00     0.031 A 
ATOM     55  C   UNL A   1      40.192  28.907  31.250  1.00  0.00     0.031 A 
ATOM     56  C   UNL A   1      41.675  31.734  36.914  1.00  0.00     0.049 A 
ATOM     57  C   UNL A   1      41.405  28.853  32.146  1.00  0.00     0.074 A 
ATOM     58  C   UNL A   1      42.778  31.511  37.721  1.00  0.00     0.029 A 
ATOM     59  N   UNL A   1      41.845  30.954  35.781  1.00  0.00    -0.354 N 
ATOM     60  N   UNL A   1      41.608  29.440  33.301  1.00  0.00    -0.248 NA
ATOM     61  C   UNL A   1      42.537  28.035  31.683  1.00  0.00     0.031 C 
ATOM     62  C   UNL A   1      43.648  30.652  37.043  1.00  0.00     0.029 A 
ATOM     63  C   UNL A   1      43.054  30.283  35.848  1.00  0.00     0.049 A 
ATOM     64  H   UNL A   1      41.201  30.888  35.039  1.00  0.00     0.167 HD
ATOM     65  C   UNL A   1      42.878  29.046  33.710  1.00  0.00     0.074 A 
ATOM     66  C   UNL A   1      43.390  28.154  32.692  1.00  0.00     0.031 C 
ATOM     67  C   UNL A   1      43.559  29.396  34.830  1.00  0.00     0.031 A 
BRANCH  54  68
ATOM     68  C   UNL A   1      40.549  33.436  38.402  1.00  0.00    -0.014 A 
ATOM     69  C   UNL A   1      41.208  34.674  38.465  1.00  0.00     0.009 A 
ATOM     70  C   UNL A   1      39.851  32.980  39.531  1.00  0.00     0.009 A 
ATOM     71  C   UNL A   1      41.197  35.419  39.646  1.00  0.00     0.001 A 
ATOM     72  C   UNL A   1      39.814  33.742  40.699  1.00  0.00     0.001 A 
ATOM     73  C   UNL A   1      40.496  34.955  40.759  1.00  0.00     0.000 A 
ENDBRANCH  54  68
BRANCH  55  74
ATOM     74  C   UNL A   1      40.162  28.122  29.984  1.00  0.00    -0.014 A 
ATOM     75  C   UNL A   1      40.770  28.614  28.820  1.00  0.00     0.009 A 
ATOM     76  C   UNL A   1      39.489  26.891  29.926  1.00  0.00     0.009 A 
ATOM     77  C   UNL A   1      40.687  27.900  27.621  1.00  0.00     0.001 A 
ATOM     78  C   UNL A   1      39.436  26.163  28.735  1.00  0.00     0.001 A 
ATOM     79  C   UNL A   1      40.026  26.673  27.582  1.00  0.00     0.000 A 
ENDBRANCH  55  74
BRANCH  67  80
ATOM     80  C   UNL A   1      44.923  28.797  35.036  1.00  0.00    -0.014 A 
ATOM     81  C   UNL A   1      45.086  27.557  35.673  1.00  0.00     0.009 A 
ATOM     82  C   UNL A   1      46.056  29.449  34.522  1.00  0.00     0.009 A 
ATOM     83  C   UNL A   1      46.358  26.994  35.812  1.00  0.00     0.001 A 
ATOM     84  C   UNL A   1      47.321  28.870  34.635  1.00  0.00     0.001 A 
ATOM     85  C   UNL A   1      47.472  27.647  35.285  1.00  0.00     0.000 A 
ENDBRANCH  67  80
ENDBRANCH  41  42
ENDBRANCH  34  36
ENDBRANCH  33  34
ENDBRANCH  32  33
ENDBRANCH  31  32
ENDBRANCH  30  31
ENDBRANCH  29  30
ENDBRANCH   1  29
TORSDOF 20
ENDMDL
