MODEL 1
REMARK VINA RESULT:      -9.9      0.000      0.000
REMARK SMILES C[C@H](Oc1ccc(-c2ccccc2)cc1)C(=O)N[C@H](C)C(=O)OCCOCCOCCOC(=O)c1ccc(-c2c3nc(c(-c4ccccc4)c4ccc([nH]4)c(-c4ccccc4)c4nc(c(-c5ccccc5)c5ccc2[nH]5)C=C4)C=C3)cc1
REMARK SMILES IDX 26 1 25 2 24 3 23 4 21 5 22 6 19 7 20 8 18 9 16 10 17 11
REMARK SMILES IDX 2 13 1 14 3 15 4 16 5 17 15 18 6 19 14 20 7 21 8 22 9 23
REMARK SMILES IDX 13 24 10 25 12 26 11 27 27 28 28 29 29 30 30 31 31 32 32 33
REMARK SMILES IDX 33 34 34 35 35 36 36 37 82 38 37 39 81 40 38 41 39 42 40 43
REMARK SMILES IDX 75 44 41 45 80 46 74 47 76 48 42 49 79 50 73 51 72 52 43 54
REMARK SMILES IDX 65 55 50 56 64 57 51 58 54 59 63 60 77 61 52 62 53 63 62 65
REMARK SMILES IDX 78 66 55 67 44 68 45 69 49 70 46 71 48 72 47 73 66 74 67 75
REMARK SMILES IDX 71 76 68 77 70 78 69 79 56 80 57 81 61 82 58 83 60 84 59 85
REMARK H PARENT 18 12 76 53 54 64
REMARK Flexibility Score: inf
ROOT
ATOM      1  O   UNL A   1      35.101  22.197  26.370  1.00  0.00    -0.376 OA
ENDROOT
BRANCH   1   2
ATOM      2  C   UNL A   1      34.679  23.523  26.659  1.00  0.00     0.202 C 
BRANCH   2   3
ATOM      3  C   UNL A   1      34.816  24.512  25.492  1.00  0.00     0.261 C 
BRANCH   3   4
ATOM      4  O   UNL A   1      34.450  25.882  25.774  1.00  0.00    -0.462 OA
BRANCH   4   5
ATOM      5  C   UNL A   1      33.151  26.194  25.538  1.00  0.00     0.328 C 
ATOM      6  O   UNL A   1      32.201  25.685  26.128  1.00  0.00    -0.250 OA
BRANCH   5   7
ATOM      7  C   UNL A   1      32.942  27.328  24.515  1.00  0.00     0.189 C 
ATOM      8  C   UNL A   1      33.651  28.590  24.985  1.00  0.00     0.043 C 
BRANCH   7   9
ATOM      9  N   UNL A   1      32.997  27.065  23.060  1.00  0.00    -0.340 N 
ATOM     10  C   UNL A   1      32.670  26.105  22.160  1.00  0.00     0.261 C 
ATOM     11  O   UNL A   1      33.009  26.356  20.993  1.00  0.00    -0.271 OA
ATOM     12  H   UNL A   1      33.401  27.835  22.597  1.00  0.00     0.164 HD
BRANCH  10  13
ATOM     13  C   UNL A   1      31.878  24.816  22.445  1.00  0.00     0.258 C 
ATOM     14  C   UNL A   1      30.560  25.229  23.084  1.00  0.00     0.064 C 
BRANCH  13  15
ATOM     15  O   UNL A   1      32.720  23.906  23.139  1.00  0.00    -0.481 OA
BRANCH  15  16
ATOM     16  C   UNL A   1      32.361  22.637  23.476  1.00  0.00     0.120 A 
ATOM     17  C   UNL A   1      32.111  22.123  24.737  1.00  0.00     0.047 A 
ATOM     18  C   UNL A   1      32.340  21.750  22.401  1.00  0.00     0.047 A 
ATOM     19  C   UNL A   1      32.059  20.726  24.938  1.00  0.00     0.012 A 
ATOM     20  C   UNL A   1      32.251  20.363  22.599  1.00  0.00     0.012 A 
ATOM     21  C   UNL A   1      32.229  19.801  23.887  1.00  0.00    -0.018 A 
BRANCH  21  22
ATOM     22  C   UNL A   1      32.613  18.360  24.131  1.00  0.00    -0.018 A 
ATOM     23  C   UNL A   1      32.536  17.766  25.409  1.00  0.00     0.009 A 
ATOM     24  C   UNL A   1      33.322  17.615  23.157  1.00  0.00     0.009 A 
ATOM     25  C   UNL A   1      33.205  16.569  25.717  1.00  0.00     0.001 A 
ATOM     26  C   UNL A   1      33.993  16.420  23.461  1.00  0.00     0.001 A 
ATOM     27  C   UNL A   1      33.953  15.909  24.749  1.00  0.00     0.000 A 
ENDBRANCH  21  22
ENDBRANCH  15  16
ENDBRANCH  13  15
ENDBRANCH  10  13
ENDBRANCH   7   9
ENDBRANCH   5   7
ENDBRANCH   4   5
ENDBRANCH   3   4
ENDBRANCH   2   3
ENDBRANCH   1   2
BRANCH   1  28
ATOM     28  C   UNL A   1      36.238  21.971  25.533  1.00  0.00     0.188 C 
BRANCH  28  29
ATOM     29  C   UNL A   1      36.496  20.562  25.011  1.00  0.00     0.188 C 
BRANCH  29  30
ATOM     30  O   UNL A   1      37.841  20.399  24.571  1.00  0.00    -0.376 OA
BRANCH  30  31
ATOM     31  C   UNL A   1      38.839  20.550  25.570  1.00  0.00     0.202 C 
BRANCH  31  32
ATOM     32  C   UNL A   1      39.649  19.260  25.778  1.00  0.00     0.261 C 
BRANCH  32  33
ATOM     33  O   UNL A   1      41.042  19.305  25.406  1.00  0.00    -0.460 OA
BRANCH  33  34
ATOM     34  C   UNL A   1      41.903  19.485  26.421  1.00  0.00     0.338 C 
ATOM     35  O   UNL A   1      42.625  18.630  26.907  1.00  0.00    -0.246 OA
BRANCH  34  36
ATOM     36  C   UNL A   1      42.066  20.890  26.781  1.00  0.00     0.060 A 
ATOM     37  C   UNL A   1      42.435  21.785  25.763  1.00  0.00     0.016 A 
ATOM     38  C   UNL A   1      41.917  21.313  28.099  1.00  0.00     0.016 A 
ATOM     39  C   UNL A   1      42.659  23.121  26.067  1.00  0.00     0.010 A 
ATOM     40  C   UNL A   1      42.147  22.651  28.401  1.00  0.00     0.010 A 
ATOM     41  C   UNL A   1      42.525  23.552  27.390  1.00  0.00    -0.014 A 
BRANCH  41  42
ATOM     42  C   UNL A   1      42.822  24.949  27.754  1.00  0.00     0.031 A 
ATOM     43  C   UNL A   1      44.239  25.350  28.022  1.00  0.00     0.074 A 
ATOM     44  C   UNL A   1      41.810  25.820  27.899  1.00  0.00     0.049 A 
ATOM     45  N   UNL A   1      44.702  26.470  28.509  1.00  0.00    -0.248 NA
ATOM     46  C   UNL A   1      45.271  24.349  27.709  1.00  0.00     0.031 C 
ATOM     47  C   UNL A   1      40.404  25.537  27.612  1.00  0.00     0.029 A 
ATOM     48  N   UNL A   1      41.814  27.114  28.345  1.00  0.00    -0.354 N 
ATOM     49  C   UNL A   1      46.077  26.301  28.591  1.00  0.00     0.074 A 
ATOM     50  C   UNL A   1      46.372  24.969  28.110  1.00  0.00     0.031 C 
ATOM     51  C   UNL A   1      39.675  26.628  27.899  1.00  0.00     0.029 A 
ATOM     52  C   UNL A   1      40.558  27.659  28.437  1.00  0.00     0.049 A 
ATOM     53  H   UNL A   1      42.635  27.604  28.576  1.00  0.00     0.167 HD
ATOM     54  C   UNL A   1      47.004  27.180  29.040  1.00  0.00     0.031 A 
ATOM     55  C   UNL A   1      40.167  28.845  28.933  1.00  0.00     0.031 A 
ATOM     56  C   UNL A   1      46.686  28.494  29.533  1.00  0.00     0.049 A 
ATOM     57  C   UNL A   1      41.206  29.772  29.499  1.00  0.00     0.074 A 
ATOM     58  C   UNL A   1      47.545  29.476  29.993  1.00  0.00     0.029 A 
ATOM     59  N   UNL A   1      45.400  29.004  29.639  1.00  0.00    -0.354 N 
ATOM     60  N   UNL A   1      42.507  29.612  29.565  1.00  0.00    -0.248 NA
ATOM     61  C   UNL A   1      40.722  31.037  30.063  1.00  0.00     0.031 C 
ATOM     62  C   UNL A   1      46.772  30.559  30.430  1.00  0.00     0.029 A 
ATOM     63  C   UNL A   1      45.437  30.275  30.186  1.00  0.00     0.049 A 
ATOM     64  H   UNL A   1      44.581  28.531  29.365  1.00  0.00     0.167 HD
ATOM     65  C   UNL A   1      43.002  30.769  30.151  1.00  0.00     0.074 A 
ATOM     66  C   UNL A   1      41.859  31.624  30.414  1.00  0.00     0.031 C 
ATOM     67  C   UNL A   1      44.283  31.100  30.442  1.00  0.00     0.031 A 
BRANCH  54  68
ATOM     68  C   UNL A   1      48.433  26.715  29.072  1.00  0.00    -0.014 A 
ATOM     69  C   UNL A   1      48.929  25.934  30.127  1.00  0.00     0.009 A 
ATOM     70  C   UNL A   1      49.299  27.072  28.027  1.00  0.00     0.009 A 
ATOM     71  C   UNL A   1      50.275  25.556  30.156  1.00  0.00     0.001 A 
ATOM     72  C   UNL A   1      50.635  26.669  28.043  1.00  0.00     0.001 A 
ATOM     73  C   UNL A   1      51.126  25.923  29.113  1.00  0.00     0.000 A 
ENDBRANCH  54  68
BRANCH  55  74
ATOM     74  C   UNL A   1      38.729  29.215  28.925  1.00  0.00    -0.014 A 
ATOM     75  C   UNL A   1      38.147  29.759  27.771  1.00  0.00     0.009 A 
ATOM     76  C   UNL A   1      37.927  29.009  30.059  1.00  0.00     0.009 A 
ATOM     77  C   UNL A   1      36.794  30.102  27.756  1.00  0.00     0.001 A 
ATOM     78  C   UNL A   1      36.568  29.328  30.032  1.00  0.00     0.001 A 
ATOM     79  C   UNL A   1      36.004  29.881  28.883  1.00  0.00     0.000 A 
ENDBRANCH  55  74
BRANCH  67  80
ATOM     80  C   UNL A   1      44.515  32.458  31.040  1.00  0.00    -0.014 A 
ATOM     81  C   UNL A   1      44.534  32.650  32.430  1.00  0.00     0.009 A 
ATOM     82  C   UNL A   1      44.748  33.555  30.195  1.00  0.00     0.009 A 
ATOM     83  C   UNL A   1      44.749  33.924  32.961  1.00  0.00     0.001 A 
ATOM     84  C   UNL A   1      44.992  34.820  30.730  1.00  0.00     0.001 A 
ATOM     85  C   UNL A   1      44.983  35.005  32.111  1.00  0.00     0.000 A 
ENDBRANCH  67  80
ENDBRANCH  41  42
ENDBRANCH  34  36
ENDBRANCH  33  34
ENDBRANCH  32  33
ENDBRANCH  31  32
ENDBRANCH  30  31
ENDBRANCH  29  30
ENDBRANCH  28  29
ENDBRANCH   1  28
TORSDOF 22
ENDMDL
MODEL 2
REMARK VINA RESULT:      -9.5      1.908      8.041
REMARK SMILES C[C@H](Oc1ccc(-c2ccccc2)cc1)C(=O)N[C@H](C)C(=O)OCCOCCOCCOC(=O)c1ccc(-c2c3nc(c(-c4ccccc4)c4ccc([nH]4)c(-c4ccccc4)c4nc(c(-c5ccccc5)c5ccc2[nH]5)C=C4)C=C3)cc1
REMARK SMILES IDX 26 1 25 2 24 3 23 4 21 5 22 6 19 7 20 8 18 9 16 10 17 11
REMARK SMILES IDX 2 13 1 14 3 15 4 16 5 17 15 18 6 19 14 20 7 21 8 22 9 23
REMARK SMILES IDX 13 24 10 25 12 26 11 27 27 28 28 29 29 30 30 31 31 32 32 33
REMARK SMILES IDX 33 34 34 35 35 36 36 37 82 38 37 39 81 40 38 41 39 42 40 43
REMARK SMILES IDX 75 44 41 45 80 46 74 47 76 48 42 49 79 50 73 51 72 52 43 54
REMARK SMILES IDX 65 55 50 56 64 57 51 58 54 59 63 60 77 61 52 62 53 63 62 65
REMARK SMILES IDX 78 66 55 67 44 68 45 69 49 70 46 71 48 72 47 73 66 74 67 75
REMARK SMILES IDX 71 76 68 77 70 78 69 79 56 80 57 81 61 82 58 83 60 84 59 85
REMARK H PARENT 18 12 76 53 54 64
REMARK Flexibility Score: inf
ROOT
ATOM      1  O   UNL A   1      35.124  22.176  23.938  1.00  0.00    -0.376 OA
ENDROOT
BRANCH   1   2
ATOM      2  C   UNL A   1      33.808  22.111  24.468  1.00  0.00     0.202 C 
BRANCH   2   3
ATOM      3  C   UNL A   1      32.719  21.745  23.449  1.00  0.00     0.261 C 
BRANCH   3   4
ATOM      4  O   UNL A   1      31.963  22.849  22.901  1.00  0.00    -0.462 OA
BRANCH   4   5
ATOM      5  C   UNL A   1      32.670  23.699  22.115  1.00  0.00     0.328 C 
ATOM      6  O   UNL A   1      33.422  23.340  21.212  1.00  0.00    -0.250 OA
BRANCH   5   7
ATOM      7  C   UNL A   1      32.388  25.193  22.373  1.00  0.00     0.189 C 
ATOM      8  C   UNL A   1      32.390  25.958  21.057  1.00  0.00     0.043 C 
BRANCH   7   9
ATOM      9  N   UNL A   1      31.376  25.619  23.363  1.00  0.00    -0.340 N 
ATOM     10  C   UNL A   1      31.288  26.074  24.637  1.00  0.00     0.261 C 
ATOM     11  O   UNL A   1      30.129  26.227  25.052  1.00  0.00    -0.271 OA
ATOM     12  H   UNL A   1      30.475  25.552  22.969  1.00  0.00     0.164 HD
BRANCH  10  13
ATOM     13  C   UNL A   1      32.464  26.469  25.549  1.00  0.00     0.258 C 
ATOM     14  C   UNL A   1      33.014  25.187  26.157  1.00  0.00     0.064 C 
BRANCH  13  15
ATOM     15  O   UNL A   1      32.040  27.510  26.417  1.00  0.00    -0.481 OA
BRANCH  15  16
ATOM     16  C   UNL A   1      32.696  28.693  26.571  1.00  0.00     0.120 A 
ATOM     17  C   UNL A   1      34.056  28.906  26.720  1.00  0.00     0.047 A 
ATOM     18  C   UNL A   1      31.855  29.799  26.677  1.00  0.00     0.047 A 
ATOM     19  C   UNL A   1      34.535  30.152  27.179  1.00  0.00     0.012 A 
ATOM     20  C   UNL A   1      32.337  31.048  27.098  1.00  0.00     0.012 A 
ATOM     21  C   UNL A   1      33.678  31.232  27.479  1.00  0.00    -0.018 A 
BRANCH  21  22
ATOM     22  C   UNL A   1      34.101  32.381  28.363  1.00  0.00    -0.018 A 
ATOM     23  C   UNL A   1      34.685  32.180  29.632  1.00  0.00     0.009 A 
ATOM     24  C   UNL A   1      33.688  33.708  28.089  1.00  0.00     0.009 A 
ATOM     25  C   UNL A   1      34.756  33.204  30.592  1.00  0.00     0.001 A 
ATOM     26  C   UNL A   1      33.756  34.733  29.046  1.00  0.00     0.001 A 
ATOM     27  C   UNL A   1      34.270  34.474  30.307  1.00  0.00     0.000 A 
ENDBRANCH  21  22
ENDBRANCH  15  16
ENDBRANCH  13  15
ENDBRANCH  10  13
ENDBRANCH   7   9
ENDBRANCH   5   7
ENDBRANCH   4   5
ENDBRANCH   3   4
ENDBRANCH   2   3
ENDBRANCH   1   2
BRANCH   1  28
ATOM     28  C   UNL A   1      36.240  21.777  24.736  1.00  0.00     0.188 C 
BRANCH  28  29
ATOM     29  C   UNL A   1      36.288  20.348  25.267  1.00  0.00     0.188 C 
BRANCH  29  30
ATOM     30  O   UNL A   1      37.464  19.664  24.842  1.00  0.00    -0.376 OA
BRANCH  30  31
ATOM     31  C   UNL A   1      38.694  20.298  25.163  1.00  0.00     0.202 C 
BRANCH  31  32
ATOM     32  C   UNL A   1      39.693  19.325  25.812  1.00  0.00     0.261 C 
BRANCH  32  33
ATOM     33  O   UNL A   1      41.026  19.306  25.261  1.00  0.00    -0.460 OA
BRANCH  33  34
ATOM     34  C   UNL A   1      42.021  19.329  26.163  1.00  0.00     0.338 C 
ATOM     35  O   UNL A   1      42.716  18.380  26.487  1.00  0.00    -0.246 OA
BRANCH  34  36
ATOM     36  C   UNL A   1      42.357  20.681  26.598  1.00  0.00     0.060 A 
ATOM     37  C   UNL A   1      42.691  21.620  25.608  1.00  0.00     0.016 A 
ATOM     38  C   UNL A   1      42.402  21.008  27.951  1.00  0.00     0.016 A 
ATOM     39  C   UNL A   1      43.075  22.902  25.975  1.00  0.00     0.010 A 
ATOM     40  C   UNL A   1      42.791  22.292  28.315  1.00  0.00     0.010 A 
ATOM     41  C   UNL A   1      43.135  23.236  27.331  1.00  0.00    -0.014 A 
BRANCH  41  42
ATOM     42  C   UNL A   1      43.604  24.568  27.754  1.00  0.00     0.031 A 
ATOM     43  C   UNL A   1      42.603  25.591  28.191  1.00  0.00     0.074 A 
ATOM     44  C   UNL A   1      44.913  24.858  27.680  1.00  0.00     0.049 A 
ATOM     45  N   UNL A   1      42.777  26.860  28.445  1.00  0.00    -0.248 NA
ATOM     46  C   UNL A   1      41.218  25.121  28.354  1.00  0.00     0.031 C 
ATOM     47  C   UNL A   1      45.969  23.914  27.314  1.00  0.00     0.029 A 
ATOM     48  N   UNL A   1      45.570  26.040  27.889  1.00  0.00    -0.354 N 
ATOM     49  C   UNL A   1      41.520  27.351  28.769  1.00  0.00     0.074 A 
ATOM     50  C   UNL A   1      40.592  26.245  28.672  1.00  0.00     0.031 C 
ATOM     51  C   UNL A   1      47.147  24.559  27.316  1.00  0.00     0.029 A 
ATOM     52  C   UNL A   1      46.916  25.966  27.630  1.00  0.00     0.049 A 
ATOM     53  H   UNL A   1      45.123  26.861  28.195  1.00  0.00     0.167 HD
ATOM     54  C   UNL A   1      41.176  28.617  29.104  1.00  0.00     0.031 A 
ATOM     55  C   UNL A   1      47.846  26.936  27.617  1.00  0.00     0.031 A 
ATOM     56  C   UNL A   1      42.113  29.708  29.175  1.00  0.00     0.049 A 
ATOM     57  C   UNL A   1      47.425  28.348  27.914  1.00  0.00     0.074 A 
ATOM     58  C   UNL A   1      41.880  31.026  29.523  1.00  0.00     0.029 A 
ATOM     59  N   UNL A   1      43.464  29.603  28.878  1.00  0.00    -0.354 N 
ATOM     60  N   UNL A   1      46.236  28.806  28.230  1.00  0.00    -0.248 NA
ATOM     61  C   UNL A   1      48.472  29.374  27.848  1.00  0.00     0.031 C 
ATOM     62  C   UNL A   1      43.082  31.730  29.384  1.00  0.00     0.029 A 
ATOM     63  C   UNL A   1      44.074  30.839  29.005  1.00  0.00     0.049 A 
ATOM     64  H   UNL A   1      43.922  28.772  28.616  1.00  0.00     0.167 HD
ATOM     65  C   UNL A   1      46.397  30.170  28.429  1.00  0.00     0.074 A 
ATOM     66  C   UNL A   1      47.801  30.461  28.205  1.00  0.00     0.031 C 
ATOM     67  C   UNL A   1      45.472  31.100  28.770  1.00  0.00     0.031 A 
BRANCH  54  68
ATOM     68  C   UNL A   1      39.719  28.890  29.355  1.00  0.00    -0.014 A 
ATOM     69  C   UNL A   1      38.870  29.348  28.335  1.00  0.00     0.009 A 
ATOM     70  C   UNL A   1      39.190  28.689  30.639  1.00  0.00     0.009 A 
ATOM     71  C   UNL A   1      37.530  29.640  28.608  1.00  0.00     0.001 A 
ATOM     72  C   UNL A   1      37.845  28.953  30.903  1.00  0.00     0.001 A 
ATOM     73  C   UNL A   1      37.019  29.440  29.891  1.00  0.00     0.000 A 
ENDBRANCH  54  68
BRANCH  55  74
ATOM     74  C   UNL A   1      49.258  26.605  27.301  1.00  0.00    -0.014 A 
ATOM     75  C   UNL A   1      50.121  26.158  28.311  1.00  0.00     0.009 A 
ATOM     76  C   UNL A   1      49.746  26.712  25.988  1.00  0.00     0.009 A 
ATOM     77  C   UNL A   1      51.448  25.838  28.019  1.00  0.00     0.001 A 
ATOM     78  C   UNL A   1      51.066  26.367  25.693  1.00  0.00     0.001 A 
ATOM     79  C   UNL A   1      51.919  25.937  26.710  1.00  0.00     0.000 A 
ENDBRANCH  55  74
BRANCH  67  80
ATOM     80  C   UNL A   1      45.962  32.507  28.960  1.00  0.00    -0.014 A 
ATOM     81  C   UNL A   1      46.496  32.935  30.184  1.00  0.00     0.009 A 
ATOM     82  C   UNL A   1      45.914  33.407  27.883  1.00  0.00     0.009 A 
ATOM     83  C   UNL A   1      46.942  34.250  30.336  1.00  0.00     0.001 A 
ATOM     84  C   UNL A   1      46.387  34.711  28.029  1.00  0.00     0.001 A 
ATOM     85  C   UNL A   1      46.892  35.133  29.258  1.00  0.00     0.000 A 
ENDBRANCH  67  80
ENDBRANCH  41  42
ENDBRANCH  34  36
ENDBRANCH  33  34
ENDBRANCH  32  33
ENDBRANCH  31  32
ENDBRANCH  30  31
ENDBRANCH  29  30
ENDBRANCH  28  29
ENDBRANCH   1  28
TORSDOF 22
ENDMDL
MODEL 3
REMARK VINA RESULT:      -9.4      2.496      5.324
REMARK SMILES C[C@H](Oc1ccc(-c2ccccc2)cc1)C(=O)N[C@H](C)C(=O)OCCOCCOCCOC(=O)c1ccc(-c2c3nc(c(-c4ccccc4)c4ccc([nH]4)c(-c4ccccc4)c4nc(c(-c5ccccc5)c5ccc2[nH]5)C=C4)C=C3)cc1
REMARK SMILES IDX 26 1 25 2 24 3 23 4 21 5 22 6 19 7 20 8 18 9 16 10 17 11
REMARK SMILES IDX 2 13 1 14 3 15 4 16 5 17 15 18 6 19 14 20 7 21 8 22 9 23
REMARK SMILES IDX 13 24 10 25 12 26 11 27 27 28 28 29 29 30 30 31 31 32 32 33
REMARK SMILES IDX 33 34 34 35 35 36 36 37 82 38 37 39 81 40 38 41 39 42 40 43
REMARK SMILES IDX 75 44 41 45 80 46 74 47 76 48 42 49 79 50 73 51 72 52 43 54
REMARK SMILES IDX 65 55 50 56 64 57 51 58 54 59 63 60 77 61 52 62 53 63 62 65
REMARK SMILES IDX 78 66 55 67 44 68 45 69 49 70 46 71 48 72 47 73 66 74 67 75
REMARK SMILES IDX 71 76 68 77 70 78 69 79 56 80 57 81 61 82 58 83 60 84 59 85
REMARK H PARENT 18 12 76 53 54 64
REMARK Flexibility Score: inf
ROOT
ATOM      1  O   UNL A   1      35.736  22.611  23.345  1.00  0.00    -0.376 OA
ENDROOT
BRANCH   1   2
ATOM      2  C   UNL A   1      34.338  22.826  23.485  1.00  0.00     0.202 C 
BRANCH   2   3
ATOM      3  C   UNL A   1      33.497  21.546  23.594  1.00  0.00     0.261 C 
BRANCH   3   4
ATOM      4  O   UNL A   1      33.360  20.986  24.919  1.00  0.00    -0.462 OA
BRANCH   4   5
ATOM      5  C   UNL A   1      32.341  21.492  25.659  1.00  0.00     0.328 C 
ATOM      6  O   UNL A   1      31.161  21.186  25.508  1.00  0.00    -0.250 OA
BRANCH   5   7
ATOM      7  C   UNL A   1      32.784  22.434  26.796  1.00  0.00     0.189 C 
ATOM      8  C   UNL A   1      33.890  21.780  27.612  1.00  0.00     0.043 C 
BRANCH   7   9
ATOM      9  N   UNL A   1      32.925  23.888  26.573  1.00  0.00    -0.340 N 
ATOM     10  C   UNL A   1      32.293  24.915  25.951  1.00  0.00     0.261 C 
ATOM     11  O   UNL A   1      32.894  25.999  26.005  1.00  0.00    -0.271 OA
ATOM     12  H   UNL A   1      33.739  24.217  27.019  1.00  0.00     0.164 HD
BRANCH  10  13
ATOM     13  C   UNL A   1      30.911  24.863  25.276  1.00  0.00     0.258 C 
ATOM     14  C   UNL A   1      31.107  24.256  23.894  1.00  0.00     0.064 C 
BRANCH  13  15
ATOM     15  O   UNL A   1      30.302  26.143  25.380  1.00  0.00    -0.481 OA
BRANCH  15  16
ATOM     16  C   UNL A   1      30.220  27.037  24.357  1.00  0.00     0.120 A 
ATOM     17  C   UNL A   1      31.226  27.825  23.825  1.00  0.00     0.047 A 
ATOM     18  C   UNL A   1      28.929  27.221  23.867  1.00  0.00     0.047 A 
ATOM     19  C   UNL A   1      30.907  28.916  22.987  1.00  0.00     0.012 A 
ATOM     20  C   UNL A   1      28.618  28.283  23.004  1.00  0.00     0.012 A 
ATOM     21  C   UNL A   1      29.580  29.238  22.632  1.00  0.00    -0.018 A 
BRANCH  21  22
ATOM     22  C   UNL A   1      29.186  30.606  22.126  1.00  0.00    -0.018 A 
ATOM     23  C   UNL A   1      29.160  31.741  22.965  1.00  0.00     0.009 A 
ATOM     24  C   UNL A   1      28.565  30.770  20.863  1.00  0.00     0.009 A 
ATOM     25  C   UNL A   1      28.474  32.915  22.610  1.00  0.00     0.001 A 
ATOM     26  C   UNL A   1      27.878  31.941  20.506  1.00  0.00     0.001 A 
ATOM     27  C   UNL A   1      27.814  33.006  21.391  1.00  0.00     0.000 A 
ENDBRANCH  21  22
ENDBRANCH  15  16
ENDBRANCH  13  15
ENDBRANCH  10  13
ENDBRANCH   7   9
ENDBRANCH   5   7
ENDBRANCH   4   5
ENDBRANCH   3   4
ENDBRANCH   2   3
ENDBRANCH   1   2
BRANCH   1  28
ATOM     28  C   UNL A   1      36.591  22.680  24.488  1.00  0.00     0.188 C 
BRANCH  28  29
ATOM     29  C   UNL A   1      36.792  21.424  25.329  1.00  0.00     0.188 C 
BRANCH  29  30
ATOM     30  O   UNL A   1      37.935  20.684  24.910  1.00  0.00    -0.376 OA
BRANCH  30  31
ATOM     31  C   UNL A   1      39.106  20.863  25.694  1.00  0.00     0.202 C 
BRANCH  31  32
ATOM     32  C   UNL A   1      39.736  19.523  26.107  1.00  0.00     0.261 C 
BRANCH  32  33
ATOM     33  O   UNL A   1      40.980  19.169  25.467  1.00  0.00    -0.460 OA
BRANCH  33  34
ATOM     34  C   UNL A   1      42.071  19.249  26.247  1.00  0.00     0.338 C 
ATOM     35  O   UNL A   1      42.755  18.310  26.618  1.00  0.00    -0.246 OA
BRANCH  34  36
ATOM     36  C   UNL A   1      42.513  20.623  26.460  1.00  0.00     0.060 A 
ATOM     37  C   UNL A   1      42.530  21.106  27.778  1.00  0.00     0.016 A 
ATOM     38  C   UNL A   1      42.849  21.442  25.384  1.00  0.00     0.016 A 
ATOM     39  C   UNL A   1      42.887  22.424  28.027  1.00  0.00     0.010 A 
ATOM     40  C   UNL A   1      43.202  22.763  25.636  1.00  0.00     0.010 A 
ATOM     41  C   UNL A   1      43.213  23.257  26.953  1.00  0.00    -0.014 A 
BRANCH  41  42
ATOM     42  C   UNL A   1      43.531  24.679  27.178  1.00  0.00     0.031 A 
ATOM     43  C   UNL A   1      44.952  25.135  27.080  1.00  0.00     0.074 A 
ATOM     44  C   UNL A   1      42.548  25.524  27.528  1.00  0.00     0.049 A 
ATOM     45  N   UNL A   1      45.472  26.292  27.395  1.00  0.00    -0.248 NA
ATOM     46  C   UNL A   1      45.920  24.152  26.567  1.00  0.00     0.031 C 
ATOM     47  C   UNL A   1      41.127  25.185  27.600  1.00  0.00     0.029 A 
ATOM     48  N   UNL A   1      42.604  26.838  27.908  1.00  0.00    -0.354 N 
ATOM     49  C   UNL A   1      46.832  26.169  27.149  1.00  0.00     0.074 A 
ATOM     50  C   UNL A   1      47.058  24.824  26.665  1.00  0.00     0.031 C 
ATOM     51  C   UNL A   1      40.443  26.266  28.011  1.00  0.00     0.029 A 
ATOM     52  C   UNL A   1      41.386  27.348  28.278  1.00  0.00     0.049 A 
ATOM     53  H   UNL A   1      43.436  27.364  27.913  1.00  0.00     0.167 HD
ATOM     54  C   UNL A   1      47.802  27.097  27.325  1.00  0.00     0.031 A 
ATOM     55  C   UNL A   1      41.077  28.545  28.806  1.00  0.00     0.031 A 
ATOM     56  C   UNL A   1      47.558  28.423  27.827  1.00  0.00     0.049 A 
ATOM     57  C   UNL A   1      42.182  29.529  29.066  1.00  0.00     0.074 A 
ATOM     58  C   UNL A   1      48.461  29.452  28.027  1.00  0.00     0.029 A 
ATOM     59  N   UNL A   1      46.315  28.898  28.220  1.00  0.00    -0.354 N 
ATOM     60  N   UNL A   1      43.466  29.413  28.822  1.00  0.00    -0.248 NA
ATOM     61  C   UNL A   1      41.796  30.806  29.680  1.00  0.00     0.031 C 
ATOM     62  C   UNL A   1      47.771  30.531  28.593  1.00  0.00     0.029 A 
ATOM     63  C   UNL A   1      46.430  30.195  28.691  1.00  0.00     0.049 A 
ATOM     64  H   UNL A   1      45.474  28.387  28.172  1.00  0.00     0.167 HD
ATOM     65  C   UNL A   1      44.038  30.612  29.225  1.00  0.00     0.074 A 
ATOM     66  C   UNL A   1      42.958  31.443  29.721  1.00  0.00     0.031 C 
ATOM     67  C   UNL A   1      45.338  30.996  29.184  1.00  0.00     0.031 A 
BRANCH  54  68
ATOM     68  C   UNL A   1      49.215  26.678  27.029  1.00  0.00    -0.014 A 
ATOM     69  C   UNL A   1      49.788  26.862  25.761  1.00  0.00     0.009 A 
ATOM     70  C   UNL A   1      49.985  26.081  28.040  1.00  0.00     0.009 A 
ATOM     71  C   UNL A   1      51.088  26.418  25.500  1.00  0.00     0.001 A 
ATOM     72  C   UNL A   1      51.292  25.665  27.785  1.00  0.00     0.001 A 
ATOM     73  C   UNL A   1      51.839  25.822  26.513  1.00  0.00     0.000 A 
ENDBRANCH  54  68
BRANCH  55  74
ATOM     74  C   UNL A   1      39.665  28.870  29.131  1.00  0.00    -0.014 A 
ATOM     75  C   UNL A   1      38.870  29.563  28.206  1.00  0.00     0.009 A 
ATOM     76  C   UNL A   1      39.098  28.474  30.353  1.00  0.00     0.009 A 
ATOM     77  C   UNL A   1      37.540  29.865  28.503  1.00  0.00     0.001 A 
ATOM     78  C   UNL A   1      37.760  28.754  30.637  1.00  0.00     0.001 A 
ATOM     79  C   UNL A   1      36.984  29.456  29.715  1.00  0.00     0.000 A 
ENDBRANCH  55  74
BRANCH  67  80
ATOM     80  C   UNL A   1      45.649  32.388  29.654  1.00  0.00    -0.014 A 
ATOM     81  C   UNL A   1      45.664  33.472  28.763  1.00  0.00     0.009 A 
ATOM     82  C   UNL A   1      45.900  32.618  31.016  1.00  0.00     0.009 A 
ATOM     83  C   UNL A   1      45.959  34.757  29.224  1.00  0.00     0.001 A 
ATOM     84  C   UNL A   1      46.166  33.907  31.478  1.00  0.00     0.001 A 
ATOM     85  C   UNL A   1      46.204  34.973  30.581  1.00  0.00     0.000 A 
ENDBRANCH  67  80
ENDBRANCH  41  42
ENDBRANCH  34  36
ENDBRANCH  33  34
ENDBRANCH  32  33
ENDBRANCH  31  32
ENDBRANCH  30  31
ENDBRANCH  29  30
ENDBRANCH  28  29
ENDBRANCH   1  28
TORSDOF 22
ENDMDL
