MODEL 1
REMARK VINA RESULT:      -8.5      0.000      0.000
REMARK SMILES CC[NH2+][C@@]1(C(=O)OCCOCCOCCOC(=O)c2ccc(-c3c4nc(c(-c5ccccc5)c5ccc([nH]5)c(-c5ccccc5)c5nc(c(-c6ccccc6)c6ccc3[nH]6)C=C5)C=C4)cc2)CC[C@@H](OCCOC)C1
REMARK SMILES IDX 11 1 10 2 9 3 8 4 7 5 5 6 6 7 4 8 67 9 75 10 68 11 69 12
REMARK SMILES IDX 3 13 2 16 1 17 70 18 71 19 72 20 73 21 74 22 12 23 13 24
REMARK SMILES IDX 14 25 15 26 16 27 17 28 18 29 19 30 20 31 66 32 21 33 65 34
REMARK SMILES IDX 22 35 23 36 24 37 59 38 25 39 64 40 58 41 60 42 26 43 63 44
REMARK SMILES IDX 57 45 56 46 27 48 49 49 34 50 48 51 35 52 38 53 47 54 61 55
REMARK SMILES IDX 36 56 37 57 46 59 62 60 39 61 28 62 29 63 33 64 30 65 32 66
REMARK SMILES IDX 31 67 50 68 51 69 55 70 52 71 54 72 53 73 40 74 41 75 45 76
REMARK SMILES IDX 42 77 44 78 43 79
REMARK H PARENT 3 14 3 15 60 47 38 58
REMARK Flexibility Score: inf
ROOT
ATOM      1  C   UNL A   1      31.480  27.070  25.650  1.00  0.00     0.188 C 
ENDROOT
BRANCH   1   2
ATOM      2  O   UNL A   1      30.752  26.087  26.378  1.00  0.00    -0.376 OA
BRANCH   2   3
ATOM      3  C   UNL A   1      30.783  24.730  25.963  1.00  0.00     0.202 C 
BRANCH   3   4
ATOM      4  C   UNL A   1      31.833  23.810  26.604  1.00  0.00     0.261 C 
BRANCH   4   5
ATOM      5  O   UNL A   1      31.976  22.495  26.028  1.00  0.00    -0.459 OA
BRANCH   5   6
ATOM      6  C   UNL A   1      33.202  21.913  26.141  1.00  0.00     0.368 C 
ATOM      7  O   UNL A   1      33.726  21.669  27.225  1.00  0.00    -0.245 OA
BRANCH   6   8
ATOM      8  C   UNL A   1      33.921  21.623  24.756  1.00  0.00     0.196 C 
ATOM      9  C   UNL A   1      32.831  20.991  23.875  1.00  0.00     0.084 C 
ATOM     10  C   UNL A   1      34.997  20.528  24.670  1.00  0.00     0.113 C 
ATOM     11  C   UNL A   1      32.809  19.521  24.314  1.00  0.00     0.039 C 
ATOM     12  C   UNL A   1      34.233  19.212  24.793  1.00  0.00     0.125 C 
BRANCH   8  13
ATOM     13  N   UNL A   1      34.438  22.936  24.303  1.00  0.00    -0.332 N 
ATOM     14  H   UNL A   1      34.503  22.897  23.286  1.00  0.00     0.347 HD
ATOM     15  H   UNL A   1      33.777  23.608  24.690  1.00  0.00     0.347 HD
BRANCH  13  16
ATOM     16  C   UNL A   1      35.728  23.388  24.797  1.00  0.00     0.257 C 
ATOM     17  C   UNL A   1      36.702  23.488  23.630  1.00  0.00     0.071 C 
ENDBRANCH  13  16
ENDBRANCH   8  13
BRANCH  12  18
ATOM     18  O   UNL A   1      34.923  18.127  24.193  1.00  0.00    -0.376 OA
BRANCH  18  19
ATOM     19  C   UNL A   1      34.284  16.863  24.095  1.00  0.00     0.189 C 
BRANCH  19  20
ATOM     20  C   UNL A   1      34.082  16.101  25.419  1.00  0.00     0.188 C 
BRANCH  20  21
ATOM     21  O   UNL A   1      33.516  14.793  25.385  1.00  0.00    -0.382 OA
ATOM     22  C   UNL A   1      32.148  14.702  25.750  1.00  0.00     0.195 C 
ENDBRANCH  20  21
ENDBRANCH  19  20
ENDBRANCH  18  19
ENDBRANCH  12  18
ENDBRANCH   6   8
ENDBRANCH   5   6
ENDBRANCH   4   5
ENDBRANCH   3   4
ENDBRANCH   2   3
ENDBRANCH   1   2
BRANCH   1  23
ATOM     23  C   UNL A   1      30.770  27.946  24.611  1.00  0.00     0.188 C 
BRANCH  23  24
ATOM     24  O   UNL A   1      31.140  29.308  24.638  1.00  0.00    -0.376 OA
BRANCH  24  25
ATOM     25  C   UNL A   1      32.061  29.694  25.642  1.00  0.00     0.202 C 
BRANCH  25  26
ATOM     26  C   UNL A   1      31.750  31.074  26.228  1.00  0.00     0.261 C 
BRANCH  26  27
ATOM     27  O   UNL A   1      32.460  31.392  27.440  1.00  0.00    -0.460 OA
BRANCH  27  28
ATOM     28  C   UNL A   1      32.932  32.653  27.580  1.00  0.00     0.338 C 
ATOM     29  O   UNL A   1      32.327  33.692  27.383  1.00  0.00    -0.246 OA
BRANCH  28  30
ATOM     30  C   UNL A   1      34.241  32.551  28.266  1.00  0.00     0.060 A 
ATOM     31  C   UNL A   1      35.355  33.219  27.733  1.00  0.00     0.016 A 
ATOM     32  C   UNL A   1      34.352  31.845  29.465  1.00  0.00     0.016 A 
ATOM     33  C   UNL A   1      36.587  33.173  28.395  1.00  0.00     0.010 A 
ATOM     34  C   UNL A   1      35.587  31.776  30.109  1.00  0.00     0.010 A 
ATOM     35  C   UNL A   1      36.716  32.418  29.568  1.00  0.00    -0.014 A 
BRANCH  35  36
ATOM     36  C   UNL A   1      38.047  32.075  30.124  1.00  0.00     0.031 A 
ATOM     37  C   UNL A   1      38.730  30.851  29.580  1.00  0.00     0.074 A 
ATOM     38  C   UNL A   1      38.610  32.767  31.129  1.00  0.00     0.049 A 
ATOM     39  N   UNL A   1      39.767  30.202  30.039  1.00  0.00    -0.248 NA
ATOM     40  C   UNL A   1      38.148  30.277  28.354  1.00  0.00     0.031 C 
ATOM     41  C   UNL A   1      38.102  34.012  31.700  1.00  0.00     0.029 A 
ATOM     42  N   UNL A   1      39.734  32.490  31.870  1.00  0.00    -0.354 N 
ATOM     43  C   UNL A   1      39.947  29.130  29.173  1.00  0.00     0.074 A 
ATOM     44  C   UNL A   1      38.908  29.210  28.170  1.00  0.00     0.031 C 
ATOM     45  C   UNL A   1      38.900  34.378  32.721  1.00  0.00     0.029 A 
ATOM     46  C   UNL A   1      39.937  33.364  32.911  1.00  0.00     0.049 A 
ATOM     47  H   UNL A   1      40.338  31.737  31.673  1.00  0.00     0.167 HD
ATOM     48  C   UNL A   1      40.888  28.159  29.213  1.00  0.00     0.031 A 
ATOM     49  C   UNL A   1      40.826  33.321  33.924  1.00  0.00     0.031 A 
ATOM     50  C   UNL A   1      41.902  28.061  30.225  1.00  0.00     0.049 A 
ATOM     51  C   UNL A   1      41.791  32.163  34.018  1.00  0.00     0.074 A 
ATOM     52  C   UNL A   1      42.891  27.103  30.365  1.00  0.00     0.029 A 
ATOM     53  N   UNL A   1      42.052  28.952  31.276  1.00  0.00    -0.354 N 
ATOM     54  N   UNL A   1      41.950  31.145  33.206  1.00  0.00    -0.248 NA
ATOM     55  C   UNL A   1      42.698  32.145  35.178  1.00  0.00     0.031 C 
ATOM     56  C   UNL A   1      43.607  27.385  31.531  1.00  0.00     0.029 A 
ATOM     57  C   UNL A   1      43.106  28.556  32.079  1.00  0.00     0.049 A 
ATOM     58  H   UNL A   1      41.492  29.747  31.428  1.00  0.00     0.167 HD
ATOM     59  C   UNL A   1      43.000  30.398  33.729  1.00  0.00     0.074 A 
ATOM     60  C   UNL A   1      43.440  31.074  34.931  1.00  0.00     0.031 C 
ATOM     61  C   UNL A   1      43.554  29.257  33.253  1.00  0.00     0.031 A 
BRANCH  48  62
ATOM     62  C   UNL A   1      40.825  27.096  28.154  1.00  0.00    -0.014 A 
ATOM     63  C   UNL A   1      40.060  25.933  28.334  1.00  0.00     0.009 A 
ATOM     64  C   UNL A   1      41.527  27.273  26.952  1.00  0.00     0.009 A 
ATOM     65  C   UNL A   1      40.027  24.952  27.341  1.00  0.00     0.001 A 
ATOM     66  C   UNL A   1      41.466  26.305  25.949  1.00  0.00     0.001 A 
ATOM     67  C   UNL A   1      40.725  25.142  26.148  1.00  0.00     0.000 A 
ENDBRANCH  48  62
BRANCH  49  68
ATOM     68  C   UNL A   1      40.832  34.379  34.971  1.00  0.00    -0.014 A 
ATOM     69  C   UNL A   1      39.858  34.387  35.982  1.00  0.00     0.009 A 
ATOM     70  C   UNL A   1      41.778  35.415  34.938  1.00  0.00     0.009 A 
ATOM     71  C   UNL A   1      39.814  35.424  36.918  1.00  0.00     0.001 A 
ATOM     72  C   UNL A   1      41.752  36.434  35.893  1.00  0.00     0.001 A 
ATOM     73  C   UNL A   1      40.763  36.444  36.876  1.00  0.00     0.000 A 
ENDBRANCH  49  68
BRANCH  61  74
ATOM     74  C   UNL A   1      44.751  28.698  33.971  1.00  0.00    -0.014 A 
ATOM     75  C   UNL A   1      44.621  27.737  34.984  1.00  0.00     0.009 A 
ATOM     76  C   UNL A   1      46.037  29.076  33.551  1.00  0.00     0.009 A 
ATOM     77  C   UNL A   1      45.759  27.178  35.572  1.00  0.00     0.001 A 
ATOM     78  C   UNL A   1      47.171  28.496  34.121  1.00  0.00     0.001 A 
ATOM     79  C   UNL A   1      47.030  27.551  35.135  1.00  0.00     0.000 A 
ENDBRANCH  61  74
ENDBRANCH  35  36
ENDBRANCH  28  30
ENDBRANCH  27  28
ENDBRANCH  26  27
ENDBRANCH  25  26
ENDBRANCH  24  25
ENDBRANCH  23  24
ENDBRANCH   1  23
TORSDOF 23
ENDMDL
MODEL 2
REMARK VINA RESULT:      -8.4      2.918      6.991
REMARK SMILES CC[NH2+][C@@]1(C(=O)OCCOCCOCCOC(=O)c2ccc(-c3c4nc(c(-c5ccccc5)c5ccc([nH]5)c(-c5ccccc5)c5nc(c(-c6ccccc6)c6ccc3[nH]6)C=C5)C=C4)cc2)CC[C@@H](OCCOC)C1
REMARK SMILES IDX 11 1 10 2 9 3 8 4 7 5 5 6 6 7 4 8 67 9 75 10 68 11 69 12
REMARK SMILES IDX 3 13 2 16 1 17 70 18 71 19 72 20 73 21 74 22 12 23 13 24
REMARK SMILES IDX 14 25 15 26 16 27 17 28 18 29 19 30 20 31 66 32 21 33 65 34
REMARK SMILES IDX 22 35 23 36 24 37 59 38 25 39 64 40 58 41 60 42 26 43 63 44
REMARK SMILES IDX 57 45 56 46 27 48 49 49 34 50 48 51 35 52 38 53 47 54 61 55
REMARK SMILES IDX 36 56 37 57 46 59 62 60 39 61 28 62 29 63 33 64 30 65 32 66
REMARK SMILES IDX 31 67 50 68 51 69 55 70 52 71 54 72 53 73 40 74 41 75 45 76
REMARK SMILES IDX 42 77 44 78 43 79
REMARK H PARENT 3 14 3 15 60 47 38 58
REMARK Flexibility Score: inf
ROOT
ATOM      1  C   UNL A   1      30.961  28.431  22.821  1.00  0.00     0.188 C 
ENDROOT
BRANCH   1   2
ATOM      2  O   UNL A   1      30.952  27.009  22.744  1.00  0.00    -0.376 OA
BRANCH   2   3
ATOM      3  C   UNL A   1      30.897  26.235  23.932  1.00  0.00     0.202 C 
BRANCH   3   4
ATOM      4  C   UNL A   1      31.244  24.742  23.828  1.00  0.00     0.261 C 
BRANCH   4   5
ATOM      5  O   UNL A   1      32.539  24.344  24.324  1.00  0.00    -0.459 OA
BRANCH   5   6
ATOM      6  C   UNL A   1      32.550  23.624  25.480  1.00  0.00     0.368 C 
ATOM      7  O   UNL A   1      31.819  23.881  26.433  1.00  0.00    -0.245 OA
BRANCH   6   8
ATOM      8  C   UNL A   1      33.623  22.454  25.514  1.00  0.00     0.196 C 
ATOM      9  C   UNL A   1      33.883  22.119  24.036  1.00  0.00     0.084 C 
ATOM     10  C   UNL A   1      33.220  21.063  26.032  1.00  0.00     0.113 C 
ATOM     11  C   UNL A   1      32.711  21.203  23.655  1.00  0.00     0.039 C 
ATOM     12  C   UNL A   1      32.310  20.487  24.950  1.00  0.00     0.125 C 
BRANCH   8  13
ATOM     13  N   UNL A   1      34.777  23.005  26.264  1.00  0.00    -0.332 N 
ATOM     14  H   UNL A   1      34.401  23.467  27.093  1.00  0.00     0.347 HD
ATOM     15  H   UNL A   1      35.375  22.196  26.427  1.00  0.00     0.347 HD
BRANCH  13  16
ATOM     16  C   UNL A   1      35.650  23.959  25.602  1.00  0.00     0.257 C 
ATOM     17  C   UNL A   1      37.094  23.496  25.744  1.00  0.00     0.071 C 
ENDBRANCH  13  16
ENDBRANCH   8  13
BRANCH  12  18
ATOM     18  O   UNL A   1      32.293  19.068  24.957  1.00  0.00    -0.376 OA
BRANCH  18  19
ATOM     19  C   UNL A   1      32.950  18.359  23.918  1.00  0.00     0.189 C 
BRANCH  19  20
ATOM     20  C   UNL A   1      33.200  16.860  24.172  1.00  0.00     0.188 C 
BRANCH  20  21
ATOM     21  O   UNL A   1      33.213  16.378  25.514  1.00  0.00    -0.382 OA
ATOM     22  C   UNL A   1      32.438  15.216  25.761  1.00  0.00     0.195 C 
ENDBRANCH  20  21
ENDBRANCH  19  20
ENDBRANCH  18  19
ENDBRANCH  12  18
ENDBRANCH   6   8
ENDBRANCH   5   6
ENDBRANCH   4   5
ENDBRANCH   3   4
ENDBRANCH   2   3
ENDBRANCH   1   2
BRANCH   1  23
ATOM     23  C   UNL A   1      30.547  29.137  24.118  1.00  0.00     0.188 C 
BRANCH  23  24
ATOM     24  O   UNL A   1      31.528  29.998  24.657  1.00  0.00    -0.376 OA
BRANCH  24  25
ATOM     25  C   UNL A   1      31.883  29.785  26.010  1.00  0.00     0.202 C 
BRANCH  25  26
ATOM     26  C   UNL A   1      33.368  30.045  26.279  1.00  0.00     0.261 C 
BRANCH  26  27
ATOM     27  O   UNL A   1      33.744  30.030  27.669  1.00  0.00    -0.460 OA
BRANCH  27  28
ATOM     28  C   UNL A   1      34.607  30.981  28.098  1.00  0.00     0.338 C 
ATOM     29  O   UNL A   1      34.340  32.123  28.428  1.00  0.00    -0.246 OA
BRANCH  28  30
ATOM     30  C   UNL A   1      35.905  30.309  28.340  1.00  0.00     0.060 A 
ATOM     31  C   UNL A   1      36.176  29.763  29.606  1.00  0.00     0.016 A 
ATOM     32  C   UNL A   1      36.826  30.167  27.302  1.00  0.00     0.016 A 
ATOM     33  C   UNL A   1      37.377  29.083  29.837  1.00  0.00     0.010 A 
ATOM     34  C   UNL A   1      38.035  29.513  27.541  1.00  0.00     0.010 A 
ATOM     35  C   UNL A   1      38.328  28.988  28.813  1.00  0.00    -0.014 A 
BRANCH  35  36
ATOM     36  C   UNL A   1      39.724  28.571  29.090  1.00  0.00     0.031 A 
ATOM     37  C   UNL A   1      40.662  29.611  29.634  1.00  0.00     0.074 A 
ATOM     38  C   UNL A   1      40.179  27.339  28.804  1.00  0.00     0.049 A 
ATOM     39  N   UNL A   1      41.964  29.584  29.743  1.00  0.00    -0.248 NA
ATOM     40  C   UNL A   1      40.040  30.860  30.107  1.00  0.00     0.031 C 
ATOM     41  C   UNL A   1      39.368  26.212  28.348  1.00  0.00     0.029 A 
ATOM     42  N   UNL A   1      41.461  26.844  28.832  1.00  0.00    -0.354 N 
ATOM     43  C   UNL A   1      42.318  30.818  30.274  1.00  0.00     0.074 A 
ATOM     44  C   UNL A   1      41.098  31.573  30.454  1.00  0.00     0.031 C 
ATOM     45  C   UNL A   1      40.179  25.163  28.113  1.00  0.00     0.029 A 
ATOM     46  C   UNL A   1      41.567  25.563  28.347  1.00  0.00     0.049 A 
ATOM     47  H   UNL A   1      42.230  27.358  29.168  1.00  0.00     0.167 HD
ATOM     48  C   UNL A   1      43.551  31.287  30.576  1.00  0.00     0.031 A 
ATOM     49  C   UNL A   1      42.660  24.821  28.078  1.00  0.00     0.031 A 
ATOM     50  C   UNL A   1      44.766  30.550  30.370  1.00  0.00     0.049 A 
ATOM     51  C   UNL A   1      44.033  25.407  28.310  1.00  0.00     0.074 A 
ATOM     52  C   UNL A   1      46.067  30.943  30.626  1.00  0.00     0.029 A 
ATOM     53  N   UNL A   1      44.828  29.267  29.849  1.00  0.00    -0.354 N 
ATOM     54  N   UNL A   1      44.364  26.578  28.799  1.00  0.00    -0.248 NA
ATOM     55  C   UNL A   1      45.186  24.567  27.945  1.00  0.00     0.031 C 
ATOM     56  C   UNL A   1      46.921  29.918  30.212  1.00  0.00     0.029 A 
ATOM     57  C   UNL A   1      46.147  28.860  29.761  1.00  0.00     0.049 A 
ATOM     58  H   UNL A   1      44.050  28.725  29.583  1.00  0.00     0.167 HD
ATOM     59  C   UNL A   1      45.754  26.595  28.843  1.00  0.00     0.074 A 
ATOM     60  C   UNL A   1      46.208  25.321  28.329  1.00  0.00     0.031 C 
ATOM     61  C   UNL A   1      46.582  27.577  29.278  1.00  0.00     0.031 A 
BRANCH  48  62
ATOM     62  C   UNL A   1      43.642  32.685  31.114  1.00  0.00    -0.014 A 
ATOM     63  C   UNL A   1      43.533  32.945  32.490  1.00  0.00     0.009 A 
ATOM     64  C   UNL A   1      43.861  33.755  30.233  1.00  0.00     0.009 A 
ATOM     65  C   UNL A   1      43.608  34.255  32.967  1.00  0.00     0.001 A 
ATOM     66  C   UNL A   1      43.966  35.059  30.716  1.00  0.00     0.001 A 
ATOM     67  C   UNL A   1      43.830  35.309  32.080  1.00  0.00     0.000 A 
ENDBRANCH  48  62
BRANCH  49  68
ATOM     68  C   UNL A   1      42.525  23.450  27.515  1.00  0.00    -0.014 A 
ATOM     69  C   UNL A   1      42.730  23.218  26.146  1.00  0.00     0.009 A 
ATOM     70  C   UNL A   1      42.141  22.374  28.330  1.00  0.00     0.009 A 
ATOM     71  C   UNL A   1      42.525  21.947  25.601  1.00  0.00     0.001 A 
ATOM     72  C   UNL A   1      41.967  21.097  27.790  1.00  0.00     0.001 A 
ATOM     73  C   UNL A   1      42.148  20.888  26.424  1.00  0.00     0.000 A 
ENDBRANCH  49  68
BRANCH  61  74
ATOM     74  C   UNL A   1      48.059  27.298  29.301  1.00  0.00    -0.014 A 
ATOM     75  C   UNL A   1      48.903  27.706  28.258  1.00  0.00     0.009 A 
ATOM     76  C   UNL A   1      48.623  26.701  30.441  1.00  0.00     0.009 A 
ATOM     77  C   UNL A   1      50.282  27.505  28.351  1.00  0.00     0.001 A 
ATOM     78  C   UNL A   1      50.004  26.527  30.543  1.00  0.00     0.001 A 
ATOM     79  C   UNL A   1      50.832  26.925  29.495  1.00  0.00     0.000 A 
ENDBRANCH  61  74
ENDBRANCH  35  36
ENDBRANCH  28  30
ENDBRANCH  27  28
ENDBRANCH  26  27
ENDBRANCH  25  26
ENDBRANCH  24  25
ENDBRANCH  23  24
ENDBRANCH   1  23
TORSDOF 23
ENDMDL
MODEL 3
REMARK VINA RESULT:      -8.4      4.006      8.499
REMARK SMILES CC[NH2+][C@@]1(C(=O)OCCOCCOCCOC(=O)c2ccc(-c3c4nc(c(-c5ccccc5)c5ccc([nH]5)c(-c5ccccc5)c5nc(c(-c6ccccc6)c6ccc3[nH]6)C=C5)C=C4)cc2)CC[C@@H](OCCOC)C1
REMARK SMILES IDX 11 1 10 2 9 3 8 4 7 5 5 6 6 7 4 8 67 9 75 10 68 11 69 12
REMARK SMILES IDX 3 13 2 16 1 17 70 18 71 19 72 20 73 21 74 22 12 23 13 24
REMARK SMILES IDX 14 25 15 26 16 27 17 28 18 29 19 30 20 31 66 32 21 33 65 34
REMARK SMILES IDX 22 35 23 36 24 37 59 38 25 39 64 40 58 41 60 42 26 43 63 44
REMARK SMILES IDX 57 45 56 46 27 48 49 49 34 50 48 51 35 52 38 53 47 54 61 55
REMARK SMILES IDX 36 56 37 57 46 59 62 60 39 61 28 62 29 63 33 64 30 65 32 66
REMARK SMILES IDX 31 67 50 68 51 69 55 70 52 71 54 72 53 73 40 74 41 75 45 76
REMARK SMILES IDX 42 77 44 78 43 79
REMARK H PARENT 3 14 3 15 60 47 38 58
REMARK Flexibility Score: inf
ROOT
ATOM      1  C   UNL A   1      35.183  21.599  24.369  1.00  0.00     0.188 C 
ENDROOT
BRANCH   1   2
ATOM      2  O   UNL A   1      34.144  22.385  24.943  1.00  0.00    -0.376 OA
BRANCH   2   3
ATOM      3  C   UNL A   1      34.436  23.282  26.003  1.00  0.00     0.202 C 
BRANCH   3   4
ATOM      4  C   UNL A   1      33.279  24.118  26.570  1.00  0.00     0.261 C 
BRANCH   4   5
ATOM      5  O   UNL A   1      32.339  24.652  25.614  1.00  0.00    -0.459 OA
BRANCH   5   6
ATOM      6  C   UNL A   1      32.511  25.956  25.258  1.00  0.00     0.368 C 
ATOM      7  O   UNL A   1      33.582  26.401  24.855  1.00  0.00    -0.245 OA
BRANCH   6   8
ATOM      8  C   UNL A   1      31.224  26.864  25.456  1.00  0.00     0.196 C 
ATOM      9  C   UNL A   1      30.042  25.955  25.080  1.00  0.00     0.084 C 
ATOM     10  C   UNL A   1      30.966  28.041  24.499  1.00  0.00     0.113 C 
ATOM     11  C   UNL A   1      30.004  26.016  23.547  1.00  0.00     0.039 C 
ATOM     12  C   UNL A   1      30.568  27.393  23.175  1.00  0.00     0.125 C 
BRANCH   8  13
ATOM     13  N   UNL A   1      31.274  27.309  26.869  1.00  0.00    -0.332 N 
ATOM     14  H   UNL A   1      30.444  27.879  27.032  1.00  0.00     0.347 HD
ATOM     15  H   UNL A   1      31.340  26.440  27.398  1.00  0.00     0.347 HD
BRANCH  13  16
ATOM     16  C   UNL A   1      32.420  28.081  27.319  1.00  0.00     0.257 C 
ATOM     17  C   UNL A   1      32.157  29.559  27.061  1.00  0.00     0.071 C 
ENDBRANCH  13  16
ENDBRANCH   8  13
BRANCH  12  18
ATOM     18  O   UNL A   1      29.774  28.250  22.370  1.00  0.00    -0.376 OA
BRANCH  18  19
ATOM     19  C   UNL A   1      28.507  28.677  22.846  1.00  0.00     0.189 C 
BRANCH  19  20
ATOM     20  C   UNL A   1      28.220  30.188  22.750  1.00  0.00     0.188 C 
BRANCH  20  21
ATOM     21  O   UNL A   1      27.760  30.727  21.513  1.00  0.00    -0.382 OA
ATOM     22  C   UNL A   1      28.185  32.048  21.218  1.00  0.00     0.195 C 
ENDBRANCH  20  21
ENDBRANCH  19  20
ENDBRANCH  18  19
ENDBRANCH  12  18
ENDBRANCH   6   8
ENDBRANCH   5   6
ENDBRANCH   4   5
ENDBRANCH   3   4
ENDBRANCH   2   3
ENDBRANCH   1   2
BRANCH   1  23
ATOM     23  C   UNL A   1      36.538  22.235  24.036  1.00  0.00     0.188 C 
BRANCH  23  24
ATOM     24  O   UNL A   1      37.644  21.628  24.669  1.00  0.00    -0.376 OA
BRANCH  24  25
ATOM     25  C   UNL A   1      37.536  20.243  24.942  1.00  0.00     0.202 C 
BRANCH  25  26
ATOM     26  C   UNL A   1      38.824  19.653  25.524  1.00  0.00     0.261 C 
BRANCH  26  27
ATOM     27  O   UNL A   1      39.886  20.603  25.731  1.00  0.00    -0.460 OA
BRANCH  27  28
ATOM     28  C   UNL A   1      40.397  20.714  26.979  1.00  0.00     0.338 C 
ATOM     29  O   UNL A   1      40.798  19.812  27.694  1.00  0.00    -0.246 OA
BRANCH  28  30
ATOM     30  C   UNL A   1      40.621  22.157  27.228  1.00  0.00     0.060 A 
ATOM     31  C   UNL A   1      39.817  23.105  26.573  1.00  0.00     0.016 A 
ATOM     32  C   UNL A   1      41.584  22.569  28.149  1.00  0.00     0.016 A 
ATOM     33  C   UNL A   1      39.983  24.470  26.834  1.00  0.00     0.010 A 
ATOM     34  C   UNL A   1      41.769  23.931  28.387  1.00  0.00     0.010 A 
ATOM     35  C   UNL A   1      40.988  24.889  27.716  1.00  0.00    -0.014 A 
BRANCH  35  36
ATOM     36  C   UNL A   1      41.416  26.308  27.782  1.00  0.00     0.031 A 
ATOM     37  C   UNL A   1      42.736  26.662  27.157  1.00  0.00     0.074 A 
ATOM     38  C   UNL A   1      40.708  27.246  28.434  1.00  0.00     0.049 A 
ATOM     39  N   UNL A   1      43.447  27.752  27.271  1.00  0.00    -0.248 NA
ATOM     40  C   UNL A   1      43.341  25.632  26.294  1.00  0.00     0.031 C 
ATOM     41  C   UNL A   1      39.381  27.064  29.018  1.00  0.00     0.029 A 
ATOM     42  N   UNL A   1      41.037  28.545  28.739  1.00  0.00    -0.354 N 
ATOM     43  C   UNL A   1      44.591  27.531  26.515  1.00  0.00     0.074 A 
ATOM     44  C   UNL A   1      44.486  26.201  25.957  1.00  0.00     0.031 C 
ATOM     45  C   UNL A   1      39.020  28.206  29.635  1.00  0.00     0.029 A 
ATOM     46  C   UNL A   1      40.112  29.174  29.537  1.00  0.00     0.049 A 
ATOM     47  H   UNL A   1      41.857  28.984  28.415  1.00  0.00     0.167 HD
ATOM     48  C   UNL A   1      45.643  28.357  26.311  1.00  0.00     0.031 A 
ATOM     49  C   UNL A   1      40.166  30.371  30.156  1.00  0.00     0.031 A 
ATOM     50  C   UNL A   1      45.764  29.667  26.888  1.00  0.00     0.049 A 
ATOM     51  C   UNL A   1      41.401  31.229  30.012  1.00  0.00     0.074 A 
ATOM     52  C   UNL A   1      46.799  30.575  26.757  1.00  0.00     0.029 A 
ATOM     53  N   UNL A   1      44.816  30.251  27.714  1.00  0.00    -0.354 N 
ATOM     54  N   UNL A   1      42.486  31.010  29.309  1.00  0.00    -0.248 NA
ATOM     55  C   UNL A   1      41.421  32.499  30.757  1.00  0.00     0.031 C 
ATOM     56  C   UNL A   1      46.502  31.689  27.546  1.00  0.00     0.029 A 
ATOM     57  C   UNL A   1      45.251  31.502  28.113  1.00  0.00     0.049 A 
ATOM     58  H   UNL A   1      43.961  29.838  27.975  1.00  0.00     0.167 HD
ATOM     59  C   UNL A   1      43.290  32.131  29.488  1.00  0.00     0.074 A 
ATOM     60  C   UNL A   1      42.574  33.027  30.369  1.00  0.00     0.031 C 
ATOM     61  C   UNL A   1      44.512  32.396  28.964  1.00  0.00     0.031 A 
BRANCH  48  62
ATOM     62  C   UNL A   1      46.770  27.840  25.465  1.00  0.00    -0.014 A 
ATOM     63  C   UNL A   1      47.835  27.119  26.029  1.00  0.00     0.009 A 
ATOM     64  C   UNL A   1      46.755  28.060  24.079  1.00  0.00     0.009 A 
ATOM     65  C   UNL A   1      48.879  26.658  25.225  1.00  0.00     0.001 A 
ATOM     66  C   UNL A   1      47.783  27.571  23.274  1.00  0.00     0.001 A 
ATOM     67  C   UNL A   1      48.849  26.880  23.848  1.00  0.00     0.000 A 
ENDBRANCH  48  62
BRANCH  49  68
ATOM     68  C   UNL A   1      39.039  30.832  31.012  1.00  0.00    -0.014 A 
ATOM     69  C   UNL A   1      38.987  30.483  32.371  1.00  0.00     0.009 A 
ATOM     70  C   UNL A   1      37.983  31.580  30.467  1.00  0.00     0.009 A 
ATOM     71  C   UNL A   1      37.890  30.846  33.157  1.00  0.00     0.001 A 
ATOM     72  C   UNL A   1      36.902  31.969  31.263  1.00  0.00     0.001 A 
ATOM     73  C   UNL A   1      36.852  31.593  32.603  1.00  0.00     0.000 A 
ENDBRANCH  49  68
BRANCH  61  74
ATOM     74  C   UNL A   1      45.129  33.738  29.251  1.00  0.00    -0.014 A 
ATOM     75  C   UNL A   1      44.858  34.859  28.455  1.00  0.00     0.009 A 
ATOM     76  C   UNL A   1      45.921  33.893  30.401  1.00  0.00     0.009 A 
ATOM     77  C   UNL A   1      45.382  36.108  28.799  1.00  0.00     0.001 A 
ATOM     78  C   UNL A   1      46.420  35.146  30.757  1.00  0.00     0.001 A 
ATOM     79  C   UNL A   1      46.154  36.252  29.952  1.00  0.00     0.000 A 
ENDBRANCH  61  74
ENDBRANCH  35  36
ENDBRANCH  28  30
ENDBRANCH  27  28
ENDBRANCH  26  27
ENDBRANCH  25  26
ENDBRANCH  24  25
ENDBRANCH  23  24
ENDBRANCH   1  23
TORSDOF 23
ENDMDL
