MODEL 1
REMARK VINA RESULT:     -10.2      0.000      0.000
REMARK SMILES Cc1c(C)c2c(c(C)c1O)CC[C@@](C)(C(=O)OCCOCCOCCOC(=O)c1ccc(-c3c4nc(c(-c5ccccc5)c5ccc([nH]5)c(-c5ccccc5)c5nc(c(-c6ccccc6)c6ccc3[nH]6)C=C5)C=C4)cc1)O2
REMARK SMILES IDX 22 1 21 2 20 3 19 4 18 5 17 6 15 7 16 8 13 9 1 10 2 11 3 12
REMARK SMILES IDX 9 13 4 14 5 15 7 16 6 17 77 18 8 19 11 20 12 21 14 22 10 23
REMARK SMILES IDX 23 25 24 26 25 27 26 28 27 29 28 30 29 31 30 32 76 33 31 34
REMARK SMILES IDX 75 35 32 36 33 37 34 38 69 39 35 40 74 41 68 42 70 43 36 44
REMARK SMILES IDX 73 45 67 46 66 47 37 49 59 50 44 51 58 52 45 53 48 54 57 55
REMARK SMILES IDX 71 56 46 57 47 58 56 60 72 61 49 62 38 63 39 64 43 65 40 66
REMARK SMILES IDX 42 67 41 68 60 69 61 70 65 71 62 72 64 73 63 74 50 75 51 76
REMARK SMILES IDX 55 77 52 78 54 79 53 80
REMARK H PARENT 10 24 70 48 48 59
REMARK Flexibility Score: inf
ROOT
ATOM      1  C   UNL A   1      32.707  29.583  27.323  1.00  0.00     0.188 C 
ENDROOT
BRANCH   1   2
ATOM      2  C   UNL A   1      31.825  28.410  26.880  1.00  0.00     0.188 C 
BRANCH   2   3
ATOM      3  O   UNL A   1      32.409  27.119  26.742  1.00  0.00    -0.376 OA
BRANCH   3   4
ATOM      4  C   UNL A   1      33.363  26.884  25.716  1.00  0.00     0.202 C 
BRANCH   4   5
ATOM      5  C   UNL A   1      33.106  27.455  24.310  1.00  0.00     0.261 C 
BRANCH   5   6
ATOM      6  O   UNL A   1      32.381  26.630  23.366  1.00  0.00    -0.460 OA
BRANCH   6   7
ATOM      7  C   UNL A   1      33.150  25.908  22.499  1.00  0.00     0.350 C 
ATOM      8  O   UNL A   1      33.819  26.430  21.609  1.00  0.00    -0.247 OA
BRANCH   7   9
ATOM      9  C   UNL A   1      33.060  24.369  22.680  1.00  0.00     0.203 C 
ATOM     10  C   UNL A   1      37.369  20.667  25.070  1.00  0.00     0.049 C 
ATOM     11  C   UNL A   1      35.969  21.104  24.714  1.00  0.00    -0.002 A 
ATOM     12  C   UNL A   1      35.688  22.447  24.374  1.00  0.00    -0.002 A 
ATOM     13  C   UNL A   1      34.910  20.176  24.718  1.00  0.00     0.122 A 
ATOM     14  C   UNL A   1      36.761  23.507  24.458  1.00  0.00     0.049 C 
ATOM     15  C   UNL A   1      34.396  22.787  23.922  1.00  0.00     0.127 A 
ATOM     16  C   UNL A   1      33.600  20.534  24.352  1.00  0.00    -0.002 A 
ATOM     17  C   UNL A   1      33.339  21.862  23.954  1.00  0.00     0.001 A 
ATOM     18  O   UNL A   1      34.243  24.066  23.451  1.00  0.00    -0.475 OA
ATOM     19  C   UNL A   1      32.482  19.522  24.406  1.00  0.00     0.049 C 
ATOM     20  C   UNL A   1      31.950  22.285  23.539  1.00  0.00     0.044 C 
ATOM     21  C   UNL A   1      31.846  23.802  23.419  1.00  0.00     0.065 C 
ATOM     22  C   UNL A   1      33.184  23.801  21.255  1.00  0.00     0.069 C 
BRANCH  13  23
ATOM     23  O   UNL A   1      35.112  18.868  25.082  1.00  0.00    -0.507 OA
ATOM     24  H   UNL A   1      34.664  18.182  24.630  1.00  0.00     0.293 HD
ENDBRANCH  13  23
ENDBRANCH   7   9
ENDBRANCH   6   7
ENDBRANCH   5   6
ENDBRANCH   4   5
ENDBRANCH   3   4
ENDBRANCH   2   3
ENDBRANCH   1   2
BRANCH   1  25
ATOM     25  O   UNL A   1      32.646  30.708  26.475  1.00  0.00    -0.376 OA
BRANCH  25  26
ATOM     26  C   UNL A   1      31.541  31.576  26.597  1.00  0.00     0.202 C 
BRANCH  26  27
ATOM     27  C   UNL A   1      31.869  33.052  26.862  1.00  0.00     0.261 C 
BRANCH  27  28
ATOM     28  O   UNL A   1      32.103  33.408  28.237  1.00  0.00    -0.460 OA
BRANCH  28  29
ATOM     29  C   UNL A   1      33.007  34.383  28.482  1.00  0.00     0.338 C 
ATOM     30  O   UNL A   1      32.782  35.575  28.616  1.00  0.00    -0.246 OA
BRANCH  29  31
ATOM     31  C   UNL A   1      34.293  33.723  28.805  1.00  0.00     0.060 A 
ATOM     32  C   UNL A   1      34.351  32.836  29.892  1.00  0.00     0.016 A 
ATOM     33  C   UNL A   1      35.426  33.943  28.018  1.00  0.00     0.016 A 
ATOM     34  C   UNL A   1      35.543  32.175  30.199  1.00  0.00     0.010 A 
ATOM     35  C   UNL A   1      36.626  33.306  28.346  1.00  0.00     0.010 A 
ATOM     36  C   UNL A   1      36.698  32.439  29.452  1.00  0.00    -0.014 A 
BRANCH  36  37
ATOM     37  C   UNL A   1      38.024  31.987  29.941  1.00  0.00     0.031 A 
ATOM     38  C   UNL A   1      38.547  30.665  29.451  1.00  0.00     0.074 A 
ATOM     39  C   UNL A   1      38.757  32.719  30.797  1.00  0.00     0.049 A 
ATOM     40  N   UNL A   1      39.633  30.021  29.792  1.00  0.00    -0.248 NA
ATOM     41  C   UNL A   1      37.730  29.978  28.437  1.00  0.00     0.031 C 
ATOM     42  C   UNL A   1      38.406  34.043  31.301  1.00  0.00     0.029 A 
ATOM     43  N   UNL A   1      39.958  32.433  31.401  1.00  0.00    -0.354 N 
ATOM     44  C   UNL A   1      39.626  28.852  29.043  1.00  0.00     0.074 A 
ATOM     45  C   UNL A   1      38.413  28.860  28.253  1.00  0.00     0.031 C 
ATOM     46  C   UNL A   1      39.369  34.454  32.146  1.00  0.00     0.029 A 
ATOM     47  C   UNL A   1      40.381  33.404  32.273  1.00  0.00     0.049 A 
ATOM     48  H   UNL A   1      40.467  31.609  31.225  1.00  0.00     0.167 HD
ATOM     49  C   UNL A   1      40.547  27.861  29.008  1.00  0.00     0.031 A 
ATOM     50  C   UNL A   1      41.449  33.436  33.097  1.00  0.00     0.031 A 
ATOM     51  C   UNL A   1      41.740  27.834  29.809  1.00  0.00     0.049 A 
ATOM     52  C   UNL A   1      42.403  32.270  33.129  1.00  0.00     0.074 A 
ATOM     53  C   UNL A   1      42.734  26.872  29.840  1.00  0.00     0.029 A 
ATOM     54  N   UNL A   1      42.097  28.809  30.728  1.00  0.00    -0.354 N 
ATOM     55  N   UNL A   1      42.394  31.172  32.412  1.00  0.00    -0.248 NA
ATOM     56  C   UNL A   1      43.520  32.352  34.084  1.00  0.00     0.031 C 
ATOM     57  C   UNL A   1      43.657  27.230  30.827  1.00  0.00     0.029 A 
ATOM     58  C   UNL A   1      43.278  28.453  31.358  1.00  0.00     0.049 A 
ATOM     59  H   UNL A   1      41.586  29.631  30.907  1.00  0.00     0.167 HD
ATOM     60  C   UNL A   1      43.511  30.445  32.811  1.00  0.00     0.074 A 
ATOM     61  C   UNL A   1      44.184  31.232  33.823  1.00  0.00     0.031 C 
ATOM     62  C   UNL A   1      43.939  29.236  32.371  1.00  0.00     0.031 A 
BRANCH  49  63
ATOM     63  C   UNL A   1      40.272  26.699  28.094  1.00  0.00    -0.014 A 
ATOM     64  C   UNL A   1      40.777  26.666  26.784  1.00  0.00     0.009 A 
ATOM     65  C   UNL A   1      39.519  25.610  28.559  1.00  0.00     0.009 A 
ATOM     66  C   UNL A   1      40.503  25.581  25.948  1.00  0.00     0.001 A 
ATOM     67  C   UNL A   1      39.275  24.513  27.733  1.00  0.00     0.001 A 
ATOM     68  C   UNL A   1      39.758  24.503  26.425  1.00  0.00     0.000 A 
ENDBRANCH  49  63
BRANCH  50  69
ATOM     69  C   UNL A   1      41.668  34.621  33.966  1.00  0.00    -0.014 A 
ATOM     70  C   UNL A   1      42.402  35.721  33.497  1.00  0.00     0.009 A 
ATOM     71  C   UNL A   1      41.123  34.673  35.260  1.00  0.00     0.009 A 
ATOM     72  C   UNL A   1      42.584  36.846  34.303  1.00  0.00     0.001 A 
ATOM     73  C   UNL A   1      41.285  35.810  36.053  1.00  0.00     0.001 A 
ATOM     74  C   UNL A   1      42.018  36.895  35.576  1.00  0.00     0.000 A 
ENDBRANCH  50  69
BRANCH  62  75
ATOM     75  C   UNL A   1      45.208  28.680  32.960  1.00  0.00    -0.014 A 
ATOM     76  C   UNL A   1      45.184  27.822  34.070  1.00  0.00     0.009 A 
ATOM     77  C   UNL A   1      46.440  28.952  32.340  1.00  0.00     0.009 A 
ATOM     78  C   UNL A   1      46.369  27.265  34.559  1.00  0.00     0.001 A 
ATOM     79  C   UNL A   1      47.618  28.369  32.812  1.00  0.00     0.001 A 
ATOM     80  C   UNL A   1      47.582  27.531  33.926  1.00  0.00     0.000 A 
ENDBRANCH  62  75
ENDBRANCH  36  37
ENDBRANCH  29  31
ENDBRANCH  28  29
ENDBRANCH  27  28
ENDBRANCH  26  27
ENDBRANCH  25  26
ENDBRANCH   1  25
TORSDOF 18
ENDMDL
MODEL 2
REMARK VINA RESULT:     -10.1      1.639      5.740
REMARK SMILES Cc1c(C)c2c(c(C)c1O)CC[C@@](C)(C(=O)OCCOCCOCCOC(=O)c1ccc(-c3c4nc(c(-c5ccccc5)c5ccc([nH]5)c(-c5ccccc5)c5nc(c(-c6ccccc6)c6ccc3[nH]6)C=C5)C=C4)cc1)O2
REMARK SMILES IDX 22 1 21 2 20 3 19 4 18 5 17 6 15 7 16 8 13 9 1 10 2 11 3 12
REMARK SMILES IDX 9 13 4 14 5 15 7 16 6 17 77 18 8 19 11 20 12 21 14 22 10 23
REMARK SMILES IDX 23 25 24 26 25 27 26 28 27 29 28 30 29 31 30 32 76 33 31 34
REMARK SMILES IDX 75 35 32 36 33 37 34 38 69 39 35 40 74 41 68 42 70 43 36 44
REMARK SMILES IDX 73 45 67 46 66 47 37 49 59 50 44 51 58 52 45 53 48 54 57 55
REMARK SMILES IDX 71 56 46 57 47 58 56 60 72 61 49 62 38 63 39 64 43 65 40 66
REMARK SMILES IDX 42 67 41 68 60 69 61 70 65 71 62 72 64 73 63 74 50 75 51 76
REMARK SMILES IDX 55 77 52 78 54 79 53 80
REMARK H PARENT 10 24 70 48 48 59
REMARK Flexibility Score: inf
ROOT
ATOM      1  C   UNL A   1      32.739  29.790  27.264  1.00  0.00     0.188 C 
ENDROOT
BRANCH   1   2
ATOM      2  C   UNL A   1      31.786  28.684  26.796  1.00  0.00     0.188 C 
BRANCH   2   3
ATOM      3  O   UNL A   1      32.266  27.347  26.710  1.00  0.00    -0.376 OA
BRANCH   3   4
ATOM      4  C   UNL A   1      33.395  27.056  25.896  1.00  0.00     0.202 C 
BRANCH   4   5
ATOM      5  C   UNL A   1      33.364  27.447  24.407  1.00  0.00     0.261 C 
BRANCH   5   6
ATOM      6  O   UNL A   1      32.548  26.651  23.515  1.00  0.00    -0.460 OA
BRANCH   6   7
ATOM      7  C   UNL A   1      33.229  25.902  22.599  1.00  0.00     0.350 C 
ATOM      8  O   UNL A   1      33.852  26.400  21.663  1.00  0.00    -0.247 OA
BRANCH   7   9
ATOM      9  C   UNL A   1      33.100  24.367  22.792  1.00  0.00     0.203 C 
ATOM     10  C   UNL A   1      37.434  20.530  24.907  1.00  0.00     0.049 C 
ATOM     11  C   UNL A   1      36.029  21.011  24.643  1.00  0.00    -0.002 A 
ATOM     12  C   UNL A   1      35.771  22.362  24.316  1.00  0.00    -0.002 A 
ATOM     13  C   UNL A   1      34.943  20.119  24.720  1.00  0.00     0.122 A 
ATOM     14  C   UNL A   1      36.881  23.386  24.325  1.00  0.00     0.049 C 
ATOM     15  C   UNL A   1      34.464  22.744  23.949  1.00  0.00     0.127 A 
ATOM     16  C   UNL A   1      33.624  20.520  24.441  1.00  0.00    -0.002 A 
ATOM     17  C   UNL A   1      33.381  21.855  24.055  1.00  0.00     0.001 A 
ATOM     18  O   UNL A   1      34.322  24.026  23.485  1.00  0.00    -0.475 OA
ATOM     19  C   UNL A   1      32.479  19.545  24.573  1.00  0.00     0.049 C 
ATOM     20  C   UNL A   1      31.982  22.323  23.731  1.00  0.00     0.044 C 
ATOM     21  C   UNL A   1      31.920  23.842  23.612  1.00  0.00     0.065 C 
ATOM     22  C   UNL A   1      33.111  23.793  21.365  1.00  0.00     0.069 C 
BRANCH  13  23
ATOM     23  O   UNL A   1      35.125  18.806  25.076  1.00  0.00    -0.507 OA
ATOM     24  H   UNL A   1      35.855  18.563  25.610  1.00  0.00     0.293 HD
ENDBRANCH  13  23
ENDBRANCH   7   9
ENDBRANCH   6   7
ENDBRANCH   5   6
ENDBRANCH   4   5
ENDBRANCH   3   4
ENDBRANCH   2   3
ENDBRANCH   1   2
BRANCH   1  25
ATOM     25  O   UNL A   1      32.672  30.974  26.502  1.00  0.00    -0.376 OA
BRANCH  25  26
ATOM     26  C   UNL A   1      31.617  31.875  26.759  1.00  0.00     0.202 C 
BRANCH  26  27
ATOM     27  C   UNL A   1      32.013  33.348  26.921  1.00  0.00     0.261 C 
BRANCH  27  28
ATOM     28  O   UNL A   1      32.411  33.751  28.244  1.00  0.00    -0.460 OA
BRANCH  28  29
ATOM     29  C   UNL A   1      33.512  34.529  28.352  1.00  0.00     0.338 C 
ATOM     30  O   UNL A   1      33.554  35.748  28.331  1.00  0.00    -0.246 OA
BRANCH  29  31
ATOM     31  C   UNL A   1      34.637  33.650  28.750  1.00  0.00     0.060 A 
ATOM     32  C   UNL A   1      34.358  32.364  29.238  1.00  0.00     0.016 A 
ATOM     33  C   UNL A   1      35.959  34.074  28.604  1.00  0.00     0.016 A 
ATOM     34  C   UNL A   1      35.400  31.502  29.590  1.00  0.00     0.010 A 
ATOM     35  C   UNL A   1      37.001  33.224  28.986  1.00  0.00     0.010 A 
ATOM     36  C   UNL A   1      36.726  31.944  29.504  1.00  0.00    -0.014 A 
BRANCH  36  37
ATOM     37  C   UNL A   1      37.816  31.168  30.147  1.00  0.00     0.031 A 
ATOM     38  C   UNL A   1      38.115  31.433  31.596  1.00  0.00     0.074 A 
ATOM     39  C   UNL A   1      38.530  30.248  29.476  1.00  0.00     0.049 A 
ATOM     40  N   UNL A   1      39.064  30.945  32.353  1.00  0.00    -0.248 NA
ATOM     41  C   UNL A   1      37.220  32.378  32.283  1.00  0.00     0.031 C 
ATOM     42  C   UNL A   1      38.306  29.842  28.091  1.00  0.00     0.029 A 
ATOM     43  N   UNL A   1      39.604  29.493  29.881  1.00  0.00    -0.354 N 
ATOM     44  C   UNL A   1      38.884  31.529  33.601  1.00  0.00     0.074 A 
ATOM     45  C   UNL A   1      37.758  32.430  33.491  1.00  0.00     0.031 C 
ATOM     46  C   UNL A   1      39.223  28.916  27.758  1.00  0.00     0.029 A 
ATOM     47  C   UNL A   1      40.121  28.694  28.892  1.00  0.00     0.049 A 
ATOM     48  H   UNL A   1      39.969  29.523  30.795  1.00  0.00     0.167 HD
ATOM     49  C   UNL A   1      39.589  31.331  34.739  1.00  0.00     0.031 A 
ATOM     50  C   UNL A   1      41.206  27.893  28.893  1.00  0.00     0.031 A 
ATOM     51  C   UNL A   1      40.726  30.457  34.848  1.00  0.00     0.049 A 
ATOM     52  C   UNL A   1      42.048  27.774  30.137  1.00  0.00     0.074 A 
ATOM     53  C   UNL A   1      41.502  30.192  35.962  1.00  0.00     0.029 A 
ATOM     54  N   UNL A   1      41.255  29.716  33.803  1.00  0.00    -0.354 N 
ATOM     55  N   UNL A   1      41.868  28.323  31.315  1.00  0.00    -0.248 NA
ATOM     56  C   UNL A   1      43.242  26.918  30.053  1.00  0.00     0.031 C 
ATOM     57  C   UNL A   1      42.543  29.343  35.575  1.00  0.00     0.029 A 
ATOM     58  C   UNL A   1      42.371  29.020  34.238  1.00  0.00     0.049 A 
ATOM     59  H   UNL A   1      40.893  29.689  32.888  1.00  0.00     0.167 HD
ATOM     60  C   UNL A   1      42.908  27.864  32.115  1.00  0.00     0.074 A 
ATOM     61  C   UNL A   1      43.709  26.979  31.295  1.00  0.00     0.031 C 
ATOM     62  C   UNL A   1      43.170  28.148  33.414  1.00  0.00     0.031 A 
BRANCH  49  63
ATOM     63  C   UNL A   1      39.167  32.112  35.953  1.00  0.00    -0.014 A 
ATOM     64  C   UNL A   1      39.733  33.362  36.250  1.00  0.00     0.009 A 
ATOM     65  C   UNL A   1      38.169  31.600  36.797  1.00  0.00     0.009 A 
ATOM     66  C   UNL A   1      39.333  34.066  37.388  1.00  0.00     0.001 A 
ATOM     67  C   UNL A   1      37.748  32.322  37.915  1.00  0.00     0.001 A 
ATOM     68  C   UNL A   1      38.337  33.548  38.215  1.00  0.00     0.000 A 
ENDBRANCH  49  63
BRANCH  50  69
ATOM     69  C   UNL A   1      41.560  27.139  27.662  1.00  0.00    -0.014 A 
ATOM     70  C   UNL A   1      40.979  25.889  27.402  1.00  0.00     0.009 A 
ATOM     71  C   UNL A   1      42.460  27.676  26.726  1.00  0.00     0.009 A 
ATOM     72  C   UNL A   1      41.290  25.194  26.232  1.00  0.00     0.001 A 
ATOM     73  C   UNL A   1      42.748  26.990  25.545  1.00  0.00     0.001 A 
ATOM     74  C   UNL A   1      42.166  25.748  25.299  1.00  0.00     0.000 A 
ENDBRANCH  50  69
BRANCH  62  75
ATOM     75  C   UNL A   1      44.362  27.488  34.055  1.00  0.00    -0.014 A 
ATOM     76  C   UNL A   1      45.614  28.119  34.092  1.00  0.00     0.009 A 
ATOM     77  C   UNL A   1      44.207  26.252  34.706  1.00  0.00     0.009 A 
ATOM     78  C   UNL A   1      46.691  27.518  34.749  1.00  0.00     0.001 A 
ATOM     79  C   UNL A   1      45.275  25.669  35.390  1.00  0.00     0.001 A 
ATOM     80  C   UNL A   1      46.519  26.298  35.404  1.00  0.00     0.000 A 
ENDBRANCH  62  75
ENDBRANCH  36  37
ENDBRANCH  29  31
ENDBRANCH  28  29
ENDBRANCH  27  28
ENDBRANCH  26  27
ENDBRANCH  25  26
ENDBRANCH   1  25
TORSDOF 18
ENDMDL
MODEL 3
REMARK VINA RESULT:     -10.1      2.828      8.630
REMARK SMILES Cc1c(C)c2c(c(C)c1O)CC[C@@](C)(C(=O)OCCOCCOCCOC(=O)c1ccc(-c3c4nc(c(-c5ccccc5)c5ccc([nH]5)c(-c5ccccc5)c5nc(c(-c6ccccc6)c6ccc3[nH]6)C=C5)C=C4)cc1)O2
REMARK SMILES IDX 22 1 21 2 20 3 19 4 18 5 17 6 15 7 16 8 13 9 1 10 2 11 3 12
REMARK SMILES IDX 9 13 4 14 5 15 7 16 6 17 77 18 8 19 11 20 12 21 14 22 10 23
REMARK SMILES IDX 23 25 24 26 25 27 26 28 27 29 28 30 29 31 30 32 76 33 31 34
REMARK SMILES IDX 75 35 32 36 33 37 34 38 69 39 35 40 74 41 68 42 70 43 36 44
REMARK SMILES IDX 73 45 67 46 66 47 37 49 59 50 44 51 58 52 45 53 48 54 57 55
REMARK SMILES IDX 71 56 46 57 47 58 56 60 72 61 49 62 38 63 39 64 43 65 40 66
REMARK SMILES IDX 42 67 41 68 60 69 61 70 65 71 62 72 64 73 63 74 50 75 51 76
REMARK SMILES IDX 55 77 52 78 54 79 53 80
REMARK H PARENT 10 24 70 48 48 59
REMARK Flexibility Score: inf
ROOT
ATOM      1  C   UNL A   1      40.056  21.580  26.827  1.00  0.00     0.188 C 
ENDROOT
BRANCH   1   2
ATOM      2  C   UNL A   1      38.875  22.236  26.102  1.00  0.00     0.188 C 
BRANCH   2   3
ATOM      3  O   UNL A   1      37.847  21.410  25.565  1.00  0.00    -0.376 OA
BRANCH   3   4
ATOM      4  C   UNL A   1      36.903  21.962  24.658  1.00  0.00     0.202 C 
BRANCH   4   5
ATOM      5  C   UNL A   1      35.434  21.507  24.739  1.00  0.00     0.261 C 
BRANCH   5   6
ATOM      6  O   UNL A   1      34.505  22.346  25.468  1.00  0.00    -0.460 OA
BRANCH   6   7
ATOM      7  C   UNL A   1      33.513  22.915  24.723  1.00  0.00     0.350 C 
ATOM      8  O   UNL A   1      32.684  22.254  24.101  1.00  0.00    -0.247 OA
BRANCH   7   9
ATOM      9  C   UNL A   1      33.553  24.466  24.666  1.00  0.00     0.203 C 
ATOM     10  C   UNL A   1      28.929  28.231  23.109  1.00  0.00     0.049 C 
ATOM     11  C   UNL A   1      30.205  27.830  23.807  1.00  0.00    -0.002 A 
ATOM     12  C   UNL A   1      30.563  26.470  23.949  1.00  0.00    -0.002 A 
ATOM     13  C   UNL A   1      31.068  28.810  24.334  1.00  0.00     0.122 A 
ATOM     14  C   UNL A   1      29.626  25.373  23.499  1.00  0.00     0.049 C 
ATOM     15  C   UNL A   1      31.823  26.142  24.489  1.00  0.00     0.127 A 
ATOM     16  C   UNL A   1      32.286  28.479  24.955  1.00  0.00    -0.002 A 
ATOM     17  C   UNL A   1      32.666  27.123  25.038  1.00  0.00     0.001 A 
ATOM     18  O   UNL A   1      32.170  24.816  24.441  1.00  0.00    -0.475 OA
ATOM     19  C   UNL A   1      33.166  29.554  25.545  1.00  0.00     0.049 C 
ATOM     20  C   UNL A   1      33.973  26.725  25.682  1.00  0.00     0.044 C 
ATOM     21  C   UNL A   1      34.044  25.218  25.905  1.00  0.00     0.065 C 
ATOM     22  C   UNL A   1      34.400  24.788  23.423  1.00  0.00     0.069 C 
BRANCH  13  23
ATOM     23  O   UNL A   1      30.754  30.144  24.267  1.00  0.00    -0.507 OA
ATOM     24  H   UNL A   1      31.172  30.753  24.843  1.00  0.00     0.293 HD
ENDBRANCH  13  23
ENDBRANCH   7   9
ENDBRANCH   6   7
ENDBRANCH   5   6
ENDBRANCH   4   5
ENDBRANCH   3   4
ENDBRANCH   2   3
ENDBRANCH   1   2
BRANCH   1  25
ATOM     25  O   UNL A   1      40.900  20.822  25.992  1.00  0.00    -0.376 OA
BRANCH  25  26
ATOM     26  C   UNL A   1      42.269  20.737  26.326  1.00  0.00     0.202 C 
BRANCH  26  27
ATOM     27  C   UNL A   1      43.224  21.588  25.479  1.00  0.00     0.261 C 
BRANCH  27  28
ATOM     28  O   UNL A   1      42.717  22.864  25.049  1.00  0.00    -0.460 OA
BRANCH  28  29
ATOM     29  C   UNL A   1      43.556  23.923  25.122  1.00  0.00     0.338 C 
ATOM     30  O   UNL A   1      44.517  24.147  24.405  1.00  0.00    -0.246 OA
BRANCH  29  31
ATOM     31  C   UNL A   1      42.960  24.895  26.068  1.00  0.00     0.060 A 
ATOM     32  C   UNL A   1      43.403  26.226  26.048  1.00  0.00     0.016 A 
ATOM     33  C   UNL A   1      41.942  24.507  26.942  1.00  0.00     0.016 A 
ATOM     34  C   UNL A   1      42.836  27.171  26.907  1.00  0.00     0.010 A 
ATOM     35  C   UNL A   1      41.397  25.445  27.823  1.00  0.00     0.010 A 
ATOM     36  C   UNL A   1      41.858  26.775  27.828  1.00  0.00    -0.014 A 
BRANCH  36  37
ATOM     37  C   UNL A   1      41.466  27.680  28.937  1.00  0.00     0.031 A 
ATOM     38  C   UNL A   1      42.244  27.607  30.221  1.00  0.00     0.074 A 
ATOM     39  C   UNL A   1      40.447  28.550  28.822  1.00  0.00     0.049 A 
ATOM     40  N   UNL A   1      42.044  28.232  31.352  1.00  0.00    -0.248 NA
ATOM     41  C   UNL A   1      43.406  26.704  30.226  1.00  0.00     0.031 C 
ATOM     42  C   UNL A   1      39.651  28.774  27.619  1.00  0.00     0.029 A 
ATOM     43  N   UNL A   1      39.905  29.404  29.752  1.00  0.00    -0.354 N 
ATOM     44  C   UNL A   1      43.048  27.793  32.205  1.00  0.00     0.074 A 
ATOM     45  C   UNL A   1      43.836  26.826  31.472  1.00  0.00     0.031 C 
ATOM     46  C   UNL A   1      38.715  29.702  27.886  1.00  0.00     0.029 A 
ATOM     47  C   UNL A   1      38.820  30.106  29.289  1.00  0.00     0.049 A 
ATOM     48  H   UNL A   1      40.261  29.504  30.665  1.00  0.00     0.167 HD
ATOM     49  C   UNL A   1      43.299  28.163  33.482  1.00  0.00     0.031 A 
ATOM     50  C   UNL A   1      37.992  30.958  29.928  1.00  0.00     0.031 A 
ATOM     51  C   UNL A   1      42.504  29.104  34.225  1.00  0.00     0.049 A 
ATOM     52  C   UNL A   1      38.218  31.271  31.384  1.00  0.00     0.074 A 
ATOM     53  C   UNL A   1      42.683  29.542  35.526  1.00  0.00     0.029 A 
ATOM     54  N   UNL A   1      41.374  29.742  33.738  1.00  0.00    -0.354 N 
ATOM     55  N   UNL A   1      39.174  30.857  32.181  1.00  0.00    -0.248 NA
ATOM     56  C   UNL A   1      37.250  32.173  32.028  1.00  0.00     0.031 C 
ATOM     57  C   UNL A   1      41.622  30.393  35.848  1.00  0.00     0.029 A 
ATOM     58  C   UNL A   1      40.824  30.544  34.724  1.00  0.00     0.049 A 
ATOM     59  H   UNL A   1      41.016  29.639  32.827  1.00  0.00     0.167 HD
ATOM     60  C   UNL A   1      38.938  31.464  33.410  1.00  0.00     0.074 A 
ATOM     61  C   UNL A   1      37.756  32.286  33.251  1.00  0.00     0.031 C 
ATOM     62  C   UNL A   1      39.642  31.353  34.563  1.00  0.00     0.031 A 
BRANCH  49  63
ATOM     63  C   UNL A   1      44.467  27.512  34.170  1.00  0.00    -0.014 A 
ATOM     64  C   UNL A   1      44.323  26.299  34.862  1.00  0.00     0.009 A 
ATOM     65  C   UNL A   1      45.735  28.110  34.103  1.00  0.00     0.009 A 
ATOM     66  C   UNL A   1      45.419  25.715  35.502  1.00  0.00     0.001 A 
ATOM     67  C   UNL A   1      46.835  27.507  34.715  1.00  0.00     0.001 A 
ATOM     68  C   UNL A   1      46.675  26.317  35.422  1.00  0.00     0.000 A 
ENDBRANCH  49  63
BRANCH  50  69
ATOM     69  C   UNL A   1      36.863  31.577  29.184  1.00  0.00    -0.014 A 
ATOM     70  C   UNL A   1      35.666  30.872  28.994  1.00  0.00     0.009 A 
ATOM     71  C   UNL A   1      36.966  32.886  28.684  1.00  0.00     0.009 A 
ATOM     72  C   UNL A   1      34.595  31.463  28.320  1.00  0.00     0.001 A 
ATOM     73  C   UNL A   1      35.884  33.483  28.034  1.00  0.00     0.001 A 
ATOM     74  C   UNL A   1      34.701  32.772  27.850  1.00  0.00     0.000 A 
ENDBRANCH  50  69
BRANCH  62  75
ATOM     75  C   UNL A   1      39.177  32.148  35.754  1.00  0.00    -0.014 A 
ATOM     76  C   UNL A   1      39.592  33.472  35.955  1.00  0.00     0.009 A 
ATOM     77  C   UNL A   1      38.241  31.589  36.641  1.00  0.00     0.009 A 
ATOM     78  C   UNL A   1      39.096  34.214  37.031  1.00  0.00     0.001 A 
ATOM     79  C   UNL A   1      37.723  32.342  37.696  1.00  0.00     0.001 A 
ATOM     80  C   UNL A   1      38.157  33.652  37.895  1.00  0.00     0.000 A 
ENDBRANCH  62  75
ENDBRANCH  36  37
ENDBRANCH  29  31
ENDBRANCH  28  29
ENDBRANCH  27  28
ENDBRANCH  26  27
ENDBRANCH  25  26
ENDBRANCH   1  25
TORSDOF 18
ENDMDL
