MODEL 1
REMARK VINA RESULT:     -10.6      0.000      0.000
REMARK SMILES Cc1ccc(C(=O)OCCOCCOCCOC(=O)c2ccc(-c3c4nc(c(-c5ccccc5)c5ccc([nH]5)c(-c5ccccc5)c5nc(c(-c6ccccc6)c6ccc3[nH]6)C=C5)C=C4)cc2)c2c1N[C@H](c1ccccc1F)[C@H]1CC=C[C@@H]21
REMARK SMILES IDX 13 1 12 2 11 3 10 4 9 5 8 6 6 7 7 8 5 9 1 10 2 11 3 12 69 13
REMARK SMILES IDX 4 14 68 15 70 16 83 17 71 18 79 20 82 21 80 22 81 23 72 24
REMARK SMILES IDX 73 25 77 26 74 27 76 28 78 29 75 30 14 31 15 32 16 33 17 34
REMARK SMILES IDX 18 35 19 36 20 37 21 38 67 39 22 40 66 41 23 42 24 43 25 44
REMARK SMILES IDX 60 45 26 46 65 47 59 48 61 49 27 50 64 51 58 52 57 53 28 55
REMARK SMILES IDX 50 56 35 57 49 58 36 59 39 60 48 61 62 62 37 63 38 64 47 66
REMARK SMILES IDX 63 67 40 68 29 69 30 70 34 71 31 72 33 73 32 74 51 75 52 76
REMARK SMILES IDX 56 77 53 78 55 79 54 80 41 81 42 82 46 83 43 84 45 85 44 86
REMARK H PARENT 70 19 61 54 39 65
REMARK Flexibility Score: inf
ROOT
ATOM      1  C   UNL A   1      31.074  28.904  24.329  1.00  0.00     0.188 C 
ENDROOT
BRANCH   1   2
ATOM      2  C   UNL A   1      30.984  27.381  24.570  1.00  0.00     0.188 C 
BRANCH   2   3
ATOM      3  O   UNL A   1      31.137  26.604  23.395  1.00  0.00    -0.376 OA
BRANCH   3   4
ATOM      4  C   UNL A   1      32.258  25.734  23.368  1.00  0.00     0.202 C 
BRANCH   4   5
ATOM      5  C   UNL A   1      33.650  26.374  23.498  1.00  0.00     0.261 C 
BRANCH   5   6
ATOM      6  O   UNL A   1      34.713  25.469  23.849  1.00  0.00    -0.460 OA
BRANCH   6   7
ATOM      7  C   UNL A   1      34.833  25.090  25.146  1.00  0.00     0.338 C 
ATOM      8  O   UNL A   1      34.335  25.657  26.096  1.00  0.00    -0.246 OA
BRANCH   7   9
ATOM      9  C   UNL A   1      35.651  23.836  25.198  1.00  0.00     0.065 A 
ATOM     10  C   UNL A   1      38.311  20.441  25.478  1.00  0.00     0.046 C 
ATOM     11  C   UNL A   1      37.335  21.582  25.340  1.00  0.00    -0.028 A 
ATOM     12  C   UNL A   1      37.864  22.880  25.415  1.00  0.00     0.006 A 
ATOM     13  C   UNL A   1      35.952  21.399  25.112  1.00  0.00     0.042 A 
ATOM     14  C   UNL A   1      37.034  23.994  25.351  1.00  0.00     0.016 A 
ATOM     15  C   UNL A   1      35.097  22.535  25.054  1.00  0.00    -0.003 A 
ATOM     16  N   UNL A   1      35.432  20.119  24.938  1.00  0.00    -0.377 N 
ATOM     17  C   UNL A   1      33.643  22.341  24.676  1.00  0.00     0.050 C 
ATOM     18  C   UNL A   1      34.004  19.878  25.084  1.00  0.00     0.117 C 
ATOM     19  H   UNL A   1      36.034  19.373  24.715  1.00  0.00     0.161 HD
ATOM     20  C   UNL A   1      33.259  20.914  24.226  1.00  0.00     0.031 C 
ATOM     21  C   UNL A   1      32.606  22.606  25.729  1.00  0.00    -0.023 C 
ATOM     22  C   UNL A   1      31.735  20.873  24.426  1.00  0.00     0.034 C 
ATOM     23  C   UNL A   1      31.534  21.822  25.560  1.00  0.00    -0.030 C 
BRANCH  18  24
ATOM     24  C   UNL A   1      33.698  18.406  24.833  1.00  0.00     0.010 A 
ATOM     25  C   UNL A   1      34.274  17.782  23.709  1.00  0.00     0.009 A 
ATOM     26  C   UNL A   1      32.926  17.604  25.683  1.00  0.00     0.128 A 
ATOM     27  C   UNL A   1      34.121  16.409  23.483  1.00  0.00     0.001 A 
ATOM     28  C   UNL A   1      32.777  16.234  25.470  1.00  0.00     0.039 A 
ATOM     29  F   UNL A   1      32.328  18.124  26.761  1.00  0.00    -0.207 F 
ATOM     30  C   UNL A   1      33.384  15.632  24.373  1.00  0.00     0.003 A 
ENDBRANCH  18  24
ENDBRANCH   7   9
ENDBRANCH   6   7
ENDBRANCH   5   6
ENDBRANCH   4   5
ENDBRANCH   3   4
ENDBRANCH   2   3
ENDBRANCH   1   2
BRANCH   1  31
ATOM     31  O   UNL A   1      32.036  29.675  25.034  1.00  0.00    -0.376 OA
BRANCH  31  32
ATOM     32  C   UNL A   1      31.852  29.881  26.428  1.00  0.00     0.202 C 
BRANCH  32  33
ATOM     33  C   UNL A   1      32.679  30.965  27.142  1.00  0.00     0.261 C 
BRANCH  33  34
ATOM     34  O   UNL A   1      34.105  30.773  27.123  1.00  0.00    -0.460 OA
BRANCH  34  35
ATOM     35  C   UNL A   1      34.761  31.122  28.258  1.00  0.00     0.338 C 
ATOM     36  O   UNL A   1      34.377  31.866  29.142  1.00  0.00    -0.246 OA
BRANCH  35  37
ATOM     37  C   UNL A   1      36.014  30.349  28.368  1.00  0.00     0.060 A 
ATOM     38  C   UNL A   1      36.302  29.701  29.574  1.00  0.00     0.016 A 
ATOM     39  C   UNL A   1      36.952  30.358  27.334  1.00  0.00     0.016 A 
ATOM     40  C   UNL A   1      37.524  29.054  29.745  1.00  0.00     0.010 A 
ATOM     41  C   UNL A   1      38.194  29.734  27.520  1.00  0.00     0.010 A 
ATOM     42  C   UNL A   1      38.491  29.093  28.733  1.00  0.00    -0.014 A 
BRANCH  42  43
ATOM     43  C   UNL A   1      39.861  28.620  29.040  1.00  0.00     0.031 A 
ATOM     44  C   UNL A   1      40.747  29.484  29.891  1.00  0.00     0.074 A 
ATOM     45  C   UNL A   1      40.293  27.410  28.641  1.00  0.00     0.049 A 
ATOM     46  N   UNL A   1      41.984  29.283  30.265  1.00  0.00    -0.248 NA
ATOM     47  C   UNL A   1      40.158  30.737  30.394  1.00  0.00     0.031 C 
ATOM     48  C   UNL A   1      39.501  26.435  27.897  1.00  0.00     0.029 A 
ATOM     49  N   UNL A   1      41.503  26.787  28.832  1.00  0.00    -0.354 N 
ATOM     50  C   UNL A   1      42.325  30.387  31.034  1.00  0.00     0.074 A 
ATOM     51  C   UNL A   1      41.168  31.253  31.080  1.00  0.00     0.031 C 
ATOM     52  C   UNL A   1      40.235  25.322  27.722  1.00  0.00     0.029 A 
ATOM     53  C   UNL A   1      41.567  25.528  28.289  1.00  0.00     0.049 A 
ATOM     54  H   UNL A   1      42.253  27.206  29.312  1.00  0.00     0.167 HD
ATOM     55  C   UNL A   1      43.502  30.660  31.639  1.00  0.00     0.031 A 
ATOM     56  C   UNL A   1      42.588  24.649  28.237  1.00  0.00     0.031 A 
ATOM     57  C   UNL A   1      44.660  29.815  31.582  1.00  0.00     0.049 A 
ATOM     58  C   UNL A   1      43.922  25.022  28.826  1.00  0.00     0.074 A 
ATOM     59  C   UNL A   1      45.908  30.034  32.139  1.00  0.00     0.029 A 
ATOM     60  N   UNL A   1      44.716  28.596  30.929  1.00  0.00    -0.354 N 
ATOM     61  N   UNL A   1      44.250  26.091  29.511  1.00  0.00    -0.248 NA
ATOM     62  C   UNL A   1      45.034  24.081  28.617  1.00  0.00     0.031 C 
ATOM     63  C   UNL A   1      46.735  28.967  31.782  1.00  0.00     0.029 A 
ATOM     64  C   UNL A   1      45.986  28.059  31.052  1.00  0.00     0.049 A 
ATOM     65  H   UNL A   1      43.967  28.174  30.449  1.00  0.00     0.167 HD
ATOM     66  C   UNL A   1      45.598  25.950  29.816  1.00  0.00     0.074 A 
ATOM     67  C   UNL A   1      46.027  24.685  29.259  1.00  0.00     0.031 C 
ATOM     68  C   UNL A   1      46.405  26.800  30.495  1.00  0.00     0.031 A 
BRANCH  55  69
ATOM     69  C   UNL A   1      43.618  31.955  32.386  1.00  0.00    -0.014 A 
ATOM     70  C   UNL A   1      44.004  33.134  31.734  1.00  0.00     0.009 A 
ATOM     71  C   UNL A   1      43.252  32.006  33.740  1.00  0.00     0.009 A 
ATOM     72  C   UNL A   1      44.026  34.344  32.428  1.00  0.00     0.001 A 
ATOM     73  C   UNL A   1      43.256  33.221  34.425  1.00  0.00     0.001 A 
ATOM     74  C   UNL A   1      43.642  34.388  33.770  1.00  0.00     0.000 A 
ENDBRANCH  55  69
BRANCH  56  75
ATOM     75  C   UNL A   1      42.396  23.337  27.565  1.00  0.00    -0.014 A 
ATOM     76  C   UNL A   1      42.747  23.167  26.217  1.00  0.00     0.009 A 
ATOM     77  C   UNL A   1      41.879  22.241  28.275  1.00  0.00     0.009 A 
ATOM     78  C   UNL A   1      42.586  21.925  25.596  1.00  0.00     0.001 A 
ATOM     79  C   UNL A   1      41.742  20.996  27.658  1.00  0.00     0.001 A 
ATOM     80  C   UNL A   1      42.092  20.840  26.318  1.00  0.00     0.000 A 
ENDBRANCH  56  75
BRANCH  68  81
ATOM     81  C   UNL A   1      47.841  26.413  30.698  1.00  0.00    -0.014 A 
ATOM     82  C   UNL A   1      48.250  25.753  31.865  1.00  0.00     0.009 A 
ATOM     83  C   UNL A   1      48.760  26.581  29.648  1.00  0.00     0.009 A 
ATOM     84  C   UNL A   1      49.554  25.267  31.978  1.00  0.00     0.001 A 
ATOM     85  C   UNL A   1      50.056  26.075  29.756  1.00  0.00     0.001 A 
ATOM     86  C   UNL A   1      50.452  25.418  30.920  1.00  0.00     0.000 A 
ENDBRANCH  68  81
ENDBRANCH  42  43
ENDBRANCH  35  37
ENDBRANCH  34  35
ENDBRANCH  33  34
ENDBRANCH  32  33
ENDBRANCH  31  32
ENDBRANCH   1  31
TORSDOF 18
ENDMDL
MODEL 2
REMARK VINA RESULT:     -10.4      4.592     10.015
REMARK SMILES Cc1ccc(C(=O)OCCOCCOCCOC(=O)c2ccc(-c3c4nc(c(-c5ccccc5)c5ccc([nH]5)c(-c5ccccc5)c5nc(c(-c6ccccc6)c6ccc3[nH]6)C=C5)C=C4)cc2)c2c1N[C@H](c1ccccc1F)[C@H]1CC=C[C@@H]21
REMARK SMILES IDX 13 1 12 2 11 3 10 4 9 5 8 6 6 7 7 8 5 9 1 10 2 11 3 12 69 13
REMARK SMILES IDX 4 14 68 15 70 16 83 17 71 18 79 20 82 21 80 22 81 23 72 24
REMARK SMILES IDX 73 25 77 26 74 27 76 28 78 29 75 30 14 31 15 32 16 33 17 34
REMARK SMILES IDX 18 35 19 36 20 37 21 38 67 39 22 40 66 41 23 42 24 43 25 44
REMARK SMILES IDX 60 45 26 46 65 47 59 48 61 49 27 50 64 51 58 52 57 53 28 55
REMARK SMILES IDX 50 56 35 57 49 58 36 59 39 60 48 61 62 62 37 63 38 64 47 66
REMARK SMILES IDX 63 67 40 68 29 69 30 70 34 71 31 72 33 73 32 74 51 75 52 76
REMARK SMILES IDX 56 77 53 78 55 79 54 80 41 81 42 82 46 83 43 84 45 85 44 86
REMARK H PARENT 70 19 61 54 39 65
REMARK Flexibility Score: inf
ROOT
ATOM      1  C   UNL A   1      33.895  35.271  30.941  1.00  0.00     0.188 C 
ENDROOT
BRANCH   1   2
ATOM      2  C   UNL A   1      34.095  33.963  31.737  1.00  0.00     0.188 C 
BRANCH   2   3
ATOM      3  O   UNL A   1      33.870  34.099  33.129  1.00  0.00    -0.376 OA
BRANCH   3   4
ATOM      4  C   UNL A   1      34.813  33.458  33.976  1.00  0.00     0.202 C 
BRANCH   4   5
ATOM      5  C   UNL A   1      35.856  32.549  33.307  1.00  0.00     0.261 C 
BRANCH   5   6
ATOM      6  O   UNL A   1      37.120  32.458  33.989  1.00  0.00    -0.460 OA
BRANCH   6   7
ATOM      7  C   UNL A   1      38.256  32.626  33.266  1.00  0.00     0.338 C 
ATOM      8  O   UNL A   1      38.311  33.030  32.123  1.00  0.00    -0.246 OA
BRANCH   7   9
ATOM      9  C   UNL A   1      39.425  32.263  34.129  1.00  0.00     0.065 A 
ATOM     10  C   UNL A   1      42.734  31.555  36.818  1.00  0.00     0.046 C 
ATOM     11  C   UNL A   1      41.606  31.746  35.835  1.00  0.00    -0.028 A 
ATOM     12  C   UNL A   1      41.020  33.020  35.784  1.00  0.00     0.006 A 
ATOM     13  C   UNL A   1      41.151  30.728  34.966  1.00  0.00     0.042 A 
ATOM     14  C   UNL A   1      39.940  33.277  34.947  1.00  0.00     0.016 A 
ATOM     15  C   UNL A   1      40.041  30.982  34.113  1.00  0.00    -0.003 A 
ATOM     16  N   UNL A   1      41.789  29.491  34.939  1.00  0.00    -0.377 N 
ATOM     17  C   UNL A   1      39.646  29.937  33.091  1.00  0.00     0.050 C 
ATOM     18  C   UNL A   1      41.126  28.333  34.356  1.00  0.00     0.117 C 
ATOM     19  H   UNL A   1      42.694  29.399  35.315  1.00  0.00     0.161 HD
ATOM     20  C   UNL A   1      40.608  28.735  32.965  1.00  0.00     0.031 C 
ATOM     21  C   UNL A   1      38.329  29.240  33.277  1.00  0.00    -0.023 C 
ATOM     22  C   UNL A   1      39.739  27.647  32.312  1.00  0.00     0.034 C 
ATOM     23  C   UNL A   1      38.373  27.988  32.806  1.00  0.00    -0.030 C 
BRANCH  18  24
ATOM     24  C   UNL A   1      42.039  27.116  34.442  1.00  0.00     0.010 A 
ATOM     25  C   UNL A   1      43.148  27.044  33.576  1.00  0.00     0.009 A 
ATOM     26  C   UNL A   1      41.887  26.080  35.372  1.00  0.00     0.128 A 
ATOM     27  C   UNL A   1      44.084  26.008  33.679  1.00  0.00     0.001 A 
ATOM     28  C   UNL A   1      42.820  25.050  35.488  1.00  0.00     0.039 A 
ATOM     29  F   UNL A   1      40.850  26.062  36.217  1.00  0.00    -0.207 F 
ATOM     30  C   UNL A   1      43.927  25.018  34.646  1.00  0.00     0.003 A 
ENDBRANCH  18  24
ENDBRANCH   7   9
ENDBRANCH   6   7
ENDBRANCH   5   6
ENDBRANCH   4   5
ENDBRANCH   3   4
ENDBRANCH   2   3
ENDBRANCH   1   2
BRANCH   1  31
ATOM     31  O   UNL A   1      34.205  35.310  29.555  1.00  0.00    -0.376 OA
BRANCH  31  32
ATOM     32  C   UNL A   1      33.637  34.323  28.704  1.00  0.00     0.202 C 
BRANCH  32  33
ATOM     33  C   UNL A   1      34.541  33.220  28.126  1.00  0.00     0.261 C 
BRANCH  33  34
ATOM     34  O   UNL A   1      34.421  31.928  28.748  1.00  0.00    -0.460 OA
BRANCH  34  35
ATOM     35  C   UNL A   1      34.524  30.862  27.915  1.00  0.00     0.338 C 
ATOM     36  O   UNL A   1      33.742  30.517  27.048  1.00  0.00    -0.246 OA
BRANCH  35  37
ATOM     37  C   UNL A   1      35.831  30.203  28.106  1.00  0.00     0.060 A 
ATOM     38  C   UNL A   1      36.125  29.637  29.351  1.00  0.00     0.016 A 
ATOM     39  C   UNL A   1      36.804  30.244  27.105  1.00  0.00     0.016 A 
ATOM     40  C   UNL A   1      37.388  29.104  29.595  1.00  0.00     0.010 A 
ATOM     41  C   UNL A   1      38.084  29.735  27.364  1.00  0.00     0.010 A 
ATOM     42  C   UNL A   1      38.387  29.177  28.617  1.00  0.00    -0.014 A 
BRANCH  42  43
ATOM     43  C   UNL A   1      39.779  28.836  28.993  1.00  0.00     0.031 A 
ATOM     44  C   UNL A   1      40.309  27.478  28.633  1.00  0.00     0.074 A 
ATOM     45  C   UNL A   1      40.591  29.738  29.573  1.00  0.00     0.049 A 
ATOM     46  N   UNL A   1      41.483  26.958  28.880  1.00  0.00    -0.248 NA
ATOM     47  C   UNL A   1      39.400  26.592  27.886  1.00  0.00     0.031 C 
ATOM     48  C   UNL A   1      40.232  31.118  29.884  1.00  0.00     0.029 A 
ATOM     49  N   UNL A   1      41.899  29.629  29.980  1.00  0.00    -0.354 N 
ATOM     50  C   UNL A   1      41.449  25.682  28.334  1.00  0.00     0.074 A 
ATOM     51  C   UNL A   1      40.143  25.505  27.737  1.00  0.00     0.031 C 
ATOM     52  C   UNL A   1      41.306  31.739  30.404  1.00  0.00     0.029 A 
ATOM     53  C   UNL A   1      42.408  30.785  30.517  1.00  0.00     0.049 A 
ATOM     54  H   UNL A   1      42.421  28.798  29.894  1.00  0.00     0.167 HD
ATOM     55  C   UNL A   1      42.415  24.738  28.340  1.00  0.00     0.031 A 
ATOM     56  C   UNL A   1      43.617  31.040  31.057  1.00  0.00     0.031 A 
ATOM     57  C   UNL A   1      43.705  24.899  28.947  1.00  0.00     0.049 A 
ATOM     58  C   UNL A   1      44.639  29.938  31.148  1.00  0.00     0.074 A 
ATOM     59  C   UNL A   1      44.734  23.977  29.030  1.00  0.00     0.029 A 
ATOM     60  N   UNL A   1      44.143  26.051  29.578  1.00  0.00    -0.354 N 
ATOM     61  N   UNL A   1      44.580  28.719  30.670  1.00  0.00    -0.248 NA
ATOM     62  C   UNL A   1      45.886  30.239  31.870  1.00  0.00     0.031 C 
ATOM     63  C   UNL A   1      45.778  24.556  29.753  1.00  0.00     0.029 A 
ATOM     64  C   UNL A   1      45.421  25.856  30.070  1.00  0.00     0.049 A 
ATOM     65  H   UNL A   1      43.623  26.883  29.663  1.00  0.00     0.167 HD
ATOM     66  C   UNL A   1      45.776  28.110  31.030  1.00  0.00     0.074 A 
ATOM     67  C   UNL A   1      46.552  29.097  31.749  1.00  0.00     0.031 C 
ATOM     68  C   UNL A   1      46.187  26.843  30.785  1.00  0.00     0.031 A 
BRANCH  55  69
ATOM     69  C   UNL A   1      42.102  23.416  27.705  1.00  0.00    -0.014 A 
ATOM     70  C   UNL A   1      41.425  22.415  28.415  1.00  0.00     0.009 A 
ATOM     71  C   UNL A   1      42.415  23.209  26.352  1.00  0.00     0.009 A 
ATOM     72  C   UNL A   1      41.070  21.224  27.780  1.00  0.00     0.001 A 
ATOM     73  C   UNL A   1      42.041  22.025  25.716  1.00  0.00     0.001 A 
ATOM     74  C   UNL A   1      41.370  21.035  26.430  1.00  0.00     0.000 A 
ENDBRANCH  55  69
BRANCH  56  75
ATOM     75  C   UNL A   1      43.913  32.396  31.591  1.00  0.00    -0.014 A 
ATOM     76  C   UNL A   1      44.565  33.349  30.795  1.00  0.00     0.009 A 
ATOM     77  C   UNL A   1      43.527  32.749  32.894  1.00  0.00     0.009 A 
ATOM     78  C   UNL A   1      44.821  34.630  31.293  1.00  0.00     0.001 A 
ATOM     79  C   UNL A   1      43.763  34.036  33.380  1.00  0.00     0.001 A 
ATOM     80  C   UNL A   1      44.412  34.975  32.581  1.00  0.00     0.000 A 
ENDBRANCH  56  75
BRANCH  68  81
ATOM     81  C   UNL A   1      47.540  26.422  31.282  1.00  0.00    -0.014 A 
ATOM     82  C   UNL A   1      47.695  25.859  32.555  1.00  0.00     0.009 A 
ATOM     83  C   UNL A   1      48.641  26.457  30.410  1.00  0.00     0.009 A 
ATOM     84  C   UNL A   1      48.929  25.336  32.949  1.00  0.00     0.001 A 
ATOM     85  C   UNL A   1      49.867  25.915  30.798  1.00  0.00     0.001 A 
ATOM     86  C   UNL A   1      50.010  25.355  32.066  1.00  0.00     0.000 A 
ENDBRANCH  68  81
ENDBRANCH  42  43
ENDBRANCH  35  37
ENDBRANCH  34  35
ENDBRANCH  33  34
ENDBRANCH  32  33
ENDBRANCH  31  32
ENDBRANCH   1  31
TORSDOF 18
ENDMDL
MODEL 3
REMARK VINA RESULT:     -10.4      0.495      5.592
REMARK SMILES Cc1ccc(C(=O)OCCOCCOCCOC(=O)c2ccc(-c3c4nc(c(-c5ccccc5)c5ccc([nH]5)c(-c5ccccc5)c5nc(c(-c6ccccc6)c6ccc3[nH]6)C=C5)C=C4)cc2)c2c1N[C@H](c1ccccc1F)[C@H]1CC=C[C@@H]21
REMARK SMILES IDX 13 1 12 2 11 3 10 4 9 5 8 6 6 7 7 8 5 9 1 10 2 11 3 12 69 13
REMARK SMILES IDX 4 14 68 15 70 16 83 17 71 18 79 20 82 21 80 22 81 23 72 24
REMARK SMILES IDX 73 25 77 26 74 27 76 28 78 29 75 30 14 31 15 32 16 33 17 34
REMARK SMILES IDX 18 35 19 36 20 37 21 38 67 39 22 40 66 41 23 42 24 43 25 44
REMARK SMILES IDX 60 45 26 46 65 47 59 48 61 49 27 50 64 51 58 52 57 53 28 55
REMARK SMILES IDX 50 56 35 57 49 58 36 59 39 60 48 61 62 62 37 63 38 64 47 66
REMARK SMILES IDX 63 67 40 68 29 69 30 70 34 71 31 72 33 73 32 74 51 75 52 76
REMARK SMILES IDX 56 77 53 78 55 79 54 80 41 81 42 82 46 83 43 84 45 85 44 86
REMARK H PARENT 70 19 61 54 39 65
REMARK Flexibility Score: inf
ROOT
ATOM      1  C   UNL A   1      30.983  29.218  24.265  1.00  0.00     0.188 C 
ENDROOT
BRANCH   1   2
ATOM      2  C   UNL A   1      30.860  27.679  24.313  1.00  0.00     0.188 C 
BRANCH   2   3
ATOM      3  O   UNL A   1      31.075  27.047  23.063  1.00  0.00    -0.376 OA
BRANCH   3   4
ATOM      4  C   UNL A   1      32.152  26.124  23.011  1.00  0.00     0.202 C 
BRANCH   4   5
ATOM      5  C   UNL A   1      33.494  26.571  23.611  1.00  0.00     0.261 C 
BRANCH   5   6
ATOM      6  O   UNL A   1      34.419  25.511  23.911  1.00  0.00    -0.460 OA
BRANCH   6   7
ATOM      7  C   UNL A   1      34.652  25.209  25.213  1.00  0.00     0.338 C 
ATOM      8  O   UNL A   1      34.229  25.828  26.167  1.00  0.00    -0.246 OA
BRANCH   7   9
ATOM      9  C   UNL A   1      35.486  23.966  25.269  1.00  0.00     0.065 A 
ATOM     10  C   UNL A   1      38.188  20.607  25.570  1.00  0.00     0.046 C 
ATOM     11  C   UNL A   1      37.199  21.735  25.423  1.00  0.00    -0.028 A 
ATOM     12  C   UNL A   1      37.707  23.040  25.523  1.00  0.00     0.006 A 
ATOM     13  C   UNL A   1      35.824  21.535  25.163  1.00  0.00     0.042 A 
ATOM     14  C   UNL A   1      36.864  24.142  25.454  1.00  0.00     0.016 A 
ATOM     15  C   UNL A   1      34.954  22.660  25.099  1.00  0.00    -0.003 A 
ATOM     16  N   UNL A   1      35.327  20.250  24.964  1.00  0.00    -0.377 N 
ATOM     17  C   UNL A   1      33.512  22.450  24.688  1.00  0.00     0.050 C 
ATOM     18  C   UNL A   1      33.899  19.987  25.077  1.00  0.00     0.117 C 
ATOM     19  H   UNL A   1      35.944  19.515  24.746  1.00  0.00     0.161 HD
ATOM     20  C   UNL A   1      33.158  21.022  24.214  1.00  0.00     0.031 C 
ATOM     21  C   UNL A   1      32.448  22.688  25.720  1.00  0.00    -0.023 C 
ATOM     22  C   UNL A   1      31.631  20.958  24.380  1.00  0.00     0.034 C 
ATOM     23  C   UNL A   1      31.392  21.891  25.520  1.00  0.00    -0.030 C 
BRANCH  18  24
ATOM     24  C   UNL A   1      33.620  18.514  24.803  1.00  0.00     0.010 A 
ATOM     25  C   UNL A   1      34.111  17.947  23.610  1.00  0.00     0.009 A 
ATOM     26  C   UNL A   1      32.955  17.658  25.691  1.00  0.00     0.128 A 
ATOM     27  C   UNL A   1      33.983  16.577  23.351  1.00  0.00     0.001 A 
ATOM     28  C   UNL A   1      32.833  16.292  25.445  1.00  0.00     0.039 A 
ATOM     29  F   UNL A   1      32.441  18.122  26.835  1.00  0.00    -0.207 F 
ATOM     30  C   UNL A   1      33.356  15.747  24.277  1.00  0.00     0.003 A 
ENDBRANCH  18  24
ENDBRANCH   7   9
ENDBRANCH   6   7
ENDBRANCH   5   6
ENDBRANCH   4   5
ENDBRANCH   3   4
ENDBRANCH   2   3
ENDBRANCH   1   2
BRANCH   1  31
ATOM     31  O   UNL A   1      31.985  29.871  25.031  1.00  0.00    -0.376 OA
BRANCH  31  32
ATOM     32  C   UNL A   1      31.844  29.906  26.446  1.00  0.00     0.202 C 
BRANCH  32  33
ATOM     33  C   UNL A   1      32.736  30.854  27.265  1.00  0.00     0.261 C 
BRANCH  33  34
ATOM     34  O   UNL A   1      34.124  30.480  27.355  1.00  0.00    -0.460 OA
BRANCH  34  35
ATOM     35  C   UNL A   1      34.796  30.967  28.429  1.00  0.00     0.338 C 
ATOM     36  O   UNL A   1      34.399  31.766  29.257  1.00  0.00    -0.246 OA
BRANCH  35  37
ATOM     37  C   UNL A   1      36.095  30.277  28.559  1.00  0.00     0.060 A 
ATOM     38  C   UNL A   1      36.509  29.854  29.826  1.00  0.00     0.016 A 
ATOM     39  C   UNL A   1      36.950  30.153  27.462  1.00  0.00     0.016 A 
ATOM     40  C   UNL A   1      37.775  29.298  29.997  1.00  0.00     0.010 A 
ATOM     41  C   UNL A   1      38.235  29.622  27.643  1.00  0.00     0.010 A 
ATOM     42  C   UNL A   1      38.658  29.207  28.916  1.00  0.00    -0.014 A 
BRANCH  42  43
ATOM     43  C   UNL A   1      40.072  28.852  29.180  1.00  0.00     0.031 A 
ATOM     44  C   UNL A   1      40.565  27.498  28.757  1.00  0.00     0.074 A 
ATOM     45  C   UNL A   1      40.932  29.740  29.712  1.00  0.00     0.049 A 
ATOM     46  N   UNL A   1      41.751  26.967  28.906  1.00  0.00    -0.248 NA
ATOM     47  C   UNL A   1      39.596  26.630  28.067  1.00  0.00     0.031 C 
ATOM     48  C   UNL A   1      40.608  31.116  30.073  1.00  0.00     0.029 A 
ATOM     49  N   UNL A   1      42.266  29.616  30.017  1.00  0.00    -0.354 N 
ATOM     50  C   UNL A   1      41.666  25.701  28.342  1.00  0.00     0.074 A 
ATOM     51  C   UNL A   1      40.318  25.542  27.843  1.00  0.00     0.031 C 
ATOM     52  C   UNL A   1      41.721  31.721  30.521  1.00  0.00     0.029 A 
ATOM     53  C   UNL A   1      42.822  30.760  30.533  1.00  0.00     0.049 A 
ATOM     54  H   UNL A   1      42.775  28.784  29.878  1.00  0.00     0.167 HD
ATOM     55  C   UNL A   1      42.624  24.752  28.259  1.00  0.00     0.031 A 
ATOM     56  C   UNL A   1      44.071  30.998  30.985  1.00  0.00     0.031 A 
ATOM     57  C   UNL A   1      43.957  24.895  28.769  1.00  0.00     0.049 A 
ATOM     58  C   UNL A   1      45.089  29.890  30.979  1.00  0.00     0.074 A 
ATOM     59  C   UNL A   1      44.983  23.966  28.758  1.00  0.00     0.029 A 
ATOM     60  N   UNL A   1      44.449  26.034  29.385  1.00  0.00    -0.354 N 
ATOM     61  N   UNL A   1      44.986  28.680  30.487  1.00  0.00    -0.248 NA
ATOM     62  C   UNL A   1      46.389  30.171  31.610  1.00  0.00     0.031 C 
ATOM     63  C   UNL A   1      46.083  24.527  29.410  1.00  0.00     0.029 A 
ATOM     64  C   UNL A   1      45.759  25.823  29.776  1.00  0.00     0.049 A 
ATOM     65  H   UNL A   1      43.943  26.866  29.523  1.00  0.00     0.167 HD
ATOM     66  C   UNL A   1      46.201  28.058  30.744  1.00  0.00     0.074 A 
ATOM     67  C   UNL A   1      47.037  29.028  31.420  1.00  0.00     0.031 C 
ATOM     68  C   UNL A   1      46.584  26.792  30.447  1.00  0.00     0.031 A 
BRANCH  55  69
ATOM     69  C   UNL A   1      42.255  23.444  27.627  1.00  0.00    -0.014 A 
ATOM     70  C   UNL A   1      41.542  22.471  28.341  1.00  0.00     0.009 A 
ATOM     71  C   UNL A   1      42.552  23.222  26.273  1.00  0.00     0.009 A 
ATOM     72  C   UNL A   1      41.136  21.294  27.709  1.00  0.00     0.001 A 
ATOM     73  C   UNL A   1      42.128  22.054  25.640  1.00  0.00     0.001 A 
ATOM     74  C   UNL A   1      41.421  21.092  26.358  1.00  0.00     0.000 A 
ENDBRANCH  55  69
BRANCH  56  75
ATOM     75  C   UNL A   1      44.416  32.343  31.518  1.00  0.00    -0.014 A 
ATOM     76  C   UNL A   1      44.926  33.337  30.671  1.00  0.00     0.009 A 
ATOM     77  C   UNL A   1      44.217  32.644  32.875  1.00  0.00     0.009 A 
ATOM     78  C   UNL A   1      45.228  34.606  31.171  1.00  0.00     0.001 A 
ATOM     79  C   UNL A   1      44.496  33.920  33.368  1.00  0.00     0.001 A 
ATOM     80  C   UNL A   1      45.004  34.899  32.516  1.00  0.00     0.000 A 
ENDBRANCH  56  75
BRANCH  68  81
ATOM     81  C   UNL A   1      47.967  26.356  30.833  1.00  0.00    -0.014 A 
ATOM     82  C   UNL A   1      48.226  25.825  32.104  1.00  0.00     0.009 A 
ATOM     83  C   UNL A   1      48.986  26.342  29.865  1.00  0.00     0.009 A 
ATOM     84  C   UNL A   1      49.480  25.287  32.400  1.00  0.00     0.001 A 
ATOM     85  C   UNL A   1      50.231  25.783  30.158  1.00  0.00     0.001 A 
ATOM     86  C   UNL A   1      50.477  25.256  31.424  1.00  0.00     0.000 A 
ENDBRANCH  68  81
ENDBRANCH  42  43
ENDBRANCH  35  37
ENDBRANCH  34  35
ENDBRANCH  33  34
ENDBRANCH  32  33
ENDBRANCH  31  32
ENDBRANCH   1  31
TORSDOF 18
ENDMDL
