MODEL 1
REMARK VINA RESULT:     -12.6      0.000      0.000
REMARK SMILES COc1cccc(NC(=O)[C@@H]2[C@@H](C(=O)OCCOCCOCCOC(=O)c3ccc(-c4c5nc(c(-c6ccccc6)c6ccc([nH]6)c(-c6ccccc6)c6nc(c(-c7ccccc7)c7ccc4[nH]7)C=C6)C=C5)cc3)[C@H]3C=C[C@@H]2C3)c1
REMARK SMILES IDX 19 1 18 2 17 3 16 4 15 5 13 6 14 7 12 8 11 9 78 10 75 11
REMARK SMILES IDX 77 12 79 13 76 14 9 15 8 16 10 18 7 19 3 20 4 21 80 22 5 23
REMARK SMILES IDX 6 24 2 25 1 26 20 27 21 28 22 29 23 30 24 31 25 32 26 33
REMARK SMILES IDX 27 34 28 35 74 36 29 37 73 38 30 39 31 40 32 41 67 42 33 43
REMARK SMILES IDX 72 44 66 45 68 46 34 47 71 48 65 49 64 50 35 52 57 53 42 54
REMARK SMILES IDX 56 55 43 56 46 57 55 58 69 59 44 60 45 61 54 63 70 64 47 65
REMARK SMILES IDX 36 66 37 67 41 68 38 69 40 70 39 71 58 72 59 73 63 74 60 75
REMARK SMILES IDX 62 76 61 77 48 78 49 79 53 80 50 81 52 82 51 83
REMARK H PARENT 8 17 68 51 46 62
REMARK Flexibility Score: inf
ROOT
ATOM      1  C   UNL A   1      38.806  22.573  26.205  1.00  0.00     0.188 C 
ENDROOT
BRANCH   1   2
ATOM      2  O   UNL A   1      38.388  21.513  25.317  1.00  0.00    -0.376 OA
BRANCH   2   3
ATOM      3  C   UNL A   1      37.225  21.708  24.456  1.00  0.00     0.202 C 
BRANCH   3   4
ATOM      4  C   UNL A   1      36.752  23.096  23.902  1.00  0.00     0.261 C 
BRANCH   4   5
ATOM      5  O   UNL A   1      35.639  23.726  24.577  1.00  0.00    -0.463 OA
BRANCH   5   6
ATOM      6  C   UNL A   1      34.644  24.222  23.815  1.00  0.00     0.310 C 
ATOM      7  O   UNL A   1      34.790  24.384  22.613  1.00  0.00    -0.252 OA
BRANCH   6   8
ATOM      8  C   UNL A   1      33.378  24.511  24.666  1.00  0.00     0.119 C 
ATOM      9  C   UNL A   1      32.120  25.191  23.987  1.00  0.00     0.100 C 
ATOM     10  C   UNL A   1      32.104  26.591  24.705  1.00  0.00     0.025 C 
ATOM     11  C   UNL A   1      33.762  25.554  25.771  1.00  0.00     0.027 C 
ATOM     12  C   UNL A   1      33.390  27.351  24.393  1.00  0.00    -0.027 C 
ATOM     13  C   UNL A   1      32.423  26.186  26.141  1.00  0.00     0.017 C 
ATOM     14  C   UNL A   1      34.367  26.772  25.105  1.00  0.00    -0.027 C 
BRANCH   9  15
ATOM     15  C   UNL A   1      30.766  24.423  24.099  1.00  0.00     0.228 C 
ATOM     16  N   UNL A   1      30.375  23.469  25.034  1.00  0.00    -0.326 N 
ATOM     17  H   UNL A   1      29.405  23.466  25.207  1.00  0.00     0.169 HD
ATOM     18  O   UNL A   1      29.934  24.602  23.191  1.00  0.00    -0.274 OA
BRANCH  16  19
ATOM     19  C   UNL A   1      31.104  22.476  25.807  1.00  0.00     0.044 A 
ATOM     20  C   UNL A   1      33.522  20.676  25.147  1.00  0.00     0.120 A 
ATOM     21  C   UNL A   1      34.351  21.260  26.607  1.00  0.00     0.046 A 
ATOM     22  C   UNL A   1      31.960  21.344  24.762  1.00  0.00     0.072 A 
ATOM     23  C   UNL A   1      33.398  22.337  27.848  1.00  0.00     0.006 A 
ATOM     24  C   UNL A   1      31.722  22.876  27.378  1.00  0.00     0.026 A 
BRANCH  20  25
ATOM     25  O   UNL A   1      33.426  19.239  25.385  1.00  0.00    -0.497 OA
ATOM     26  C   UNL A   1      34.033  18.378  24.455  1.00  0.00     0.278 C 
ENDBRANCH  20  25
ENDBRANCH  16  19
ENDBRANCH   9  15
ENDBRANCH   6   8
ENDBRANCH   5   6
ENDBRANCH   4   5
ENDBRANCH   3   4
ENDBRANCH   2   3
ENDBRANCH   1   2
BRANCH   1  27
ATOM     27  C   UNL A   1      40.388  22.623  27.175  1.00  0.00     0.188 C 
BRANCH  27  28
ATOM     28  O   UNL A   1      41.770  21.121  27.180  1.00  0.00    -0.376 OA
BRANCH  28  29
ATOM     29  C   UNL A   1      41.716  19.614  26.150  1.00  0.00     0.202 C 
BRANCH  29  30
ATOM     30  C   UNL A   1      43.072  18.313  26.163  1.00  0.00     0.261 C 
BRANCH  30  31
ATOM     31  O   UNL A   1      44.169  18.128  24.902  1.00  0.00    -0.460 OA
BRANCH  31  32
ATOM     32  C   UNL A   1      45.005  19.092  24.307  1.00  0.00     0.338 C 
ATOM     33  O   UNL A   1      45.789  18.783  23.412  1.00  0.00    -0.246 OA
BRANCH  32  34
ATOM     34  C   UNL A   1      44.890  20.636  24.662  1.00  0.00     0.060 A 
ATOM     35  C   UNL A   1      44.706  21.681  23.734  1.00  0.00     0.016 A 
ATOM     36  C   UNL A   1      45.330  21.125  25.897  1.00  0.00     0.016 A 
ATOM     37  C   UNL A   1      44.720  23.090  24.026  1.00  0.00     0.010 A 
ATOM     38  C   UNL A   1      45.418  22.539  26.201  1.00  0.00     0.010 A 
ATOM     39  C   UNL A   1      45.072  23.553  25.286  1.00  0.00    -0.014 A 
BRANCH  39  40
ATOM     40  C   UNL A   1      45.156  25.030  25.629  1.00  0.00     0.031 A 
ATOM     41  C   UNL A   1      46.486  25.764  25.617  1.00  0.00     0.074 A 
ATOM     42  C   UNL A   1      44.069  25.759  25.977  1.00  0.00     0.049 A 
ATOM     43  N   UNL A   1      46.803  26.940  26.113  1.00  0.00    -0.248 NA
ATOM     44  C   UNL A   1      47.598  25.086  24.941  1.00  0.00     0.031 C 
ATOM     45  C   UNL A   1      42.683  25.301  25.910  1.00  0.00     0.029 A 
ATOM     46  N   UNL A   1      43.962  27.044  26.487  1.00  0.00    -0.354 N 
ATOM     47  C   UNL A   1      48.161  27.120  25.856  1.00  0.00     0.074 A 
ATOM     48  C   UNL A   1      48.598  25.939  25.137  1.00  0.00     0.031 C 
ATOM     49  C   UNL A   1      41.876  26.259  26.407  1.00  0.00     0.029 A 
ATOM     50  C   UNL A   1      42.683  27.382  26.884  1.00  0.00     0.049 A 
ATOM     51  H   UNL A   1      44.727  27.658  26.559  1.00  0.00     0.167 HD
ATOM     52  C   UNL A   1      48.977  28.150  26.202  1.00  0.00     0.031 A 
ATOM     53  C   UNL A   1      42.215  28.435  27.594  1.00  0.00     0.031 A 
ATOM     54  C   UNL A   1      48.565  29.335  26.917  1.00  0.00     0.049 A 
ATOM     55  C   UNL A   1      43.163  29.502  28.094  1.00  0.00     0.074 A 
ATOM     56  C   UNL A   1      49.339  30.416  27.313  1.00  0.00     0.029 A 
ATOM     57  N   UNL A   1      47.276  29.596  27.347  1.00  0.00    -0.354 N 
ATOM     58  N   UNL A   1      44.450  29.634  27.885  1.00  0.00    -0.248 NA
ATOM     59  C   UNL A   1      42.590  30.569  28.938  1.00  0.00     0.031 C 
ATOM     60  C   UNL A   1      48.532  31.296  28.043  1.00  0.00     0.029 A 
ATOM     61  C   UNL A   1      47.241  30.801  28.033  1.00  0.00     0.049 A 
ATOM     62  H   UNL A   1      46.498  29.014  27.188  1.00  0.00     0.167 HD
ATOM     63  C   UNL A   1      44.826  30.809  28.531  1.00  0.00     0.074 A 
ATOM     64  C   UNL A   1      43.634  31.364  29.128  1.00  0.00     0.031 C 
ATOM     65  C   UNL A   1      46.055  31.374  28.617  1.00  0.00     0.031 A 
BRANCH  52  66
ATOM     66  C   UNL A   1      50.445  28.026  25.880  1.00  0.00    -0.014 A 
ATOM     67  C   UNL A   1      50.984  28.497  24.673  1.00  0.00     0.009 A 
ATOM     68  C   UNL A   1      51.319  27.496  26.848  1.00  0.00     0.009 A 
ATOM     69  C   UNL A   1      52.358  28.407  24.430  1.00  0.00     0.001 A 
ATOM     70  C   UNL A   1      52.694  27.436  26.614  1.00  0.00     0.001 A 
ATOM     71  C   UNL A   1      53.212  27.884  25.400  1.00  0.00     0.000 A 
ENDBRANCH  52  66
BRANCH  53  72
ATOM     72  C   UNL A   1      40.770  28.525  27.972  1.00  0.00    -0.014 A 
ATOM     73  C   UNL A   1      39.864  29.274  27.201  1.00  0.00     0.009 A 
ATOM     74  C   UNL A   1      40.306  27.939  29.162  1.00  0.00     0.009 A 
ATOM     75  C   UNL A   1      38.546  29.464  27.630  1.00  0.00     0.001 A 
ATOM     76  C   UNL A   1      38.977  28.098  29.570  1.00  0.00     0.001 A 
ATOM     77  C   UNL A   1      38.102  28.873  28.811  1.00  0.00     0.000 A 
ENDBRANCH  53  72
BRANCH  65  78
ATOM     78  C   UNL A   1      46.177  32.699  29.324  1.00  0.00    -0.014 A 
ATOM     79  C   UNL A   1      45.980  33.917  28.655  1.00  0.00     0.009 A 
ATOM     80  C   UNL A   1      46.452  32.725  30.703  1.00  0.00     0.009 A 
ATOM     81  C   UNL A   1      46.091  35.131  29.343  1.00  0.00     0.001 A 
ATOM     82  C   UNL A   1      46.530  33.937  31.394  1.00  0.00     0.001 A 
ATOM     83  C   UNL A   1      46.359  35.140  30.711  1.00  0.00     0.000 A 
ENDBRANCH  65  78
ENDBRANCH  39  40
ENDBRANCH  32  34
ENDBRANCH  31  32
ENDBRANCH  30  31
ENDBRANCH  29  30
ENDBRANCH  28  29
ENDBRANCH  27  28
ENDBRANCH   1  27
TORSDOF 20
ENDMDL
MODEL 2
REMARK VINA RESULT:     -12.6      1.536      3.396
REMARK SMILES COc1cccc(NC(=O)[C@@H]2[C@@H](C(=O)OCCOCCOCCOC(=O)c3ccc(-c4c5nc(c(-c6ccccc6)c6ccc([nH]6)c(-c6ccccc6)c6nc(c(-c7ccccc7)c7ccc4[nH]7)C=C6)C=C5)cc3)[C@H]3C=C[C@@H]2C3)c1
REMARK SMILES IDX 19 1 18 2 17 3 16 4 15 5 13 6 14 7 12 8 11 9 78 10 75 11
REMARK SMILES IDX 77 12 79 13 76 14 9 15 8 16 10 18 7 19 3 20 4 21 80 22 5 23
REMARK SMILES IDX 6 24 2 25 1 26 20 27 21 28 22 29 23 30 24 31 25 32 26 33
REMARK SMILES IDX 27 34 28 35 74 36 29 37 73 38 30 39 31 40 32 41 67 42 33 43
REMARK SMILES IDX 72 44 66 45 68 46 34 47 71 48 65 49 64 50 35 52 57 53 42 54
REMARK SMILES IDX 56 55 43 56 46 57 55 58 69 59 44 60 45 61 54 63 70 64 47 65
REMARK SMILES IDX 36 66 37 67 41 68 38 69 40 70 39 71 58 72 59 73 63 74 60 75
REMARK SMILES IDX 62 76 61 77 48 78 49 79 53 80 50 81 52 82 51 83
REMARK H PARENT 8 17 68 51 46 62
REMARK Flexibility Score: inf
ROOT
ATOM      1  C   UNL A   1      39.732  23.070  26.825  1.00  0.00     0.188 C 
ENDROOT
BRANCH   1   2
ATOM      2  O   UNL A   1      38.569  22.529  26.161  1.00  0.00    -0.376 OA
BRANCH   2   3
ATOM      3  C   UNL A   1      37.535  23.433  25.664  1.00  0.00     0.202 C 
BRANCH   3   4
ATOM      4  C   UNL A   1      35.995  23.171  25.780  1.00  0.00     0.261 C 
BRANCH   4   5
ATOM      5  O   UNL A   1      35.175  23.571  24.658  1.00  0.00    -0.463 OA
BRANCH   5   6
ATOM      6  C   UNL A   1      34.350  22.648  24.124  1.00  0.00     0.310 C 
ATOM      7  O   UNL A   1      34.514  21.456  24.336  1.00  0.00    -0.252 OA
BRANCH   6   8
ATOM      8  C   UNL A   1      33.235  23.318  23.278  1.00  0.00     0.119 C 
ATOM      9  C   UNL A   1      33.088  24.895  23.289  1.00  0.00     0.100 C 
ATOM     10  C   UNL A   1      31.707  25.069  24.023  1.00  0.00     0.025 C 
ATOM     11  C   UNL A   1      31.849  22.853  23.843  1.00  0.00     0.027 C 
ATOM     12  C   UNL A   1      31.794  24.503  25.437  1.00  0.00    -0.027 C 
ATOM     13  C   UNL A   1      30.892  23.950  23.381  1.00  0.00     0.017 C 
ATOM     14  C   UNL A   1      31.794  23.167  25.323  1.00  0.00    -0.027 C 
BRANCH   9  15
ATOM     15  C   UNL A   1      33.147  25.611  21.903  1.00  0.00     0.228 C 
ATOM     16  N   UNL A   1      33.292  26.966  21.622  1.00  0.00    -0.326 N 
ATOM     17  H   UNL A   1      33.753  27.142  20.770  1.00  0.00     0.169 HD
ATOM     18  O   UNL A   1      32.955  24.910  20.893  1.00  0.00    -0.274 OA
BRANCH  16  19
ATOM     19  C   UNL A   1      32.902  28.176  22.330  1.00  0.00     0.044 A 
ATOM     20  C   UNL A   1      30.300  29.011  23.765  1.00  0.00     0.120 A 
ATOM     21  C   UNL A   1      31.238  29.416  25.220  1.00  0.00     0.046 A 
ATOM     22  C   UNL A   1      31.149  28.350  22.395  1.00  0.00     0.072 A 
ATOM     23  C   UNL A   1      33.135  29.414  25.133  1.00  0.00     0.006 A 
ATOM     24  C   UNL A   1      33.904  28.807  23.597  1.00  0.00     0.026 A 
BRANCH  20  25
ATOM     25  O   UNL A   1      29.675  30.283  23.421  1.00  0.00    -0.497 OA
ATOM     26  C   UNL A   1      28.288  30.294  23.197  1.00  0.00     0.278 C 
ENDBRANCH  20  25
ENDBRANCH  16  19
ENDBRANCH   9  15
ENDBRANCH   6   8
ENDBRANCH   5   6
ENDBRANCH   4   5
ENDBRANCH   3   4
ENDBRANCH   2   3
ENDBRANCH   1   2
BRANCH   1  27
ATOM     27  C   UNL A   1      41.410  22.278  26.905  1.00  0.00     0.188 C 
BRANCH  27  28
ATOM     28  O   UNL A   1      41.995  20.726  25.717  1.00  0.00    -0.376 OA
BRANCH  28  29
ATOM     29  C   UNL A   1      42.080  18.970  26.214  1.00  0.00     0.202 C 
BRANCH  29  30
ATOM     30  C   UNL A   1      43.686  17.996  26.270  1.00  0.00     0.261 C 
BRANCH  30  31
ATOM     31  O   UNL A   1      44.902  18.177  25.123  1.00  0.00    -0.460 OA
BRANCH  31  32
ATOM     32  C   UNL A   1      45.045  19.167  24.133  1.00  0.00     0.338 C 
ATOM     33  O   UNL A   1      44.878  18.903  22.944  1.00  0.00    -0.246 OA
BRANCH  32  34
ATOM     34  C   UNL A   1      45.298  20.692  24.502  1.00  0.00     0.060 A 
ATOM     35  C   UNL A   1      45.521  21.197  25.799  1.00  0.00     0.016 A 
ATOM     36  C   UNL A   1      44.956  21.714  23.610  1.00  0.00     0.016 A 
ATOM     37  C   UNL A   1      45.632  22.585  26.164  1.00  0.00     0.010 A 
ATOM     38  C   UNL A   1      44.995  23.118  23.965  1.00  0.00     0.010 A 
ATOM     39  C   UNL A   1      45.377  23.587  25.238  1.00  0.00    -0.014 A 
BRANCH  39  40
ATOM     40  C   UNL A   1      45.426  25.065  25.587  1.00  0.00     0.031 A 
ATOM     41  C   UNL A   1      46.740  25.825  25.602  1.00  0.00     0.074 A 
ATOM     42  C   UNL A   1      44.317  25.770  25.916  1.00  0.00     0.049 A 
ATOM     43  N   UNL A   1      47.024  27.006  26.107  1.00  0.00    -0.248 NA
ATOM     44  C   UNL A   1      47.878  25.172  24.945  1.00  0.00     0.031 C 
ATOM     45  C   UNL A   1      42.943  25.285  25.823  1.00  0.00     0.029 A 
ATOM     46  N   UNL A   1      44.175  27.052  26.428  1.00  0.00    -0.354 N 
ATOM     47  C   UNL A   1      48.383  27.214  25.875  1.00  0.00     0.074 A 
ATOM     48  C   UNL A   1      48.856  26.045  25.161  1.00  0.00     0.031 C 
ATOM     49  C   UNL A   1      42.107  26.224  26.307  1.00  0.00     0.029 A 
ATOM     50  C   UNL A   1      42.883  27.363  26.802  1.00  0.00     0.049 A 
ATOM     51  H   UNL A   1      44.926  27.681  26.516  1.00  0.00     0.167 HD
ATOM     52  C   UNL A   1      49.171  28.259  26.239  1.00  0.00     0.031 A 
ATOM     53  C   UNL A   1      42.380  28.403  27.506  1.00  0.00     0.031 A 
ATOM     54  C   UNL A   1      48.722  29.434  26.949  1.00  0.00     0.049 A 
ATOM     55  C   UNL A   1      43.297  29.488  28.027  1.00  0.00     0.074 A 
ATOM     56  C   UNL A   1      49.467  30.529  27.363  1.00  0.00     0.029 A 
ATOM     57  N   UNL A   1      47.421  29.667  27.356  1.00  0.00    -0.354 N 
ATOM     58  N   UNL A   1      44.585  29.646  27.842  1.00  0.00    -0.248 NA
ATOM     59  C   UNL A   1      42.687  30.540  28.863  1.00  0.00     0.031 C 
ATOM     60  C   UNL A   1      48.629  31.389  28.080  1.00  0.00     0.029 A 
ATOM     61  C   UNL A   1      47.348  30.869  28.045  1.00  0.00     0.049 A 
ATOM     62  H   UNL A   1      46.658  29.070  27.181  1.00  0.00     0.167 HD
ATOM     63  C   UNL A   1      44.925  30.827  28.497  1.00  0.00     0.074 A 
ATOM     64  C   UNL A   1      43.711  31.355  29.074  1.00  0.00     0.031 C 
ATOM     65  C   UNL A   1      46.140  31.416  28.608  1.00  0.00     0.031 A 
BRANCH  52  66
ATOM     66  C   UNL A   1      50.648  28.165  25.943  1.00  0.00    -0.014 A 
ATOM     67  C   UNL A   1      51.549  27.577  26.843  1.00  0.00     0.009 A 
ATOM     68  C   UNL A   1      51.128  28.606  24.696  1.00  0.00     0.009 A 
ATOM     69  C   UNL A   1      52.904  27.466  26.514  1.00  0.00     0.001 A 
ATOM     70  C   UNL A   1      52.476  28.466  24.359  1.00  0.00     0.001 A 
ATOM     71  C   UNL A   1      53.365  27.903  25.272  1.00  0.00     0.000 A 
ENDBRANCH  52  66
BRANCH  53  72
ATOM     72  C   UNL A   1      40.927  28.463  27.858  1.00  0.00    -0.014 A 
ATOM     73  C   UNL A   1      40.014  29.166  27.053  1.00  0.00     0.009 A 
ATOM     74  C   UNL A   1      40.459  27.896  29.055  1.00  0.00     0.009 A 
ATOM     75  C   UNL A   1      38.685  29.331  27.454  1.00  0.00     0.001 A 
ATOM     76  C   UNL A   1      39.119  28.028  29.436  1.00  0.00     0.001 A 
ATOM     77  C   UNL A   1      38.237  28.758  28.643  1.00  0.00     0.000 A 
ENDBRANCH  53  72
BRANCH  65  78
ATOM     78  C   UNL A   1      46.222  32.741  29.321  1.00  0.00    -0.014 A 
ATOM     79  C   UNL A   1      46.501  32.828  30.695  1.00  0.00     0.009 A 
ATOM     80  C   UNL A   1      46.059  33.931  28.591  1.00  0.00     0.009 A 
ATOM     81  C   UNL A   1      46.580  34.075  31.325  1.00  0.00     0.001 A 
ATOM     82  C   UNL A   1      46.170  35.176  29.217  1.00  0.00     0.001 A 
ATOM     83  C   UNL A   1      46.421  35.246  30.586  1.00  0.00     0.000 A 
ENDBRANCH  65  78
ENDBRANCH  39  40
ENDBRANCH  32  34
ENDBRANCH  31  32
ENDBRANCH  30  31
ENDBRANCH  29  30
ENDBRANCH  28  29
ENDBRANCH  27  28
ENDBRANCH   1  27
TORSDOF 20
ENDMDL
MODEL 3
REMARK VINA RESULT:     -12.4      1.236      2.953
REMARK SMILES COc1cccc(NC(=O)[C@@H]2[C@@H](C(=O)OCCOCCOCCOC(=O)c3ccc(-c4c5nc(c(-c6ccccc6)c6ccc([nH]6)c(-c6ccccc6)c6nc(c(-c7ccccc7)c7ccc4[nH]7)C=C6)C=C5)cc3)[C@H]3C=C[C@@H]2C3)c1
REMARK SMILES IDX 19 1 18 2 17 3 16 4 15 5 13 6 14 7 12 8 11 9 78 10 75 11
REMARK SMILES IDX 77 12 79 13 76 14 9 15 8 16 10 18 7 19 3 20 4 21 80 22 5 23
REMARK SMILES IDX 6 24 2 25 1 26 20 27 21 28 22 29 23 30 24 31 25 32 26 33
REMARK SMILES IDX 27 34 28 35 74 36 29 37 73 38 30 39 31 40 32 41 67 42 33 43
REMARK SMILES IDX 72 44 66 45 68 46 34 47 71 48 65 49 64 50 35 52 57 53 42 54
REMARK SMILES IDX 56 55 43 56 46 57 55 58 69 59 44 60 45 61 54 63 70 64 47 65
REMARK SMILES IDX 36 66 37 67 41 68 38 69 40 70 39 71 58 72 59 73 63 74 60 75
REMARK SMILES IDX 62 76 61 77 48 78 49 79 53 80 50 81 52 82 51 83
REMARK H PARENT 8 17 68 51 46 62
REMARK Flexibility Score: inf
ROOT
ATOM      1  C   UNL A   1      38.760  22.590  26.336  1.00  0.00     0.188 C 
ENDROOT
BRANCH   1   2
ATOM      2  O   UNL A   1      37.909  21.721  25.556  1.00  0.00    -0.376 OA
BRANCH   2   3
ATOM      3  C   UNL A   1      36.926  22.301  24.645  1.00  0.00     0.202 C 
BRANCH   3   4
ATOM      4  C   UNL A   1      36.441  23.791  24.692  1.00  0.00     0.261 C 
BRANCH   4   5
ATOM      5  O   UNL A   1      35.034  24.014  24.937  1.00  0.00    -0.463 OA
BRANCH   5   6
ATOM      6  C   UNL A   1      34.302  24.556  23.943  1.00  0.00     0.310 C 
ATOM      7  O   UNL A   1      34.836  25.017  22.945  1.00  0.00    -0.252 OA
BRANCH   6   8
ATOM      8  C   UNL A   1      32.785  24.480  24.260  1.00  0.00     0.119 C 
ATOM      9  C   UNL A   1      32.267  23.459  25.354  1.00  0.00     0.100 C 
ATOM     10  C   UNL A   1      31.451  22.447  24.468  1.00  0.00     0.025 C 
ATOM     11  C   UNL A   1      32.043  23.985  22.970  1.00  0.00     0.027 C 
ATOM     12  C   UNL A   1      32.378  21.770  23.463  1.00  0.00    -0.027 C 
ATOM     13  C   UNL A   1      30.741  23.402  23.513  1.00  0.00     0.017 C 
ATOM     14  C   UNL A   1      32.662  22.678  22.520  1.00  0.00    -0.027 C 
BRANCH   9  15
ATOM     15  C   UNL A   1      31.436  24.061  26.531  1.00  0.00     0.228 C 
ATOM     16  N   UNL A   1      30.829  25.310  26.626  1.00  0.00    -0.326 N 
ATOM     17  H   UNL A   1      30.021  25.311  27.189  1.00  0.00     0.169 HD
ATOM     18  O   UNL A   1      31.360  23.389  27.575  1.00  0.00    -0.274 OA
BRANCH  16  19
ATOM     19  C   UNL A   1      31.143  26.615  26.064  1.00  0.00     0.044 A 
ATOM     20  C   UNL A   1      33.800  28.137  25.673  1.00  0.00     0.120 A 
ATOM     21  C   UNL A   1      33.406  28.376  23.956  1.00  0.00     0.046 A 
ATOM     22  C   UNL A   1      32.692  27.215  26.653  1.00  0.00     0.072 A 
ATOM     23  C   UNL A   1      31.677  27.906  23.326  1.00  0.00     0.006 A 
ATOM     24  C   UNL A   1      30.565  27.048  24.487  1.00  0.00     0.026 A 
BRANCH  20  25
ATOM     25  O   UNL A   1      33.917  29.503  26.171  1.00  0.00    -0.497 OA
ATOM     26  C   UNL A   1      34.805  29.741  27.234  1.00  0.00     0.278 C 
ENDBRANCH  20  25
ENDBRANCH  16  19
ENDBRANCH   9  15
ENDBRANCH   6   8
ENDBRANCH   5   6
ENDBRANCH   4   5
ENDBRANCH   3   4
ENDBRANCH   2   3
ENDBRANCH   1   2
BRANCH   1  27
ATOM     27  C   UNL A   1      40.601  22.433  26.522  1.00  0.00     0.188 C 
BRANCH  27  28
ATOM     28  O   UNL A   1      41.681  20.832  25.862  1.00  0.00    -0.376 OA
BRANCH  28  29
ATOM     29  C   UNL A   1      42.203  19.404  26.874  1.00  0.00     0.202 C 
BRANCH  29  30
ATOM     30  C   UNL A   1      43.399  18.092  26.257  1.00  0.00     0.261 C 
BRANCH  30  31
ATOM     31  O   UNL A   1      44.165  18.187  24.763  1.00  0.00    -0.460 OA
BRANCH  31  32
ATOM     32  C   UNL A   1      45.100  19.135  24.306  1.00  0.00     0.338 C 
ATOM     33  O   UNL A   1      45.994  18.817  23.525  1.00  0.00    -0.246 OA
BRANCH  32  34
ATOM     34  C   UNL A   1      44.975  20.678  24.666  1.00  0.00     0.060 A 
ATOM     35  C   UNL A   1      44.764  21.722  23.743  1.00  0.00     0.016 A 
ATOM     36  C   UNL A   1      45.431  21.169  25.894  1.00  0.00     0.016 A 
ATOM     37  C   UNL A   1      44.768  23.131  24.037  1.00  0.00     0.010 A 
ATOM     38  C   UNL A   1      45.509  22.583  26.199  1.00  0.00     0.010 A 
ATOM     39  C   UNL A   1      45.136  23.595  25.292  1.00  0.00    -0.014 A 
BRANCH  39  40
ATOM     40  C   UNL A   1      45.211  25.073  25.636  1.00  0.00     0.031 A 
ATOM     41  C   UNL A   1      46.536  25.815  25.627  1.00  0.00     0.074 A 
ATOM     42  C   UNL A   1      44.118  25.795  25.982  1.00  0.00     0.049 A 
ATOM     43  N   UNL A   1      46.845  26.993  26.124  1.00  0.00    -0.248 NA
ATOM     44  C   UNL A   1      47.654  25.145  24.953  1.00  0.00     0.031 C 
ATOM     45  C   UNL A   1      42.736  25.328  25.913  1.00  0.00     0.029 A 
ATOM     46  N   UNL A   1      44.003  27.079  26.493  1.00  0.00    -0.354 N 
ATOM     47  C   UNL A   1      48.202  27.181  25.870  1.00  0.00     0.074 A 
ATOM     48  C   UNL A   1      48.647  26.004  25.150  1.00  0.00     0.031 C 
ATOM     49  C   UNL A   1      41.922  26.281  26.409  1.00  0.00     0.029 A 
ATOM     50  C   UNL A   1      42.721  27.409  26.888  1.00  0.00     0.049 A 
ATOM     51  H   UNL A   1      44.764  27.698  26.567  1.00  0.00     0.167 HD
ATOM     52  C   UNL A   1      49.011  28.216  26.217  1.00  0.00     0.031 A 
ATOM     53  C   UNL A   1      42.245  28.458  27.599  1.00  0.00     0.031 A 
ATOM     54  C   UNL A   1      48.591  29.398  26.933  1.00  0.00     0.049 A 
ATOM     55  C   UNL A   1      43.186  29.531  28.101  1.00  0.00     0.074 A 
ATOM     56  C   UNL A   1      49.358  30.484  27.331  1.00  0.00     0.029 A 
ATOM     57  N   UNL A   1      47.300  29.651  27.361  1.00  0.00    -0.354 N 
ATOM     58  N   UNL A   1      44.472  29.670  27.894  1.00  0.00    -0.248 NA
ATOM     59  C   UNL A   1      42.605  30.593  28.944  1.00  0.00     0.031 C 
ATOM     60  C   UNL A   1      48.544  31.358  28.060  1.00  0.00     0.029 A 
ATOM     61  C   UNL A   1      47.256  30.855  28.047  1.00  0.00     0.049 A 
ATOM     62  H   UNL A   1      46.526  29.064  27.200  1.00  0.00     0.167 HD
ATOM     63  C   UNL A   1      44.840  30.848  28.541  1.00  0.00     0.074 A 
ATOM     64  C   UNL A   1      43.643  31.395  29.137  1.00  0.00     0.031 C 
ATOM     65  C   UNL A   1      46.065  31.420  28.630  1.00  0.00     0.031 A 
BRANCH  52  66
ATOM     66  C   UNL A   1      50.481  28.101  25.898  1.00  0.00    -0.014 A 
ATOM     67  C   UNL A   1      51.394  27.530  26.796  1.00  0.00     0.009 A 
ATOM     68  C   UNL A   1      50.942  28.503  24.630  1.00  0.00     0.009 A 
ATOM     69  C   UNL A   1      52.742  27.397  26.446  1.00  0.00     0.001 A 
ATOM     70  C   UNL A   1      52.282  28.341  24.271  1.00  0.00     0.001 A 
ATOM     71  C   UNL A   1      53.183  27.796  25.184  1.00  0.00     0.000 A 
ENDBRANCH  52  66
BRANCH  53  72
ATOM     72  C   UNL A   1      40.799  28.538  27.975  1.00  0.00    -0.014 A 
ATOM     73  C   UNL A   1      39.889  29.279  27.200  1.00  0.00     0.009 A 
ATOM     74  C   UNL A   1      40.338  27.953  29.166  1.00  0.00     0.009 A 
ATOM     75  C   UNL A   1      38.569  29.461  27.626  1.00  0.00     0.001 A 
ATOM     76  C   UNL A   1      39.007  28.104  29.570  1.00  0.00     0.001 A 
ATOM     77  C   UNL A   1      38.128  28.870  28.809  1.00  0.00     0.000 A 
ENDBRANCH  53  72
BRANCH  65  78
ATOM     78  C   UNL A   1      46.177  32.746  29.338  1.00  0.00    -0.014 A 
ATOM     79  C   UNL A   1      46.538  32.834  30.692  1.00  0.00     0.009 A 
ATOM     80  C   UNL A   1      45.958  33.934  28.621  1.00  0.00     0.009 A 
ATOM     81  C   UNL A   1      46.643  34.081  31.318  1.00  0.00     0.001 A 
ATOM     82  C   UNL A   1      46.096  35.179  29.240  1.00  0.00     0.001 A 
ATOM     83  C   UNL A   1      46.428  35.251  30.591  1.00  0.00     0.000 A 
ENDBRANCH  65  78
ENDBRANCH  39  40
ENDBRANCH  32  34
ENDBRANCH  31  32
ENDBRANCH  30  31
ENDBRANCH  29  30
ENDBRANCH  28  29
ENDBRANCH  27  28
ENDBRANCH   1  27
TORSDOF 20
ENDMDL
