MODEL 1
REMARK VINA RESULT:     -11.0      0.000      0.000
REMARK SMILES O=C(OCCOCCOCCOC(=O)c1cc(-c2ccccn2)nc2ccc(F)cc12)c1ccc(-c2c3nc(c(-c4ccccc4)c4ccc([nH]4)c(-c4ccccc4)c4nc(c(-c5ccccc5)c5ccc2[nH]5)C=C4)C=C3)cc1
REMARK SMILES IDX 7 1 6 2 5 3 4 4 3 5 2 6 1 7 32 8 33 9 79 10 34 11 78 12
REMARK SMILES IDX 35 13 36 14 37 15 72 16 38 17 77 18 71 19 73 20 39 21 76 22
REMARK SMILES IDX 70 23 69 24 40 26 62 27 47 28 61 29 48 30 51 31 60 32 74 33
REMARK SMILES IDX 49 34 50 35 59 37 75 38 52 39 41 40 42 41 46 42 43 43 45 44
REMARK SMILES IDX 44 45 63 46 64 47 68 48 65 49 67 50 66 51 53 52 54 53 58 54
REMARK SMILES IDX 55 55 57 56 56 57 8 58 9 59 10 60 11 61 12 62 13 63 14 64
REMARK SMILES IDX 15 65 16 66 31 67 17 68 25 69 30 70 24 71 26 72 28 73 27 74
REMARK SMILES IDX 29 75 18 76 19 77 23 78 20 79 22 80 21 81
REMARK H PARENT 73 25 51 36
REMARK Flexibility Score: inf
ROOT
ATOM      1  C   UNL A   1      41.247  20.444  27.003  1.00  0.00     0.188 C 
ENDROOT
BRANCH   1   2
ATOM      2  O   UNL A   1      42.588  20.900  26.855  1.00  0.00    -0.376 OA
BRANCH   2   3
ATOM      3  C   UNL A   1      43.314  20.403  25.745  1.00  0.00     0.202 C 
BRANCH   3   4
ATOM      4  C   UNL A   1      44.172  21.429  25.000  1.00  0.00     0.261 C 
BRANCH   4   5
ATOM      5  O   UNL A   1      43.470  22.618  24.615  1.00  0.00    -0.460 OA
BRANCH   5   6
ATOM      6  C   UNL A   1      44.085  23.830  24.668  1.00  0.00     0.338 C 
ATOM      7  O   UNL A   1      45.235  23.982  24.278  1.00  0.00    -0.246 OA
BRANCH   6   8
ATOM      8  C   UNL A   1      43.448  24.875  25.522  1.00  0.00     0.060 A 
ATOM      9  C   UNL A   1      42.223  24.565  26.134  1.00  0.00     0.016 A 
ATOM     10  C   UNL A   1      44.054  26.101  25.803  1.00  0.00     0.016 A 
ATOM     11  C   UNL A   1      41.621  25.465  27.029  1.00  0.00     0.010 A 
ATOM     12  C   UNL A   1      43.441  27.015  26.666  1.00  0.00     0.010 A 
ATOM     13  C   UNL A   1      42.247  26.684  27.329  1.00  0.00    -0.014 A 
BRANCH  13  14
ATOM     14  C   UNL A   1      41.924  27.423  28.580  1.00  0.00     0.031 A 
ATOM     15  C   UNL A   1      42.614  27.198  29.896  1.00  0.00     0.074 A 
ATOM     16  C   UNL A   1      40.857  28.247  28.503  1.00  0.00     0.049 A 
ATOM     17  N   UNL A   1      42.387  27.789  31.045  1.00  0.00    -0.248 NA
ATOM     18  C   UNL A   1      43.675  26.183  29.950  1.00  0.00     0.031 C 
ATOM     19  C   UNL A   1      40.071  28.491  27.286  1.00  0.00     0.029 A 
ATOM     20  N   UNL A   1      40.217  28.987  29.460  1.00  0.00    -0.354 N 
ATOM     21  C   UNL A   1      43.314  27.269  31.946  1.00  0.00     0.074 A 
ATOM     22  C   UNL A   1      44.057  26.257  31.225  1.00  0.00     0.031 C 
ATOM     23  C   UNL A   1      39.024  29.269  27.586  1.00  0.00     0.029 A 
ATOM     24  C   UNL A   1      39.075  29.599  29.003  1.00  0.00     0.049 A 
ATOM     25  H   UNL A   1      40.543  29.071  30.387  1.00  0.00     0.167 HD
ATOM     26  C   UNL A   1      43.527  27.651  33.232  1.00  0.00     0.031 A 
ATOM     27  C   UNL A   1      38.164  30.353  29.644  1.00  0.00     0.031 A 
ATOM     28  C   UNL A   1      42.729  28.634  33.922  1.00  0.00     0.049 A 
ATOM     29  C   UNL A   1      38.407  30.721  31.071  1.00  0.00     0.074 A 
ATOM     30  C   UNL A   1      42.860  29.063  35.234  1.00  0.00     0.029 A 
ATOM     31  N   UNL A   1      41.655  29.319  33.383  1.00  0.00    -0.354 N 
ATOM     32  N   UNL A   1      39.395  30.355  31.849  1.00  0.00    -0.248 NA
ATOM     33  C   UNL A   1      37.448  31.640  31.698  1.00  0.00     0.031 C 
ATOM     34  C   UNL A   1      41.876  30.013  35.486  1.00  0.00     0.029 A 
ATOM     35  C   UNL A   1      41.113  30.156  34.341  1.00  0.00     0.049 A 
ATOM     36  H   UNL A   1      41.327  29.224  32.458  1.00  0.00     0.167 HD
ATOM     37  C   UNL A   1      39.200  31.030  33.042  1.00  0.00     0.074 A 
ATOM     38  C   UNL A   1      38.003  31.828  32.889  1.00  0.00     0.031 C 
ATOM     39  C   UNL A   1      39.953  30.984  34.163  1.00  0.00     0.031 A 
BRANCH  26  40
ATOM     40  C   UNL A   1      44.680  27.100  34.037  1.00  0.00    -0.014 A 
ATOM     41  C   UNL A   1      44.538  26.018  34.910  1.00  0.00     0.009 A 
ATOM     42  C   UNL A   1      45.876  27.849  34.086  1.00  0.00     0.009 A 
ATOM     43  C   UNL A   1      45.577  25.681  35.790  1.00  0.00     0.001 A 
ATOM     44  C   UNL A   1      46.910  27.515  34.963  1.00  0.00     0.001 A 
ATOM     45  C   UNL A   1      46.759  26.427  35.816  1.00  0.00     0.000 A 
ENDBRANCH  26  40
BRANCH  27  46
ATOM     46  C   UNL A   1      36.992  30.856  28.890  1.00  0.00    -0.014 A 
ATOM     47  C   UNL A   1      36.897  32.215  28.548  1.00  0.00     0.009 A 
ATOM     48  C   UNL A   1      35.922  30.000  28.595  1.00  0.00     0.009 A 
ATOM     49  C   UNL A   1      35.742  32.709  27.939  1.00  0.00     0.001 A 
ATOM     50  C   UNL A   1      34.778  30.494  27.967  1.00  0.00     0.001 A 
ATOM     51  C   UNL A   1      34.685  31.849  27.647  1.00  0.00     0.000 A 
ENDBRANCH  27  46
BRANCH  39  52
ATOM     52  C   UNL A   1      39.535  31.817  35.336  1.00  0.00    -0.014 A 
ATOM     53  C   UNL A   1      38.569  31.328  36.228  1.00  0.00     0.009 A 
ATOM     54  C   UNL A   1      39.974  33.143  35.453  1.00  0.00     0.009 A 
ATOM     55  C   UNL A   1      38.032  32.163  37.209  1.00  0.00     0.001 A 
ATOM     56  C   UNL A   1      39.453  33.967  36.451  1.00  0.00     0.001 A 
ATOM     57  C   UNL A   1      38.477  33.479  37.320  1.00  0.00     0.000 A 
ENDBRANCH  39  52
ENDBRANCH  13  14
ENDBRANCH   6   8
ENDBRANCH   5   6
ENDBRANCH   4   5
ENDBRANCH   3   4
ENDBRANCH   2   3
ENDBRANCH   1   2
BRANCH   1  58
ATOM     58  C   UNL A   1      40.137  21.291  26.367  1.00  0.00     0.188 C 
BRANCH  58  59
ATOM     59  O   UNL A   1      39.098  20.649  25.642  1.00  0.00    -0.376 OA
BRANCH  59  60
ATOM     60  C   UNL A   1      37.886  21.348  25.401  1.00  0.00     0.202 C 
BRANCH  60  61
ATOM     61  C   UNL A   1      37.918  22.865  25.595  1.00  0.00     0.261 C 
BRANCH  61  62
ATOM     62  O   UNL A   1      36.705  23.535  25.214  1.00  0.00    -0.460 OA
BRANCH  62  63
ATOM     63  C   UNL A   1      36.229  23.305  23.966  1.00  0.00     0.338 C 
ATOM     64  O   UNL A   1      36.806  23.462  22.899  1.00  0.00    -0.246 OA
BRANCH  63  65
ATOM     65  C   UNL A   1      34.815  22.932  24.085  1.00  0.00     0.071 A 
ATOM     66  C   UNL A   1      34.606  21.569  24.155  1.00  0.00     0.047 A 
ATOM     67  C   UNL A   1      33.728  23.827  24.097  1.00  0.00     0.018 A 
ATOM     68  C   UNL A   1      33.313  21.095  24.235  1.00  0.00     0.090 A 
ATOM     69  C   UNL A   1      32.441  23.246  24.131  1.00  0.00     0.072 A 
ATOM     70  C   UNL A   1      33.837  25.232  24.055  1.00  0.00     0.050 A 
ATOM     71  N   UNL A   1      32.243  21.925  24.215  1.00  0.00    -0.246 NA
ATOM     72  C   UNL A   1      31.321  24.064  24.052  1.00  0.00     0.032 A 
ATOM     73  C   UNL A   1      32.696  26.023  23.986  1.00  0.00     0.123 A 
ATOM     74  C   UNL A   1      31.435  25.451  23.969  1.00  0.00     0.041 A 
ATOM     75  F   UNL A   1      32.820  27.353  23.918  1.00  0.00    -0.207 F 
BRANCH  68  76
ATOM     76  C   UNL A   1      33.092  19.653  24.106  1.00  0.00     0.089 A 
ATOM     77  C   UNL A   1      33.990  18.737  24.667  1.00  0.00     0.030 A 
ATOM     78  N   UNL A   1      32.211  19.310  23.144  1.00  0.00    -0.255 NA
ATOM     79  C   UNL A   1      34.125  17.492  24.078  1.00  0.00     0.004 A 
ATOM     80  C   UNL A   1      32.326  18.081  22.631  1.00  0.00     0.112 A 
ATOM     81  C   UNL A   1      33.303  17.178  23.013  1.00  0.00     0.020 A 
ENDBRANCH  68  76
ENDBRANCH  63  65
ENDBRANCH  62  63
ENDBRANCH  61  62
ENDBRANCH  60  61
ENDBRANCH  59  60
ENDBRANCH  58  59
ENDBRANCH   1  58
TORSDOF 18
ENDMDL
MODEL 2
REMARK VINA RESULT:     -10.7      1.414      3.128
REMARK SMILES O=C(OCCOCCOCCOC(=O)c1cc(-c2ccccn2)nc2ccc(F)cc12)c1ccc(-c2c3nc(c(-c4ccccc4)c4ccc([nH]4)c(-c4ccccc4)c4nc(c(-c5ccccc5)c5ccc2[nH]5)C=C4)C=C3)cc1
REMARK SMILES IDX 7 1 6 2 5 3 4 4 3 5 2 6 1 7 32 8 33 9 79 10 34 11 78 12
REMARK SMILES IDX 35 13 36 14 37 15 72 16 38 17 77 18 71 19 73 20 39 21 76 22
REMARK SMILES IDX 70 23 69 24 40 26 62 27 47 28 61 29 48 30 51 31 60 32 74 33
REMARK SMILES IDX 49 34 50 35 59 37 75 38 52 39 41 40 42 41 46 42 43 43 45 44
REMARK SMILES IDX 44 45 63 46 64 47 68 48 65 49 67 50 66 51 53 52 54 53 58 54
REMARK SMILES IDX 55 55 57 56 56 57 8 58 9 59 10 60 11 61 12 62 13 63 14 64
REMARK SMILES IDX 15 65 16 66 31 67 17 68 25 69 30 70 24 71 26 72 28 73 27 74
REMARK SMILES IDX 29 75 18 76 19 77 23 78 20 79 22 80 21 81
REMARK H PARENT 73 25 51 36
REMARK Flexibility Score: inf
ROOT
ATOM      1  C   UNL A   1      41.170  20.336  27.005  1.00  0.00     0.188 C 
ENDROOT
BRANCH   1   2
ATOM      2  O   UNL A   1      42.538  20.723  26.915  1.00  0.00    -0.376 OA
BRANCH   2   3
ATOM      3  C   UNL A   1      43.255  20.276  25.778  1.00  0.00     0.202 C 
BRANCH   3   4
ATOM      4  C   UNL A   1      44.063  21.347  25.039  1.00  0.00     0.261 C 
BRANCH   4   5
ATOM      5  O   UNL A   1      43.319  22.530  24.721  1.00  0.00    -0.460 OA
BRANCH   5   6
ATOM      6  C   UNL A   1      43.931  23.745  24.707  1.00  0.00     0.338 C 
ATOM      7  O   UNL A   1      45.061  23.889  24.259  1.00  0.00    -0.246 OA
BRANCH   6   8
ATOM      8  C   UNL A   1      43.329  24.815  25.556  1.00  0.00     0.060 A 
ATOM      9  C   UNL A   1      42.133  24.523  26.230  1.00  0.00     0.016 A 
ATOM     10  C   UNL A   1      43.944  26.050  25.772  1.00  0.00     0.016 A 
ATOM     11  C   UNL A   1      41.569  25.449  27.123  1.00  0.00     0.010 A 
ATOM     12  C   UNL A   1      43.367  26.989  26.633  1.00  0.00     0.010 A 
ATOM     13  C   UNL A   1      42.204  26.678  27.358  1.00  0.00    -0.014 A 
BRANCH  13  14
ATOM     14  C   UNL A   1      41.935  27.453  28.599  1.00  0.00     0.031 A 
ATOM     15  C   UNL A   1      42.649  27.236  29.903  1.00  0.00     0.074 A 
ATOM     16  C   UNL A   1      40.892  28.309  28.528  1.00  0.00     0.049 A 
ATOM     17  N   UNL A   1      42.469  27.860  31.043  1.00  0.00    -0.248 NA
ATOM     18  C   UNL A   1      43.680  26.191  29.955  1.00  0.00     0.031 C 
ATOM     19  C   UNL A   1      40.085  28.550  27.325  1.00  0.00     0.029 A 
ATOM     20  N   UNL A   1      40.299  29.089  29.483  1.00  0.00    -0.354 N 
ATOM     21  C   UNL A   1      43.401  27.332  31.933  1.00  0.00     0.074 A 
ATOM     22  C   UNL A   1      44.095  26.281  31.219  1.00  0.00     0.031 C 
ATOM     23  C   UNL A   1      39.069  29.366  27.631  1.00  0.00     0.029 A 
ATOM     24  C   UNL A   1      39.165  29.726  29.039  1.00  0.00     0.049 A 
ATOM     25  H   UNL A   1      40.649  29.184  30.399  1.00  0.00     0.167 HD
ATOM     26  C   UNL A   1      43.657  27.736  33.205  1.00  0.00     0.031 A 
ATOM     27  C   UNL A   1      38.294  30.522  29.684  1.00  0.00     0.031 A 
ATOM     28  C   UNL A   1      42.906  28.758  33.891  1.00  0.00     0.049 A 
ATOM     29  C   UNL A   1      38.582  30.915  31.096  1.00  0.00     0.074 A 
ATOM     30  C   UNL A   1      43.083  29.212  35.189  1.00  0.00     0.029 A 
ATOM     31  N   UNL A   1      41.841  29.464  33.361  1.00  0.00    -0.354 N 
ATOM     32  N   UNL A   1      39.577  30.535  31.858  1.00  0.00    -0.248 NA
ATOM     33  C   UNL A   1      37.667  31.876  31.724  1.00  0.00     0.031 C 
ATOM     34  C   UNL A   1      42.135  30.197  35.442  1.00  0.00     0.029 A 
ATOM     35  C   UNL A   1      41.348  30.339  34.313  1.00  0.00     0.049 A 
ATOM     36  H   UNL A   1      41.488  29.359  32.448  1.00  0.00     0.167 HD
ATOM     37  C   UNL A   1      39.432  31.242  33.040  1.00  0.00     0.074 A 
ATOM     38  C   UNL A   1      38.257  32.073  32.897  1.00  0.00     0.031 C 
ATOM     39  C   UNL A   1      40.211  31.198  34.143  1.00  0.00     0.031 A 
BRANCH  26  40
ATOM     40  C   UNL A   1      44.812  27.167  33.995  1.00  0.00    -0.014 A 
ATOM     41  C   UNL A   1      44.661  26.098  34.883  1.00  0.00     0.009 A 
ATOM     42  C   UNL A   1      46.026  27.888  34.012  1.00  0.00     0.009 A 
ATOM     43  C   UNL A   1      45.709  25.748  35.748  1.00  0.00     0.001 A 
ATOM     44  C   UNL A   1      47.069  27.540  34.873  1.00  0.00     0.001 A 
ATOM     45  C   UNL A   1      46.908  26.466  35.742  1.00  0.00     0.000 A 
ENDBRANCH  26  40
BRANCH  27  46
ATOM     46  C   UNL A   1      37.119  31.044  28.946  1.00  0.00    -0.014 A 
ATOM     47  C   UNL A   1      37.056  32.398  28.578  1.00  0.00     0.009 A 
ATOM     48  C   UNL A   1      36.017  30.215  28.695  1.00  0.00     0.009 A 
ATOM     49  C   UNL A   1      35.902  32.914  27.985  1.00  0.00     0.001 A 
ATOM     50  C   UNL A   1      34.874  30.731  28.083  1.00  0.00     0.001 A 
ATOM     51  C   UNL A   1      34.814  32.081  27.736  1.00  0.00     0.000 A 
ENDBRANCH  27  46
BRANCH  39  52
ATOM     52  C   UNL A   1      39.847  32.069  35.306  1.00  0.00    -0.014 A 
ATOM     53  C   UNL A   1      38.894  31.627  36.237  1.00  0.00     0.009 A 
ATOM     54  C   UNL A   1      40.322  33.386  35.378  1.00  0.00     0.009 A 
ATOM     55  C   UNL A   1      38.407  32.499  37.211  1.00  0.00     0.001 A 
ATOM     56  C   UNL A   1      39.851  34.247  36.370  1.00  0.00     0.001 A 
ATOM     57  C   UNL A   1      38.888  33.805  37.277  1.00  0.00     0.000 A 
ENDBRANCH  39  52
ENDBRANCH  13  14
ENDBRANCH   6   8
ENDBRANCH   5   6
ENDBRANCH   4   5
ENDBRANCH   3   4
ENDBRANCH   2   3
ENDBRANCH   1   2
BRANCH   1  58
ATOM     58  C   UNL A   1      40.127  21.274  26.386  1.00  0.00     0.188 C 
BRANCH  58  59
ATOM     59  O   UNL A   1      39.002  20.722  25.716  1.00  0.00    -0.376 OA
BRANCH  59  60
ATOM     60  C   UNL A   1      37.874  21.545  25.461  1.00  0.00     0.202 C 
BRANCH  60  61
ATOM     61  C   UNL A   1      38.100  23.057  25.517  1.00  0.00     0.261 C 
BRANCH  61  62
ATOM     62  O   UNL A   1      36.918  23.840  25.276  1.00  0.00    -0.460 OA
BRANCH  62  63
ATOM     63  C   UNL A   1      36.243  23.614  24.124  1.00  0.00     0.338 C 
ATOM     64  O   UNL A   1      36.695  23.508  22.993  1.00  0.00    -0.246 OA
BRANCH  63  65
ATOM     65  C   UNL A   1      34.808  23.631  24.433  1.00  0.00     0.071 A 
ATOM     66  C   UNL A   1      34.294  24.901  24.610  1.00  0.00     0.047 A 
ATOM     67  C   UNL A   1      33.987  22.497  24.581  1.00  0.00     0.018 A 
ATOM     68  C   UNL A   1      32.962  25.042  24.936  1.00  0.00     0.090 A 
ATOM     69  C   UNL A   1      32.649  22.741  24.965  1.00  0.00     0.072 A 
ATOM     70  C   UNL A   1      34.408  21.164  24.397  1.00  0.00     0.050 A 
ATOM     71  N   UNL A   1      32.151  23.973  25.119  1.00  0.00    -0.246 NA
ATOM     72  C   UNL A   1      31.807  21.666  25.219  1.00  0.00     0.032 A 
ATOM     73  C   UNL A   1      33.536  20.112  24.651  1.00  0.00     0.123 A 
ATOM     74  C   UNL A   1      32.240  20.349  25.075  1.00  0.00     0.041 A 
ATOM     75  F   UNL A   1      33.963  18.853  24.498  1.00  0.00    -0.207 F 
BRANCH  68  76
ATOM     76  C   UNL A   1      32.478  26.371  25.318  1.00  0.00     0.089 A 
ATOM     77  C   UNL A   1      33.105  27.527  24.840  1.00  0.00     0.030 A 
ATOM     78  N   UNL A   1      31.664  26.378  26.394  1.00  0.00    -0.255 NA
ATOM     79  C   UNL A   1      33.060  28.676  25.611  1.00  0.00     0.004 A 
ATOM     80  C   UNL A   1      31.594  27.517  27.090  1.00  0.00     0.112 A 
ATOM     81  C   UNL A   1      32.322  28.653  26.779  1.00  0.00     0.020 A 
ENDBRANCH  68  76
ENDBRANCH  63  65
ENDBRANCH  62  63
ENDBRANCH  61  62
ENDBRANCH  60  61
ENDBRANCH  59  60
ENDBRANCH  58  59
ENDBRANCH   1  58
TORSDOF 18
ENDMDL
MODEL 3
REMARK VINA RESULT:     -10.7      3.764      8.175
REMARK SMILES O=C(OCCOCCOCCOC(=O)c1cc(-c2ccccn2)nc2ccc(F)cc12)c1ccc(-c2c3nc(c(-c4ccccc4)c4ccc([nH]4)c(-c4ccccc4)c4nc(c(-c5ccccc5)c5ccc2[nH]5)C=C4)C=C3)cc1
REMARK SMILES IDX 7 1 6 2 5 3 4 4 3 5 2 6 1 7 32 8 33 9 79 10 34 11 78 12
REMARK SMILES IDX 35 13 36 14 37 15 72 16 38 17 77 18 71 19 73 20 39 21 76 22
REMARK SMILES IDX 70 23 69 24 40 26 62 27 47 28 61 29 48 30 51 31 60 32 74 33
REMARK SMILES IDX 49 34 50 35 59 37 75 38 52 39 41 40 42 41 46 42 43 43 45 44
REMARK SMILES IDX 44 45 63 46 64 47 68 48 65 49 67 50 66 51 53 52 54 53 58 54
REMARK SMILES IDX 55 55 57 56 56 57 8 58 9 59 10 60 11 61 12 62 13 63 14 64
REMARK SMILES IDX 15 65 16 66 31 67 17 68 25 69 30 70 24 71 26 72 28 73 27 74
REMARK SMILES IDX 29 75 18 76 19 77 23 78 20 79 22 80 21 81
REMARK H PARENT 73 25 51 36
REMARK Flexibility Score: inf
ROOT
ATOM      1  C   UNL A   1      31.742  27.640  25.504  1.00  0.00     0.188 C 
ENDROOT
BRANCH   1   2
ATOM      2  O   UNL A   1      32.427  28.874  25.317  1.00  0.00    -0.376 OA
BRANCH   2   3
ATOM      3  C   UNL A   1      33.469  29.172  26.230  1.00  0.00     0.202 C 
BRANCH   3   4
ATOM      4  C   UNL A   1      33.113  30.163  27.343  1.00  0.00     0.261 C 
BRANCH   4   5
ATOM      5  O   UNL A   1      34.023  31.263  27.465  1.00  0.00    -0.460 OA
BRANCH   5   6
ATOM      6  C   UNL A   1      34.765  31.422  28.595  1.00  0.00     0.338 C 
ATOM      7  O   UNL A   1      34.651  32.415  29.302  1.00  0.00    -0.246 OA
BRANCH   6   8
ATOM      8  C   UNL A   1      35.950  30.530  28.757  1.00  0.00     0.060 A 
ATOM      9  C   UNL A   1      36.807  30.371  27.656  1.00  0.00     0.016 A 
ATOM     10  C   UNL A   1      36.284  29.921  29.969  1.00  0.00     0.016 A 
ATOM     11  C   UNL A   1      37.992  29.626  27.772  1.00  0.00     0.010 A 
ATOM     12  C   UNL A   1      37.446  29.150  30.079  1.00  0.00     0.010 A 
ATOM     13  C   UNL A   1      38.338  29.040  28.999  1.00  0.00    -0.014 A 
BRANCH  13  14
ATOM     14  C   UNL A   1      39.749  28.676  29.303  1.00  0.00     0.031 A 
ATOM     15  C   UNL A   1      40.779  29.643  29.812  1.00  0.00     0.074 A 
ATOM     16  C   UNL A   1      40.103  27.416  28.969  1.00  0.00     0.049 A 
ATOM     17  N   UNL A   1      42.041  29.415  30.093  1.00  0.00    -0.248 NA
ATOM     18  C   UNL A   1      40.368  31.038  30.023  1.00  0.00     0.031 C 
ATOM     19  C   UNL A   1      39.193  26.410  28.404  1.00  0.00     0.029 A 
ATOM     20  N   UNL A   1      41.315  26.781  29.001  1.00  0.00    -0.354 N 
ATOM     21  C   UNL A   1      42.562  30.615  30.572  1.00  0.00     0.074 A 
ATOM     22  C   UNL A   1      41.496  31.589  30.471  1.00  0.00     0.031 C 
ATOM     23  C   UNL A   1      39.891  25.313  28.087  1.00  0.00     0.029 A 
ATOM     24  C   UNL A   1      41.287  25.524  28.446  1.00  0.00     0.049 A 
ATOM     25  H   UNL A   1      42.128  27.186  29.384  1.00  0.00     0.167 HD
ATOM     26  C   UNL A   1      43.802  30.838  31.079  1.00  0.00     0.031 A 
ATOM     27  C   UNL A   1      42.269  24.627  28.249  1.00  0.00     0.031 A 
ATOM     28  C   UNL A   1      44.848  29.846  31.115  1.00  0.00     0.049 A 
ATOM     29  C   UNL A   1      43.633  24.922  28.782  1.00  0.00     0.074 A 
ATOM     30  C   UNL A   1      46.142  29.995  31.589  1.00  0.00     0.029 A 
ATOM     31  N   UNL A   1      44.738  28.547  30.652  1.00  0.00    -0.354 N 
ATOM     32  N   UNL A   1      44.052  26.001  29.394  1.00  0.00    -0.248 NA
ATOM     33  C   UNL A   1      44.647  23.868  28.648  1.00  0.00     0.031 C 
ATOM     34  C   UNL A   1      46.812  28.788  31.424  1.00  0.00     0.029 A 
ATOM     35  C   UNL A   1      45.945  27.893  30.821  1.00  0.00     0.049 A 
ATOM     36  H   UNL A   1      43.926  28.150  30.261  1.00  0.00     0.167 HD
ATOM     37  C   UNL A   1      45.363  25.741  29.755  1.00  0.00     0.074 A 
ATOM     38  C   UNL A   1      45.673  24.405  29.296  1.00  0.00     0.031 C 
ATOM     39  C   UNL A   1      46.228  26.548  30.408  1.00  0.00     0.031 A 
BRANCH  26  40
ATOM     40  C   UNL A   1      44.169  32.161  31.708  1.00  0.00    -0.014 A 
ATOM     41  C   UNL A   1      44.891  33.144  31.025  1.00  0.00     0.009 A 
ATOM     42  C   UNL A   1      43.982  32.312  33.100  1.00  0.00     0.009 A 
ATOM     43  C   UNL A   1      45.390  34.259  31.716  1.00  0.00     0.001 A 
ATOM     44  C   UNL A   1      44.481  33.420  33.788  1.00  0.00     0.001 A 
ATOM     45  C   UNL A   1      45.185  34.396  33.091  1.00  0.00     0.000 A 
ENDBRANCH  26  40
BRANCH  27  46
ATOM     46  C   UNL A   1      41.946  23.346  27.579  1.00  0.00    -0.014 A 
ATOM     47  C   UNL A   1      41.433  22.267  28.318  1.00  0.00     0.009 A 
ATOM     48  C   UNL A   1      42.239  23.166  26.220  1.00  0.00     0.009 A 
ATOM     49  C   UNL A   1      41.236  21.027  27.710  1.00  0.00     0.001 A 
ATOM     50  C   UNL A   1      42.021  21.930  25.611  1.00  0.00     0.001 A 
ATOM     51  C   UNL A   1      41.527  20.859  26.357  1.00  0.00     0.000 A 
ENDBRANCH  27  46
BRANCH  39  52
ATOM     52  C   UNL A   1      47.607  26.034  30.689  1.00  0.00    -0.014 A 
ATOM     53  C   UNL A   1      47.991  25.756  32.010  1.00  0.00     0.009 A 
ATOM     54  C   UNL A   1      48.566  25.989  29.668  1.00  0.00     0.009 A 
ATOM     55  C   UNL A   1      49.321  25.462  32.307  1.00  0.00     0.001 A 
ATOM     56  C   UNL A   1      49.891  25.669  29.966  1.00  0.00     0.001 A 
ATOM     57  C   UNL A   1      50.268  25.416  31.285  1.00  0.00     0.000 A 
ENDBRANCH  39  52
ENDBRANCH  13  14
ENDBRANCH   6   8
ENDBRANCH   5   6
ENDBRANCH   4   5
ENDBRANCH   3   4
ENDBRANCH   2   3
ENDBRANCH   1   2
BRANCH   1  58
ATOM     58  C   UNL A   1      31.694  26.670  24.317  1.00  0.00     0.188 C 
BRANCH  58  59
ATOM     59  O   UNL A   1      30.805  25.563  24.355  1.00  0.00    -0.376 OA
BRANCH  59  60
ATOM     60  C   UNL A   1      30.812  24.630  23.286  1.00  0.00     0.202 C 
BRANCH  60  61
ATOM     61  C   UNL A   1      31.822  23.484  23.382  1.00  0.00     0.261 C 
BRANCH  61  62
ATOM     62  O   UNL A   1      32.891  23.716  24.315  1.00  0.00    -0.460 OA
BRANCH  62  63
ATOM     63  C   UNL A   1      32.940  22.931  25.418  1.00  0.00     0.338 C 
ATOM     64  O   UNL A   1      32.337  23.073  26.472  1.00  0.00    -0.246 OA
BRANCH  63  65
ATOM     65  C   UNL A   1      33.959  21.899  25.192  1.00  0.00     0.071 A 
ATOM     66  C   UNL A   1      33.433  20.653  24.913  1.00  0.00     0.047 A 
ATOM     67  C   UNL A   1      35.352  22.090  25.270  1.00  0.00     0.018 A 
ATOM     68  C   UNL A   1      34.295  19.595  24.714  1.00  0.00     0.090 A 
ATOM     69  C   UNL A   1      36.151  20.938  25.101  1.00  0.00     0.072 A 
ATOM     70  C   UNL A   1      35.986  23.324  25.522  1.00  0.00     0.050 A 
ATOM     71  N   UNL A   1      35.638  19.735  24.815  1.00  0.00    -0.246 NA
ATOM     72  C   UNL A   1      37.527  21.033  25.256  1.00  0.00     0.032 A 
ATOM     73  C   UNL A   1      37.367  23.387  25.663  1.00  0.00     0.123 A 
ATOM     74  C   UNL A   1      38.146  22.249  25.546  1.00  0.00     0.041 A 
ATOM     75  F   UNL A   1      37.948  24.562  25.930  1.00  0.00    -0.207 F 
BRANCH  68  76
ATOM     76  C   UNL A   1      33.729  18.246  24.622  1.00  0.00     0.089 A 
ATOM     77  C   UNL A   1      32.659  17.860  25.436  1.00  0.00     0.030 A 
ATOM     78  N   UNL A   1      34.521  17.354  23.991  1.00  0.00    -0.255 NA
ATOM     79  C   UNL A   1      32.529  16.525  25.775  1.00  0.00     0.004 A 
ATOM     80  C   UNL A   1      34.337  16.065  24.294  1.00  0.00     0.112 A 
ATOM     81  C   UNL A   1      33.413  15.619  25.224  1.00  0.00     0.020 A 
ENDBRANCH  68  76
ENDBRANCH  63  65
ENDBRANCH  62  63
ENDBRANCH  61  62
ENDBRANCH  60  61
ENDBRANCH  59  60
ENDBRANCH  58  59
ENDBRANCH   1  58
TORSDOF 18
ENDMDL
