MODEL 1
REMARK VINA RESULT:     -11.6      0.000      0.000
REMARK SMILES O=C(Cn1c(=O)[nH]c2ccccc2c1=O)NC[C@H]1CC[C@@H](C(=O)N2CCC(C(=O)OCCOCCOCCOC(=O)c3ccc(-c4c5nc(c(-c6ccccc6)c6ccc([nH]6)c(-c6ccccc6)c6nc(c(-c7ccccc7)c7ccc4[nH]7)C=C6)C=C5)cc3)CC2)CC1
REMARK SMILES IDX 33 1 32 2 31 3 30 4 28 5 29 6 27 7 22 8 23 9 24 10 25 11
REMARK SMILES IDX 91 12 26 13 90 14 21 15 18 16 19 17 93 18 20 19 92 20 17 21
REMARK SMILES IDX 16 22 1 23 2 24 3 26 4 27 5 28 14 29 6 30 7 31 13 32 15 33
REMARK SMILES IDX 8 34 12 36 9 37 11 38 10 39 34 40 35 41 36 42 37 43 38 44
REMARK SMILES IDX 39 45 40 46 41 47 42 48 43 49 89 50 44 51 88 52 45 53 46 54
REMARK SMILES IDX 47 55 82 56 48 57 87 58 81 59 83 60 49 61 86 62 80 63 79 64
REMARK SMILES IDX 50 66 72 67 57 68 71 69 58 70 61 71 70 72 84 73 59 74 60 75
REMARK SMILES IDX 69 77 85 78 62 79 51 80 52 81 56 82 53 83 55 84 54 85 73 86
REMARK SMILES IDX 74 87 78 88 75 89 77 90 76 91 63 92 64 93 68 94 65 95 67 96
REMARK SMILES IDX 66 97
REMARK H PARENT 16 25 7 35 83 65 61 76
REMARK Flexibility Score: inf
ROOT
ATOM      1  O   UNL A   1      38.304  21.461  25.737  1.00  0.00    -0.376 OA
ENDROOT
BRANCH   1   2
ATOM      2  C   UNL A   1      38.138  20.243  25.009  1.00  0.00     0.202 C 
BRANCH   2   3
ATOM      3  C   UNL A   1      36.712  19.689  24.916  1.00  0.00     0.261 C 
BRANCH   3   4
ATOM      4  O   UNL A   1      35.682  20.671  25.136  1.00  0.00    -0.463 OA
BRANCH   4   5
ATOM      5  C   UNL A   1      34.439  20.309  24.725  1.00  0.00     0.309 C 
ATOM      6  O   UNL A   1      34.063  19.151  24.573  1.00  0.00    -0.252 OA
BRANCH   5   7
ATOM      7  C   UNL A   1      33.528  21.482  24.435  1.00  0.00     0.103 C 
ATOM      8  C   UNL A   1      31.873  25.390  25.112  1.00  0.00     0.225 C 
ATOM      9  O   UNL A   1      31.025  25.488  26.010  1.00  0.00    -0.275 OA
ATOM     10  N   UNL A   1      32.407  24.150  24.812  1.00  0.00    -0.342 N 
ATOM     11  C   UNL A   1      31.549  22.966  24.947  1.00  0.00     0.120 C 
ATOM     12  C   UNL A   1      33.645  23.959  24.102  1.00  0.00     0.120 C 
ATOM     13  C   UNL A   1      32.301  21.683  25.324  1.00  0.00     0.037 C 
ATOM     14  C   UNL A   1      34.408  22.720  24.507  1.00  0.00     0.037 C 
BRANCH   8  15
ATOM     15  C   UNL A   1      32.112  26.648  24.222  1.00  0.00     0.078 C 
ATOM     16  C   UNL A   1      32.891  29.141  25.773  1.00  0.00     0.008 C 
ATOM     17  C   UNL A   1      33.768  27.878  25.666  1.00  0.00     0.006 C 
ATOM     18  C   UNL A   1      31.462  28.991  25.220  1.00  0.00     0.006 C 
ATOM     19  C   UNL A   1      33.569  27.094  24.380  1.00  0.00     0.014 C 
ATOM     20  C   UNL A   1      31.222  27.892  24.169  1.00  0.00     0.014 C 
BRANCH  16  21
ATOM     21  C   UNL A   1      32.993  29.673  27.231  1.00  0.00     0.119 C 
BRANCH  21  22
ATOM     22  N   UNL A   1      33.330  31.074  27.413  1.00  0.00    -0.354 N 
ATOM     23  O   UNL A   1      35.173  30.644  28.709  1.00  0.00    -0.273 OA
ATOM     24  C   UNL A   1      34.510  31.437  28.040  1.00  0.00     0.240 C 
ATOM     25  H   UNL A   1      32.714  31.771  27.091  1.00  0.00     0.163 HD
BRANCH  24  26
ATOM     26  C   UNL A   1      34.895  32.915  27.986  1.00  0.00     0.230 C 
BRANCH  26  27
ATOM     27  N   UNL A   1      34.849  33.569  29.286  1.00  0.00    -0.250 N 
ATOM     28  C   UNL A   1      35.988  33.538  30.072  1.00  0.00     0.329 A 
ATOM     29  C   UNL A   1      33.780  34.432  29.519  1.00  0.00     0.264 A 
ATOM     30  O   UNL A   1      36.999  32.894  29.796  1.00  0.00    -0.248 OA
ATOM     31  N   UNL A   1      35.971  34.295  31.211  1.00  0.00    -0.307 N 
ATOM     32  C   UNL A   1      33.745  35.110  30.820  1.00  0.00     0.064 A 
ATOM     33  O   UNL A   1      32.879  34.648  28.714  1.00  0.00    -0.268 OA
ATOM     34  C   UNL A   1      34.877  35.050  31.624  1.00  0.00     0.055 A 
ATOM     35  H   UNL A   1      36.779  34.305  31.772  1.00  0.00     0.171 HD
ATOM     36  C   UNL A   1      32.610  35.810  31.237  1.00  0.00     0.016 A 
ATOM     37  C   UNL A   1      34.907  35.737  32.835  1.00  0.00     0.027 A 
ATOM     38  C   UNL A   1      32.625  36.472  32.463  1.00  0.00     0.001 A 
ATOM     39  C   UNL A   1      33.776  36.446  33.254  1.00  0.00     0.002 A 
ENDBRANCH  26  27
ENDBRANCH  24  26
ENDBRANCH  21  22
ENDBRANCH  16  21
ENDBRANCH   8  15
ENDBRANCH   5   7
ENDBRANCH   4   5
ENDBRANCH   3   4
ENDBRANCH   2   3
ENDBRANCH   1   2
BRANCH   1  40
ATOM     40  C   UNL A   1      39.637  21.869  26.010  1.00  0.00     0.188 C 
BRANCH  40  41
ATOM     41  C   UNL A   1      40.545  20.834  26.670  1.00  0.00     0.188 C 
BRANCH  41  42
ATOM     42  O   UNL A   1      41.628  20.359  25.881  1.00  0.00    -0.376 OA
BRANCH  42  43
ATOM     43  C   UNL A   1      42.326  19.230  26.425  1.00  0.00     0.202 C 
BRANCH  43  44
ATOM     44  C   UNL A   1      43.366  18.567  25.496  1.00  0.00     0.261 C 
BRANCH  44  45
ATOM     45  O   UNL A   1      43.669  19.305  24.292  1.00  0.00    -0.460 OA
BRANCH  45  46
ATOM     46  C   UNL A   1      44.949  19.703  24.096  1.00  0.00     0.338 C 
ATOM     47  O   UNL A   1      45.772  19.162  23.379  1.00  0.00    -0.246 OA
BRANCH  46  48
ATOM     48  C   UNL A   1      45.099  21.075  24.664  1.00  0.00     0.060 A 
ATOM     49  C   UNL A   1      45.457  21.291  25.999  1.00  0.00     0.016 A 
ATOM     50  C   UNL A   1      44.749  22.167  23.857  1.00  0.00     0.016 A 
ATOM     51  C   UNL A   1      45.478  22.593  26.517  1.00  0.00     0.010 A 
ATOM     52  C   UNL A   1      44.761  23.467  24.379  1.00  0.00     0.010 A 
ATOM     53  C   UNL A   1      45.140  23.693  25.709  1.00  0.00    -0.014 A 
BRANCH  53  54
ATOM     54  C   UNL A   1      45.346  25.081  26.199  1.00  0.00     0.031 A 
ATOM     55  C   UNL A   1      46.687  25.757  26.181  1.00  0.00     0.074 A 
ATOM     56  C   UNL A   1      44.278  25.739  26.695  1.00  0.00     0.049 A 
ATOM     57  N   UNL A   1      46.989  26.980  26.545  1.00  0.00    -0.248 NA
ATOM     58  C   UNL A   1      47.831  24.975  25.690  1.00  0.00     0.031 C 
ATOM     59  C   UNL A   1      42.921  25.197  26.765  1.00  0.00     0.029 A 
ATOM     60  N   UNL A   1      44.165  26.999  27.229  1.00  0.00    -0.354 N 
ATOM     61  C   UNL A   1      48.349  27.125  26.305  1.00  0.00     0.074 A 
ATOM     62  C   UNL A   1      48.823  25.852  25.802  1.00  0.00     0.031 C 
ATOM     63  C   UNL A   1      42.109  26.125  27.293  1.00  0.00     0.029 A 
ATOM     64  C   UNL A   1      42.889  27.312  27.629  1.00  0.00     0.049 A 
ATOM     65  H   UNL A   1      44.926  27.618  27.316  1.00  0.00     0.167 HD
ATOM     66  C   UNL A   1      49.122  28.225  26.476  1.00  0.00     0.031 A 
ATOM     67  C   UNL A   1      42.394  28.425  28.204  1.00  0.00     0.031 A 
ATOM     68  C   UNL A   1      48.660  29.484  27.006  1.00  0.00     0.049 A 
ATOM     69  C   UNL A   1      43.300  29.593  28.475  1.00  0.00     0.074 A 
ATOM     70  C   UNL A   1      49.380  30.656  27.179  1.00  0.00     0.029 A 
ATOM     71  N   UNL A   1      47.375  29.736  27.460  1.00  0.00    -0.354 N 
ATOM     72  N   UNL A   1      44.567  29.736  28.177  1.00  0.00    -0.248 NA
ATOM     73  C   UNL A   1      42.707  30.756  29.153  1.00  0.00     0.031 C 
ATOM     74  C   UNL A   1      48.553  31.594  27.798  1.00  0.00     0.029 A 
ATOM     75  C   UNL A   1      47.297  31.031  27.946  1.00  0.00     0.049 A 
ATOM     76  H   UNL A   1      46.632  29.092  27.440  1.00  0.00     0.167 HD
ATOM     77  C   UNL A   1      44.913  31.014  28.597  1.00  0.00     0.074 A 
ATOM     78  C   UNL A   1      43.725  31.608  29.169  1.00  0.00     0.031 C 
ATOM     79  C   UNL A   1      46.114  31.633  28.507  1.00  0.00     0.031 A 
BRANCH  66  80
ATOM     80  C   UNL A   1      50.570  28.157  26.071  1.00  0.00    -0.014 A 
ATOM     81  C   UNL A   1      51.563  27.940  27.040  1.00  0.00     0.009 A 
ATOM     82  C   UNL A   1      50.957  28.484  24.762  1.00  0.00     0.009 A 
ATOM     83  C   UNL A   1      52.914  28.078  26.714  1.00  0.00     0.001 A 
ATOM     84  C   UNL A   1      52.309  28.597  24.433  1.00  0.00     0.001 A 
ATOM     85  C   UNL A   1      53.285  28.408  25.410  1.00  0.00     0.000 A 
ENDBRANCH  66  80
BRANCH  67  86
ATOM     86  C   UNL A   1      40.947  28.494  28.536  1.00  0.00    -0.014 A 
ATOM     87  C   UNL A   1      40.427  27.786  29.631  1.00  0.00     0.009 A 
ATOM     88  C   UNL A   1      40.073  29.245  27.736  1.00  0.00     0.009 A 
ATOM     89  C   UNL A   1      39.059  27.813  29.907  1.00  0.00     0.001 A 
ATOM     90  C   UNL A   1      38.709  29.295  28.034  1.00  0.00     0.001 A 
ATOM     91  C   UNL A   1      38.203  28.572  29.113  1.00  0.00     0.000 A 
ENDBRANCH  67  86
BRANCH  79  92
ATOM     92  C   UNL A   1      46.232  33.045  29.008  1.00  0.00    -0.014 A 
ATOM     93  C   UNL A   1      46.081  34.116  28.110  1.00  0.00     0.009 A 
ATOM     94  C   UNL A   1      46.627  33.315  30.327  1.00  0.00     0.009 A 
ATOM     95  C   UNL A   1      46.350  35.425  28.514  1.00  0.00     0.001 A 
ATOM     96  C   UNL A   1      46.870  34.629  30.736  1.00  0.00     0.001 A 
ATOM     97  C   UNL A   1      46.745  35.681  29.826  1.00  0.00     0.000 A 
ENDBRANCH  79  92
ENDBRANCH  53  54
ENDBRANCH  46  48
ENDBRANCH  45  46
ENDBRANCH  44  45
ENDBRANCH  43  44
ENDBRANCH  42  43
ENDBRANCH  41  42
ENDBRANCH  40  41
ENDBRANCH   1  40
TORSDOF 22
ENDMDL
MODEL 2
REMARK VINA RESULT:     -11.5      0.668      5.450
REMARK SMILES O=C(Cn1c(=O)[nH]c2ccccc2c1=O)NC[C@H]1CC[C@@H](C(=O)N2CCC(C(=O)OCCOCCOCCOC(=O)c3ccc(-c4c5nc(c(-c6ccccc6)c6ccc([nH]6)c(-c6ccccc6)c6nc(c(-c7ccccc7)c7ccc4[nH]7)C=C6)C=C5)cc3)CC2)CC1
REMARK SMILES IDX 33 1 32 2 31 3 30 4 28 5 29 6 27 7 22 8 23 9 24 10 25 11
REMARK SMILES IDX 91 12 26 13 90 14 21 15 18 16 19 17 93 18 20 19 92 20 17 21
REMARK SMILES IDX 16 22 1 23 2 24 3 26 4 27 5 28 14 29 6 30 7 31 13 32 15 33
REMARK SMILES IDX 8 34 12 36 9 37 11 38 10 39 34 40 35 41 36 42 37 43 38 44
REMARK SMILES IDX 39 45 40 46 41 47 42 48 43 49 89 50 44 51 88 52 45 53 46 54
REMARK SMILES IDX 47 55 82 56 48 57 87 58 81 59 83 60 49 61 86 62 80 63 79 64
REMARK SMILES IDX 50 66 72 67 57 68 71 69 58 70 61 71 70 72 84 73 59 74 60 75
REMARK SMILES IDX 69 77 85 78 62 79 51 80 52 81 56 82 53 83 55 84 54 85 73 86
REMARK SMILES IDX 74 87 78 88 75 89 77 90 76 91 63 92 64 93 68 94 65 95 67 96
REMARK SMILES IDX 66 97
REMARK H PARENT 16 25 7 35 83 65 61 76
REMARK Flexibility Score: inf
ROOT
ATOM      1  O   UNL A   1      38.343  21.611  26.123  1.00  0.00    -0.376 OA
ENDROOT
BRANCH   1   2
ATOM      2  C   UNL A   1      37.871  20.886  24.986  1.00  0.00     0.202 C 
BRANCH   2   3
ATOM      3  C   UNL A   1      36.404  20.445  25.013  1.00  0.00     0.261 C 
BRANCH   3   4
ATOM      4  O   UNL A   1      35.461  21.528  24.911  1.00  0.00    -0.463 OA
BRANCH   4   5
ATOM      5  C   UNL A   1      34.189  21.163  24.602  1.00  0.00     0.309 C 
ATOM      6  O   UNL A   1      33.771  20.009  24.618  1.00  0.00    -0.252 OA
BRANCH   5   7
ATOM      7  C   UNL A   1      33.304  22.322  24.200  1.00  0.00     0.103 C 
ATOM      8  C   UNL A   1      31.460  26.172  24.697  1.00  0.00     0.225 C 
ATOM      9  O   UNL A   1      30.481  26.227  25.455  1.00  0.00    -0.275 OA
ATOM     10  N   UNL A   1      32.067  24.953  24.457  1.00  0.00    -0.342 N 
ATOM     11  C   UNL A   1      31.230  23.746  24.431  1.00  0.00     0.120 C 
ATOM     12  C   UNL A   1      33.404  24.808  23.943  1.00  0.00     0.120 C 
ATOM     13  C   UNL A   1      31.948  22.471  24.892  1.00  0.00     0.037 C 
ATOM     14  C   UNL A   1      34.128  23.578  24.435  1.00  0.00     0.037 C 
BRANCH   8  15
ATOM     15  C   UNL A   1      31.799  27.457  23.883  1.00  0.00     0.078 C 
ATOM     16  C   UNL A   1      32.472  29.875  25.595  1.00  0.00     0.008 C 
ATOM     17  C   UNL A   1      33.335  28.600  25.519  1.00  0.00     0.006 C 
ATOM     18  C   UNL A   1      31.098  29.773  24.908  1.00  0.00     0.006 C 
ATOM     19  C   UNL A   1      33.243  27.869  24.191  1.00  0.00     0.014 C 
ATOM     20  C   UNL A   1      30.938  28.720  23.797  1.00  0.00     0.014 C 
BRANCH  16  21
ATOM     21  C   UNL A   1      32.448  30.350  27.076  1.00  0.00     0.119 C 
BRANCH  21  22
ATOM     22  N   UNL A   1      33.087  31.616  27.387  1.00  0.00    -0.354 N 
ATOM     23  O   UNL A   1      34.989  30.649  28.231  1.00  0.00    -0.273 OA
ATOM     24  C   UNL A   1      34.403  31.650  27.821  1.00  0.00     0.240 C 
ATOM     25  H   UNL A   1      32.583  32.456  27.290  1.00  0.00     0.163 HD
BRANCH  24  26
ATOM     26  C   UNL A   1      35.066  33.025  27.903  1.00  0.00     0.230 C 
BRANCH  26  27
ATOM     27  N   UNL A   1      34.818  33.708  29.165  1.00  0.00    -0.250 N 
ATOM     28  C   UNL A   1      33.618  34.381  29.317  1.00  0.00     0.329 A 
ATOM     29  C   UNL A   1      35.658  33.388  30.230  1.00  0.00     0.264 A 
ATOM     30  O   UNL A   1      32.797  34.539  28.415  1.00  0.00    -0.248 OA
ATOM     31  N   UNL A   1      33.342  34.874  30.562  1.00  0.00    -0.307 N 
ATOM     32  C   UNL A   1      35.394  34.059  31.508  1.00  0.00     0.064 A 
ATOM     33  O   UNL A   1      36.592  32.595  30.158  1.00  0.00    -0.268 OA
ATOM     34  C   UNL A   1      34.204  34.762  31.649  1.00  0.00     0.055 A 
ATOM     35  H   UNL A   1      32.483  35.335  30.698  1.00  0.00     0.171 HD
ATOM     36  C   UNL A   1      36.306  33.982  32.563  1.00  0.00     0.016 A 
ATOM     37  C   UNL A   1      33.887  35.355  32.869  1.00  0.00     0.027 A 
ATOM     38  C   UNL A   1      36.007  34.601  33.775  1.00  0.00     0.001 A 
ATOM     39  C   UNL A   1      34.794  35.275  33.931  1.00  0.00     0.002 A 
ENDBRANCH  26  27
ENDBRANCH  24  26
ENDBRANCH  21  22
ENDBRANCH  16  21
ENDBRANCH   8  15
ENDBRANCH   5   7
ENDBRANCH   4   5
ENDBRANCH   3   4
ENDBRANCH   2   3
ENDBRANCH   1   2
BRANCH   1  40
ATOM     40  C   UNL A   1      39.726  21.936  26.151  1.00  0.00     0.188 C 
BRANCH  40  41
ATOM     41  C   UNL A   1      40.645  20.939  26.852  1.00  0.00     0.188 C 
BRANCH  41  42
ATOM     42  O   UNL A   1      41.211  19.925  26.031  1.00  0.00    -0.376 OA
BRANCH  42  43
ATOM     43  C   UNL A   1      42.288  19.191  26.629  1.00  0.00     0.202 C 
BRANCH  43  44
ATOM     44  C   UNL A   1      43.289  18.541  25.649  1.00  0.00     0.261 C 
BRANCH  44  45
ATOM     45  O   UNL A   1      43.591  19.326  24.474  1.00  0.00    -0.460 OA
BRANCH  45  46
ATOM     46  C   UNL A   1      44.880  19.691  24.268  1.00  0.00     0.338 C 
ATOM     47  O   UNL A   1      45.714  19.069  23.633  1.00  0.00    -0.246 OA
BRANCH  46  48
ATOM     48  C   UNL A   1      45.032  21.115  24.689  1.00  0.00     0.060 A 
ATOM     49  C   UNL A   1      44.961  22.171  23.774  1.00  0.00     0.016 A 
ATOM     50  C   UNL A   1      45.378  21.377  26.022  1.00  0.00     0.016 A 
ATOM     51  C   UNL A   1      45.220  23.482  24.197  1.00  0.00     0.010 A 
ATOM     52  C   UNL A   1      45.647  22.687  26.440  1.00  0.00     0.010 A 
ATOM     53  C   UNL A   1      45.554  23.753  25.535  1.00  0.00    -0.014 A 
BRANCH  53  54
ATOM     54  C   UNL A   1      45.641  25.154  26.023  1.00  0.00     0.031 A 
ATOM     55  C   UNL A   1      44.437  25.930  26.475  1.00  0.00     0.074 A 
ATOM     56  C   UNL A   1      46.853  25.743  26.036  1.00  0.00     0.049 A 
ATOM     57  N   UNL A   1      44.387  27.148  26.959  1.00  0.00    -0.248 NA
ATOM     58  C   UNL A   1      43.130  25.265  26.381  1.00  0.00     0.031 C 
ATOM     59  C   UNL A   1      48.101  25.097  25.628  1.00  0.00     0.029 A 
ATOM     60  N   UNL A   1      47.236  27.009  26.406  1.00  0.00    -0.354 N 
ATOM     61  C   UNL A   1      43.051  27.388  27.252  1.00  0.00     0.074 A 
ATOM     62  C   UNL A   1      42.317  26.204  26.853  1.00  0.00     0.031 C 
ATOM     63  C   UNL A   1      49.113  25.963  25.788  1.00  0.00     0.029 A 
ATOM     64  C   UNL A   1      48.585  27.234  26.276  1.00  0.00     0.049 A 
ATOM     65  H   UNL A   1      46.604  27.689  26.734  1.00  0.00     0.167 HD
ATOM     66  C   UNL A   1      42.496  28.489  27.815  1.00  0.00     0.031 A 
ATOM     67  C   UNL A   1      49.321  28.335  26.518  1.00  0.00     0.031 A 
ATOM     68  C   UNL A   1      43.220  29.680  28.184  1.00  0.00     0.049 A 
ATOM     69  C   UNL A   1      48.660  29.576  27.047  1.00  0.00     0.074 A 
ATOM     70  C   UNL A   1      42.729  30.826  28.790  1.00  0.00     0.029 A 
ATOM     71  N   UNL A   1      44.573  29.890  27.974  1.00  0.00    -0.354 N 
ATOM     72  N   UNL A   1      47.408  29.760  27.384  1.00  0.00    -0.248 NA
ATOM     73  C   UNL A   1      49.513  30.759  27.240  1.00  0.00     0.031 C 
ATOM     74  C   UNL A   1      43.767  31.754  28.885  1.00  0.00     0.029 A 
ATOM     75  C   UNL A   1      44.922  31.160  28.404  1.00  0.00     0.049 A 
ATOM     76  H   UNL A   1      45.192  29.235  27.578  1.00  0.00     0.167 HD
ATOM     77  C   UNL A   1      47.330  31.063  27.859  1.00  0.00     0.074 A 
ATOM     78  C   UNL A   1      48.660  31.626  27.771  1.00  0.00     0.031 C 
ATOM     79  C   UNL A   1      46.246  31.723  28.330  1.00  0.00     0.031 A 
BRANCH  66  80
ATOM     80  C   UNL A   1      41.019  28.482  28.104  1.00  0.00    -0.014 A 
ATOM     81  C   UNL A   1      40.124  29.097  27.214  1.00  0.00     0.009 A 
ATOM     82  C   UNL A   1      40.540  28.024  29.341  1.00  0.00     0.009 A 
ATOM     83  C   UNL A   1      38.785  29.279  27.567  1.00  0.00     0.001 A 
ATOM     84  C   UNL A   1      39.195  28.184  29.681  1.00  0.00     0.001 A 
ATOM     85  C   UNL A   1      38.323  28.822  28.801  1.00  0.00     0.000 A 
ENDBRANCH  66  80
BRANCH  67  86
ATOM     86  C   UNL A   1      50.789  28.297  26.287  1.00  0.00    -0.014 A 
ATOM     87  C   UNL A   1      51.647  27.687  27.216  1.00  0.00     0.009 A 
ATOM     88  C   UNL A   1      51.341  28.901  25.147  1.00  0.00     0.009 A 
ATOM     89  C   UNL A   1      53.028  27.700  27.018  1.00  0.00     0.001 A 
ATOM     90  C   UNL A   1      52.722  28.883  24.937  1.00  0.00     0.001 A 
ATOM     91  C   UNL A   1      53.564  28.291  25.877  1.00  0.00     0.000 A 
ENDBRANCH  67  86
BRANCH  79  92
ATOM     92  C   UNL A   1      46.423  33.132  28.823  1.00  0.00    -0.014 A 
ATOM     93  C   UNL A   1      47.093  33.364  30.036  1.00  0.00     0.009 A 
ATOM     94  C   UNL A   1      45.814  34.211  28.167  1.00  0.00     0.009 A 
ATOM     95  C   UNL A   1      47.125  34.642  30.598  1.00  0.00     0.001 A 
ATOM     96  C   UNL A   1      45.870  35.495  28.717  1.00  0.00     0.001 A 
ATOM     97  C   UNL A   1      46.513  35.706  29.938  1.00  0.00     0.000 A 
ENDBRANCH  79  92
ENDBRANCH  53  54
ENDBRANCH  46  48
ENDBRANCH  45  46
ENDBRANCH  44  45
ENDBRANCH  43  44
ENDBRANCH  42  43
ENDBRANCH  41  42
ENDBRANCH  40  41
ENDBRANCH   1  40
TORSDOF 22
ENDMDL
MODEL 3
REMARK VINA RESULT:     -10.5      4.055      7.336
REMARK SMILES O=C(Cn1c(=O)[nH]c2ccccc2c1=O)NC[C@H]1CC[C@@H](C(=O)N2CCC(C(=O)OCCOCCOCCOC(=O)c3ccc(-c4c5nc(c(-c6ccccc6)c6ccc([nH]6)c(-c6ccccc6)c6nc(c(-c7ccccc7)c7ccc4[nH]7)C=C6)C=C5)cc3)CC2)CC1
REMARK SMILES IDX 33 1 32 2 31 3 30 4 28 5 29 6 27 7 22 8 23 9 24 10 25 11
REMARK SMILES IDX 91 12 26 13 90 14 21 15 18 16 19 17 93 18 20 19 92 20 17 21
REMARK SMILES IDX 16 22 1 23 2 24 3 26 4 27 5 28 14 29 6 30 7 31 13 32 15 33
REMARK SMILES IDX 8 34 12 36 9 37 11 38 10 39 34 40 35 41 36 42 37 43 38 44
REMARK SMILES IDX 39 45 40 46 41 47 42 48 43 49 89 50 44 51 88 52 45 53 46 54
REMARK SMILES IDX 47 55 82 56 48 57 87 58 81 59 83 60 49 61 86 62 80 63 79 64
REMARK SMILES IDX 50 66 72 67 57 68 71 69 58 70 61 71 70 72 84 73 59 74 60 75
REMARK SMILES IDX 69 77 85 78 62 79 51 80 52 81 56 82 53 83 55 84 54 85 73 86
REMARK SMILES IDX 74 87 78 88 75 89 77 90 76 91 63 92 64 93 68 94 65 95 67 96
REMARK SMILES IDX 66 97
REMARK H PARENT 16 25 7 35 83 65 61 76
REMARK Flexibility Score: inf
ROOT
ATOM      1  O   UNL A   1      40.474  21.004  27.595  1.00  0.00    -0.376 OA
ENDROOT
BRANCH   1   2
ATOM      2  C   UNL A   1      39.848  21.717  26.528  1.00  0.00     0.202 C 
BRANCH   2   3
ATOM      3  C   UNL A   1      39.343  23.128  26.848  1.00  0.00     0.261 C 
BRANCH   3   4
ATOM      4  O   UNL A   1      40.286  24.174  26.546  1.00  0.00    -0.463 OA
BRANCH   4   5
ATOM      5  C   UNL A   1      40.990  24.646  27.608  1.00  0.00     0.309 C 
ATOM      6  O   UNL A   1      41.559  23.942  28.437  1.00  0.00    -0.252 OA
BRANCH   5   7
ATOM      7  C   UNL A   1      40.998  26.156  27.711  1.00  0.00     0.103 C 
ATOM      8  C   UNL A   1      40.158  29.939  29.568  1.00  0.00     0.225 C 
ATOM      9  O   UNL A   1      39.000  30.368  29.459  1.00  0.00    -0.275 OA
ATOM     10  N   UNL A   1      40.504  28.751  28.951  1.00  0.00    -0.342 N 
ATOM     11  C   UNL A   1      39.865  28.413  27.672  1.00  0.00     0.120 C 
ATOM     12  C   UNL A   1      41.651  27.961  29.314  1.00  0.00     0.120 C 
ATOM     13  C   UNL A   1      39.696  26.907  27.431  1.00  0.00     0.037 C 
ATOM     14  C   UNL A   1      41.468  26.475  29.121  1.00  0.00     0.037 C 
BRANCH   8  15
ATOM     15  C   UNL A   1      41.210  30.894  30.207  1.00  0.00     0.078 C 
ATOM     16  C   UNL A   1      40.460  31.901  32.974  1.00  0.00     0.008 C 
ATOM     17  C   UNL A   1      40.777  30.429  32.644  1.00  0.00     0.006 C 
ATOM     18  C   UNL A   1      40.326  32.828  31.752  1.00  0.00     0.006 C 
ATOM     19  C   UNL A   1      41.747  30.249  31.489  1.00  0.00     0.014 C 
ATOM     20  C   UNL A   1      41.029  32.394  30.454  1.00  0.00     0.014 C 
BRANCH  16  21
ATOM     21  C   UNL A   1      39.263  31.923  33.967  1.00  0.00     0.119 C 
BRANCH  21  22
ATOM     22  N   UNL A   1      37.976  31.461  33.480  1.00  0.00    -0.354 N 
ATOM     23  O   UNL A   1      37.001  33.535  33.567  1.00  0.00    -0.273 OA
ATOM     24  C   UNL A   1      36.972  32.367  33.181  1.00  0.00     0.240 C 
ATOM     25  H   UNL A   1      37.815  30.497  33.361  1.00  0.00     0.163 HD
BRANCH  24  26
ATOM     26  C   UNL A   1      35.740  31.820  32.461  1.00  0.00     0.230 C 
BRANCH  26  27
ATOM     27  N   UNL A   1      34.965  32.850  31.783  1.00  0.00    -0.250 N 
ATOM     28  C   UNL A   1      33.975  33.498  32.500  1.00  0.00     0.329 A 
ATOM     29  C   UNL A   1      35.468  33.319  30.571  1.00  0.00     0.264 A 
ATOM     30  O   UNL A   1      33.627  33.183  33.636  1.00  0.00    -0.248 OA
ATOM     31  N   UNL A   1      33.376  34.567  31.894  1.00  0.00    -0.307 N 
ATOM     32  C   UNL A   1      34.700  34.373  29.898  1.00  0.00     0.064 A 
ATOM     33  O   UNL A   1      36.494  32.904  30.041  1.00  0.00    -0.268 OA
ATOM     34  C   UNL A   1      33.684  35.002  30.607  1.00  0.00     0.055 A 
ATOM     35  H   UNL A   1      32.686  35.058  32.395  1.00  0.00     0.171 HD
ATOM     36  C   UNL A   1      34.990  34.748  28.584  1.00  0.00     0.016 A 
ATOM     37  C   UNL A   1      32.978  36.053  30.026  1.00  0.00     0.027 A 
ATOM     38  C   UNL A   1      34.264  35.778  27.988  1.00  0.00     0.001 A 
ATOM     39  C   UNL A   1      33.269  36.438  28.713  1.00  0.00     0.002 A 
ENDBRANCH  26  27
ENDBRANCH  24  26
ENDBRANCH  21  22
ENDBRANCH  16  21
ENDBRANCH   8  15
ENDBRANCH   5   7
ENDBRANCH   4   5
ENDBRANCH   3   4
ENDBRANCH   2   3
ENDBRANCH   1   2
BRANCH   1  40
ATOM     40  C   UNL A   1      41.695  20.342  27.297  1.00  0.00     0.188 C 
BRANCH  40  41
ATOM     41  C   UNL A   1      42.853  21.225  26.836  1.00  0.00     0.188 C 
BRANCH  41  42
ATOM     42  O   UNL A   1      43.120  21.228  25.440  1.00  0.00    -0.376 OA
BRANCH  42  43
ATOM     43  C   UNL A   1      44.509  21.226  25.088  1.00  0.00     0.202 C 
BRANCH  43  44
ATOM     44  C   UNL A   1      44.868  21.900  23.745  1.00  0.00     0.261 C 
BRANCH  44  45
ATOM     45  O   UNL A   1      45.040  23.333  23.807  1.00  0.00    -0.460 OA
BRANCH  45  46
ATOM     46  C   UNL A   1      46.217  23.811  24.277  1.00  0.00     0.338 C 
ATOM     47  O   UNL A   1      47.301  23.729  23.727  1.00  0.00    -0.246 OA
BRANCH  46  48
ATOM     48  C   UNL A   1      45.924  24.713  25.430  1.00  0.00     0.060 A 
ATOM     49  C   UNL A   1      44.622  25.120  25.742  1.00  0.00     0.016 A 
ATOM     50  C   UNL A   1      47.006  25.259  26.134  1.00  0.00     0.016 A 
ATOM     51  C   UNL A   1      44.407  26.055  26.764  1.00  0.00     0.010 A 
ATOM     52  C   UNL A   1      46.790  26.201  27.148  1.00  0.00     0.010 A 
ATOM     53  C   UNL A   1      45.487  26.595  27.483  1.00  0.00    -0.014 A 
BRANCH  53  54
ATOM     54  C   UNL A   1      45.248  27.435  28.685  1.00  0.00     0.031 A 
ATOM     55  C   UNL A   1      45.023  26.851  30.051  1.00  0.00     0.074 A 
ATOM     56  C   UNL A   1      45.217  28.773  28.523  1.00  0.00     0.049 A 
ATOM     57  N   UNL A   1      44.841  27.479  31.187  1.00  0.00    -0.248 NA
ATOM     58  C   UNL A   1      45.002  25.385  30.163  1.00  0.00     0.031 C 
ATOM     59  C   UNL A   1      45.427  29.466  27.252  1.00  0.00     0.029 A 
ATOM     60  N   UNL A   1      45.002  29.785  29.426  1.00  0.00    -0.354 N 
ATOM     61  C   UNL A   1      44.711  26.491  32.154  1.00  0.00     0.074 A 
ATOM     62  C   UNL A   1      44.793  25.219  31.464  1.00  0.00     0.031 C 
ATOM     63  C   UNL A   1      45.348  30.789  27.459  1.00  0.00     0.029 A 
ATOM     64  C   UNL A   1      45.051  31.039  28.866  1.00  0.00     0.049 A 
ATOM     65  H   UNL A   1      44.830  29.627  30.382  1.00  0.00     0.167 HD
ATOM     66  C   UNL A   1      44.554  26.637  33.492  1.00  0.00     0.031 A 
ATOM     67  C   UNL A   1      44.875  32.256  29.416  1.00  0.00     0.031 A 
ATOM     68  C   UNL A   1      44.441  27.901  34.176  1.00  0.00     0.049 A 
ATOM     69  C   UNL A   1      44.600  32.379  30.888  1.00  0.00     0.074 A 
ATOM     70  C   UNL A   1      44.311  28.129  35.537  1.00  0.00     0.029 A 
ATOM     71  N   UNL A   1      44.429  29.143  33.563  1.00  0.00    -0.354 N 
ATOM     72  N   UNL A   1      44.551  31.438  31.796  1.00  0.00    -0.248 NA
ATOM     73  C   UNL A   1      44.366  33.734  31.413  1.00  0.00     0.031 C 
ATOM     74  C   UNL A   1      44.153  29.500  35.742  1.00  0.00     0.029 A 
ATOM     75  C   UNL A   1      44.256  30.134  34.516  1.00  0.00     0.049 A 
ATOM     76  H   UNL A   1      44.529  29.297  32.596  1.00  0.00     0.167 HD
ATOM     77  C   UNL A   1      44.316  32.087  33.002  1.00  0.00     0.074 A 
ATOM     78  C   UNL A   1      44.235  33.501  32.713  1.00  0.00     0.031 C 
ATOM     79  C   UNL A   1      44.186  31.546  34.236  1.00  0.00     0.031 A 
BRANCH  66  80
ATOM     80  C   UNL A   1      44.511  25.401  34.350  1.00  0.00    -0.014 A 
ATOM     81  C   UNL A   1      45.704  24.819  34.806  1.00  0.00     0.009 A 
ATOM     82  C   UNL A   1      43.301  24.721  34.555  1.00  0.00     0.009 A 
ATOM     83  C   UNL A   1      45.692  23.567  35.425  1.00  0.00     0.001 A 
ATOM     84  C   UNL A   1      43.288  23.480  35.197  1.00  0.00     0.001 A 
ATOM     85  C   UNL A   1      44.483  22.899  35.619  1.00  0.00     0.000 A 
ENDBRANCH  66  80
BRANCH  67  86
ATOM     86  C   UNL A   1      44.987  33.466  28.560  1.00  0.00    -0.014 A 
ATOM     87  C   UNL A   1      46.243  34.006  28.241  1.00  0.00     0.009 A 
ATOM     88  C   UNL A   1      43.832  34.104  28.083  1.00  0.00     0.009 A 
ATOM     89  C   UNL A   1      46.340  35.172  27.480  1.00  0.00     0.001 A 
ATOM     90  C   UNL A   1      43.934  35.253  27.295  1.00  0.00     0.001 A 
ATOM     91  C   UNL A   1      45.187  35.790  27.002  1.00  0.00     0.000 A 
ENDBRANCH  67  86
BRANCH  79  92
ATOM     92  C   UNL A   1      43.966  32.467  35.404  1.00  0.00    -0.014 A 
ATOM     93  C   UNL A   1      42.656  32.823  35.769  1.00  0.00     0.009 A 
ATOM     94  C   UNL A   1      45.044  33.089  36.050  1.00  0.00     0.009 A 
ATOM     95  C   UNL A   1      42.431  33.804  36.737  1.00  0.00     0.001 A 
ATOM     96  C   UNL A   1      44.816  34.050  37.038  1.00  0.00     0.001 A 
ATOM     97  C   UNL A   1      43.511  34.417  37.371  1.00  0.00     0.000 A 
ENDBRANCH  79  92
ENDBRANCH  53  54
ENDBRANCH  46  48
ENDBRANCH  45  46
ENDBRANCH  44  45
ENDBRANCH  43  44
ENDBRANCH  42  43
ENDBRANCH  41  42
ENDBRANCH  40  41
ENDBRANCH   1  40
TORSDOF 22
ENDMDL
