MODEL 1
REMARK VINA RESULT:     -10.4      0.000      0.000
REMARK SMILES Cc1ccc(OCCC(=O)N2C[C@H](O)C[C@@H]2C(=O)OCCOCCOCCOC(=O)c2ccc(-c3c4nc(c(-c5ccccc5)c5ccc([nH]5)c(-c5ccccc5)c5nc(c(-c6ccccc6)c6ccc3[nH]6)C=C5)C=C4)cc2)cc1
REMARK SMILES IDX 22 1 21 2 20 3 19 4 17 5 18 6 16 7 11 8 12 9 13 10 15 11
REMARK SMILES IDX 9 12 10 13 8 14 7 15 6 16 5 17 1 18 2 19 3 20 80 21 4 22
REMARK SMILES IDX 79 23 14 24 23 26 24 27 25 28 26 29 27 30 28 31 29 32 30 33
REMARK SMILES IDX 31 34 32 35 78 36 33 37 77 38 34 39 35 40 36 41 71 42 37 43
REMARK SMILES IDX 76 44 70 45 72 46 38 47 75 48 69 49 68 50 39 52 61 53 46 54
REMARK SMILES IDX 60 55 47 56 50 57 59 58 73 59 48 60 49 61 58 63 74 64 51 65
REMARK SMILES IDX 40 66 41 67 45 68 42 69 44 70 43 71 62 72 63 73 67 74 64 75
REMARK SMILES IDX 66 76 65 77 52 78 53 79 57 80 54 81 56 82 55 83
REMARK H PARENT 14 25 72 51 50 62
REMARK Flexibility Score: inf
ROOT
ATOM      1  O   UNL A   1      35.173  32.557  27.625  1.00  0.00    -0.376 OA
ENDROOT
BRANCH   1   2
ATOM      2  C   UNL A   1      35.083  31.367  28.406  1.00  0.00     0.202 C 
BRANCH   2   3
ATOM      3  C   UNL A   1      34.519  30.113  27.625  1.00  0.00     0.261 C 
BRANCH   3   4
ATOM      4  O   UNL A   1      33.402  30.305  26.635  1.00  0.00    -0.462 OA
BRANCH   4   5
ATOM      5  C   UNL A   1      33.319  29.260  25.794  1.00  0.00     0.329 C 
ATOM      6  O   UNL A   1      34.370  28.988  25.211  1.00  0.00    -0.250 OA
BRANCH   5   7
ATOM      7  C   UNL A   1      32.036  28.493  25.356  1.00  0.00     0.197 C 
ATOM      8  N   UNL A   1      31.861  27.153  24.809  1.00  0.00    -0.326 N 
ATOM      9  C   UNL A   1      31.702  27.243  23.363  1.00  0.00     0.152 C 
ATOM     10  C   UNL A   1      31.141  28.630  23.081  1.00  0.00     0.136 C 
ATOM     11  C   UNL A   1      31.012  29.237  24.464  1.00  0.00     0.070 C 
BRANCH   8  12
ATOM     12  C   UNL A   1      30.953  26.321  25.481  1.00  0.00     0.226 C 
ATOM     13  O   UNL A   1      30.756  26.352  26.696  1.00  0.00    -0.275 OA
BRANCH  12  14
ATOM     14  C   UNL A   1      30.201  25.343  24.619  1.00  0.00     0.141 C 
BRANCH  14  15
ATOM     15  C   UNL A   1      30.766  23.923  24.724  1.00  0.00     0.239 C 
BRANCH  15  16
ATOM     16  O   UNL A   1      31.450  23.500  23.532  1.00  0.00    -0.493 OA
BRANCH  16  17
ATOM     17  C   UNL A   1      32.787  23.206  23.570  1.00  0.00     0.119 A 
ATOM     18  C   UNL A   1      36.861  22.123  24.495  1.00  0.00     0.044 C 
ATOM     19  C   UNL A   1      35.462  22.447  24.058  1.00  0.00    -0.051 A 
ATOM     20  C   UNL A   1      34.421  21.545  24.292  1.00  0.00     0.007 A 
ATOM     21  C   UNL A   1      35.159  23.691  23.493  1.00  0.00     0.007 A 
ATOM     22  C   UNL A   1      33.096  21.919  24.035  1.00  0.00     0.046 A 
ATOM     23  C   UNL A   1      33.830  24.067  23.248  1.00  0.00     0.046 A 
ENDBRANCH  16  17
ENDBRANCH  15  16
ENDBRANCH  14  15
ENDBRANCH  12  14
ENDBRANCH   8  12
BRANCH  10  24
ATOM     24  O   UNL A   1      32.022  29.327  22.231  1.00  0.00    -0.391 OA
ATOM     25  H   UNL A   1      32.590  29.909  22.760  1.00  0.00     0.211 HD
ENDBRANCH  10  24
ENDBRANCH   5   7
ENDBRANCH   4   5
ENDBRANCH   3   4
ENDBRANCH   2   3
ENDBRANCH   1   2
BRANCH   1  26
ATOM     26  C   UNL A   1      34.497  33.766  27.990  1.00  0.00     0.188 C 
BRANCH  26  27
ATOM     27  C   UNL A   1      32.969  33.833  28.151  1.00  0.00     0.188 C 
BRANCH  27  28
ATOM     28  O   UNL A   1      32.532  35.148  28.447  1.00  0.00    -0.376 OA
BRANCH  28  29
ATOM     29  C   UNL A   1      33.411  35.961  29.218  1.00  0.00     0.202 C 
BRANCH  29  30
ATOM     30  C   UNL A   1      32.892  36.311  30.632  1.00  0.00     0.261 C 
BRANCH  30  31
ATOM     31  O   UNL A   1      33.169  35.248  31.583  1.00  0.00    -0.460 OA
BRANCH  31  32
ATOM     32  C   UNL A   1      34.246  35.405  32.407  1.00  0.00     0.338 C 
ATOM     33  O   UNL A   1      34.583  36.492  32.902  1.00  0.00    -0.246 OA
BRANCH  32  34
ATOM     34  C   UNL A   1      35.023  34.138  32.548  1.00  0.00     0.060 A 
ATOM     35  C   UNL A   1      35.351  33.440  33.717  1.00  0.00     0.016 A 
ATOM     36  C   UNL A   1      35.652  33.717  31.417  1.00  0.00     0.016 A 
ATOM     37  C   UNL A   1      36.359  32.394  33.714  1.00  0.00     0.010 A 
ATOM     38  C   UNL A   1      36.751  32.883  31.501  1.00  0.00     0.010 A 
ATOM     39  C   UNL A   1      37.148  32.119  32.594  1.00  0.00    -0.014 A 
BRANCH  39  40
ATOM     40  C   UNL A   1      38.451  31.307  32.450  1.00  0.00     0.031 A 
ATOM     41  C   UNL A   1      38.684  29.897  31.835  1.00  0.00     0.074 A 
ATOM     42  C   UNL A   1      39.556  32.087  32.457  1.00  0.00     0.049 A 
ATOM     43  N   UNL A   1      39.469  29.633  30.817  1.00  0.00    -0.248 NA
ATOM     44  C   UNL A   1      38.058  28.655  32.315  1.00  0.00     0.031 C 
ATOM     45  C   UNL A   1      40.916  31.773  32.024  1.00  0.00     0.029 A 
ATOM     46  N   UNL A   1      39.732  33.188  33.299  1.00  0.00    -0.354 N 
ATOM     47  C   UNL A   1      39.288  28.339  30.359  1.00  0.00     0.074 A 
ATOM     48  C   UNL A   1      38.432  27.748  31.390  1.00  0.00     0.031 C 
ATOM     49  C   UNL A   1      41.763  32.304  32.922  1.00  0.00     0.029 A 
ATOM     50  C   UNL A   1      40.931  32.874  33.973  1.00  0.00     0.049 A 
ATOM     51  H   UNL A   1      39.162  33.984  33.398  1.00  0.00     0.167 HD
ATOM     52  C   UNL A   1      40.339  27.675  29.787  1.00  0.00     0.031 A 
ATOM     53  C   UNL A   1      40.826  32.396  35.248  1.00  0.00     0.031 A 
ATOM     54  C   UNL A   1      41.542  27.964  30.510  1.00  0.00     0.049 A 
ATOM     55  C   UNL A   1      41.356  30.976  35.369  1.00  0.00     0.074 A 
ATOM     56  C   UNL A   1      42.622  28.806  30.360  1.00  0.00     0.029 A 
ATOM     57  N   UNL A   1      41.542  27.519  31.809  1.00  0.00    -0.354 N 
ATOM     58  N   UNL A   1      41.432  30.110  34.389  1.00  0.00    -0.248 NA
ATOM     59  C   UNL A   1      41.923  30.454  36.606  1.00  0.00     0.031 C 
ATOM     60  C   UNL A   1      43.163  29.002  31.669  1.00  0.00     0.029 A 
ATOM     61  C   UNL A   1      42.430  28.236  32.561  1.00  0.00     0.049 A 
ATOM     62  H   UNL A   1      40.981  26.785  32.151  1.00  0.00     0.167 HD
ATOM     63  C   UNL A   1      42.118  28.996  34.810  1.00  0.00     0.074 A 
ATOM     64  C   UNL A   1      42.374  29.250  36.214  1.00  0.00     0.031 C 
ATOM     65  C   UNL A   1      42.472  27.965  33.984  1.00  0.00     0.031 A 
BRANCH  52  66
ATOM     66  C   UNL A   1      40.279  26.888  28.498  1.00  0.00    -0.014 A 
ATOM     67  C   UNL A   1      39.624  25.635  28.465  1.00  0.00     0.009 A 
ATOM     68  C   UNL A   1      40.878  27.302  27.297  1.00  0.00     0.009 A 
ATOM     69  C   UNL A   1      39.555  24.851  27.300  1.00  0.00     0.001 A 
ATOM     70  C   UNL A   1      40.806  26.522  26.124  1.00  0.00     0.001 A 
ATOM     71  C   UNL A   1      40.140  25.299  26.124  1.00  0.00     0.000 A 
ENDBRANCH  52  66
BRANCH  53  72
ATOM     72  C   UNL A   1      39.716  33.050  36.036  1.00  0.00    -0.014 A 
ATOM     73  C   UNL A   1      38.615  32.231  36.409  1.00  0.00     0.009 A 
ATOM     74  C   UNL A   1      39.819  34.298  36.661  1.00  0.00     0.009 A 
ATOM     75  C   UNL A   1      37.767  32.558  37.471  1.00  0.00     0.001 A 
ATOM     76  C   UNL A   1      38.914  34.658  37.685  1.00  0.00     0.001 A 
ATOM     77  C   UNL A   1      37.925  33.771  38.121  1.00  0.00     0.000 A 
ENDBRANCH  53  72
BRANCH  65  78
ATOM     78  C   UNL A   1      42.892  26.570  34.412  1.00  0.00    -0.014 A 
ATOM     79  C   UNL A   1      42.083  25.702  35.150  1.00  0.00     0.009 A 
ATOM     80  C   UNL A   1      44.106  26.021  33.921  1.00  0.00     0.009 A 
ATOM     81  C   UNL A   1      42.491  24.394  35.450  1.00  0.00     0.001 A 
ATOM     82  C   UNL A   1      44.485  24.697  34.154  1.00  0.00     0.001 A 
ATOM     83  C   UNL A   1      43.685  23.889  34.945  1.00  0.00     0.000 A 
ENDBRANCH  65  78
ENDBRANCH  39  40
ENDBRANCH  32  34
ENDBRANCH  31  32
ENDBRANCH  30  31
ENDBRANCH  29  30
ENDBRANCH  28  29
ENDBRANCH  27  28
ENDBRANCH  26  27
ENDBRANCH   1  26
TORSDOF 23
ENDMDL
MODEL 2
REMARK VINA RESULT:      -9.9      2.157      4.643
REMARK SMILES Cc1ccc(OCCC(=O)N2C[C@H](O)C[C@@H]2C(=O)OCCOCCOCCOC(=O)c2ccc(-c3c4nc(c(-c5ccccc5)c5ccc([nH]5)c(-c5ccccc5)c5nc(c(-c6ccccc6)c6ccc3[nH]6)C=C5)C=C4)cc2)cc1
REMARK SMILES IDX 22 1 21 2 20 3 19 4 17 5 18 6 16 7 11 8 12 9 13 10 15 11
REMARK SMILES IDX 9 12 10 13 8 14 7 15 6 16 5 17 1 18 2 19 3 20 80 21 4 22
REMARK SMILES IDX 79 23 14 24 23 26 24 27 25 28 26 29 27 30 28 31 29 32 30 33
REMARK SMILES IDX 31 34 32 35 78 36 33 37 77 38 34 39 35 40 36 41 71 42 37 43
REMARK SMILES IDX 76 44 70 45 72 46 38 47 75 48 69 49 68 50 39 52 61 53 46 54
REMARK SMILES IDX 60 55 47 56 50 57 59 58 73 59 48 60 49 61 58 63 74 64 51 65
REMARK SMILES IDX 40 66 41 67 45 68 42 69 44 70 43 71 62 72 63 73 67 74 64 75
REMARK SMILES IDX 66 76 65 77 52 78 53 79 57 80 54 81 56 82 55 83
REMARK H PARENT 14 25 72 51 50 62
REMARK Flexibility Score: inf
ROOT
ATOM      1  O   UNL A   1      32.868  29.216  23.241  1.00  0.00    -0.376 OA
ENDROOT
BRANCH   1   2
ATOM      2  C   UNL A   1      33.792  28.240  22.761  1.00  0.00     0.202 C 
BRANCH   2   3
ATOM      3  C   UNL A   1      33.175  26.798  22.559  1.00  0.00     0.261 C 
BRANCH   3   4
ATOM      4  O   UNL A   1      34.030  25.709  21.971  1.00  0.00    -0.462 OA
BRANCH   4   5
ATOM      5  C   UNL A   1      33.382  24.532  21.976  1.00  0.00     0.329 C 
ATOM      6  O   UNL A   1      32.934  24.190  20.879  1.00  0.00    -0.250 OA
BRANCH   5   7
ATOM      7  C   UNL A   1      32.993  23.666  23.211  1.00  0.00     0.197 C 
ATOM      8  N   UNL A   1      33.732  22.635  23.929  1.00  0.00    -0.326 N 
ATOM      9  C   UNL A   1      33.277  21.323  23.489  1.00  0.00     0.152 C 
ATOM     10  C   UNL A   1      31.850  21.511  22.993  1.00  0.00     0.136 C 
ATOM     11  C   UNL A   1      31.600  22.989  23.217  1.00  0.00     0.070 C 
BRANCH   8  12
ATOM     12  C   UNL A   1      33.859  22.813  25.316  1.00  0.00     0.226 C 
ATOM     13  O   UNL A   1      33.267  22.135  26.156  1.00  0.00    -0.275 OA
BRANCH  12  14
ATOM     14  C   UNL A   1      34.784  23.917  25.751  1.00  0.00     0.141 C 
BRANCH  14  15
ATOM     15  C   UNL A   1      36.160  23.817  25.086  1.00  0.00     0.239 C 
BRANCH  15  16
ATOM     16  O   UNL A   1      36.955  22.734  25.598  1.00  0.00    -0.493 OA
BRANCH  16  17
ATOM     17  C   UNL A   1      38.197  22.975  26.124  1.00  0.00     0.119 A 
ATOM     18  C   UNL A   1      41.923  23.109  28.298  1.00  0.00     0.044 C 
ATOM     19  C   UNL A   1      40.692  23.097  27.437  1.00  0.00    -0.051 A 
ATOM     20  C   UNL A   1      40.295  21.925  26.788  1.00  0.00     0.007 A 
ATOM     21  C   UNL A   1      39.874  24.227  27.343  1.00  0.00     0.007 A 
ATOM     22  C   UNL A   1      39.063  21.872  26.125  1.00  0.00     0.046 A 
ATOM     23  C   UNL A   1      38.635  24.169  26.687  1.00  0.00     0.046 A 
ENDBRANCH  16  17
ENDBRANCH  15  16
ENDBRANCH  14  15
ENDBRANCH  12  14
ENDBRANCH   8  12
BRANCH  10  24
ATOM     24  O   UNL A   1      31.768  21.116  21.643  1.00  0.00    -0.391 OA
ATOM     25  H   UNL A   1      31.178  21.719  21.164  1.00  0.00     0.211 HD
ENDBRANCH  10  24
ENDBRANCH   5   7
ENDBRANCH   4   5
ENDBRANCH   3   4
ENDBRANCH   2   3
ENDBRANCH   1   2
BRANCH   1  26
ATOM     26  C   UNL A   1      31.450  29.050  23.125  1.00  0.00     0.188 C 
BRANCH  26  27
ATOM     27  C   UNL A   1      30.467  29.685  24.123  1.00  0.00     0.188 C 
BRANCH  27  28
ATOM     28  O   UNL A   1      31.090  29.965  25.364  1.00  0.00    -0.376 OA
BRANCH  28  29
ATOM     29  C   UNL A   1      31.035  31.312  25.824  1.00  0.00     0.202 C 
BRANCH  29  30
ATOM     30  C   UNL A   1      32.171  31.710  26.793  1.00  0.00     0.261 C 
BRANCH  30  31
ATOM     31  O   UNL A   1      32.059  33.098  27.210  1.00  0.00    -0.460 OA
BRANCH  31  32
ATOM     32  C   UNL A   1      33.035  33.591  28.026  1.00  0.00     0.338 C 
ATOM     33  O   UNL A   1      32.978  34.701  28.577  1.00  0.00    -0.246 OA
BRANCH  32  34
ATOM     34  C   UNL A   1      34.217  32.681  28.086  1.00  0.00     0.060 A 
ATOM     35  C   UNL A   1      34.255  31.316  28.397  1.00  0.00     0.016 A 
ATOM     36  C   UNL A   1      35.427  33.301  28.019  1.00  0.00     0.016 A 
ATOM     37  C   UNL A   1      35.506  30.645  28.703  1.00  0.00     0.010 A 
ATOM     38  C   UNL A   1      36.554  32.686  28.530  1.00  0.00     0.010 A 
ATOM     39  C   UNL A   1      36.712  31.338  28.840  1.00  0.00    -0.014 A 
BRANCH  39  40
ATOM     40  C   UNL A   1      38.060  30.909  29.453  1.00  0.00     0.031 A 
ATOM     41  C   UNL A   1      38.867  29.592  29.266  1.00  0.00     0.074 A 
ATOM     42  C   UNL A   1      38.819  31.962  29.833  1.00  0.00     0.049 A 
ATOM     43  N   UNL A   1      40.084  29.509  28.784  1.00  0.00    -0.248 NA
ATOM     44  C   UNL A   1      38.374  28.248  29.609  1.00  0.00     0.031 C 
ATOM     45  C   UNL A   1      40.248  32.014  30.135  1.00  0.00     0.029 A 
ATOM     46  N   UNL A   1      38.316  33.106  30.460  1.00  0.00    -0.354 N 
ATOM     47  C   UNL A   1      40.439  28.195  28.524  1.00  0.00     0.074 A 
ATOM     48  C   UNL A   1      39.341  27.439  29.130  1.00  0.00     0.031 C 
ATOM     49  C   UNL A   1      40.409  32.797  31.216  1.00  0.00     0.029 A 
ATOM     50  C   UNL A   1      39.068  33.162  31.651  1.00  0.00     0.049 A 
ATOM     51  H   UNL A   1      37.612  33.718  30.147  1.00  0.00     0.167 HD
ATOM     52  C   UNL A   1      41.751  27.821  28.622  1.00  0.00     0.031 A 
ATOM     53  C   UNL A   1      38.461  32.730  32.797  1.00  0.00     0.031 A 
ATOM     54  C   UNL A   1      42.350  28.460  29.756  1.00  0.00     0.049 A 
ATOM     55  C   UNL A   1      39.161  31.517  33.389  1.00  0.00     0.074 A 
ATOM     56  C   UNL A   1      43.152  29.559  29.977  1.00  0.00     0.029 A 
ATOM     57  N   UNL A   1      41.813  28.090  30.964  1.00  0.00    -0.354 N 
ATOM     58  N   UNL A   1      39.893  30.662  32.718  1.00  0.00    -0.248 NA
ATOM     59  C   UNL A   1      39.149  31.225  34.817  1.00  0.00     0.031 C 
ATOM     60  C   UNL A   1      42.926  29.954  31.332  1.00  0.00     0.029 A 
ATOM     61  C   UNL A   1      42.039  29.056  31.905  1.00  0.00     0.049 A 
ATOM     62  H   UNL A   1      41.333  27.247  31.129  1.00  0.00     0.167 HD
ATOM     63  C   UNL A   1      40.510  29.800  33.591  1.00  0.00     0.074 A 
ATOM     64  C   UNL A   1      39.985  30.176  34.888  1.00  0.00     0.031 C 
ATOM     65  C   UNL A   1      41.438  28.870  33.211  1.00  0.00     0.031 A 
BRANCH  52  66
ATOM     66  C   UNL A   1      42.502  26.992  27.606  1.00  0.00    -0.014 A 
ATOM     67  C   UNL A   1      41.934  26.746  26.335  1.00  0.00     0.009 A 
ATOM     68  C   UNL A   1      43.749  26.392  27.850  1.00  0.00     0.009 A 
ATOM     69  C   UNL A   1      42.578  25.966  25.358  1.00  0.00     0.001 A 
ATOM     70  C   UNL A   1      44.402  25.614  26.872  1.00  0.00     0.001 A 
ATOM     71  C   UNL A   1      43.819  25.404  25.624  1.00  0.00     0.000 A 
ENDBRANCH  52  66
BRANCH  53  72
ATOM     72  C   UNL A   1      36.996  33.089  32.860  1.00  0.00    -0.014 A 
ATOM     73  C   UNL A   1      36.671  34.439  33.172  1.00  0.00     0.009 A 
ATOM     74  C   UNL A   1      35.962  32.288  32.364  1.00  0.00     0.009 A 
ATOM     75  C   UNL A   1      35.436  35.006  32.843  1.00  0.00     0.001 A 
ATOM     76  C   UNL A   1      34.691  32.846  32.100  1.00  0.00     0.001 A 
ATOM     77  C   UNL A   1      34.446  34.209  32.292  1.00  0.00     0.000 A 
ENDBRANCH  53  72
BRANCH  65  78
ATOM     78  C   UNL A   1      41.889  27.663  34.015  1.00  0.00    -0.014 A 
ATOM     79  C   UNL A   1      41.017  26.792  34.674  1.00  0.00     0.009 A 
ATOM     80  C   UNL A   1      43.255  27.275  33.992  1.00  0.00     0.009 A 
ATOM     81  C   UNL A   1      41.484  25.648  35.337  1.00  0.00     0.001 A 
ATOM     82  C   UNL A   1      43.716  26.099  34.588  1.00  0.00     0.001 A 
ATOM     83  C   UNL A   1      42.828  25.296  35.286  1.00  0.00     0.000 A 
ENDBRANCH  65  78
ENDBRANCH  39  40
ENDBRANCH  32  34
ENDBRANCH  31  32
ENDBRANCH  30  31
ENDBRANCH  29  30
ENDBRANCH  28  29
ENDBRANCH  27  28
ENDBRANCH  26  27
ENDBRANCH   1  26
TORSDOF 23
ENDMDL
MODEL 3
REMARK VINA RESULT:      -9.6      5.264     10.562
REMARK SMILES Cc1ccc(OCCC(=O)N2C[C@H](O)C[C@@H]2C(=O)OCCOCCOCCOC(=O)c2ccc(-c3c4nc(c(-c5ccccc5)c5ccc([nH]5)c(-c5ccccc5)c5nc(c(-c6ccccc6)c6ccc3[nH]6)C=C5)C=C4)cc2)cc1
REMARK SMILES IDX 22 1 21 2 20 3 19 4 17 5 18 6 16 7 11 8 12 9 13 10 15 11
REMARK SMILES IDX 9 12 10 13 8 14 7 15 6 16 5 17 1 18 2 19 3 20 80 21 4 22
REMARK SMILES IDX 79 23 14 24 23 26 24 27 25 28 26 29 27 30 28 31 29 32 30 33
REMARK SMILES IDX 31 34 32 35 78 36 33 37 77 38 34 39 35 40 36 41 71 42 37 43
REMARK SMILES IDX 76 44 70 45 72 46 38 47 75 48 69 49 68 50 39 52 61 53 46 54
REMARK SMILES IDX 60 55 47 56 50 57 59 58 73 59 48 60 49 61 58 63 74 64 51 65
REMARK SMILES IDX 40 66 41 67 45 68 42 69 44 70 43 71 62 72 63 73 67 74 64 75
REMARK SMILES IDX 66 76 65 77 52 78 53 79 57 80 54 81 56 82 55 83
REMARK H PARENT 14 25 72 51 50 62
REMARK Flexibility Score: inf
ROOT
ATOM      1  O   UNL A   1      37.257  21.178  24.760  1.00  0.00    -0.376 OA
ENDROOT
BRANCH   1   2
ATOM      2  C   UNL A   1      36.226  21.510  25.689  1.00  0.00     0.202 C 
BRANCH   2   3
ATOM      3  C   UNL A   1      35.904  23.055  25.786  1.00  0.00     0.261 C 
BRANCH   3   4
ATOM      4  O   UNL A   1      36.085  23.921  24.569  1.00  0.00    -0.462 OA
BRANCH   4   5
ATOM      5  C   UNL A   1      34.977  23.922  23.809  1.00  0.00     0.329 C 
ATOM      6  O   UNL A   1      35.094  23.333  22.733  1.00  0.00    -0.250 OA
BRANCH   5   7
ATOM      7  C   UNL A   1      33.658  24.715  24.054  1.00  0.00     0.197 C 
ATOM      8  N   UNL A   1      32.282  24.429  23.664  1.00  0.00    -0.326 N 
ATOM      9  C   UNL A   1      31.948  25.207  22.479  1.00  0.00     0.152 C 
ATOM     10  C   UNL A   1      32.853  26.429  22.501  1.00  0.00     0.136 C 
ATOM     11  C   UNL A   1      33.660  26.237  23.770  1.00  0.00     0.070 C 
BRANCH   8  12
ATOM     12  C   UNL A   1      31.331  24.432  24.696  1.00  0.00     0.226 C 
ATOM     13  O   UNL A   1      30.273  25.061  24.659  1.00  0.00    -0.275 OA
BRANCH  12  14
ATOM     14  C   UNL A   1      31.674  23.603  25.905  1.00  0.00     0.141 C 
BRANCH  14  15
ATOM     15  C   UNL A   1      31.449  22.107  25.665  1.00  0.00     0.239 C 
BRANCH  15  16
ATOM     16  O   UNL A   1      32.052  21.635  24.448  1.00  0.00    -0.493 OA
BRANCH  16  17
ATOM     17  C   UNL A   1      32.259  20.294  24.254  1.00  0.00     0.119 A 
ATOM     18  C   UNL A   1      33.676  16.231  23.930  1.00  0.00     0.044 C 
ATOM     19  C   UNL A   1      33.068  17.596  24.071  1.00  0.00    -0.051 A 
ATOM     20  C   UNL A   1      33.086  18.254  25.304  1.00  0.00     0.007 A 
ATOM     21  C   UNL A   1      32.556  18.271  22.957  1.00  0.00     0.007 A 
ATOM     22  C   UNL A   1      32.671  19.588  25.394  1.00  0.00     0.046 A 
ATOM     23  C   UNL A   1      32.151  19.610  23.048  1.00  0.00     0.046 A 
ENDBRANCH  16  17
ENDBRANCH  15  16
ENDBRANCH  14  15
ENDBRANCH  12  14
ENDBRANCH   8  12
BRANCH  10  24
ATOM     24  O   UNL A   1      33.633  26.456  21.327  1.00  0.00    -0.391 OA
ATOM     25  H   UNL A   1      33.137  26.895  20.619  1.00  0.00     0.211 HD
ENDBRANCH  10  24
ENDBRANCH   5   7
ENDBRANCH   4   5
ENDBRANCH   3   4
ENDBRANCH   2   3
ENDBRANCH   1   2
BRANCH   1  26
ATOM     26  C   UNL A   1      38.186  20.115  24.996  1.00  0.00     0.188 C 
BRANCH  26  27
ATOM     27  C   UNL A   1      39.475  20.318  25.811  1.00  0.00     0.188 C 
BRANCH  27  28
ATOM     28  O   UNL A   1      40.311  19.176  25.761  1.00  0.00    -0.376 OA
BRANCH  28  29
ATOM     29  C   UNL A   1      41.483  19.197  26.568  1.00  0.00     0.202 C 
BRANCH  29  30
ATOM     30  C   UNL A   1      42.810  19.281  25.778  1.00  0.00     0.261 C 
BRANCH  30  31
ATOM     31  O   UNL A   1      43.004  20.598  25.195  1.00  0.00    -0.460 OA
BRANCH  31  32
ATOM     32  C   UNL A   1      44.255  20.910  24.747  1.00  0.00     0.338 C 
ATOM     33  O   UNL A   1      44.978  20.123  24.116  1.00  0.00    -0.246 OA
BRANCH  32  34
ATOM     34  C   UNL A   1      44.681  22.266  25.201  1.00  0.00     0.060 A 
ATOM     35  C   UNL A   1      45.639  22.604  26.166  1.00  0.00     0.016 A 
ATOM     36  C   UNL A   1      43.904  23.294  24.761  1.00  0.00     0.016 A 
ATOM     37  C   UNL A   1      45.727  23.949  26.705  1.00  0.00     0.010 A 
ATOM     38  C   UNL A   1      43.872  24.488  25.455  1.00  0.00     0.010 A 
ATOM     39  C   UNL A   1      44.786  24.939  26.403  1.00  0.00    -0.014 A 
BRANCH  39  40
ATOM     40  C   UNL A   1      44.494  26.294  27.077  1.00  0.00     0.031 A 
ATOM     41  C   UNL A   1      43.225  27.193  27.000  1.00  0.00     0.074 A 
ATOM     42  C   UNL A   1      45.237  26.496  28.188  1.00  0.00     0.049 A 
ATOM     43  N   UNL A   1      42.482  27.544  28.022  1.00  0.00    -0.248 NA
ATOM     44  C   UNL A   1      42.684  27.781  25.764  1.00  0.00     0.031 C 
ATOM     45  C   UNL A   1      45.042  27.456  29.273  1.00  0.00     0.029 A 
ATOM     46  N   UNL A   1      46.586  26.151  28.303  1.00  0.00    -0.354 N 
ATOM     47  C   UNL A   1      41.304  28.146  27.609  1.00  0.00     0.074 A 
ATOM     48  C   UNL A   1      41.521  28.329  26.173  1.00  0.00     0.031 C 
ATOM     49  C   UNL A   1      46.247  27.955  29.598  1.00  0.00     0.029 A 
ATOM     50  C   UNL A   1      47.190  27.376  28.651  1.00  0.00     0.049 A 
ATOM     51  H   UNL A   1      47.009  25.272  28.171  1.00  0.00     0.167 HD
ATOM     52  C   UNL A   1      40.717  29.092  28.404  1.00  0.00     0.031 A 
ATOM     53  C   UNL A   1      47.840  28.058  27.662  1.00  0.00     0.031 A 
ATOM     54  C   UNL A   1      41.728  29.930  28.980  1.00  0.00     0.049 A 
ATOM     55  C   UNL A   1      47.194  29.406  27.381  1.00  0.00     0.074 A 
ATOM     56  C   UNL A   1      42.384  30.021  30.189  1.00  0.00     0.029 A 
ATOM     57  N   UNL A   1      42.441  30.667  28.066  1.00  0.00    -0.354 N 
ATOM     58  N   UNL A   1      45.944  29.712  27.623  1.00  0.00    -0.248 NA
ATOM     59  C   UNL A   1      47.949  30.546  26.874  1.00  0.00     0.031 C 
ATOM     60  C   UNL A   1      43.623  30.683  29.923  1.00  0.00     0.029 A 
ATOM     61  C   UNL A   1      43.658  31.019  28.579  1.00  0.00     0.049 A 
ATOM     62  H   UNL A   1      42.119  30.908  27.167  1.00  0.00     0.167 HD
ATOM     63  C   UNL A   1      45.749  31.055  27.413  1.00  0.00     0.074 A 
ATOM     64  C   UNL A   1      47.026  31.523  26.915  1.00  0.00     0.031 C 
ATOM     65  C   UNL A   1      44.580  31.707  27.699  1.00  0.00     0.031 A 
BRANCH  52  66
ATOM     66  C   UNL A   1      39.249  29.152  28.755  1.00  0.00    -0.014 A 
ATOM     67  C   UNL A   1      38.297  29.470  27.760  1.00  0.00     0.009 A 
ATOM     68  C   UNL A   1      38.742  28.945  30.049  1.00  0.00     0.009 A 
ATOM     69  C   UNL A   1      36.920  29.559  28.034  1.00  0.00     0.001 A 
ATOM     70  C   UNL A   1      37.362  29.027  30.327  1.00  0.00     0.001 A 
ATOM     71  C   UNL A   1      36.451  29.329  29.319  1.00  0.00     0.000 A 
ENDBRANCH  52  66
BRANCH  53  72
ATOM     72  C   UNL A   1      48.570  27.152  26.700  1.00  0.00    -0.014 A 
ATOM     73  C   UNL A   1      47.984  26.960  25.417  1.00  0.00     0.009 A 
ATOM     74  C   UNL A   1      49.893  26.726  26.862  1.00  0.00     0.009 A 
ATOM     75  C   UNL A   1      48.727  26.534  24.313  1.00  0.00     0.001 A 
ATOM     76  C   UNL A   1      50.621  26.225  25.759  1.00  0.00     0.001 A 
ATOM     77  C   UNL A   1      50.055  26.177  24.481  1.00  0.00     0.000 A 
ENDBRANCH  53  72
BRANCH  65  78
ATOM     78  C   UNL A   1      44.156  33.068  27.177  1.00  0.00    -0.014 A 
ATOM     79  C   UNL A   1      44.006  33.375  25.822  1.00  0.00     0.009 A 
ATOM     80  C   UNL A   1      43.726  34.067  28.090  1.00  0.00     0.009 A 
ATOM     81  C   UNL A   1      43.535  34.626  25.399  1.00  0.00     0.001 A 
ATOM     82  C   UNL A   1      43.186  35.287  27.676  1.00  0.00     0.001 A 
ATOM     83  C   UNL A   1      43.116  35.577  26.323  1.00  0.00     0.000 A 
ENDBRANCH  65  78
ENDBRANCH  39  40
ENDBRANCH  32  34
ENDBRANCH  31  32
ENDBRANCH  30  31
ENDBRANCH  29  30
ENDBRANCH  28  29
ENDBRANCH  27  28
ENDBRANCH  26  27
ENDBRANCH   1  26
TORSDOF 23
ENDMDL
