MODEL 1
REMARK VINA RESULT:     -10.2      0.000      0.000
REMARK SMILES O=C(OCCOCCOCCOC(=O)c1ccccc1C(=O)Nc1ccc(N2C(=O)[C@H]3[C@@H]4CC[C@@H](C4)[C@@H]3C2=O)cc1)c1ccc(-c2c3nc(c(-c4ccccc4)c4ccc([nH]4)c(-c4ccccc4)c4nc(c(-c5ccccc5)c5ccc2[nH]5)C=C4)C=C3)cc1
REMARK SMILES IDX 8 1 7 2 6 3 5 4 4 5 3 6 2 7 1 8 42 9 43 10 89 11 44 12 88 13
REMARK SMILES IDX 45 14 46 15 47 16 82 17 48 18 87 19 81 20 83 21 49 22 86 23
REMARK SMILES IDX 80 24 79 25 50 27 72 28 57 29 71 30 58 31 61 32 70 33 84 34
REMARK SMILES IDX 59 35 60 36 69 38 85 39 62 40 51 41 52 42 56 43 53 44 55 45
REMARK SMILES IDX 54 46 73 47 74 48 78 49 75 50 77 51 76 52 63 53 64 54 68 55
REMARK SMILES IDX 65 56 67 57 66 58 9 59 10 60 11 61 12 62 13 63 14 64 15 65
REMARK SMILES IDX 16 66 20 67 17 68 19 69 18 70 21 71 22 72 23 73 24 75 25 76
REMARK SMILES IDX 41 77 26 78 40 79 27 80 28 81 29 82 38 83 30 84 31 85 37 86
REMARK SMILES IDX 39 87 32 88 35 89 33 90 36 91 34 92
REMARK H PARENT 83 26 61 37 23 74
REMARK Flexibility Score: inf
ROOT
ATOM      1  C   UNL A   1      33.772  28.267  25.549  1.00  0.00     0.188 C 
ENDROOT
BRANCH   1   2
ATOM      2  C   UNL A   1      33.808  28.783  26.967  1.00  0.00     0.188 C 
BRANCH   2   3
ATOM      3  O   UNL A   1      35.138  29.098  27.342  1.00  0.00    -0.376 OA
BRANCH   3   4
ATOM      4  C   UNL A   1      35.345  30.446  27.725  1.00  0.00     0.202 C 
BRANCH   4   5
ATOM      5  C   UNL A   1      34.062  31.279  27.605  1.00  0.00     0.261 C 
BRANCH   5   6
ATOM      6  O   UNL A   1      34.416  32.674  27.545  1.00  0.00    -0.460 OA
BRANCH   6   7
ATOM      7  C   UNL A   1      33.740  33.520  28.372  1.00  0.00     0.338 C 
ATOM      8  O   UNL A   1      32.721  34.145  28.152  1.00  0.00    -0.246 OA
BRANCH   7   9
ATOM      9  C   UNL A   1      34.634  33.689  29.530  1.00  0.00     0.060 A 
ATOM     10  C   UNL A   1      35.812  34.394  29.297  1.00  0.00     0.016 A 
ATOM     11  C   UNL A   1      34.485  32.928  30.682  1.00  0.00     0.016 A 
ATOM     12  C   UNL A   1      36.940  34.137  30.028  1.00  0.00     0.010 A 
ATOM     13  C   UNL A   1      35.594  32.777  31.516  1.00  0.00     0.010 A 
ATOM     14  C   UNL A   1      36.844  33.304  31.130  1.00  0.00    -0.014 A 
BRANCH  14  15
ATOM     15  C   UNL A   1      38.096  32.809  31.721  1.00  0.00     0.031 A 
ATOM     16  C   UNL A   1      38.850  31.771  30.957  1.00  0.00     0.074 A 
ATOM     17  C   UNL A   1      38.607  33.363  32.831  1.00  0.00     0.049 A 
ATOM     18  N   UNL A   1      39.762  30.943  31.372  1.00  0.00    -0.248 NA
ATOM     19  C   UNL A   1      38.521  31.650  29.524  1.00  0.00     0.031 C 
ATOM     20  C   UNL A   1      38.092  34.559  33.496  1.00  0.00     0.029 A 
ATOM     21  N   UNL A   1      39.674  32.992  33.599  1.00  0.00    -0.354 N 
ATOM     22  C   UNL A   1      40.054  30.141  30.276  1.00  0.00     0.074 A 
ATOM     23  C   UNL A   1      39.247  30.601  29.170  1.00  0.00     0.031 C 
ATOM     24  C   UNL A   1      38.817  34.808  34.592  1.00  0.00     0.029 A 
ATOM     25  C   UNL A   1      39.757  33.715  34.764  1.00  0.00     0.049 A 
ATOM     26  H   UNL A   1      40.312  32.286  33.345  1.00  0.00     0.167 HD
ATOM     27  C   UNL A   1      40.900  29.088  30.240  1.00  0.00     0.031 A 
ATOM     28  C   UNL A   1      40.434  33.446  35.893  1.00  0.00     0.031 A 
ATOM     29  C   UNL A   1      41.669  28.692  31.387  1.00  0.00     0.049 A 
ATOM     30  C   UNL A   1      41.258  32.195  35.904  1.00  0.00     0.074 A 
ATOM     31  C   UNL A   1      42.500  27.604  31.557  1.00  0.00     0.029 A 
ATOM     32  N   UNL A   1      41.691  29.410  32.580  1.00  0.00    -0.354 N 
ATOM     33  N   UNL A   1      41.425  31.319  34.939  1.00  0.00    -0.248 NA
ATOM     34  C   UNL A   1      41.970  31.881  37.144  1.00  0.00     0.031 C 
ATOM     35  C   UNL A   1      42.987  27.641  32.870  1.00  0.00     0.029 A 
ATOM     36  C   UNL A   1      42.505  28.783  33.499  1.00  0.00     0.049 A 
ATOM     37  H   UNL A   1      41.197  30.246  32.743  1.00  0.00     0.167 HD
ATOM     38  C   UNL A   1      42.286  30.359  35.441  1.00  0.00     0.074 A 
ATOM     39  C   UNL A   1      42.600  30.764  36.802  1.00  0.00     0.031 C 
ATOM     40  C   UNL A   1      42.782  29.249  34.838  1.00  0.00     0.031 A 
BRANCH  27  41
ATOM     41  C   UNL A   1      40.888  28.260  28.984  1.00  0.00    -0.014 A 
ATOM     42  C   UNL A   1      40.122  27.091  28.865  1.00  0.00     0.009 A 
ATOM     43  C   UNL A   1      41.764  28.603  27.941  1.00  0.00     0.009 A 
ATOM     44  C   UNL A   1      40.280  26.250  27.757  1.00  0.00     0.001 A 
ATOM     45  C   UNL A   1      41.900  27.777  26.823  1.00  0.00     0.001 A 
ATOM     46  C   UNL A   1      41.173  26.591  26.741  1.00  0.00     0.000 A 
ENDBRANCH  27  41
BRANCH  28  47
ATOM     47  C   UNL A   1      40.233  34.310  37.084  1.00  0.00    -0.014 A 
ATOM     48  C   UNL A   1      40.975  35.482  37.263  1.00  0.00     0.009 A 
ATOM     49  C   UNL A   1      39.212  34.010  38.008  1.00  0.00     0.009 A 
ATOM     50  C   UNL A   1      40.703  36.335  38.338  1.00  0.00     0.001 A 
ATOM     51  C   UNL A   1      38.923  34.877  39.065  1.00  0.00     0.001 A 
ATOM     52  C   UNL A   1      39.673  36.038  39.230  1.00  0.00     0.000 A 
ENDBRANCH  28  47
BRANCH  40  53
ATOM     53  C   UNL A   1      43.761  28.445  35.631  1.00  0.00    -0.014 A 
ATOM     54  C   UNL A   1      45.132  28.733  35.603  1.00  0.00     0.009 A 
ATOM     55  C   UNL A   1      43.280  27.440  36.483  1.00  0.00     0.009 A 
ATOM     56  C   UNL A   1      46.010  28.015  36.413  1.00  0.00     0.001 A 
ATOM     57  C   UNL A   1      44.157  26.742  37.309  1.00  0.00     0.001 A 
ATOM     58  C   UNL A   1      45.521  27.028  37.270  1.00  0.00     0.000 A 
ENDBRANCH  40  53
ENDBRANCH  14  15
ENDBRANCH   7   9
ENDBRANCH   6   7
ENDBRANCH   5   6
ENDBRANCH   4   5
ENDBRANCH   3   4
ENDBRANCH   2   3
ENDBRANCH   1   2
BRANCH   1  59
ATOM     59  O   UNL A   1      33.842  26.855  25.520  1.00  0.00    -0.376 OA
BRANCH  59  60
ATOM     60  C   UNL A   1      32.717  26.188  26.087  1.00  0.00     0.202 C 
BRANCH  60  61
ATOM     61  C   UNL A   1      32.680  24.647  26.072  1.00  0.00     0.261 C 
BRANCH  61  62
ATOM     62  O   UNL A   1      33.933  23.914  26.172  1.00  0.00    -0.460 OA
BRANCH  62  63
ATOM     63  C   UNL A   1      34.016  22.740  26.831  1.00  0.00     0.339 C 
ATOM     64  O   UNL A   1      34.046  22.564  28.036  1.00  0.00    -0.246 OA
BRANCH  63  65
ATOM     65  C   UNL A   1      33.880  21.564  25.948  1.00  0.00     0.072 A 
ATOM     66  C   UNL A   1      33.249  20.444  26.546  1.00  0.00     0.016 A 
ATOM     67  C   UNL A   1      34.237  21.510  24.601  1.00  0.00     0.054 A 
ATOM     68  C   UNL A   1      32.866  19.332  25.798  1.00  0.00     0.001 A 
ATOM     69  C   UNL A   1      33.808  20.389  23.850  1.00  0.00     0.015 A 
ATOM     70  C   UNL A   1      33.119  19.319  24.436  1.00  0.00     0.001 A 
BRANCH  67  71
ATOM     71  C   UNL A   1      34.885  22.595  23.827  1.00  0.00     0.256 C 
ATOM     72  O   UNL A   1      34.261  23.022  22.849  1.00  0.00    -0.269 OA
ATOM     73  N   UNL A   1      36.072  23.222  24.129  1.00  0.00    -0.322 N 
ATOM     74  H   UNL A   1      36.206  24.034  23.590  1.00  0.00     0.170 HD
BRANCH  73  75
ATOM     75  C   UNL A   1      37.141  22.997  25.012  1.00  0.00     0.041 A 
ATOM     76  C   UNL A   1      37.767  21.748  24.918  1.00  0.00     0.028 A 
ATOM     77  C   UNL A   1      37.641  23.911  25.931  1.00  0.00     0.028 A 
ATOM     78  C   UNL A   1      38.987  21.492  25.569  1.00  0.00     0.029 A 
ATOM     79  C   UNL A   1      38.824  23.621  26.647  1.00  0.00     0.029 A 
ATOM     80  C   UNL A   1      39.564  22.446  26.408  1.00  0.00     0.052 A 
BRANCH  80  81
ATOM     81  N   UNL A   1      40.932  22.370  26.812  1.00  0.00    -0.250 N 
ATOM     82  C   UNL A   1      41.367  21.785  28.014  1.00  0.00     0.237 C 
ATOM     83  C   UNL A   1      41.950  23.131  26.228  1.00  0.00     0.237 C 
ATOM     84  O   UNL A   1      40.928  20.843  28.624  1.00  0.00    -0.274 OA
ATOM     85  C   UNL A   1      42.389  22.762  28.498  1.00  0.00     0.095 C 
ATOM     86  C   UNL A   1      43.087  23.149  27.220  1.00  0.00     0.095 C 
ATOM     87  O   UNL A   1      42.019  23.601  25.103  1.00  0.00    -0.274 OA
ATOM     88  C   UNL A   1      43.547  22.805  29.509  1.00  0.00     0.002 C 
ATOM     89  C   UNL A   1      44.062  24.200  27.799  1.00  0.00     0.002 C 
ATOM     90  C   UNL A   1      43.378  24.173  30.194  1.00  0.00     0.005 C 
ATOM     91  C   UNL A   1      44.817  23.182  28.683  1.00  0.00     0.009 C 
ATOM     92  C   UNL A   1      43.537  25.123  28.967  1.00  0.00     0.005 C 
ENDBRANCH  80  81
ENDBRANCH  73  75
ENDBRANCH  67  71
ENDBRANCH  63  65
ENDBRANCH  62  63
ENDBRANCH  61  62
ENDBRANCH  60  61
ENDBRANCH  59  60
ENDBRANCH   1  59
TORSDOF 20
ENDMDL
MODEL 2
REMARK VINA RESULT:     -10.2      4.317      9.792
REMARK SMILES O=C(OCCOCCOCCOC(=O)c1ccccc1C(=O)Nc1ccc(N2C(=O)[C@H]3[C@@H]4CC[C@@H](C4)[C@@H]3C2=O)cc1)c1ccc(-c2c3nc(c(-c4ccccc4)c4ccc([nH]4)c(-c4ccccc4)c4nc(c(-c5ccccc5)c5ccc2[nH]5)C=C4)C=C3)cc1
REMARK SMILES IDX 8 1 7 2 6 3 5 4 4 5 3 6 2 7 1 8 42 9 43 10 89 11 44 12 88 13
REMARK SMILES IDX 45 14 46 15 47 16 82 17 48 18 87 19 81 20 83 21 49 22 86 23
REMARK SMILES IDX 80 24 79 25 50 27 72 28 57 29 71 30 58 31 61 32 70 33 84 34
REMARK SMILES IDX 59 35 60 36 69 38 85 39 62 40 51 41 52 42 56 43 53 44 55 45
REMARK SMILES IDX 54 46 73 47 74 48 78 49 75 50 77 51 76 52 63 53 64 54 68 55
REMARK SMILES IDX 65 56 67 57 66 58 9 59 10 60 11 61 12 62 13 63 14 64 15 65
REMARK SMILES IDX 16 66 20 67 17 68 19 69 18 70 21 71 22 72 23 73 24 75 25 76
REMARK SMILES IDX 41 77 26 78 40 79 27 80 28 81 29 82 38 83 30 84 31 85 37 86
REMARK SMILES IDX 39 87 32 88 35 89 33 90 36 91 34 92
REMARK H PARENT 83 26 61 37 23 74
REMARK Flexibility Score: inf
ROOT
ATOM      1  C   UNL A   1      33.879  28.239  24.214  1.00  0.00     0.188 C 
ENDROOT
BRANCH   1   2
ATOM      2  C   UNL A   1      32.654  28.831  24.867  1.00  0.00     0.188 C 
BRANCH   2   3
ATOM      3  O   UNL A   1      32.908  30.167  25.269  1.00  0.00    -0.376 OA
BRANCH   3   4
ATOM      4  C   UNL A   1      32.621  30.444  26.628  1.00  0.00     0.202 C 
BRANCH   4   5
ATOM      5  C   UNL A   1      33.678  31.357  27.262  1.00  0.00     0.261 C 
BRANCH   5   6
ATOM      6  O   UNL A   1      34.335  30.642  28.325  1.00  0.00    -0.460 OA
BRANCH   6   7
ATOM      7  C   UNL A   1      35.004  29.504  27.985  1.00  0.00     0.338 C 
ATOM      8  O   UNL A   1      34.556  28.457  27.559  1.00  0.00    -0.246 OA
BRANCH   7   9
ATOM      9  C   UNL A   1      36.382  29.738  28.450  1.00  0.00     0.060 A 
ATOM     10  C   UNL A   1      37.314  30.055  27.466  1.00  0.00     0.016 A 
ATOM     11  C   UNL A   1      36.798  29.354  29.718  1.00  0.00     0.016 A 
ATOM     12  C   UNL A   1      38.635  29.726  27.619  1.00  0.00     0.010 A 
ATOM     13  C   UNL A   1      38.163  29.155  29.928  1.00  0.00     0.010 A 
ATOM     14  C   UNL A   1      39.064  29.249  28.846  1.00  0.00    -0.014 A 
BRANCH  14  15
ATOM     15  C   UNL A   1      40.397  28.631  28.908  1.00  0.00     0.031 A 
ATOM     16  C   UNL A   1      41.541  29.510  29.292  1.00  0.00     0.074 A 
ATOM     17  C   UNL A   1      40.556  27.306  28.761  1.00  0.00     0.049 A 
ATOM     18  N   UNL A   1      42.816  29.331  29.106  1.00  0.00    -0.248 NA
ATOM     19  C   UNL A   1      41.194  30.771  29.975  1.00  0.00     0.031 C 
ATOM     20  C   UNL A   1      39.474  26.329  28.658  1.00  0.00     0.029 A 
ATOM     21  N   UNL A   1      41.692  26.553  28.669  1.00  0.00    -0.354 N 
ATOM     22  C   UNL A   1      43.420  30.493  29.567  1.00  0.00     0.074 A 
ATOM     23  C   UNL A   1      42.377  31.358  30.069  1.00  0.00     0.031 C 
ATOM     24  C   UNL A   1      39.991  25.108  28.481  1.00  0.00     0.029 A 
ATOM     25  C   UNL A   1      41.429  25.248  28.333  1.00  0.00     0.049 A 
ATOM     26  H   UNL A   1      42.597  26.907  28.827  1.00  0.00     0.167 HD
ATOM     27  C   UNL A   1      44.734  30.802  29.522  1.00  0.00     0.031 A 
ATOM     28  C   UNL A   1      42.252  24.307  27.842  1.00  0.00     0.031 A 
ATOM     29  C   UNL A   1      45.712  29.884  29.005  1.00  0.00     0.049 A 
ATOM     30  C   UNL A   1      43.686  24.697  27.651  1.00  0.00     0.074 A 
ATOM     31  C   UNL A   1      47.064  30.062  28.799  1.00  0.00     0.029 A 
ATOM     32  N   UNL A   1      45.409  28.582  28.614  1.00  0.00    -0.354 N 
ATOM     33  N   UNL A   1      44.261  25.847  27.919  1.00  0.00    -0.248 NA
ATOM     34  C   UNL A   1      44.578  23.685  27.084  1.00  0.00     0.031 C 
ATOM     35  C   UNL A   1      47.569  28.881  28.240  1.00  0.00     0.029 A 
ATOM     36  C   UNL A   1      46.542  27.948  28.151  1.00  0.00     0.049 A 
ATOM     37  H   UNL A   1      44.515  28.173  28.662  1.00  0.00     0.167 HD
ATOM     38  C   UNL A   1      45.594  25.694  27.582  1.00  0.00     0.074 A 
ATOM     39  C   UNL A   1      45.736  24.335  27.083  1.00  0.00     0.031 C 
ATOM     40  C   UNL A   1      46.614  26.585  27.678  1.00  0.00     0.031 A 
BRANCH  27  41
ATOM     41  C   UNL A   1      45.108  32.207  29.903  1.00  0.00    -0.014 A 
ATOM     42  C   UNL A   1      45.327  32.589  31.236  1.00  0.00     0.009 A 
ATOM     43  C   UNL A   1      45.122  33.196  28.906  1.00  0.00     0.009 A 
ATOM     44  C   UNL A   1      45.488  33.939  31.568  1.00  0.00     0.001 A 
ATOM     45  C   UNL A   1      45.311  34.540  29.237  1.00  0.00     0.001 A 
ATOM     46  C   UNL A   1      45.474  34.913  30.569  1.00  0.00     0.000 A 
ENDBRANCH  27  41
BRANCH  28  47
ATOM     47  C   UNL A   1      41.687  23.005  27.401  1.00  0.00    -0.014 A 
ATOM     48  C   UNL A   1      42.087  21.804  27.997  1.00  0.00     0.009 A 
ATOM     49  C   UNL A   1      40.660  22.972  26.438  1.00  0.00     0.009 A 
ATOM     50  C   UNL A   1      41.473  20.599  27.640  1.00  0.00     0.001 A 
ATOM     51  C   UNL A   1      40.028  21.772  26.104  1.00  0.00     0.001 A 
ATOM     52  C   UNL A   1      40.439  20.584  26.703  1.00  0.00     0.000 A 
ENDBRANCH  28  47
BRANCH  40  53
ATOM     53  C   UNL A   1      47.970  26.084  27.298  1.00  0.00    -0.014 A 
ATOM     54  C   UNL A   1      48.542  26.402  26.059  1.00  0.00     0.009 A 
ATOM     55  C   UNL A   1      48.712  25.355  28.239  1.00  0.00     0.009 A 
ATOM     56  C   UNL A   1      49.839  25.985  25.765  1.00  0.00     0.001 A 
ATOM     57  C   UNL A   1      50.015  24.962  27.951  1.00  0.00     0.001 A 
ATOM     58  C   UNL A   1      50.576  25.274  26.713  1.00  0.00     0.000 A 
ENDBRANCH  40  53
ENDBRANCH  14  15
ENDBRANCH   7   9
ENDBRANCH   6   7
ENDBRANCH   5   6
ENDBRANCH   4   5
ENDBRANCH   3   4
ENDBRANCH   2   3
ENDBRANCH   1   2
BRANCH   1  59
ATOM     59  O   UNL A   1      34.039  26.881  24.572  1.00  0.00    -0.376 OA
BRANCH  59  60
ATOM     60  C   UNL A   1      33.681  25.948  23.555  1.00  0.00     0.202 C 
BRANCH  60  61
ATOM     61  C   UNL A   1      34.328  24.548  23.568  1.00  0.00     0.261 C 
BRANCH  61  62
ATOM     62  O   UNL A   1      35.212  24.194  24.669  1.00  0.00    -0.460 OA
BRANCH  62  63
ATOM     63  C   UNL A   1      35.585  22.918  24.895  1.00  0.00     0.339 C 
ATOM     64  O   UNL A   1      36.698  22.506  25.173  1.00  0.00    -0.246 OA
BRANCH  63  65
ATOM     65  C   UNL A   1      34.446  21.980  24.968  1.00  0.00     0.072 A 
ATOM     66  C   UNL A   1      34.439  20.979  23.963  1.00  0.00     0.016 A 
ATOM     67  C   UNL A   1      33.469  21.960  25.961  1.00  0.00     0.054 A 
ATOM     68  C   UNL A   1      33.552  19.905  24.006  1.00  0.00     0.001 A 
ATOM     69  C   UNL A   1      32.600  20.842  26.009  1.00  0.00     0.015 A 
ATOM     70  C   UNL A   1      32.650  19.820  25.053  1.00  0.00     0.001 A 
BRANCH  67  71
ATOM     71  C   UNL A   1      33.348  22.919  27.085  1.00  0.00     0.256 C 
ATOM     72  O   UNL A   1      34.044  22.691  28.080  1.00  0.00    -0.269 OA
ATOM     73  N   UNL A   1      32.597  24.072  27.103  1.00  0.00    -0.322 N 
ATOM     74  H   UNL A   1      32.821  24.644  27.871  1.00  0.00     0.170 HD
BRANCH  73  75
ATOM     75  C   UNL A   1      31.592  24.639  26.301  1.00  0.00     0.041 A 
ATOM     76  C   UNL A   1      31.138  25.907  26.686  1.00  0.00     0.028 A 
ATOM     77  C   UNL A   1      31.048  24.070  25.158  1.00  0.00     0.028 A 
ATOM     78  C   UNL A   1      30.321  26.677  25.841  1.00  0.00     0.029 A 
ATOM     79  C   UNL A   1      30.160  24.815  24.348  1.00  0.00     0.029 A 
ATOM     80  C   UNL A   1      29.856  26.161  24.631  1.00  0.00     0.052 A 
BRANCH  80  81
ATOM     81  N   UNL A   1      29.318  27.001  23.607  1.00  0.00    -0.250 N 
ATOM     82  C   UNL A   1      30.099  27.703  22.673  1.00  0.00     0.237 C 
ATOM     83  C   UNL A   1      27.998  27.465  23.608  1.00  0.00     0.237 C 
ATOM     84  O   UNL A   1      31.146  27.409  22.156  1.00  0.00    -0.274 OA
ATOM     85  C   UNL A   1      29.432  29.040  22.635  1.00  0.00     0.095 C 
ATOM     86  C   UNL A   1      27.973  28.668  22.697  1.00  0.00     0.095 C 
ATOM     87  O   UNL A   1      27.003  26.972  24.114  1.00  0.00    -0.274 OA
ATOM     88  C   UNL A   1      29.397  30.280  21.725  1.00  0.00     0.002 C 
ATOM     89  C   UNL A   1      27.372  30.092  22.726  1.00  0.00     0.002 C 
ATOM     90  C   UNL A   1      29.457  31.457  22.715  1.00  0.00     0.005 C 
ATOM     91  C   UNL A   1      27.900  30.469  21.324  1.00  0.00     0.009 C 
ATOM     92  C   UNL A   1      28.154  31.201  23.534  1.00  0.00     0.005 C 
ENDBRANCH  80  81
ENDBRANCH  73  75
ENDBRANCH  67  71
ENDBRANCH  63  65
ENDBRANCH  62  63
ENDBRANCH  61  62
ENDBRANCH  60  61
ENDBRANCH  59  60
ENDBRANCH   1  59
TORSDOF 20
ENDMDL
MODEL 3
REMARK VINA RESULT:     -10.2      2.619      8.966
REMARK SMILES O=C(OCCOCCOCCOC(=O)c1ccccc1C(=O)Nc1ccc(N2C(=O)[C@H]3[C@@H]4CC[C@@H](C4)[C@@H]3C2=O)cc1)c1ccc(-c2c3nc(c(-c4ccccc4)c4ccc([nH]4)c(-c4ccccc4)c4nc(c(-c5ccccc5)c5ccc2[nH]5)C=C4)C=C3)cc1
REMARK SMILES IDX 8 1 7 2 6 3 5 4 4 5 3 6 2 7 1 8 42 9 43 10 89 11 44 12 88 13
REMARK SMILES IDX 45 14 46 15 47 16 82 17 48 18 87 19 81 20 83 21 49 22 86 23
REMARK SMILES IDX 80 24 79 25 50 27 72 28 57 29 71 30 58 31 61 32 70 33 84 34
REMARK SMILES IDX 59 35 60 36 69 38 85 39 62 40 51 41 52 42 56 43 53 44 55 45
REMARK SMILES IDX 54 46 73 47 74 48 78 49 75 50 77 51 76 52 63 53 64 54 68 55
REMARK SMILES IDX 65 56 67 57 66 58 9 59 10 60 11 61 12 62 13 63 14 64 15 65
REMARK SMILES IDX 16 66 20 67 17 68 19 69 18 70 21 71 22 72 23 73 24 75 25 76
REMARK SMILES IDX 41 77 26 78 40 79 27 80 28 81 29 82 38 83 30 84 31 85 37 86
REMARK SMILES IDX 39 87 32 88 35 89 33 90 36 91 34 92
REMARK H PARENT 83 26 61 37 23 74
REMARK Flexibility Score: inf
ROOT
ATOM      1  C   UNL A   1      41.693  22.109  26.958  1.00  0.00     0.188 C 
ENDROOT
BRANCH   1   2
ATOM      2  C   UNL A   1      43.146  22.157  26.554  1.00  0.00     0.188 C 
BRANCH   2   3
ATOM      3  O   UNL A   1      43.692  23.436  26.830  1.00  0.00    -0.376 OA
BRANCH   3   4
ATOM      4  C   UNL A   1      44.370  24.040  25.743  1.00  0.00     0.202 C 
BRANCH   4   5
ATOM      5  C   UNL A   1      43.401  24.744  24.784  1.00  0.00     0.261 C 
BRANCH   5   6
ATOM      6  O   UNL A   1      42.362  25.379  25.553  1.00  0.00    -0.460 OA
BRANCH   6   7
ATOM      7  C   UNL A   1      42.364  26.741  25.592  1.00  0.00     0.338 C 
ATOM      8  O   UNL A   1      42.307  27.528  24.667  1.00  0.00    -0.246 OA
BRANCH   7   9
ATOM      9  C   UNL A   1      42.671  27.065  26.996  1.00  0.00     0.060 A 
ATOM     10  C   UNL A   1      42.046  26.274  27.956  1.00  0.00     0.016 A 
ATOM     11  C   UNL A   1      43.269  28.266  27.353  1.00  0.00     0.016 A 
ATOM     12  C   UNL A   1      41.753  26.776  29.196  1.00  0.00     0.010 A 
ATOM     13  C   UNL A   1      43.099  28.720  28.661  1.00  0.00     0.010 A 
ATOM     14  C   UNL A   1      42.257  28.016  29.548  1.00  0.00    -0.014 A 
BRANCH  14  15
ATOM     15  C   UNL A   1      41.702  28.662  30.746  1.00  0.00     0.031 A 
ATOM     16  C   UNL A   1      40.444  29.449  30.578  1.00  0.00     0.074 A 
ATOM     17  C   UNL A   1      42.227  28.441  31.961  1.00  0.00     0.049 A 
ATOM     18  N   UNL A   1      39.935  30.364  31.349  1.00  0.00    -0.248 NA
ATOM     19  C   UNL A   1      39.654  29.164  29.365  1.00  0.00     0.031 C 
ATOM     20  C   UNL A   1      43.282  27.476  32.266  1.00  0.00     0.029 A 
ATOM     21  N   UNL A   1      41.946  29.017  33.168  1.00  0.00    -0.354 N 
ATOM     22  C   UNL A   1      38.815  30.830  30.675  1.00  0.00     0.074 A 
ATOM     23  C   UNL A   1      38.699  30.077  29.447  1.00  0.00     0.031 C 
ATOM     24  C   UNL A   1      43.588  27.546  33.567  1.00  0.00     0.029 A 
ATOM     25  C   UNL A   1      42.839  28.648  34.144  1.00  0.00     0.049 A 
ATOM     26  H   UNL A   1      41.189  29.627  33.321  1.00  0.00     0.167 HD
ATOM     27  C   UNL A   1      37.995  31.835  31.053  1.00  0.00     0.031 A 
ATOM     28  C   UNL A   1      43.099  29.223  35.330  1.00  0.00     0.031 A 
ATOM     29  C   UNL A   1      38.179  32.539  32.292  1.00  0.00     0.049 A 
ATOM     30  C   UNL A   1      42.288  30.432  35.686  1.00  0.00     0.074 A 
ATOM     31  C   UNL A   1      37.505  33.635  32.791  1.00  0.00     0.029 A 
ATOM     32  N   UNL A   1      39.132  32.181  33.242  1.00  0.00    -0.354 N 
ATOM     33  N   UNL A   1      41.331  31.005  34.993  1.00  0.00    -0.248 NA
ATOM     34  C   UNL A   1      42.593  31.083  36.961  1.00  0.00     0.031 C 
ATOM     35  C   UNL A   1      38.086  33.967  34.021  1.00  0.00     0.029 A 
ATOM     36  C   UNL A   1      39.081  33.044  34.316  1.00  0.00     0.049 A 
ATOM     37  H   UNL A   1      39.754  31.423  33.158  1.00  0.00     0.167 HD
ATOM     38  C   UNL A   1      40.891  32.070  35.759  1.00  0.00     0.074 A 
ATOM     39  C   UNL A   1      41.698  32.063  36.969  1.00  0.00     0.031 C 
ATOM     40  C   UNL A   1      39.910  32.970  35.498  1.00  0.00     0.031 A 
BRANCH  27  41
ATOM     41  C   UNL A   1      36.969  32.280  30.048  1.00  0.00    -0.014 A 
ATOM     42  C   UNL A   1      37.265  33.203  29.033  1.00  0.00     0.009 A 
ATOM     43  C   UNL A   1      35.641  31.849  30.202  1.00  0.00     0.009 A 
ATOM     44  C   UNL A   1      36.243  33.732  28.237  1.00  0.00     0.001 A 
ATOM     45  C   UNL A   1      34.627  32.357  29.388  1.00  0.00     0.001 A 
ATOM     46  C   UNL A   1      34.924  33.313  28.419  1.00  0.00     0.000 A 
ENDBRANCH  27  41
BRANCH  28  47
ATOM     47  C   UNL A   1      44.236  28.726  36.146  1.00  0.00    -0.014 A 
ATOM     48  C   UNL A   1      44.079  27.649  37.026  1.00  0.00     0.009 A 
ATOM     49  C   UNL A   1      45.523  29.270  35.969  1.00  0.00     0.009 A 
ATOM     50  C   UNL A   1      45.182  27.129  37.712  1.00  0.00     0.001 A 
ATOM     51  C   UNL A   1      46.628  28.731  36.633  1.00  0.00     0.001 A 
ATOM     52  C   UNL A   1      46.455  27.662  37.507  1.00  0.00     0.000 A 
ENDBRANCH  28  47
BRANCH  40  53
ATOM     53  C   UNL A   1      39.622  33.968  36.573  1.00  0.00    -0.014 A 
ATOM     54  C   UNL A   1      38.780  33.657  37.648  1.00  0.00     0.009 A 
ATOM     55  C   UNL A   1      40.280  35.207  36.541  1.00  0.00     0.009 A 
ATOM     56  C   UNL A   1      38.592  34.581  38.675  1.00  0.00     0.001 A 
ATOM     57  C   UNL A   1      40.109  36.117  37.581  1.00  0.00     0.001 A 
ATOM     58  C   UNL A   1      39.263  35.805  38.644  1.00  0.00     0.000 A 
ENDBRANCH  40  53
ENDBRANCH  14  15
ENDBRANCH   7   9
ENDBRANCH   6   7
ENDBRANCH   5   6
ENDBRANCH   4   5
ENDBRANCH   3   4
ENDBRANCH   2   3
ENDBRANCH   1   2
BRANCH   1  59
ATOM     59  O   UNL A   1      40.867  21.808  25.851  1.00  0.00    -0.376 OA
BRANCH  59  60
ATOM     60  C   UNL A   1      39.534  21.428  26.185  1.00  0.00     0.202 C 
BRANCH  60  61
ATOM     61  C   UNL A   1      38.373  22.363  25.792  1.00  0.00     0.261 C 
BRANCH  61  62
ATOM     62  O   UNL A   1      37.023  21.821  25.739  1.00  0.00    -0.460 OA
BRANCH  62  63
ATOM     63  C   UNL A   1      35.942  22.586  25.998  1.00  0.00     0.339 C 
ATOM     64  O   UNL A   1      35.914  23.665  26.564  1.00  0.00    -0.246 OA
BRANCH  63  65
ATOM     65  C   UNL A   1      34.709  22.093  25.352  1.00  0.00     0.072 A 
ATOM     66  C   UNL A   1      33.888  21.289  26.181  1.00  0.00     0.016 A 
ATOM     67  C   UNL A   1      34.275  22.420  24.068  1.00  0.00     0.054 A 
ATOM     68  C   UNL A   1      32.603  20.911  25.795  1.00  0.00     0.001 A 
ATOM     69  C   UNL A   1      32.954  22.059  23.708  1.00  0.00     0.015 A 
ATOM     70  C   UNL A   1      32.122  21.326  24.564  1.00  0.00     0.001 A 
BRANCH  67  71
ATOM     71  C   UNL A   1      35.004  23.261  23.089  1.00  0.00     0.256 C 
ATOM     72  O   UNL A   1      35.919  22.712  22.466  1.00  0.00    -0.269 OA
ATOM     73  N   UNL A   1      34.717  24.563  22.752  1.00  0.00    -0.322 N 
ATOM     74  H   UNL A   1      35.205  24.851  21.948  1.00  0.00     0.170 HD
BRANCH  73  75
ATOM     75  C   UNL A   1      33.903  25.587  23.265  1.00  0.00     0.041 A 
ATOM     76  C   UNL A   1      33.732  26.709  22.444  1.00  0.00     0.028 A 
ATOM     77  C   UNL A   1      33.238  25.562  24.484  1.00  0.00     0.028 A 
ATOM     78  C   UNL A   1      32.760  27.683  22.733  1.00  0.00     0.029 A 
ATOM     79  C   UNL A   1      32.319  26.585  24.811  1.00  0.00     0.029 A 
ATOM     80  C   UNL A   1      32.000  27.611  23.900  1.00  0.00     0.052 A 
BRANCH  80  81
ATOM     81  N   UNL A   1      30.798  28.366  24.069  1.00  0.00    -0.250 N 
ATOM     82  C   UNL A   1      29.550  27.988  23.546  1.00  0.00     0.237 C 
ATOM     83  C   UNL A   1      30.781  29.699  24.494  1.00  0.00     0.237 C 
ATOM     84  O   UNL A   1      29.074  26.894  23.383  1.00  0.00    -0.274 OA
ATOM     85  C   UNL A   1      29.021  29.278  23.009  1.00  0.00     0.095 C 
ATOM     86  C   UNL A   1      29.447  30.261  24.070  1.00  0.00     0.095 C 
ATOM     87  O   UNL A   1      31.589  30.305  25.181  1.00  0.00    -0.274 OA
ATOM     88  C   UNL A   1      27.672  29.869  22.564  1.00  0.00     0.002 C 
ATOM     89  C   UNL A   1      28.929  31.557  23.404  1.00  0.00     0.002 C 
ATOM     90  C   UNL A   1      28.022  30.635  21.275  1.00  0.00     0.005 C 
ATOM     91  C   UNL A   1      27.445  31.129  23.457  1.00  0.00     0.009 C 
ATOM     92  C   UNL A   1      29.044  31.672  21.834  1.00  0.00     0.005 C 
ENDBRANCH  80  81
ENDBRANCH  73  75
ENDBRANCH  67  71
ENDBRANCH  63  65
ENDBRANCH  62  63
ENDBRANCH  61  62
ENDBRANCH  60  61
ENDBRANCH  59  60
ENDBRANCH   1  59
TORSDOF 20
ENDMDL
