MODEL 1
REMARK VINA RESULT:      -9.7      0.000      0.000
REMARK SMILES CC(C)(C)OC(=O)[C@H]1CC[C@]1([NH3+])C(=O)OCCOCCOCCOC(=O)c1ccc(-c2c3nc(c(-c4ccccc4)c4ccc([nH]4)c(-c4ccccc4)c4nc(c(-c5ccccc5)c5ccc2[nH]5)C=C4)C=C3)cc1
REMARK SMILES IDX 19 1 18 2 17 3 16 4 15 5 13 6 14 7 11 8 8 9 9 10 10 11 6 12
REMARK SMILES IDX 7 13 5 14 2 15 1 16 3 17 4 18 12 19 20 23 21 24 22 25 23 26
REMARK SMILES IDX 24 27 25 28 26 29 27 30 28 31 74 32 29 33 73 34 30 35 31 36
REMARK SMILES IDX 32 37 67 38 33 39 72 40 66 41 68 42 34 43 71 44 65 45 64 46
REMARK SMILES IDX 35 48 57 49 42 50 56 51 43 52 46 53 55 54 69 55 44 56 45 57
REMARK SMILES IDX 54 59 70 60 47 61 36 62 37 63 41 64 38 65 40 66 39 67 58 68
REMARK SMILES IDX 59 69 63 70 60 71 62 72 61 73 48 74 49 75 53 76 50 77 52 78
REMARK SMILES IDX 51 79
REMARK H PARENT 12 20 12 21 12 22 68 47 46 58
REMARK Flexibility Score: inf
ROOT
ATOM      1  C   UNL A   1      34.330  32.458  28.200  1.00  0.00     0.188 C 
ENDROOT
BRANCH   1   2
ATOM      2  O   UNL A   1      34.054  31.431  27.255  1.00  0.00    -0.376 OA
BRANCH   2   3
ATOM      3  C   UNL A   1      32.758  30.849  27.244  1.00  0.00     0.202 C 
BRANCH   3   4
ATOM      4  C   UNL A   1      32.191  30.422  25.885  1.00  0.00     0.261 C 
BRANCH   4   5
ATOM      5  O   UNL A   1      32.325  29.015  25.581  1.00  0.00    -0.459 OA
BRANCH   5   6
ATOM      6  C   UNL A   1      32.735  28.711  24.309  1.00  0.00     0.368 C 
ATOM      7  O   UNL A   1      33.900  28.400  24.048  1.00  0.00    -0.245 OA
BRANCH   6   8
ATOM      8  C   UNL A   1      31.613  28.811  23.183  1.00  0.00     0.206 C 
ATOM      9  C   UNL A   1      30.101  29.107  23.460  1.00  0.00     0.172 C 
ATOM     10  C   UNL A   1      29.910  27.556  23.526  1.00  0.00     0.030 C 
ATOM     11  C   UNL A   1      31.155  27.425  22.631  1.00  0.00     0.083 C 
BRANCH   9  12
ATOM     12  C   UNL A   1      29.187  29.793  22.406  1.00  0.00     0.316 C 
ATOM     13  O   UNL A   1      28.256  29.235  21.826  1.00  0.00    -0.252 OA
BRANCH  12  14
ATOM     14  O   UNL A   1      29.493  31.111  22.240  1.00  0.00    -0.460 OA
BRANCH  14  15
ATOM     15  C   UNL A   1      28.542  32.148  22.610  1.00  0.00     0.104 C 
ATOM     16  C   UNL A   1      27.855  32.533  21.292  1.00  0.00     0.056 C 
ATOM     17  C   UNL A   1      29.282  33.371  23.162  1.00  0.00     0.056 C 
ATOM     18  C   UNL A   1      27.466  31.647  23.583  1.00  0.00     0.056 C 
ENDBRANCH  14  15
ENDBRANCH  12  14
ENDBRANCH   9  12
BRANCH   8  19
ATOM     19  N   UNL A   1      32.076  29.627  22.037  1.00  0.00    -0.343 N 
ATOM     20  H   UNL A   1      31.782  29.188  21.166  1.00  0.00     0.345 HD
ATOM     21  H   UNL A   1      33.093  29.696  22.059  1.00  0.00     0.345 HD
ATOM     22  H   UNL A   1      31.671  30.562  22.100  1.00  0.00     0.345 HD
ENDBRANCH   8  19
ENDBRANCH   6   8
ENDBRANCH   5   6
ENDBRANCH   4   5
ENDBRANCH   3   4
ENDBRANCH   2   3
ENDBRANCH   1   2
BRANCH   1  23
ATOM     23  C   UNL A   1      33.394  33.677  28.280  1.00  0.00     0.188 C 
BRANCH  23  24
ATOM     24  O   UNL A   1      33.262  34.205  29.587  1.00  0.00    -0.376 OA
BRANCH  24  25
ATOM     25  C   UNL A   1      34.474  34.517  30.249  1.00  0.00     0.202 C 
BRANCH  25  26
ATOM     26  C   UNL A   1      34.473  34.010  31.694  1.00  0.00     0.261 C 
BRANCH  26  27
ATOM     27  O   UNL A   1      34.803  32.613  31.836  1.00  0.00    -0.460 OA
BRANCH  27  28
ATOM     28  C   UNL A   1      35.821  32.318  32.671  1.00  0.00     0.338 C 
ATOM     29  O   UNL A   1      35.863  32.525  33.878  1.00  0.00    -0.246 OA
BRANCH  28  30
ATOM     30  C   UNL A   1      36.822  31.518  31.937  1.00  0.00     0.060 A 
ATOM     31  C   UNL A   1      37.776  30.798  32.667  1.00  0.00     0.016 A 
ATOM     32  C   UNL A   1      36.847  31.506  30.540  1.00  0.00     0.016 A 
ATOM     33  C   UNL A   1      38.784  30.095  32.001  1.00  0.00     0.010 A 
ATOM     34  C   UNL A   1      37.869  30.817  29.875  1.00  0.00     0.010 A 
ATOM     35  C   UNL A   1      38.864  30.136  30.602  1.00  0.00    -0.014 A 
BRANCH  35  36
ATOM     36  C   UNL A   1      40.087  29.643  29.916  1.00  0.00     0.031 A 
ATOM     37  C   UNL A   1      41.250  30.587  29.750  1.00  0.00     0.074 A 
ATOM     38  C   UNL A   1      40.197  28.374  29.482  1.00  0.00     0.049 A 
ATOM     39  N   UNL A   1      42.394  30.401  29.143  1.00  0.00    -0.248 NA
ATOM     40  C   UNL A   1      41.100  31.920  30.357  1.00  0.00     0.031 C 
ATOM     41  C   UNL A   1      39.181  27.334  29.628  1.00  0.00     0.029 A 
ATOM     42  N   UNL A   1      41.228  27.748  28.820  1.00  0.00    -0.354 N 
ATOM     43  C   UNL A   1      43.098  31.590  29.293  1.00  0.00     0.074 A 
ATOM     44  C   UNL A   1      42.242  32.501  30.021  1.00  0.00     0.031 C 
ATOM     45  C   UNL A   1      39.637  26.199  29.065  1.00  0.00     0.029 A 
ATOM     46  C   UNL A   1      40.958  26.443  28.486  1.00  0.00     0.049 A 
ATOM     47  H   UNL A   1      42.080  28.193  28.607  1.00  0.00     0.167 HD
ATOM     48  C   UNL A   1      44.347  31.899  28.873  1.00  0.00     0.031 A 
ATOM     49  C   UNL A   1      41.681  25.556  27.772  1.00  0.00     0.031 A 
ATOM     50  C   UNL A   1      45.201  31.012  28.132  1.00  0.00     0.049 A 
ATOM     51  C   UNL A   1      43.031  25.956  27.229  1.00  0.00     0.074 A 
ATOM     52  C   UNL A   1      46.473  31.249  27.639  1.00  0.00     0.029 A 
ATOM     53  N   UNL A   1      44.871  29.714  27.777  1.00  0.00    -0.354 N 
ATOM     54  N   UNL A   1      43.679  27.086  27.370  1.00  0.00    -0.248 NA
ATOM     55  C   UNL A   1      43.749  24.950  26.430  1.00  0.00     0.031 C 
ATOM     56  C   UNL A   1      46.893  30.110  26.946  1.00  0.00     0.029 A 
ATOM     57  C   UNL A   1      45.906  29.144  27.059  1.00  0.00     0.049 A 
ATOM     58  H   UNL A   1      44.025  29.264  28.004  1.00  0.00     0.167 HD
ATOM     59  C   UNL A   1      44.888  26.917  26.704  1.00  0.00     0.074 A 
ATOM     60  C   UNL A   1      44.892  25.571  26.174  1.00  0.00     0.031 C 
ATOM     61  C   UNL A   1      45.904  27.799  26.544  1.00  0.00     0.031 A 
BRANCH  48  62
ATOM     62  C   UNL A   1      44.854  33.279  29.183  1.00  0.00    -0.014 A 
ATOM     63  C   UNL A   1      45.585  33.538  30.353  1.00  0.00     0.009 A 
ATOM     64  C   UNL A   1      44.620  34.328  28.280  1.00  0.00     0.009 A 
ATOM     65  C   UNL A   1      46.046  34.828  30.627  1.00  0.00     0.001 A 
ATOM     66  C   UNL A   1      45.105  35.610  28.544  1.00  0.00     0.001 A 
ATOM     67  C   UNL A   1      45.809  35.860  29.721  1.00  0.00     0.000 A 
ENDBRANCH  48  62
BRANCH  49  68
ATOM     68  C   UNL A   1      41.132  24.204  27.480  1.00  0.00    -0.014 A 
ATOM     69  C   UNL A   1      40.075  24.033  26.572  1.00  0.00     0.009 A 
ATOM     70  C   UNL A   1      41.632  23.078  28.154  1.00  0.00     0.009 A 
ATOM     71  C   UNL A   1      39.510  22.771  26.371  1.00  0.00     0.001 A 
ATOM     72  C   UNL A   1      41.087  21.812  27.927  1.00  0.00     0.001 A 
ATOM     73  C   UNL A   1      40.019  21.661  27.045  1.00  0.00     0.000 A 
ENDBRANCH  49  68
BRANCH  61  74
ATOM     74  C   UNL A   1      47.126  27.329  25.804  1.00  0.00    -0.014 A 
ATOM     75  C   UNL A   1      47.259  27.511  24.419  1.00  0.00     0.009 A 
ATOM     76  C   UNL A   1      48.183  26.738  26.516  1.00  0.00     0.009 A 
ATOM     77  C   UNL A   1      48.412  27.082  23.758  1.00  0.00     0.001 A 
ATOM     78  C   UNL A   1      49.346  26.336  25.857  1.00  0.00     0.001 A 
ATOM     79  C   UNL A   1      49.457  26.500  24.478  1.00  0.00     0.000 A 
ENDBRANCH  61  74
ENDBRANCH  35  36
ENDBRANCH  28  30
ENDBRANCH  27  28
ENDBRANCH  26  27
ENDBRANCH  25  26
ENDBRANCH  24  25
ENDBRANCH  23  24
ENDBRANCH   1  23
TORSDOF 21
ENDMDL
MODEL 2
REMARK VINA RESULT:      -9.0      5.103     10.498
REMARK SMILES CC(C)(C)OC(=O)[C@H]1CC[C@]1([NH3+])C(=O)OCCOCCOCCOC(=O)c1ccc(-c2c3nc(c(-c4ccccc4)c4ccc([nH]4)c(-c4ccccc4)c4nc(c(-c5ccccc5)c5ccc2[nH]5)C=C4)C=C3)cc1
REMARK SMILES IDX 19 1 18 2 17 3 16 4 15 5 13 6 14 7 11 8 8 9 9 10 10 11 6 12
REMARK SMILES IDX 7 13 5 14 2 15 1 16 3 17 4 18 12 19 20 23 21 24 22 25 23 26
REMARK SMILES IDX 24 27 25 28 26 29 27 30 28 31 74 32 29 33 73 34 30 35 31 36
REMARK SMILES IDX 32 37 67 38 33 39 72 40 66 41 68 42 34 43 71 44 65 45 64 46
REMARK SMILES IDX 35 48 57 49 42 50 56 51 43 52 46 53 55 54 69 55 44 56 45 57
REMARK SMILES IDX 54 59 70 60 47 61 36 62 37 63 41 64 38 65 40 66 39 67 58 68
REMARK SMILES IDX 59 69 63 70 60 71 62 72 61 73 48 74 49 75 53 76 50 77 52 78
REMARK SMILES IDX 51 79
REMARK H PARENT 12 20 12 21 12 22 68 47 46 58
REMARK Flexibility Score: inf
ROOT
ATOM      1  C   UNL A   1      41.934  19.347  26.968  1.00  0.00     0.188 C 
ENDROOT
BRANCH   1   2
ATOM      2  O   UNL A   1      40.753  19.853  26.357  1.00  0.00    -0.376 OA
BRANCH   2   3
ATOM      3  C   UNL A   1      40.724  21.218  25.963  1.00  0.00     0.202 C 
BRANCH   3   4
ATOM      4  C   UNL A   1      39.590  22.086  26.524  1.00  0.00     0.261 C 
BRANCH   4   5
ATOM      5  O   UNL A   1      38.389  22.117  25.720  1.00  0.00    -0.459 OA
BRANCH   5   6
ATOM      6  C   UNL A   1      37.557  23.187  25.925  1.00  0.00     0.368 C 
ATOM      7  O   UNL A   1      37.876  24.144  26.636  1.00  0.00    -0.245 OA
BRANCH   6   8
ATOM      8  C   UNL A   1      36.139  23.102  25.203  1.00  0.00     0.206 C 
ATOM      9  C   UNL A   1      35.083  24.257  25.185  1.00  0.00     0.172 C 
ATOM     10  C   UNL A   1      34.480  23.596  26.468  1.00  0.00     0.030 C 
ATOM     11  C   UNL A   1      35.085  22.263  25.991  1.00  0.00     0.083 C 
BRANCH   9  12
ATOM     12  C   UNL A   1      34.051  24.414  24.032  1.00  0.00     0.316 C 
ATOM     13  O   UNL A   1      34.345  24.459  22.839  1.00  0.00    -0.252 OA
BRANCH  12  14
ATOM     14  O   UNL A   1      32.767  24.429  24.491  1.00  0.00    -0.460 OA
BRANCH  14  15
ATOM     15  C   UNL A   1      31.817  23.407  24.080  1.00  0.00     0.104 C 
ATOM     16  C   UNL A   1      30.849  24.133  23.135  1.00  0.00     0.056 C 
ATOM     17  C   UNL A   1      31.037  22.893  25.295  1.00  0.00     0.056 C 
ATOM     18  C   UNL A   1      32.479  22.262  23.302  1.00  0.00     0.056 C 
ENDBRANCH  14  15
ENDBRANCH  12  14
ENDBRANCH   9  12
BRANCH   8  19
ATOM     19  N   UNL A   1      36.263  22.521  23.848  1.00  0.00    -0.343 N 
ATOM     20  H   UNL A   1      35.334  22.383  23.451  1.00  0.00     0.345 HD
ATOM     21  H   UNL A   1      36.746  21.625  23.905  1.00  0.00     0.345 HD
ATOM     22  H   UNL A   1      36.796  23.156  23.253  1.00  0.00     0.345 HD
ENDBRANCH   8  19
ENDBRANCH   6   8
ENDBRANCH   5   6
ENDBRANCH   4   5
ENDBRANCH   3   4
ENDBRANCH   2   3
ENDBRANCH   1   2
BRANCH   1  23
ATOM     23  C   UNL A   1      42.891  18.469  26.142  1.00  0.00     0.188 C 
BRANCH  23  24
ATOM     24  O   UNL A   1      43.439  19.132  25.017  1.00  0.00    -0.376 OA
BRANCH  24  25
ATOM     25  C   UNL A   1      44.590  19.918  25.267  1.00  0.00     0.202 C 
BRANCH  25  26
ATOM     26  C   UNL A   1      44.462  21.315  24.654  1.00  0.00     0.261 C 
BRANCH  26  27
ATOM     27  O   UNL A   1      43.902  22.306  25.541  1.00  0.00    -0.460 OA
BRANCH  27  28
ATOM     28  C   UNL A   1      44.235  23.590  25.295  1.00  0.00     0.338 C 
ATOM     29  O   UNL A   1      44.592  24.062  24.222  1.00  0.00    -0.246 OA
BRANCH  28  30
ATOM     30  C   UNL A   1      43.916  24.401  26.487  1.00  0.00     0.060 A 
ATOM     31  C   UNL A   1      43.045  23.874  27.448  1.00  0.00     0.016 A 
ATOM     32  C   UNL A   1      44.440  25.687  26.641  1.00  0.00     0.016 A 
ATOM     33  C   UNL A   1      42.663  24.648  28.548  1.00  0.00     0.010 A 
ATOM     34  C   UNL A   1      44.041  26.467  27.733  1.00  0.00     0.010 A 
ATOM     35  C   UNL A   1      43.123  25.966  28.674  1.00  0.00    -0.014 A 
BRANCH  35  36
ATOM     36  C   UNL A   1      42.495  26.876  29.667  1.00  0.00     0.031 A 
ATOM     37  C   UNL A   1      43.137  27.013  31.024  1.00  0.00     0.074 A 
ATOM     38  C   UNL A   1      41.404  27.606  29.374  1.00  0.00     0.049 A 
ATOM     39  N   UNL A   1      42.744  27.702  32.066  1.00  0.00    -0.248 NA
ATOM     40  C   UNL A   1      44.395  26.276  31.229  1.00  0.00     0.031 C 
ATOM     41  C   UNL A   1      40.714  27.624  28.086  1.00  0.00     0.029 A 
ATOM     42  N   UNL A   1      40.683  28.479  30.156  1.00  0.00    -0.354 N 
ATOM     43  C   UNL A   1      43.703  27.481  33.047  1.00  0.00     0.074 A 
ATOM     44  C   UNL A   1      44.679  26.571  32.489  1.00  0.00     0.031 C 
ATOM     45  C   UNL A   1      39.661  28.460  28.169  1.00  0.00     0.029 A 
ATOM     46  C   UNL A   1      39.583  29.006  29.524  1.00  0.00     0.049 A 
ATOM     47  H   UNL A   1      40.931  28.703  31.081  1.00  0.00     0.167 HD
ATOM     48  C   UNL A   1      43.775  27.992  34.298  1.00  0.00     0.031 A 
ATOM     49  C   UNL A   1      38.610  29.815  29.991  1.00  0.00     0.031 A 
ATOM     50  C   UNL A   1      42.802  28.881  34.873  1.00  0.00     0.049 A 
ATOM     51  C   UNL A   1      38.658  30.294  31.421  1.00  0.00     0.074 A 
ATOM     52  C   UNL A   1      42.778  29.428  36.145  1.00  0.00     0.029 A 
ATOM     53  N   UNL A   1      41.681  29.355  34.212  1.00  0.00    -0.354 N 
ATOM     54  N   UNL A   1      39.565  30.068  32.340  1.00  0.00    -0.248 NA
ATOM     55  C   UNL A   1      37.546  31.145  31.874  1.00  0.00     0.031 C 
ATOM     56  C   UNL A   1      41.617  30.197  36.268  1.00  0.00     0.029 A 
ATOM     57  C   UNL A   1      40.950  30.175  35.054  1.00  0.00     0.049 A 
ATOM     58  H   UNL A   1      41.441  29.142  33.281  1.00  0.00     0.167 HD
ATOM     59  C   UNL A   1      39.148  30.769  33.466  1.00  0.00     0.074 A 
ATOM     60  C   UNL A   1      37.917  31.442  33.111  1.00  0.00     0.031 C 
ATOM     61  C   UNL A   1      39.731  30.848  34.687  1.00  0.00     0.031 A 
BRANCH  48  62
ATOM     62  C   UNL A   1      44.941  27.570  35.147  1.00  0.00    -0.014 A 
ATOM     63  C   UNL A   1      46.126  28.322  35.178  1.00  0.00     0.009 A 
ATOM     64  C   UNL A   1      44.844  26.419  35.945  1.00  0.00     0.009 A 
ATOM     65  C   UNL A   1      47.201  27.914  35.970  1.00  0.00     0.001 A 
ATOM     66  C   UNL A   1      45.911  26.029  36.755  1.00  0.00     0.001 A 
ATOM     67  C   UNL A   1      47.091  26.770  36.760  1.00  0.00     0.000 A 
ENDBRANCH  48  62
BRANCH  49  68
ATOM     68  C   UNL A   1      37.467  30.196  29.117  1.00  0.00    -0.014 A 
ATOM     69  C   UNL A   1      37.400  31.468  28.528  1.00  0.00     0.009 A 
ATOM     70  C   UNL A   1      36.406  29.300  28.912  1.00  0.00     0.009 A 
ATOM     71  C   UNL A   1      36.280  31.846  27.781  1.00  0.00     0.001 A 
ATOM     72  C   UNL A   1      35.302  29.668  28.139  1.00  0.00     0.001 A 
ATOM     73  C   UNL A   1      35.235  30.945  27.584  1.00  0.00     0.000 A 
ENDBRANCH  49  68
BRANCH  61  74
ATOM     74  C   UNL A   1      39.075  31.724  35.719  1.00  0.00    -0.014 A 
ATOM     75  C   UNL A   1      38.145  31.208  36.633  1.00  0.00     0.009 A 
ATOM     76  C   UNL A   1      39.435  33.079  35.806  1.00  0.00     0.009 A 
ATOM     77  C   UNL A   1      37.564  32.038  37.594  1.00  0.00     0.001 A 
ATOM     78  C   UNL A   1      38.874  33.900  36.786  1.00  0.00     0.001 A 
ATOM     79  C   UNL A   1      37.932  33.382  37.673  1.00  0.00     0.000 A 
ENDBRANCH  61  74
ENDBRANCH  35  36
ENDBRANCH  28  30
ENDBRANCH  27  28
ENDBRANCH  26  27
ENDBRANCH  25  26
ENDBRANCH  24  25
ENDBRANCH  23  24
ENDBRANCH   1  23
TORSDOF 21
ENDMDL
MODEL 3
REMARK VINA RESULT:      -8.9      2.369      6.796
REMARK SMILES CC(C)(C)OC(=O)[C@H]1CC[C@]1([NH3+])C(=O)OCCOCCOCCOC(=O)c1ccc(-c2c3nc(c(-c4ccccc4)c4ccc([nH]4)c(-c4ccccc4)c4nc(c(-c5ccccc5)c5ccc2[nH]5)C=C4)C=C3)cc1
REMARK SMILES IDX 19 1 18 2 17 3 16 4 15 5 13 6 14 7 11 8 8 9 9 10 10 11 6 12
REMARK SMILES IDX 7 13 5 14 2 15 1 16 3 17 4 18 12 19 20 23 21 24 22 25 23 26
REMARK SMILES IDX 24 27 25 28 26 29 27 30 28 31 74 32 29 33 73 34 30 35 31 36
REMARK SMILES IDX 32 37 67 38 33 39 72 40 66 41 68 42 34 43 71 44 65 45 64 46
REMARK SMILES IDX 35 48 57 49 42 50 56 51 43 52 46 53 55 54 69 55 44 56 45 57
REMARK SMILES IDX 54 59 70 60 47 61 36 62 37 63 41 64 38 65 40 66 39 67 58 68
REMARK SMILES IDX 59 69 63 70 60 71 62 72 61 73 48 74 49 75 53 76 50 77 52 78
REMARK SMILES IDX 51 79
REMARK H PARENT 12 20 12 21 12 22 68 47 46 58
REMARK Flexibility Score: inf
ROOT
ATOM      1  C   UNL A   1      35.220  32.966  28.354  1.00  0.00     0.188 C 
ENDROOT
BRANCH   1   2
ATOM      2  O   UNL A   1      35.051  31.761  27.617  1.00  0.00    -0.376 OA
BRANCH   2   3
ATOM      3  C   UNL A   1      33.952  30.919  27.935  1.00  0.00     0.202 C 
BRANCH   3   4
ATOM      4  C   UNL A   1      33.887  29.555  27.236  1.00  0.00     0.261 C 
BRANCH   4   5
ATOM      5  O   UNL A   1      32.648  29.283  26.540  1.00  0.00    -0.459 OA
BRANCH   5   6
ATOM      6  C   UNL A   1      31.956  28.177  26.959  1.00  0.00     0.368 C 
ATOM      7  O   UNL A   1      31.355  28.143  28.036  1.00  0.00    -0.245 OA
BRANCH   6   8
ATOM      8  C   UNL A   1      31.997  26.927  25.972  1.00  0.00     0.206 C 
ATOM      9  C   UNL A   1      32.781  25.601  26.252  1.00  0.00     0.172 C 
ATOM     10  C   UNL A   1      33.974  26.259  25.483  1.00  0.00     0.030 C 
ATOM     11  C   UNL A   1      32.940  27.128  24.745  1.00  0.00     0.083 C 
BRANCH   9  12
ATOM     12  C   UNL A   1      32.339  24.238  25.648  1.00  0.00     0.316 C 
ATOM     13  O   UNL A   1      31.171  23.860  25.569  1.00  0.00    -0.252 OA
BRANCH  12  14
ATOM     14  O   UNL A   1      33.393  23.529  25.153  1.00  0.00    -0.460 OA
BRANCH  14  15
ATOM     15  C   UNL A   1      33.392  23.056  23.778  1.00  0.00     0.104 C 
ATOM     16  C   UNL A   1      32.893  21.607  23.867  1.00  0.00     0.056 C 
ATOM     17  C   UNL A   1      34.818  23.058  23.217  1.00  0.00     0.056 C 
ATOM     18  C   UNL A   1      32.427  23.842  22.881  1.00  0.00     0.056 C 
ENDBRANCH  14  15
ENDBRANCH  12  14
ENDBRANCH   9  12
BRANCH   8  19
ATOM     19  N   UNL A   1      30.646  26.605  25.460  1.00  0.00    -0.343 N 
ATOM     20  H   UNL A   1      30.407  25.646  25.709  1.00  0.00     0.345 HD
ATOM     21  H   UNL A   1      30.634  26.707  24.446  1.00  0.00     0.345 HD
ATOM     22  H   UNL A   1      29.965  27.243  25.874  1.00  0.00     0.345 HD
ENDBRANCH   8  19
ENDBRANCH   6   8
ENDBRANCH   5   6
ENDBRANCH   4   5
ENDBRANCH   3   4
ENDBRANCH   2   3
ENDBRANCH   1   2
BRANCH   1  23
ATOM     23  C   UNL A   1      33.980  33.798  28.728  1.00  0.00     0.188 C 
BRANCH  23  24
ATOM     24  O   UNL A   1      33.675  33.770  30.110  1.00  0.00    -0.376 OA
BRANCH  24  25
ATOM     25  C   UNL A   1      34.788  33.752  30.985  1.00  0.00     0.202 C 
BRANCH  25  26
ATOM     26  C   UNL A   1      34.472  33.004  32.284  1.00  0.00     0.261 C 
BRANCH  26  27
ATOM     27  O   UNL A   1      35.207  31.775  32.457  1.00  0.00    -0.460 OA
BRANCH  27  28
ATOM     28  C   UNL A   1      36.429  31.880  33.019  1.00  0.00     0.338 C 
ATOM     29  O   UNL A   1      36.689  32.304  34.138  1.00  0.00    -0.246 OA
BRANCH  28  30
ATOM     30  C   UNL A   1      37.414  31.217  32.140  1.00  0.00     0.060 A 
ATOM     31  C   UNL A   1      38.430  30.450  32.724  1.00  0.00     0.016 A 
ATOM     32  C   UNL A   1      37.363  31.379  30.753  1.00  0.00     0.016 A 
ATOM     33  C   UNL A   1      39.422  29.875  31.925  1.00  0.00     0.010 A 
ATOM     34  C   UNL A   1      38.368  30.818  29.956  1.00  0.00     0.010 A 
ATOM     35  C   UNL A   1      39.423  30.092  30.540  1.00  0.00    -0.014 A 
BRANCH  35  36
ATOM     36  C   UNL A   1      40.622  29.736  29.737  1.00  0.00     0.031 A 
ATOM     37  C   UNL A   1      40.698  28.357  29.132  1.00  0.00     0.074 A 
ATOM     38  C   UNL A   1      41.610  30.618  29.502  1.00  0.00     0.049 A 
ATOM     39  N   UNL A   1      41.662  27.803  28.440  1.00  0.00    -0.248 NA
ATOM     40  C   UNL A   1      39.524  27.490  29.331  1.00  0.00     0.031 C 
ATOM     41  C   UNL A   1      41.643  32.002  29.969  1.00  0.00     0.029 A 
ATOM     42  N   UNL A   1      42.787  30.467  28.806  1.00  0.00    -0.354 N 
ATOM     43  C   UNL A   1      41.213  26.527  28.125  1.00  0.00     0.074 A 
ATOM     44  C   UNL A   1      39.905  26.376  28.725  1.00  0.00     0.031 C 
ATOM     45  C   UNL A   1      42.789  32.574  29.553  1.00  0.00     0.029 A 
ATOM     46  C   UNL A   1      43.585  31.586  28.824  1.00  0.00     0.049 A 
ATOM     47  H   UNL A   1      43.034  29.637  28.339  1.00  0.00     0.167 HD
ATOM     48  C   UNL A   1      41.825  25.564  27.395  1.00  0.00     0.031 A 
ATOM     49  C   UNL A   1      44.826  31.783  28.334  1.00  0.00     0.031 A 
ATOM     50  C   UNL A   1      43.132  25.692  26.810  1.00  0.00     0.049 A 
ATOM     51  C   UNL A   1      45.530  30.662  27.608  1.00  0.00     0.074 A 
ATOM     52  C   UNL A   1      43.845  24.758  26.077  1.00  0.00     0.029 A 
ATOM     53  N   UNL A   1      43.923  26.827  26.890  1.00  0.00    -0.354 N 
ATOM     54  N   UNL A   1      45.097  29.457  27.327  1.00  0.00    -0.248 NA
ATOM     55  C   UNL A   1      46.895  30.935  27.129  1.00  0.00     0.031 C 
ATOM     56  C   UNL A   1      45.087  25.312  25.754  1.00  0.00     0.029 A 
ATOM     57  C   UNL A   1      45.122  26.611  26.235  1.00  0.00     0.049 A 
ATOM     58  H   UNL A   1      43.669  27.662  27.345  1.00  0.00     0.167 HD
ATOM     59  C   UNL A   1      46.122  28.842  26.616  1.00  0.00     0.074 A 
ATOM     60  C   UNL A   1      47.191  29.810  26.494  1.00  0.00     0.031 C 
ATOM     61  C   UNL A   1      46.175  27.585  26.111  1.00  0.00     0.031 A 
BRANCH  48  62
ATOM     62  C   UNL A   1      41.090  24.266  27.216  1.00  0.00    -0.014 A 
ATOM     63  C   UNL A   1      41.498  23.103  27.887  1.00  0.00     0.009 A 
ATOM     64  C   UNL A   1      39.958  24.213  26.387  1.00  0.00     0.009 A 
ATOM     65  C   UNL A   1      40.804  21.904  27.708  1.00  0.00     0.001 A 
ATOM     66  C   UNL A   1      39.252  23.019  26.231  1.00  0.00     0.001 A 
ATOM     67  C   UNL A   1      39.680  21.865  26.883  1.00  0.00     0.000 A 
ENDBRANCH  48  62
BRANCH  49  68
ATOM     68  C   UNL A   1      45.520  33.082  28.547  1.00  0.00    -0.014 A 
ATOM     69  C   UNL A   1      46.285  33.312  29.700  1.00  0.00     0.009 A 
ATOM     70  C   UNL A   1      45.372  34.122  27.615  1.00  0.00     0.009 A 
ATOM     71  C   UNL A   1      46.860  34.566  29.931  1.00  0.00     0.001 A 
ATOM     72  C   UNL A   1      45.974  35.363  27.832  1.00  0.00     0.001 A 
ATOM     73  C   UNL A   1      46.707  35.588  28.995  1.00  0.00     0.000 A 
ENDBRANCH  49  68
BRANCH  61  74
ATOM     74  C   UNL A   1      47.407  27.194  25.342  1.00  0.00    -0.014 A 
ATOM     75  C   UNL A   1      47.508  27.415  23.960  1.00  0.00     0.009 A 
ATOM     76  C   UNL A   1      48.503  26.640  26.024  1.00  0.00     0.009 A 
ATOM     77  C   UNL A   1      48.671  27.060  23.272  1.00  0.00     0.001 A 
ATOM     78  C   UNL A   1      49.674  26.313  25.338  1.00  0.00     0.001 A 
ATOM     79  C   UNL A   1      49.754  26.515  23.961  1.00  0.00     0.000 A 
ENDBRANCH  61  74
ENDBRANCH  35  36
ENDBRANCH  28  30
ENDBRANCH  27  28
ENDBRANCH  26  27
ENDBRANCH  25  26
ENDBRANCH  24  25
ENDBRANCH  23  24
ENDBRANCH   1  23
TORSDOF 21
ENDMDL
