MODEL 1
REMARK VINA RESULT:      -9.7      0.000      0.000
REMARK SMILES CC[C@H](C)c1ccccc1Oc1cccc(F)c1C(=O)OCCOCCOCCOC(=O)c1ccc(-c2c3nc(c(-c4ccccc4)c4ccc([nH]4)c(-c4ccccc4)c4nc(c(-c5ccccc5)c5ccc2[nH]5)C=C4)C=C3)cc1
REMARK SMILES IDX 25 1 24 2 23 3 22 4 21 5 19 6 20 7 18 8 12 9 13 10 14 11
REMARK SMILES IDX 16 12 15 13 17 14 11 15 10 16 5 17 6 18 7 19 9 20 8 21 3 22
REMARK SMILES IDX 4 23 2 24 1 25 26 26 27 27 28 28 29 29 30 30 31 31 32 32
REMARK SMILES IDX 33 33 34 34 80 35 35 36 79 37 36 38 37 39 38 40 73 41 39 42
REMARK SMILES IDX 78 43 72 44 74 45 40 46 77 47 71 48 70 49 41 51 63 52 48 53
REMARK SMILES IDX 62 54 49 55 52 56 61 57 75 58 50 59 51 60 60 62 76 63 53 64
REMARK SMILES IDX 42 65 43 66 47 67 44 68 46 69 45 70 64 71 65 72 69 73 66 74
REMARK SMILES IDX 68 75 67 76 54 77 55 78 59 79 56 80 58 81 57 82
REMARK H PARENT 74 50 52 61
REMARK Flexibility Score: inf
ROOT
ATOM      1  C   UNL A   1      41.163  21.841  26.110  1.00  0.00     0.188 C 
ENDROOT
BRANCH   1   2
ATOM      2  O   UNL A   1      40.594  22.273  27.334  1.00  0.00    -0.376 OA
BRANCH   2   3
ATOM      3  C   UNL A   1      39.430  23.076  27.213  1.00  0.00     0.202 C 
BRANCH   3   4
ATOM      4  C   UNL A   1      38.596  22.932  25.921  1.00  0.00     0.261 C 
BRANCH   4   5
ATOM      5  O   UNL A   1      37.632  23.962  25.592  1.00  0.00    -0.459 OA
BRANCH   5   6
ATOM      6  C   UNL A   1      36.627  23.563  24.780  1.00  0.00     0.345 C 
ATOM      7  O   UNL A   1      36.825  23.154  23.646  1.00  0.00    -0.246 OA
BRANCH   6   8
ATOM      8  C   UNL A   1      35.288  23.532  25.462  1.00  0.00     0.138 A 
ATOM      9  C   UNL A   1      34.378  24.594  25.527  1.00  0.00     0.144 A 
ATOM     10  C   UNL A   1      33.141  24.433  26.185  1.00  0.00     0.048 A 
ATOM     11  C   UNL A   1      32.734  23.191  26.660  1.00  0.00     0.007 A 
ATOM     12  C   UNL A   1      34.837  22.280  25.922  1.00  0.00     0.141 A 
ATOM     13  C   UNL A   1      33.578  22.103  26.500  1.00  0.00     0.040 A 
ATOM     14  F   UNL A   1      35.604  21.187  25.795  1.00  0.00    -0.206 F 
BRANCH   9  15
ATOM     15  O   UNL A   1      34.462  25.824  24.925  1.00  0.00    -0.456 OA
BRANCH  15  16
ATOM     16  C   UNL A   1      33.417  26.260  24.157  1.00  0.00     0.130 A 
ATOM     17  C   UNL A   1      32.636  27.415  24.412  1.00  0.00    -0.002 A 
ATOM     18  C   UNL A   1      31.539  27.603  23.549  1.00  0.00     0.008 A 
ATOM     19  C   UNL A   1      31.289  26.743  22.462  1.00  0.00     0.001 A 
ATOM     20  C   UNL A   1      33.183  25.417  23.054  1.00  0.00     0.047 A 
ATOM     21  C   UNL A   1      32.118  25.659  22.204  1.00  0.00     0.004 A 
BRANCH  17  22
ATOM     22  C   UNL A   1      32.944  28.448  25.526  1.00  0.00     0.019 C 
ATOM     23  C   UNL A   1      32.298  29.796  25.197  1.00  0.00     0.013 C 
BRANCH  22  24
ATOM     24  C   UNL A   1      32.516  28.069  26.970  1.00  0.00     0.005 C 
ATOM     25  C   UNL A   1      31.205  27.314  27.140  1.00  0.00     0.004 C 
ENDBRANCH  22  24
ENDBRANCH  17  22
ENDBRANCH  15  16
ENDBRANCH   9  15
ENDBRANCH   6   8
ENDBRANCH   5   6
ENDBRANCH   4   5
ENDBRANCH   3   4
ENDBRANCH   2   3
ENDBRANCH   1   2
BRANCH   1  26
ATOM     26  C   UNL A   1      42.370  20.886  26.269  1.00  0.00     0.188 C 
BRANCH  26  27
ATOM     27  O   UNL A   1      43.284  20.687  25.208  1.00  0.00    -0.376 OA
BRANCH  27  28
ATOM     28  C   UNL A   1      44.435  21.510  25.170  1.00  0.00     0.202 C 
BRANCH  28  29
ATOM     29  C   UNL A   1      44.466  22.721  24.212  1.00  0.00     0.261 C 
BRANCH  29  30
ATOM     30  O   UNL A   1      43.683  23.877  24.586  1.00  0.00    -0.460 OA
BRANCH  30  31
ATOM     31  C   UNL A   1      44.359  24.923  25.127  1.00  0.00     0.338 C 
ATOM     32  O   UNL A   1      45.484  25.302  24.819  1.00  0.00    -0.246 OA
BRANCH  31  33
ATOM     33  C   UNL A   1      43.474  25.734  26.007  1.00  0.00     0.060 A 
ATOM     34  C   UNL A   1      43.729  27.113  26.131  1.00  0.00     0.016 A 
ATOM     35  C   UNL A   1      42.449  25.154  26.753  1.00  0.00     0.016 A 
ATOM     36  C   UNL A   1      43.007  27.899  27.029  1.00  0.00     0.010 A 
ATOM     37  C   UNL A   1      41.755  25.933  27.694  1.00  0.00     0.010 A 
ATOM     38  C   UNL A   1      42.072  27.294  27.874  1.00  0.00    -0.014 A 
BRANCH  38  39
ATOM     39  C   UNL A   1      41.695  28.001  29.127  1.00  0.00     0.031 A 
ATOM     40  C   UNL A   1      40.440  28.840  29.103  1.00  0.00     0.074 A 
ATOM     41  C   UNL A   1      42.373  27.857  30.278  1.00  0.00     0.049 A 
ATOM     42  N   UNL A   1      39.880  29.539  30.058  1.00  0.00    -0.248 NA
ATOM     43  C   UNL A   1      39.719  28.888  27.820  1.00  0.00     0.031 C 
ATOM     44  C   UNL A   1      43.548  27.013  30.474  1.00  0.00     0.029 A 
ATOM     45  N   UNL A   1      42.152  28.424  31.510  1.00  0.00    -0.354 N 
ATOM     46  C   UNL A   1      38.752  30.117  29.485  1.00  0.00     0.074 A 
ATOM     47  C   UNL A   1      38.731  29.720  28.096  1.00  0.00     0.031 C 
ATOM     48  C   UNL A   1      43.944  27.115  31.756  1.00  0.00     0.029 A 
ATOM     49  C   UNL A   1      43.071  28.053  32.460  1.00  0.00     0.049 A 
ATOM     50  H   UNL A   1      41.405  29.038  31.694  1.00  0.00     0.167 HD
ATOM     51  C   UNL A   1      37.809  30.903  30.059  1.00  0.00     0.031 A 
ATOM     52  C   UNL A   1      43.193  28.434  33.748  1.00  0.00     0.031 A 
ATOM     53  C   UNL A   1      37.839  31.331  31.432  1.00  0.00     0.049 A 
ATOM     54  C   UNL A   1      42.200  29.403  34.338  1.00  0.00     0.074 A 
ATOM     55  C   UNL A   1      36.940  32.138  32.105  1.00  0.00     0.029 A 
ATOM     56  N   UNL A   1      38.834  30.997  32.337  1.00  0.00    -0.354 N 
ATOM     57  N   UNL A   1      41.137  29.941  33.792  1.00  0.00    -0.248 NA
ATOM     58  C   UNL A   1      42.423  29.801  35.736  1.00  0.00     0.031 C 
ATOM     59  C   UNL A   1      37.426  32.345  33.402  1.00  0.00     0.029 A 
ATOM     60  C   UNL A   1      38.586  31.602  33.559  1.00  0.00     0.049 A 
ATOM     61  H   UNL A   1      39.605  30.415  32.142  1.00  0.00     0.167 HD
ATOM     62  C   UNL A   1      40.539  30.704  34.790  1.00  0.00     0.074 A 
ATOM     63  C   UNL A   1      41.357  30.552  35.977  1.00  0.00     0.031 C 
ATOM     64  C   UNL A   1      39.408  31.451  34.734  1.00  0.00     0.031 A 
BRANCH  51  65
ATOM     65  C   UNL A   1      36.701  31.394  29.164  1.00  0.00    -0.014 A 
ATOM     66  C   UNL A   1      36.682  32.709  28.667  1.00  0.00     0.009 A 
ATOM     67  C   UNL A   1      35.637  30.537  28.845  1.00  0.00     0.009 A 
ATOM     68  C   UNL A   1      35.592  33.171  27.925  1.00  0.00     0.001 A 
ATOM     69  C   UNL A   1      34.568  30.989  28.070  1.00  0.00     0.001 A 
ATOM     70  C   UNL A   1      34.536  32.310  27.627  1.00  0.00     0.000 A 
ENDBRANCH  51  65
BRANCH  52  71
ATOM     71  C   UNL A   1      44.295  27.885  34.584  1.00  0.00    -0.014 A 
ATOM     72  C   UNL A   1      44.099  26.723  35.345  1.00  0.00     0.009 A 
ATOM     73  C   UNL A   1      45.542  28.528  34.639  1.00  0.00     0.009 A 
ATOM     74  C   UNL A   1      45.122  26.225  36.156  1.00  0.00     0.001 A 
ATOM     75  C   UNL A   1      46.571  28.013  35.429  1.00  0.00     0.001 A 
ATOM     76  C   UNL A   1      46.359  26.866  36.192  1.00  0.00     0.000 A 
ENDBRANCH  52  71
BRANCH  64  77
ATOM     77  C   UNL A   1      38.948  32.111  36.008  1.00  0.00    -0.014 A 
ATOM     78  C   UNL A   1      38.083  31.470  36.909  1.00  0.00     0.009 A 
ATOM     79  C   UNL A   1      39.409  33.402  36.319  1.00  0.00     0.009 A 
ATOM     80  C   UNL A   1      37.650  32.126  38.064  1.00  0.00     0.001 A 
ATOM     81  C   UNL A   1      39.005  34.041  37.492  1.00  0.00     0.001 A 
ATOM     82  C   UNL A   1      38.114  33.409  38.357  1.00  0.00     0.000 A 
ENDBRANCH  64  77
ENDBRANCH  38  39
ENDBRANCH  31  33
ENDBRANCH  30  31
ENDBRANCH  29  30
ENDBRANCH  28  29
ENDBRANCH  27  28
ENDBRANCH  26  27
ENDBRANCH   1  26
TORSDOF 21
ENDMDL
MODEL 2
REMARK VINA RESULT:      -9.3      3.765      7.015
REMARK SMILES CC[C@H](C)c1ccccc1Oc1cccc(F)c1C(=O)OCCOCCOCCOC(=O)c1ccc(-c2c3nc(c(-c4ccccc4)c4ccc([nH]4)c(-c4ccccc4)c4nc(c(-c5ccccc5)c5ccc2[nH]5)C=C4)C=C3)cc1
REMARK SMILES IDX 25 1 24 2 23 3 22 4 21 5 19 6 20 7 18 8 12 9 13 10 14 11
REMARK SMILES IDX 16 12 15 13 17 14 11 15 10 16 5 17 6 18 7 19 9 20 8 21 3 22
REMARK SMILES IDX 4 23 2 24 1 25 26 26 27 27 28 28 29 29 30 30 31 31 32 32
REMARK SMILES IDX 33 33 34 34 80 35 35 36 79 37 36 38 37 39 38 40 73 41 39 42
REMARK SMILES IDX 78 43 72 44 74 45 40 46 77 47 71 48 70 49 41 51 63 52 48 53
REMARK SMILES IDX 62 54 49 55 52 56 61 57 75 58 50 59 51 60 60 62 76 63 53 64
REMARK SMILES IDX 42 65 43 66 47 67 44 68 46 69 45 70 64 71 65 72 69 73 66 74
REMARK SMILES IDX 68 75 67 76 54 77 55 78 59 79 56 80 58 81 57 82
REMARK H PARENT 74 50 52 61
REMARK Flexibility Score: inf
ROOT
ATOM      1  C   UNL A   1      38.350  21.077  25.703  1.00  0.00     0.188 C 
ENDROOT
BRANCH   1   2
ATOM      2  O   UNL A   1      37.684  22.119  25.012  1.00  0.00    -0.376 OA
BRANCH   2   3
ATOM      3  C   UNL A   1      36.636  22.751  25.731  1.00  0.00     0.202 C 
BRANCH   3   4
ATOM      4  C   UNL A   1      36.104  24.093  25.183  1.00  0.00     0.261 C 
BRANCH   4   5
ATOM      5  O   UNL A   1      34.966  24.712  25.830  1.00  0.00    -0.459 OA
BRANCH   5   6
ATOM      6  C   UNL A   1      33.861  24.821  25.056  1.00  0.00     0.345 C 
ATOM      7  O   UNL A   1      33.850  25.462  24.017  1.00  0.00    -0.246 OA
BRANCH   6   8
ATOM      8  C   UNL A   1      32.720  23.963  25.525  1.00  0.00     0.138 A 
ATOM      9  C   UNL A   1      31.613  24.403  26.262  1.00  0.00     0.144 A 
ATOM     10  C   UNL A   1      30.595  23.499  26.628  1.00  0.00     0.048 A 
ATOM     11  C   UNL A   1      30.589  22.191  26.156  1.00  0.00     0.007 A 
ATOM     12  C   UNL A   1      32.671  22.645  25.035  1.00  0.00     0.141 A 
ATOM     13  C   UNL A   1      31.621  21.772  25.330  1.00  0.00     0.040 A 
ATOM     14  F   UNL A   1      33.637  22.178  24.230  1.00  0.00    -0.206 F 
BRANCH   9  15
ATOM     15  O   UNL A   1      31.290  25.686  26.626  1.00  0.00    -0.456 OA
BRANCH  15  16
ATOM     16  C   UNL A   1      31.012  26.604  25.648  1.00  0.00     0.130 A 
ATOM     17  C   UNL A   1      31.506  27.931  25.604  1.00  0.00    -0.002 A 
ATOM     18  C   UNL A   1      30.993  28.730  24.564  1.00  0.00     0.008 A 
ATOM     19  C   UNL A   1      30.114  28.216  23.592  1.00  0.00     0.001 A 
ATOM     20  C   UNL A   1      30.155  26.082  24.662  1.00  0.00     0.047 A 
ATOM     21  C   UNL A   1      29.705  26.888  23.631  1.00  0.00     0.004 A 
BRANCH  17  22
ATOM     22  C   UNL A   1      32.561  28.503  26.586  1.00  0.00     0.019 C 
ATOM     23  C   UNL A   1      33.932  28.580  25.909  1.00  0.00     0.013 C 
BRANCH  22  24
ATOM     24  C   UNL A   1      32.266  29.901  27.195  1.00  0.00     0.005 C 
ATOM     25  C   UNL A   1      33.365  30.951  27.113  1.00  0.00     0.004 C 
ENDBRANCH  22  24
ENDBRANCH  17  22
ENDBRANCH  15  16
ENDBRANCH   9  15
ENDBRANCH   6   8
ENDBRANCH   5   6
ENDBRANCH   4   5
ENDBRANCH   3   4
ENDBRANCH   2   3
ENDBRANCH   1   2
BRANCH   1  26
ATOM     26  C   UNL A   1      39.809  21.407  26.101  1.00  0.00     0.188 C 
BRANCH  26  27
ATOM     27  O   UNL A   1      40.606  20.461  26.789  1.00  0.00    -0.376 OA
BRANCH  27  28
ATOM     28  C   UNL A   1      41.028  19.315  26.074  1.00  0.00     0.202 C 
BRANCH  28  29
ATOM     29  C   UNL A   1      42.535  19.089  25.831  1.00  0.00     0.261 C 
BRANCH  29  30
ATOM     30  O   UNL A   1      43.176  19.924  24.839  1.00  0.00    -0.460 OA
BRANCH  30  31
ATOM     31  C   UNL A   1      44.184  20.722  25.273  1.00  0.00     0.338 C 
ATOM     32  O   UNL A   1      45.381  20.570  25.052  1.00  0.00    -0.246 OA
BRANCH  31  33
ATOM     33  C   UNL A   1      43.654  21.976  25.875  1.00  0.00     0.060 A 
ATOM     34  C   UNL A   1      43.419  23.080  25.034  1.00  0.00     0.016 A 
ATOM     35  C   UNL A   1      43.447  22.100  27.248  1.00  0.00     0.016 A 
ATOM     36  C   UNL A   1      43.034  24.313  25.559  1.00  0.00     0.010 A 
ATOM     37  C   UNL A   1      43.108  23.354  27.783  1.00  0.00     0.010 A 
ATOM     38  C   UNL A   1      42.956  24.477  26.945  1.00  0.00    -0.014 A 
BRANCH  38  39
ATOM     39  C   UNL A   1      43.050  25.854  27.498  1.00  0.00     0.031 A 
ATOM     40  C   UNL A   1      44.421  26.479  27.582  1.00  0.00     0.074 A 
ATOM     41  C   UNL A   1      41.971  26.576  27.842  1.00  0.00     0.049 A 
ATOM     42  N   UNL A   1      44.778  27.666  28.004  1.00  0.00    -0.248 NA
ATOM     43  C   UNL A   1      45.542  25.644  27.119  1.00  0.00     0.031 C 
ATOM     44  C   UNL A   1      40.583  26.138  27.732  1.00  0.00     0.029 A 
ATOM     45  N   UNL A   1      41.887  27.850  28.352  1.00  0.00    -0.354 N 
ATOM     46  C   UNL A   1      46.161  27.711  27.868  1.00  0.00     0.074 A 
ATOM     47  C   UNL A   1      46.581  26.423  27.365  1.00  0.00     0.031 C 
ATOM     48  C   UNL A   1      39.781  27.132  28.160  1.00  0.00     0.029 A 
ATOM     49  C   UNL A   1      40.600  28.260  28.601  1.00  0.00     0.049 A 
ATOM     50  H   UNL A   1      42.675  28.415  28.522  1.00  0.00     0.167 HD
ATOM     51  C   UNL A   1      47.014  28.731  28.130  1.00  0.00     0.031 A 
ATOM     52  C   UNL A   1      40.141  29.411  29.130  1.00  0.00     0.031 A 
ATOM     53  C   UNL A   1      46.611  30.006  28.662  1.00  0.00     0.049 A 
ATOM     54  C   UNL A   1      41.115  30.493  29.526  1.00  0.00     0.074 A 
ATOM     55  C   UNL A   1      47.397  31.099  28.974  1.00  0.00     0.029 A 
ATOM     56  N   UNL A   1      45.305  30.348  28.977  1.00  0.00    -0.354 N 
ATOM     57  N   UNL A   1      42.418  30.529  29.392  1.00  0.00    -0.248 NA
ATOM     58  C   UNL A   1      40.541  31.703  30.132  1.00  0.00     0.031 C 
ATOM     59  C   UNL A   1      46.574  32.081  29.539  1.00  0.00     0.029 A 
ATOM     60  C   UNL A   1      45.265  31.628  29.504  1.00  0.00     0.049 A 
ATOM     61  H   UNL A   1      44.520  29.767  28.844  1.00  0.00     0.167 HD
ATOM     62  C   UNL A   1      42.816  31.779  29.853  1.00  0.00     0.074 A 
ATOM     63  C   UNL A   1      41.612  32.473  30.265  1.00  0.00     0.031 C 
ATOM     64  C   UNL A   1      44.063  32.310  29.917  1.00  0.00     0.031 A 
BRANCH  51  65
ATOM     65  C   UNL A   1      48.478  28.467  27.894  1.00  0.00    -0.014 A 
ATOM     66  C   UNL A   1      49.312  27.975  28.913  1.00  0.00     0.009 A 
ATOM     67  C   UNL A   1      49.041  28.755  26.641  1.00  0.00     0.009 A 
ATOM     68  C   UNL A   1      50.686  27.837  28.700  1.00  0.00     0.001 A 
ATOM     69  C   UNL A   1      50.407  28.578  26.419  1.00  0.00     0.001 A 
ATOM     70  C   UNL A   1      51.232  28.138  27.452  1.00  0.00     0.000 A 
ENDBRANCH  51  65
BRANCH  52  71
ATOM     71  C   UNL A   1      38.678  29.618  29.307  1.00  0.00    -0.014 A 
ATOM     72  C   UNL A   1      38.049  29.255  30.508  1.00  0.00     0.009 A 
ATOM     73  C   UNL A   1      37.900  30.161  28.273  1.00  0.00     0.009 A 
ATOM     74  C   UNL A   1      36.670  29.419  30.664  1.00  0.00     0.001 A 
ATOM     75  C   UNL A   1      36.527  30.348  28.441  1.00  0.00     0.001 A 
ATOM     76  C   UNL A   1      35.911  29.971  29.633  1.00  0.00     0.000 A 
ENDBRANCH  52  71
BRANCH  64  77
ATOM     77  C   UNL A   1      44.187  33.736  30.391  1.00  0.00    -0.014 A 
ATOM     78  C   UNL A   1      44.416  34.055  31.739  1.00  0.00     0.009 A 
ATOM     79  C   UNL A   1      44.088  34.782  29.458  1.00  0.00     0.009 A 
ATOM     80  C   UNL A   1      44.491  35.389  32.148  1.00  0.00     0.001 A 
ATOM     81  C   UNL A   1      44.201  36.113  29.863  1.00  0.00     0.001 A 
ATOM     82  C   UNL A   1      44.386  36.417  31.210  1.00  0.00     0.000 A 
ENDBRANCH  64  77
ENDBRANCH  38  39
ENDBRANCH  31  33
ENDBRANCH  30  31
ENDBRANCH  29  30
ENDBRANCH  28  29
ENDBRANCH  27  28
ENDBRANCH  26  27
ENDBRANCH   1  26
TORSDOF 21
ENDMDL
MODEL 3
REMARK VINA RESULT:      -8.9      4.641     10.458
REMARK SMILES CC[C@H](C)c1ccccc1Oc1cccc(F)c1C(=O)OCCOCCOCCOC(=O)c1ccc(-c2c3nc(c(-c4ccccc4)c4ccc([nH]4)c(-c4ccccc4)c4nc(c(-c5ccccc5)c5ccc2[nH]5)C=C4)C=C3)cc1
REMARK SMILES IDX 25 1 24 2 23 3 22 4 21 5 19 6 20 7 18 8 12 9 13 10 14 11
REMARK SMILES IDX 16 12 15 13 17 14 11 15 10 16 5 17 6 18 7 19 9 20 8 21 3 22
REMARK SMILES IDX 4 23 2 24 1 25 26 26 27 27 28 28 29 29 30 30 31 31 32 32
REMARK SMILES IDX 33 33 34 34 80 35 35 36 79 37 36 38 37 39 38 40 73 41 39 42
REMARK SMILES IDX 78 43 72 44 74 45 40 46 77 47 71 48 70 49 41 51 63 52 48 53
REMARK SMILES IDX 62 54 49 55 52 56 61 57 75 58 50 59 51 60 60 62 76 63 53 64
REMARK SMILES IDX 42 65 43 66 47 67 44 68 46 69 45 70 64 71 65 72 69 73 66 74
REMARK SMILES IDX 68 75 67 76 54 77 55 78 59 79 56 80 58 81 57 82
REMARK H PARENT 74 50 52 61
REMARK Flexibility Score: inf
ROOT
ATOM      1  C   UNL A   1      32.995  37.043  30.725  1.00  0.00     0.188 C 
ENDROOT
BRANCH   1   2
ATOM      2  O   UNL A   1      32.977  36.644  29.366  1.00  0.00    -0.376 OA
BRANCH   2   3
ATOM      3  C   UNL A   1      32.961  35.242  29.145  1.00  0.00     0.202 C 
BRANCH   3   4
ATOM      4  C   UNL A   1      34.133  34.632  28.344  1.00  0.00     0.261 C 
BRANCH   4   5
ATOM      5  O   UNL A   1      34.070  33.236  27.965  1.00  0.00    -0.459 OA
BRANCH   5   6
ATOM      6  C   UNL A   1      34.472  32.368  28.922  1.00  0.00     0.345 C 
ATOM      7  O   UNL A   1      34.081  32.440  30.077  1.00  0.00    -0.246 OA
BRANCH   6   8
ATOM      8  C   UNL A   1      35.309  31.240  28.388  1.00  0.00     0.138 A 
ATOM      9  C   UNL A   1      34.850  29.951  28.088  1.00  0.00     0.144 A 
ATOM     10  C   UNL A   1      35.735  28.981  27.573  1.00  0.00     0.048 A 
ATOM     11  C   UNL A   1      37.039  29.311  27.220  1.00  0.00     0.007 A 
ATOM     12  C   UNL A   1      36.622  31.554  27.990  1.00  0.00     0.141 A 
ATOM     13  C   UNL A   1      37.474  30.615  27.404  1.00  0.00     0.040 A 
ATOM     14  F   UNL A   1      37.103  32.797  28.139  1.00  0.00    -0.206 F 
BRANCH   9  15
ATOM     15  O   UNL A   1      33.563  29.476  28.127  1.00  0.00    -0.456 OA
BRANCH  15  16
ATOM     16  C   UNL A   1      32.787  29.569  27.003  1.00  0.00     0.130 A 
ATOM     17  C   UNL A   1      32.686  28.583  25.991  1.00  0.00    -0.002 A 
ATOM     18  C   UNL A   1      31.916  28.947  24.870  1.00  0.00     0.008 A 
ATOM     19  C   UNL A   1      31.231  30.174  24.802  1.00  0.00     0.001 A 
ATOM     20  C   UNL A   1      32.080  30.785  26.948  1.00  0.00     0.047 A 
ATOM     21  C   UNL A   1      31.299  31.089  25.847  1.00  0.00     0.004 A 
BRANCH  17  22
ATOM     22  C   UNL A   1      33.331  27.175  26.077  1.00  0.00     0.019 C 
ATOM     23  C   UNL A   1      32.308  26.150  26.573  1.00  0.00     0.013 C 
BRANCH  22  24
ATOM     24  C   UNL A   1      33.958  26.611  24.773  1.00  0.00     0.005 C 
ATOM     25  C   UNL A   1      33.134  25.616  23.969  1.00  0.00     0.004 C 
ENDBRANCH  22  24
ENDBRANCH  17  22
ENDBRANCH  15  16
ENDBRANCH   9  15
ENDBRANCH   6   8
ENDBRANCH   5   6
ENDBRANCH   4   5
ENDBRANCH   3   4
ENDBRANCH   2   3
ENDBRANCH   1   2
BRANCH   1  26
ATOM     26  C   UNL A   1      33.952  36.218  31.620  1.00  0.00     0.188 C 
BRANCH  26  27
ATOM     27  O   UNL A   1      33.536  35.745  32.886  1.00  0.00    -0.376 OA
BRANCH  27  28
ATOM     28  C   UNL A   1      33.793  34.389  33.198  1.00  0.00     0.202 C 
BRANCH  28  29
ATOM     29  C   UNL A   1      35.013  34.035  34.076  1.00  0.00     0.261 C 
BRANCH  29  30
ATOM     30  O   UNL A   1      35.529  32.689  33.974  1.00  0.00    -0.460 OA
BRANCH  30  31
ATOM     31  C   UNL A   1      36.856  32.525  34.209  1.00  0.00     0.338 C 
ATOM     32  O   UNL A   1      37.462  32.849  35.226  1.00  0.00    -0.246 OA
BRANCH  31  33
ATOM     33  C   UNL A   1      37.484  31.673  33.163  1.00  0.00     0.060 A 
ATOM     34  C   UNL A   1      38.378  30.662  33.564  1.00  0.00     0.016 A 
ATOM     35  C   UNL A   1      37.259  31.893  31.805  1.00  0.00     0.016 A 
ATOM     36  C   UNL A   1      39.084  29.912  32.624  1.00  0.00     0.010 A 
ATOM     37  C   UNL A   1      38.005  31.174  30.857  1.00  0.00     0.010 A 
ATOM     38  C   UNL A   1      38.961  30.221  31.266  1.00  0.00    -0.014 A 
BRANCH  38  39
ATOM     39  C   UNL A   1      40.048  29.795  30.346  1.00  0.00     0.031 A 
ATOM     40  C   UNL A   1      41.189  30.757  30.121  1.00  0.00     0.074 A 
ATOM     41  C   UNL A   1      40.090  28.576  29.781  1.00  0.00     0.049 A 
ATOM     42  N   UNL A   1      42.265  30.627  29.387  1.00  0.00    -0.248 NA
ATOM     43  C   UNL A   1      41.098  32.044  30.831  1.00  0.00     0.031 C 
ATOM     44  C   UNL A   1      39.107  27.514  29.977  1.00  0.00     0.029 A 
ATOM     45  N   UNL A   1      41.017  28.029  28.927  1.00  0.00    -0.354 N 
ATOM     46  C   UNL A   1      42.968  31.817  29.540  1.00  0.00     0.074 A 
ATOM     47  C   UNL A   1      42.179  32.669  30.400  1.00  0.00     0.031 C 
ATOM     48  C   UNL A   1      39.487  26.437  29.263  1.00  0.00     0.029 A 
ATOM     49  C   UNL A   1      40.720  26.746  28.540  1.00  0.00     0.049 A 
ATOM     50  H   UNL A   1      41.819  28.512  28.623  1.00  0.00     0.167 HD
ATOM     51  C   UNL A   1      44.167  32.175  29.019  1.00  0.00     0.031 A 
ATOM     52  C   UNL A   1      41.367  25.922  27.692  1.00  0.00     0.031 A 
ATOM     53  C   UNL A   1      44.944  31.348  28.135  1.00  0.00     0.049 A 
ATOM     54  C   UNL A   1      42.642  26.381  27.029  1.00  0.00     0.074 A 
ATOM     55  C   UNL A   1      46.164  31.623  27.544  1.00  0.00     0.029 A 
ATOM     56  N   UNL A   1      44.565  30.086  27.703  1.00  0.00    -0.354 N 
ATOM     57  N   UNL A   1      43.300  27.505  27.180  1.00  0.00    -0.248 NA
ATOM     58  C   UNL A   1      43.268  25.441  26.088  1.00  0.00     0.031 C 
ATOM     59  C   UNL A   1      46.491  30.553  26.701  1.00  0.00     0.029 A 
ATOM     60  C   UNL A   1      45.514  29.579  26.831  1.00  0.00     0.049 A 
ATOM     61  H   UNL A   1      43.741  29.619  27.975  1.00  0.00     0.167 HD
ATOM     62  C   UNL A   1      44.440  27.390  26.391  1.00  0.00     0.074 A 
ATOM     63  C   UNL A   1      44.384  26.082  25.768  1.00  0.00     0.031 C 
ATOM     64  C   UNL A   1      45.448  28.279  26.210  1.00  0.00     0.031 A 
BRANCH  51  65
ATOM     65  C   UNL A   1      44.667  33.555  29.357  1.00  0.00    -0.014 A 
ATOM     66  C   UNL A   1      44.268  34.685  28.623  1.00  0.00     0.009 A 
ATOM     67  C   UNL A   1      45.586  33.722  30.405  1.00  0.00     0.009 A 
ATOM     68  C   UNL A   1      44.825  35.938  28.890  1.00  0.00     0.001 A 
ATOM     69  C   UNL A   1      46.111  34.981  30.696  1.00  0.00     0.001 A 
ATOM     70  C   UNL A   1      45.746  36.084  29.927  1.00  0.00     0.000 A 
ENDBRANCH  51  65
BRANCH  52  71
ATOM     71  C   UNL A   1      40.833  24.559  27.426  1.00  0.00    -0.014 A 
ATOM     72  C   UNL A   1      39.712  24.383  26.600  1.00  0.00     0.009 A 
ATOM     73  C   UNL A   1      41.428  23.429  28.009  1.00  0.00     0.009 A 
ATOM     74  C   UNL A   1      39.190  23.107  26.375  1.00  0.00     0.001 A 
ATOM     75  C   UNL A   1      40.920  22.152  27.761  1.00  0.00     0.001 A 
ATOM     76  C   UNL A   1      39.797  21.992  26.951  1.00  0.00     0.000 A 
ENDBRANCH  52  71
BRANCH  64  77
ATOM     77  C   UNL A   1      46.610  27.846  25.352  1.00  0.00    -0.014 A 
ATOM     78  C   UNL A   1      46.632  28.063  23.966  1.00  0.00     0.009 A 
ATOM     79  C   UNL A   1      47.715  27.221  25.955  1.00  0.00     0.009 A 
ATOM     80  C   UNL A   1      47.710  27.617  23.196  1.00  0.00     0.001 A 
ATOM     81  C   UNL A   1      48.808  26.811  25.190  1.00  0.00     0.001 A 
ATOM     82  C   UNL A   1      48.799  26.995  23.809  1.00  0.00     0.000 A 
ENDBRANCH  64  77
ENDBRANCH  38  39
ENDBRANCH  31  33
ENDBRANCH  30  31
ENDBRANCH  29  30
ENDBRANCH  28  29
ENDBRANCH  27  28
ENDBRANCH  26  27
ENDBRANCH   1  26
TORSDOF 21
ENDMDL
