MODEL 1
REMARK VINA RESULT:     -10.7      0.000      0.000
REMARK SMILES O=C(OCCOCCOCCOC(=O)c1ccc(-c2c3nc(c(-c4ccccc4)c4ccc([nH]4)c(-c4ccccc4)c4nc(c(-c5ccccc5)c5ccc2[nH]5)C=C4)C=C3)cc1)c1ccc(Cn2cc(Cl)c(=O)[nH]c2=O)cc1
REMARK SMILES IDX 7 1 6 2 5 3 4 4 3 5 2 6 1 7 63 8 64 9 78 10 65 11 77 12
REMARK SMILES IDX 66 13 67 14 68 15 69 16 75 17 70 18 74 19 76 20 71 21 72 22
REMARK SMILES IDX 73 24 8 25 9 26 10 27 11 28 12 29 13 30 14 31 15 32 16 33
REMARK SMILES IDX 62 34 17 35 61 36 18 37 19 38 20 39 55 40 21 41 60 42 54 43
REMARK SMILES IDX 56 44 22 45 59 46 53 47 52 48 23 50 45 51 30 52 44 53 31 54
REMARK SMILES IDX 34 55 43 56 57 57 32 58 33 59 42 61 58 62 35 63 24 64 25 65
REMARK SMILES IDX 29 66 26 67 28 68 27 69 46 70 47 71 51 72 48 73 50 74 49 75
REMARK SMILES IDX 36 76 37 77 41 78 38 79 40 80 39 81
REMARK H PARENT 74 23 56 49 34 60
REMARK Flexibility Score: inf
ROOT
ATOM      1  C   UNL A   1      32.901  35.525  29.556  1.00  0.00     0.188 C 
ENDROOT
BRANCH   1   2
ATOM      2  O   UNL A   1      34.306  35.403  29.289  1.00  0.00    -0.376 OA
BRANCH   2   3
ATOM      3  C   UNL A   1      34.727  34.068  29.022  1.00  0.00     0.202 C 
BRANCH   3   4
ATOM      4  C   UNL A   1      33.884  33.309  27.992  1.00  0.00     0.261 C 
BRANCH   4   5
ATOM      5  O   UNL A   1      33.716  31.917  28.313  1.00  0.00    -0.460 OA
BRANCH   5   6
ATOM      6  C   UNL A   1      34.296  30.893  27.636  1.00  0.00     0.338 C 
ATOM      7  O   UNL A   1      35.504  30.697  27.679  1.00  0.00    -0.246 OA
BRANCH   6   8
ATOM      8  C   UNL A   1      33.439  29.948  26.892  1.00  0.00     0.060 A 
ATOM      9  C   UNL A   1      32.633  30.371  25.834  1.00  0.00     0.016 A 
ATOM     10  C   UNL A   1      33.495  28.594  27.235  1.00  0.00     0.016 A 
ATOM     11  C   UNL A   1      31.807  29.457  25.179  1.00  0.00     0.006 A 
ATOM     12  C   UNL A   1      32.680  27.678  26.569  1.00  0.00     0.006 A 
ATOM     13  C   UNL A   1      31.810  28.106  25.553  1.00  0.00    -0.028 A 
BRANCH  13  14
ATOM     14  C   UNL A   1      30.822  27.136  24.939  1.00  0.00     0.162 C 
BRANCH  14  15
ATOM     15  N   UNL A   1      31.372  26.551  23.712  1.00  0.00    -0.295 N 
ATOM     16  C   UNL A   1      32.330  25.555  23.804  1.00  0.00     0.117 A 
ATOM     17  C   UNL A   1      30.987  27.084  22.488  1.00  0.00     0.328 A 
ATOM     18  C   UNL A   1      32.960  25.068  22.733  1.00  0.00     0.122 A 
ATOM     19  N   UNL A   1      31.623  26.559  21.391  1.00  0.00    -0.273 N 
ATOM     20  O   UNL A   1      30.155  27.976  22.351  1.00  0.00    -0.248 OA
ATOM     21  Cl  UNL A   1      34.178  23.866  22.862  1.00  0.00    -0.077 Cl
ATOM     22  C   UNL A   1      32.614  25.613  21.398  1.00  0.00     0.272 A 
ATOM     23  H   UNL A   1      31.340  26.897  20.511  1.00  0.00     0.175 HD
ATOM     24  O   UNL A   1      33.171  25.262  20.364  1.00  0.00    -0.268 OA
ENDBRANCH  14  15
ENDBRANCH  13  14
ENDBRANCH   6   8
ENDBRANCH   5   6
ENDBRANCH   4   5
ENDBRANCH   3   4
ENDBRANCH   2   3
ENDBRANCH   1   2
BRANCH   1  25
ATOM     25  C   UNL A   1      32.689  35.991  31.000  1.00  0.00     0.188 C 
BRANCH  25  26
ATOM     26  O   UNL A   1      32.997  35.006  31.991  1.00  0.00    -0.376 OA
BRANCH  26  27
ATOM     27  C   UNL A   1      34.095  35.288  32.857  1.00  0.00     0.202 C 
BRANCH  27  28
ATOM     28  C   UNL A   1      34.651  34.085  33.624  1.00  0.00     0.261 C 
BRANCH  28  29
ATOM     29  O   UNL A   1      35.514  33.245  32.834  1.00  0.00    -0.460 OA
BRANCH  29  30
ATOM     30  C   UNL A   1      36.382  32.499  33.557  1.00  0.00     0.338 C 
ATOM     31  O   UNL A   1      36.569  32.526  34.762  1.00  0.00    -0.246 OA
BRANCH  30  32
ATOM     32  C   UNL A   1      37.162  31.603  32.690  1.00  0.00     0.060 A 
ATOM     33  C   UNL A   1      38.205  30.857  33.245  1.00  0.00     0.016 A 
ATOM     34  C   UNL A   1      37.023  31.708  31.303  1.00  0.00     0.016 A 
ATOM     35  C   UNL A   1      39.153  30.266  32.408  1.00  0.00     0.010 A 
ATOM     36  C   UNL A   1      37.967  31.104  30.466  1.00  0.00     0.010 A 
ATOM     37  C   UNL A   1      39.067  30.424  31.014  1.00  0.00    -0.014 A 
BRANCH  37  38
ATOM     38  C   UNL A   1      40.199  29.996  30.151  1.00  0.00     0.031 A 
ATOM     39  C   UNL A   1      41.348  30.939  29.896  1.00  0.00     0.074 A 
ATOM     40  C   UNL A   1      40.226  28.761  29.618  1.00  0.00     0.049 A 
ATOM     41  N   UNL A   1      42.440  30.744  29.198  1.00  0.00    -0.248 NA
ATOM     42  C   UNL A   1      41.257  32.274  30.506  1.00  0.00     0.031 C 
ATOM     43  C   UNL A   1      39.194  27.740  29.791  1.00  0.00     0.029 A 
ATOM     44  N   UNL A   1      41.170  28.159  28.824  1.00  0.00    -0.354 N 
ATOM     45  C   UNL A   1      43.166  31.926  29.290  1.00  0.00     0.074 A 
ATOM     46  C   UNL A   1      42.373  32.847  30.076  1.00  0.00     0.031 C 
ATOM     47  C   UNL A   1      39.563  26.633  29.123  1.00  0.00     0.029 A 
ATOM     48  C   UNL A   1      40.847  26.874  28.466  1.00  0.00     0.049 A 
ATOM     49  H   UNL A   1      41.999  28.606  28.538  1.00  0.00     0.167 HD
ATOM     50  C   UNL A   1      44.388  32.220  28.780  1.00  0.00     0.031 A 
ATOM     51  C   UNL A   1      41.508  25.990  27.695  1.00  0.00     0.031 A 
ATOM     52  C   UNL A   1      45.186  31.323  27.989  1.00  0.00     0.049 A 
ATOM     53  C   UNL A   1      42.844  26.353  27.109  1.00  0.00     0.074 A 
ATOM     54  C   UNL A   1      46.440  31.537  27.441  1.00  0.00     0.029 A 
ATOM     55  N   UNL A   1      44.810  30.039  27.632  1.00  0.00    -0.354 N 
ATOM     56  N   UNL A   1      43.525  27.465  27.228  1.00  0.00    -0.248 NA
ATOM     57  C   UNL A   1      43.507  25.325  26.290  1.00  0.00     0.031 C 
ATOM     58  C   UNL A   1      46.807  30.395  26.721  1.00  0.00     0.029 A 
ATOM     59  C   UNL A   1      45.799  29.455  26.857  1.00  0.00     0.049 A 
ATOM     60  H   UNL A   1      43.965  29.604  27.890  1.00  0.00     0.167 HD
ATOM     61  C   UNL A   1      44.703  27.265  26.518  1.00  0.00     0.074 A 
ATOM     62  C   UNL A   1      44.652  25.919  25.987  1.00  0.00     0.031 C 
ATOM     63  C   UNL A   1      45.735  28.121  26.323  1.00  0.00     0.031 A 
BRANCH  50  64
ATOM     64  C   UNL A   1      44.939  33.589  29.060  1.00  0.00    -0.014 A 
ATOM     65  C   UNL A   1      44.652  34.670  28.210  1.00  0.00     0.009 A 
ATOM     66  C   UNL A   1      45.709  33.814  30.211  1.00  0.00     0.009 A 
ATOM     67  C   UNL A   1      45.150  35.943  28.494  1.00  0.00     0.001 A 
ATOM     68  C   UNL A   1      46.188  35.093  30.503  1.00  0.00     0.001 A 
ATOM     69  C   UNL A   1      45.914  36.154  29.642  1.00  0.00     0.000 A 
ENDBRANCH  50  64
BRANCH  51  70
ATOM     70  C   UNL A   1      40.911  24.658  27.424  1.00  0.00    -0.014 A 
ATOM     71  C   UNL A   1      39.758  24.538  26.634  1.00  0.00     0.009 A 
ATOM     72  C   UNL A   1      41.484  23.503  27.975  1.00  0.00     0.009 A 
ATOM     73  C   UNL A   1      39.175  23.287  26.424  1.00  0.00     0.001 A 
ATOM     74  C   UNL A   1      40.913  22.251  27.743  1.00  0.00     0.001 A 
ATOM     75  C   UNL A   1      39.755  22.145  26.975  1.00  0.00     0.000 A 
ENDBRANCH  51  70
BRANCH  63  76
ATOM     76  C   UNL A   1      46.900  27.619  25.516  1.00  0.00    -0.014 A 
ATOM     77  C   UNL A   1      46.948  27.799  24.124  1.00  0.00     0.009 A 
ATOM     78  C   UNL A   1      47.970  26.976  26.156  1.00  0.00     0.009 A 
ATOM     79  C   UNL A   1      48.027  27.310  23.387  1.00  0.00     0.001 A 
ATOM     80  C   UNL A   1      49.059  26.509  25.418  1.00  0.00     0.001 A 
ATOM     81  C   UNL A   1      49.082  26.667  24.034  1.00  0.00     0.000 A 
ENDBRANCH  63  76
ENDBRANCH  37  38
ENDBRANCH  30  32
ENDBRANCH  29  30
ENDBRANCH  28  29
ENDBRANCH  27  28
ENDBRANCH  26  27
ENDBRANCH  25  26
ENDBRANCH   1  25
TORSDOF 19
ENDMDL
MODEL 2
REMARK VINA RESULT:     -10.6      1.616      2.122
REMARK SMILES O=C(OCCOCCOCCOC(=O)c1ccc(-c2c3nc(c(-c4ccccc4)c4ccc([nH]4)c(-c4ccccc4)c4nc(c(-c5ccccc5)c5ccc2[nH]5)C=C4)C=C3)cc1)c1ccc(Cn2cc(Cl)c(=O)[nH]c2=O)cc1
REMARK SMILES IDX 7 1 6 2 5 3 4 4 3 5 2 6 1 7 63 8 64 9 78 10 65 11 77 12
REMARK SMILES IDX 66 13 67 14 68 15 69 16 75 17 70 18 74 19 76 20 71 21 72 22
REMARK SMILES IDX 73 24 8 25 9 26 10 27 11 28 12 29 13 30 14 31 15 32 16 33
REMARK SMILES IDX 62 34 17 35 61 36 18 37 19 38 20 39 55 40 21 41 60 42 54 43
REMARK SMILES IDX 56 44 22 45 59 46 53 47 52 48 23 50 45 51 30 52 44 53 31 54
REMARK SMILES IDX 34 55 43 56 57 57 32 58 33 59 42 61 58 62 35 63 24 64 25 65
REMARK SMILES IDX 29 66 26 67 28 68 27 69 46 70 47 71 51 72 48 73 50 74 49 75
REMARK SMILES IDX 36 76 37 77 41 78 38 79 40 80 39 81
REMARK H PARENT 74 23 56 49 34 60
REMARK Flexibility Score: inf
ROOT
ATOM      1  C   UNL A   1      33.111  35.324  29.233  1.00  0.00     0.188 C 
ENDROOT
BRANCH   1   2
ATOM      2  O   UNL A   1      34.377  35.156  28.577  1.00  0.00    -0.376 OA
BRANCH   2   3
ATOM      3  C   UNL A   1      35.122  34.035  29.044  1.00  0.00     0.202 C 
BRANCH   3   4
ATOM      4  C   UNL A   1      35.461  32.985  27.980  1.00  0.00     0.261 C 
BRANCH   4   5
ATOM      5  O   UNL A   1      35.013  31.663  28.327  1.00  0.00    -0.460 OA
BRANCH   5   6
ATOM      6  C   UNL A   1      35.296  30.541  27.618  1.00  0.00     0.338 C 
ATOM      7  O   UNL A   1      36.424  30.063  27.596  1.00  0.00    -0.246 OA
BRANCH   6   8
ATOM      8  C   UNL A   1      34.202  29.836  26.921  1.00  0.00     0.060 A 
ATOM      9  C   UNL A   1      34.394  28.578  26.348  1.00  0.00     0.016 A 
ATOM     10  C   UNL A   1      32.939  30.435  26.895  1.00  0.00     0.016 A 
ATOM     11  C   UNL A   1      33.348  27.958  25.663  1.00  0.00     0.006 A 
ATOM     12  C   UNL A   1      31.890  29.807  26.224  1.00  0.00     0.006 A 
ATOM     13  C   UNL A   1      32.092  28.575  25.579  1.00  0.00    -0.028 A 
BRANCH  13  14
ATOM     14  C   UNL A   1      30.994  27.974  24.727  1.00  0.00     0.162 C 
BRANCH  14  15
ATOM     15  N   UNL A   1      30.511  28.953  23.748  1.00  0.00    -0.295 N 
ATOM     16  C   UNL A   1      29.371  29.687  24.027  1.00  0.00     0.117 A 
ATOM     17  C   UNL A   1      31.159  29.047  22.522  1.00  0.00     0.328 A 
ATOM     18  C   UNL A   1      28.808  30.503  23.132  1.00  0.00     0.122 A 
ATOM     19  N   UNL A   1      30.587  29.906  21.618  1.00  0.00    -0.273 N 
ATOM     20  O   UNL A   1      32.163  28.409  22.218  1.00  0.00    -0.248 OA
ATOM     21  Cl  UNL A   1      27.369  31.373  23.473  1.00  0.00    -0.077 Cl
ATOM     22  C   UNL A   1      29.436  30.628  21.795  1.00  0.00     0.272 A 
ATOM     23  H   UNL A   1      31.050  30.014  20.756  1.00  0.00     0.175 HD
ATOM     24  O   UNL A   1      28.966  31.315  20.894  1.00  0.00    -0.268 OA
ENDBRANCH  14  15
ENDBRANCH  13  14
ENDBRANCH   6   8
ENDBRANCH   5   6
ENDBRANCH   4   5
ENDBRANCH   3   4
ENDBRANCH   2   3
ENDBRANCH   1   2
BRANCH   1  25
ATOM     25  C   UNL A   1      33.330  35.875  30.645  1.00  0.00     0.188 C 
BRANCH  25  26
ATOM     26  O   UNL A   1      33.096  34.929  31.692  1.00  0.00    -0.376 OA
BRANCH  26  27
ATOM     27  C   UNL A   1      34.073  34.861  32.728  1.00  0.00     0.202 C 
BRANCH  27  28
ATOM     28  C   UNL A   1      34.159  33.521  33.463  1.00  0.00     0.261 C 
BRANCH  28  29
ATOM     29  O   UNL A   1      34.971  32.542  32.787  1.00  0.00    -0.460 OA
BRANCH  29  30
ATOM     30  C   UNL A   1      36.139  32.258  33.411  1.00  0.00     0.338 C 
ATOM     31  O   UNL A   1      36.528  32.665  34.493  1.00  0.00    -0.246 OA
BRANCH  30  32
ATOM     32  C   UNL A   1      36.975  31.366  32.593  1.00  0.00     0.060 A 
ATOM     33  C   UNL A   1      38.054  30.708  33.189  1.00  0.00     0.016 A 
ATOM     34  C   UNL A   1      36.842  31.397  31.202  1.00  0.00     0.016 A 
ATOM     35  C   UNL A   1      39.040  30.132  32.387  1.00  0.00     0.010 A 
ATOM     36  C   UNL A   1      37.826  30.808  30.400  1.00  0.00     0.010 A 
ATOM     37  C   UNL A   1      38.958  30.218  30.987  1.00  0.00    -0.014 A 
BRANCH  37  38
ATOM     38  C   UNL A   1      40.119  29.815  30.151  1.00  0.00     0.031 A 
ATOM     39  C   UNL A   1      41.238  30.793  29.898  1.00  0.00     0.074 A 
ATOM     40  C   UNL A   1      40.199  28.571  29.645  1.00  0.00     0.049 A 
ATOM     41  N   UNL A   1      42.349  30.624  29.222  1.00  0.00    -0.248 NA
ATOM     42  C   UNL A   1      41.089  32.136  30.478  1.00  0.00     0.031 C 
ATOM     43  C   UNL A   1      39.202  27.518  29.821  1.00  0.00     0.029 A 
ATOM     44  N   UNL A   1      41.178  27.987  28.879  1.00  0.00    -0.354 N 
ATOM     45  C   UNL A   1      43.031  31.832  29.302  1.00  0.00     0.074 A 
ATOM     46  C   UNL A   1      42.192  32.739  30.056  1.00  0.00     0.031 C 
ATOM     47  C   UNL A   1      39.621  26.412  29.181  1.00  0.00     0.029 A 
ATOM     48  C   UNL A   1      40.907  26.685  28.542  1.00  0.00     0.049 A 
ATOM     49  H   UNL A   1      41.995  28.459  28.598  1.00  0.00     0.167 HD
ATOM     50  C   UNL A   1      44.250  32.160  28.807  1.00  0.00     0.031 A 
ATOM     51  C   UNL A   1      41.613  25.810  27.800  1.00  0.00     0.031 A 
ATOM     52  C   UNL A   1      45.093  31.276  28.048  1.00  0.00     0.049 A 
ATOM     53  C   UNL A   1      42.945  26.209  27.229  1.00  0.00     0.074 A 
ATOM     54  C   UNL A   1      46.349  31.524  27.517  1.00  0.00     0.029 A 
ATOM     55  N   UNL A   1      44.770  29.973  27.711  1.00  0.00    -0.354 N 
ATOM     56  N   UNL A   1      43.584  27.347  27.337  1.00  0.00    -0.248 NA
ATOM     57  C   UNL A   1      43.659  25.190  26.443  1.00  0.00     0.031 C 
ATOM     58  C   UNL A   1      46.768  30.382  26.826  1.00  0.00     0.029 A 
ATOM     59  C   UNL A   1      45.792  29.409  26.964  1.00  0.00     0.049 A 
ATOM     60  H   UNL A   1      43.936  29.513  27.963  1.00  0.00     0.167 HD
ATOM     61  C   UNL A   1      44.781  27.176  26.651  1.00  0.00     0.074 A 
ATOM     62  C   UNL A   1      44.787  25.818  26.147  1.00  0.00     0.031 C 
ATOM     63  C   UNL A   1      45.785  28.064  26.457  1.00  0.00     0.031 A 
BRANCH  50  64
ATOM     64  C   UNL A   1      44.747  33.553  29.069  1.00  0.00    -0.014 A 
ATOM     65  C   UNL A   1      44.346  34.626  28.256  1.00  0.00     0.009 A 
ATOM     66  C   UNL A   1      45.582  33.806  30.167  1.00  0.00     0.009 A 
ATOM     67  C   UNL A   1      44.796  35.920  28.524  1.00  0.00     0.001 A 
ATOM     68  C   UNL A   1      46.013  35.105  30.445  1.00  0.00     0.001 A 
ATOM     69  C   UNL A   1      45.625  36.159  29.619  1.00  0.00     0.000 A 
ENDBRANCH  50  64
BRANCH  51  70
ATOM     70  C   UNL A   1      41.068  24.453  27.546  1.00  0.00    -0.014 A 
ATOM     71  C   UNL A   1      39.996  24.266  26.661  1.00  0.00     0.009 A 
ATOM     72  C   UNL A   1      41.608  23.341  28.208  1.00  0.00     0.009 A 
ATOM     73  C   UNL A   1      39.458  22.993  26.464  1.00  0.00     0.001 A 
ATOM     74  C   UNL A   1      41.084  22.066  27.991  1.00  0.00     0.001 A 
ATOM     75  C   UNL A   1      40.005  21.894  27.127  1.00  0.00     0.000 A 
ENDBRANCH  51  70
BRANCH  63  76
ATOM     76  C   UNL A   1      46.981  27.589  25.680  1.00  0.00    -0.014 A 
ATOM     77  C   UNL A   1      48.063  26.967  26.323  1.00  0.00     0.009 A 
ATOM     78  C   UNL A   1      47.017  27.748  24.286  1.00  0.00     0.009 A 
ATOM     79  C   UNL A   1      49.174  26.550  25.588  1.00  0.00     0.001 A 
ATOM     80  C   UNL A   1      48.120  27.308  23.552  1.00  0.00     0.001 A 
ATOM     81  C   UNL A   1      49.201  26.718  24.205  1.00  0.00     0.000 A 
ENDBRANCH  63  76
ENDBRANCH  37  38
ENDBRANCH  30  32
ENDBRANCH  29  30
ENDBRANCH  28  29
ENDBRANCH  27  28
ENDBRANCH  26  27
ENDBRANCH  25  26
ENDBRANCH   1  25
TORSDOF 19
ENDMDL
MODEL 3
REMARK VINA RESULT:      -9.9      4.629     10.688
REMARK SMILES O=C(OCCOCCOCCOC(=O)c1ccc(-c2c3nc(c(-c4ccccc4)c4ccc([nH]4)c(-c4ccccc4)c4nc(c(-c5ccccc5)c5ccc2[nH]5)C=C4)C=C3)cc1)c1ccc(Cn2cc(Cl)c(=O)[nH]c2=O)cc1
REMARK SMILES IDX 7 1 6 2 5 3 4 4 3 5 2 6 1 7 63 8 64 9 78 10 65 11 77 12
REMARK SMILES IDX 66 13 67 14 68 15 69 16 75 17 70 18 74 19 76 20 71 21 72 22
REMARK SMILES IDX 73 24 8 25 9 26 10 27 11 28 12 29 13 30 14 31 15 32 16 33
REMARK SMILES IDX 62 34 17 35 61 36 18 37 19 38 20 39 55 40 21 41 60 42 54 43
REMARK SMILES IDX 56 44 22 45 59 46 53 47 52 48 23 50 45 51 30 52 44 53 31 54
REMARK SMILES IDX 34 55 43 56 57 57 32 58 33 59 42 61 58 62 35 63 24 64 25 65
REMARK SMILES IDX 29 66 26 67 28 68 27 69 46 70 47 71 51 72 48 73 50 74 49 75
REMARK SMILES IDX 36 76 37 77 41 78 38 79 40 80 39 81
REMARK H PARENT 74 23 56 49 34 60
REMARK Flexibility Score: inf
ROOT
ATOM      1  C   UNL A   1      42.731  20.002  26.123  1.00  0.00     0.188 C 
ENDROOT
BRANCH   1   2
ATOM      2  O   UNL A   1      41.831  20.782  26.925  1.00  0.00    -0.376 OA
BRANCH   2   3
ATOM      3  C   UNL A   1      40.457  20.580  26.609  1.00  0.00     0.202 C 
BRANCH   3   4
ATOM      4  C   UNL A   1      39.745  21.784  25.980  1.00  0.00     0.261 C 
BRANCH   4   5
ATOM      5  O   UNL A   1      38.311  21.665  25.996  1.00  0.00    -0.460 OA
BRANCH   5   6
ATOM      6  C   UNL A   1      37.582  21.003  25.062  1.00  0.00     0.338 C 
ATOM      7  O   UNL A   1      37.837  19.847  24.749  1.00  0.00    -0.246 OA
BRANCH   6   8
ATOM      8  C   UNL A   1      36.404  21.667  24.468  1.00  0.00     0.060 A 
ATOM      9  C   UNL A   1      35.106  21.338  24.863  1.00  0.00     0.016 A 
ATOM     10  C   UNL A   1      36.619  22.683  23.534  1.00  0.00     0.016 A 
ATOM     11  C   UNL A   1      34.015  21.958  24.252  1.00  0.00     0.006 A 
ATOM     12  C   UNL A   1      35.527  23.313  22.935  1.00  0.00     0.006 A 
ATOM     13  C   UNL A   1      34.216  22.938  23.270  1.00  0.00    -0.028 A 
BRANCH  13  14
ATOM     14  C   UNL A   1      33.041  23.517  22.509  1.00  0.00     0.162 C 
BRANCH  14  15
ATOM     15  N   UNL A   1      32.995  24.974  22.670  1.00  0.00    -0.295 N 
ATOM     16  C   UNL A   1      32.845  25.514  23.936  1.00  0.00     0.117 A 
ATOM     17  C   UNL A   1      33.006  25.772  21.532  1.00  0.00     0.328 A 
ATOM     18  C   UNL A   1      32.672  26.822  24.140  1.00  0.00     0.122 A 
ATOM     19  N   UNL A   1      32.852  27.117  21.754  1.00  0.00    -0.273 N 
ATOM     20  O   UNL A   1      33.120  25.345  20.386  1.00  0.00    -0.248 OA
ATOM     21  Cl  UNL A   1      32.442  27.475  25.710  1.00  0.00    -0.077 Cl
ATOM     22  C   UNL A   1      32.647  27.725  22.965  1.00  0.00     0.272 A 
ATOM     23  H   UNL A   1      32.892  27.704  20.965  1.00  0.00     0.175 HD
ATOM     24  O   UNL A   1      32.448  28.933  23.049  1.00  0.00    -0.268 OA
ENDBRANCH  14  15
ENDBRANCH  13  14
ENDBRANCH   6   8
ENDBRANCH   5   6
ENDBRANCH   4   5
ENDBRANCH   3   4
ENDBRANCH   2   3
ENDBRANCH   1   2
BRANCH   1  25
ATOM     25  C   UNL A   1      43.706  20.929  25.391  1.00  0.00     0.188 C 
BRANCH  25  26
ATOM     26  O   UNL A   1      43.112  22.122  24.872  1.00  0.00    -0.376 OA
BRANCH  26  27
ATOM     27  C   UNL A   1      43.997  23.195  24.554  1.00  0.00     0.202 C 
BRANCH  27  28
ATOM     28  C   UNL A   1      44.050  24.327  25.583  1.00  0.00     0.261 C 
BRANCH  28  29
ATOM     29  O   UNL A   1      43.522  25.576  25.096  1.00  0.00    -0.460 OA
BRANCH  29  30
ATOM     30  C   UNL A   1      42.306  25.901  25.594  1.00  0.00     0.338 C 
ATOM     31  O   UNL A   1      41.221  25.796  25.046  1.00  0.00    -0.246 OA
BRANCH  30  32
ATOM     32  C   UNL A   1      42.418  26.461  26.949  1.00  0.00     0.060 A 
ATOM     33  C   UNL A   1      41.581  25.976  27.957  1.00  0.00     0.016 A 
ATOM     34  C   UNL A   1      43.161  27.629  27.142  1.00  0.00     0.016 A 
ATOM     35  C   UNL A   1      41.437  26.701  29.142  1.00  0.00     0.010 A 
ATOM     36  C   UNL A   1      43.024  28.346  28.335  1.00  0.00     0.010 A 
ATOM     37  C   UNL A   1      42.120  27.915  29.321  1.00  0.00    -0.014 A 
BRANCH  37  38
ATOM     38  C   UNL A   1      41.783  28.791  30.473  1.00  0.00     0.031 A 
ATOM     39  C   UNL A   1      40.591  29.711  30.394  1.00  0.00     0.074 A 
ATOM     40  C   UNL A   1      42.513  28.749  31.603  1.00  0.00     0.049 A 
ATOM     41  N   UNL A   1      40.114  30.530  31.300  1.00  0.00    -0.248 NA
ATOM     42  C   UNL A   1      39.836  29.711  29.131  1.00  0.00     0.031 C 
ATOM     43  C   UNL A   1      43.680  27.900  31.827  1.00  0.00     0.029 A 
ATOM     44  N   UNL A   1      42.367  29.443  32.778  1.00  0.00    -0.354 N 
ATOM     45  C   UNL A   1      39.005  31.134  30.721  1.00  0.00     0.074 A 
ATOM     46  C   UNL A   1      38.902  30.620  29.372  1.00  0.00     0.031 C 
ATOM     47  C   UNL A   1      44.145  28.120  33.069  1.00  0.00     0.029 A 
ATOM     48  C   UNL A   1      43.317  29.134  33.719  1.00  0.00     0.049 A 
ATOM     49  H   UNL A   1      41.648  30.098  32.932  1.00  0.00     0.167 HD
ATOM     50  C   UNL A   1      38.138  32.026  31.261  1.00  0.00     0.031 A 
ATOM     51  C   UNL A   1      43.502  29.615  34.963  1.00  0.00     0.031 A 
ATOM     52  C   UNL A   1      38.230  32.556  32.596  1.00  0.00     0.049 A 
ATOM     53  C   UNL A   1      42.551  30.633  35.527  1.00  0.00     0.074 A 
ATOM     54  C   UNL A   1      37.387  33.456  33.227  1.00  0.00     0.029 A 
ATOM     55  N   UNL A   1      39.221  32.233  33.506  1.00  0.00    -0.354 N 
ATOM     56  N   UNL A   1      41.493  31.173  34.974  1.00  0.00    -0.248 NA
ATOM     57  C   UNL A   1      42.815  31.096  36.899  1.00  0.00     0.031 C 
ATOM     58  C   UNL A   1      37.892  33.707  34.508  1.00  0.00     0.029 A 
ATOM     59  C   UNL A   1      39.023  32.929  34.688  1.00  0.00     0.049 A 
ATOM     60  H   UNL A   1      39.959  31.602  33.340  1.00  0.00     0.167 HD
ATOM     61  C   UNL A   1      40.956  32.022  35.934  1.00  0.00     0.074 A 
ATOM     62  C   UNL A   1      41.793  31.912  37.110  1.00  0.00     0.031 C 
ATOM     63  C   UNL A   1      39.867  32.823  35.848  1.00  0.00     0.031 A 
BRANCH  50  64
ATOM     64  C   UNL A   1      37.006  32.498  30.394  1.00  0.00    -0.014 A 
ATOM     65  C   UNL A   1      35.757  31.858  30.429  1.00  0.00     0.009 A 
ATOM     66  C   UNL A   1      37.172  33.623  29.572  1.00  0.00     0.009 A 
ATOM     67  C   UNL A   1      34.704  32.320  29.636  1.00  0.00     0.001 A 
ATOM     68  C   UNL A   1      36.112  34.095  28.797  1.00  0.00     0.001 A 
ATOM     69  C   UNL A   1      34.881  33.440  28.825  1.00  0.00     0.000 A 
ENDBRANCH  50  64
BRANCH  51  70
ATOM     70  C   UNL A   1      44.651  29.139  35.773  1.00  0.00    -0.014 A 
ATOM     71  C   UNL A   1      44.516  28.037  36.630  1.00  0.00     0.009 A 
ATOM     72  C   UNL A   1      45.885  29.804  35.706  1.00  0.00     0.009 A 
ATOM     73  C   UNL A   1      45.587  27.625  37.424  1.00  0.00     0.001 A 
ATOM     74  C   UNL A   1      46.962  29.375  36.483  1.00  0.00     0.001 A 
ATOM     75  C   UNL A   1      46.810  28.293  37.347  1.00  0.00     0.000 A 
ENDBRANCH  51  70
BRANCH  63  76
ATOM     76  C   UNL A   1      39.509  33.628  37.066  1.00  0.00    -0.014 A 
ATOM     77  C   UNL A   1      39.906  34.970  37.189  1.00  0.00     0.009 A 
ATOM     78  C   UNL A   1      38.752  33.045  38.093  1.00  0.00     0.009 A 
ATOM     79  C   UNL A   1      39.582  35.698  38.336  1.00  0.00     0.001 A 
ATOM     80  C   UNL A   1      38.410  33.783  39.227  1.00  0.00     0.001 A 
ATOM     81  C   UNL A   1      38.834  35.105  39.352  1.00  0.00     0.000 A 
ENDBRANCH  63  76
ENDBRANCH  37  38
ENDBRANCH  30  32
ENDBRANCH  29  30
ENDBRANCH  28  29
ENDBRANCH  27  28
ENDBRANCH  26  27
ENDBRANCH  25  26
ENDBRANCH   1  25
TORSDOF 19
ENDMDL
