MODEL 1
REMARK VINA RESULT:     -10.2      0.000      0.000
REMARK SMILES O=C(OCCOCCOCCOC(=O)c1cn(-c2ccnc3ccc(Cl)cc23)cn1)c1ccc(-c2c3nc(c(-c4ccccc4)c4ccc([nH]4)c(-c4ccccc4)c4nc(c(-c5ccccc5)c5ccc2[nH]5)C=C4)C=C3)cc1
REMARK SMILES IDX 7 1 6 2 5 3 4 4 3 5 2 6 1 7 31 8 32 9 78 10 33 11 77 12
REMARK SMILES IDX 34 13 35 14 36 15 71 16 37 17 76 18 70 19 72 20 38 21 75 22
REMARK SMILES IDX 69 23 68 24 39 26 61 27 46 28 60 29 47 30 50 31 59 32 73 33
REMARK SMILES IDX 48 34 49 35 58 37 74 38 51 39 40 40 41 41 45 42 42 43 44 44
REMARK SMILES IDX 43 45 62 46 63 47 67 48 64 49 66 50 65 51 52 52 53 53 57 54
REMARK SMILES IDX 54 55 56 56 55 57 8 58 9 59 10 60 11 61 12 62 13 63 14 64
REMARK SMILES IDX 15 65 16 66 30 67 17 68 29 69 18 70 19 71 28 72 20 73 22 74
REMARK SMILES IDX 27 75 21 76 23 77 25 78 24 79 26 80
REMARK H PARENT 72 25 50 36
REMARK Flexibility Score: inf
ROOT
ATOM      1  C   UNL A   1      39.988  21.869  26.340  1.00  0.00     0.188 C 
ENDROOT
BRANCH   1   2
ATOM      2  O   UNL A   1      40.455  20.703  26.980  1.00  0.00    -0.376 OA
BRANCH   2   3
ATOM      3  C   UNL A   1      41.096  19.665  26.269  1.00  0.00     0.202 C 
BRANCH   3   4
ATOM      4  C   UNL A   1      42.621  19.510  26.197  1.00  0.00     0.261 C 
BRANCH   4   5
ATOM      5  O   UNL A   1      43.253  19.953  24.998  1.00  0.00    -0.460 OA
BRANCH   5   6
ATOM      6  C   UNL A   1      44.333  20.731  24.807  1.00  0.00     0.338 C 
ATOM      7  O   UNL A   1      45.311  20.237  24.245  1.00  0.00    -0.246 OA
BRANCH   6   8
ATOM      8  C   UNL A   1      44.474  22.136  25.293  1.00  0.00     0.060 A 
ATOM      9  C   UNL A   1      45.402  22.623  26.216  1.00  0.00     0.016 A 
ATOM     10  C   UNL A   1      43.505  23.022  24.784  1.00  0.00     0.016 A 
ATOM     11  C   UNL A   1      45.186  23.851  26.821  1.00  0.00     0.010 A 
ATOM     12  C   UNL A   1      43.301  24.257  25.359  1.00  0.00     0.010 A 
ATOM     13  C   UNL A   1      44.074  24.608  26.453  1.00  0.00    -0.014 A 
BRANCH  13  14
ATOM     14  C   UNL A   1      43.809  25.849  27.155  1.00  0.00     0.031 A 
ATOM     15  C   UNL A   1      44.785  26.908  26.809  1.00  0.00     0.074 A 
ATOM     16  C   UNL A   1      42.729  26.005  27.949  1.00  0.00     0.049 A 
ATOM     17  N   UNL A   1      45.716  27.383  27.566  1.00  0.00    -0.248 NA
ATOM     18  C   UNL A   1      44.883  27.332  25.400  1.00  0.00     0.031 C 
ATOM     19  C   UNL A   1      41.611  25.075  28.144  1.00  0.00     0.029 A 
ATOM     20  N   UNL A   1      42.344  27.079  28.690  1.00  0.00    -0.354 N 
ATOM     21  C   UNL A   1      46.342  28.365  26.805  1.00  0.00     0.074 A 
ATOM     22  C   UNL A   1      45.956  28.122  25.439  1.00  0.00     0.031 C 
ATOM     23  C   UNL A   1      40.577  25.727  28.727  1.00  0.00     0.029 A 
ATOM     24  C   UNL A   1      41.003  27.073  29.070  1.00  0.00     0.049 A 
ATOM     25  H   UNL A   1      42.963  27.802  28.940  1.00  0.00     0.167 HD
ATOM     26  C   UNL A   1      46.811  29.493  27.404  1.00  0.00     0.031 A 
ATOM     27  C   UNL A   1      40.291  28.116  29.577  1.00  0.00     0.031 A 
ATOM     28  C   UNL A   1      46.993  29.293  28.823  1.00  0.00     0.049 A 
ATOM     29  C   UNL A   1      41.265  29.114  30.076  1.00  0.00     0.074 A 
ATOM     30  C   UNL A   1      47.713  28.404  29.598  1.00  0.00     0.029 A 
ATOM     31  N   UNL A   1      46.031  29.823  29.649  1.00  0.00    -0.354 N 
ATOM     32  N   UNL A   1      42.024  28.908  31.113  1.00  0.00    -0.248 NA
ATOM     33  C   UNL A   1      41.746  30.112  29.135  1.00  0.00     0.031 C 
ATOM     34  C   UNL A   1      46.858  28.096  30.696  1.00  0.00     0.029 A 
ATOM     35  C   UNL A   1      45.711  28.886  30.594  1.00  0.00     0.049 A 
ATOM     36  H   UNL A   1      45.640  30.723  29.575  1.00  0.00     0.167 HD
ATOM     37  C   UNL A   1      43.272  29.368  30.723  1.00  0.00     0.074 A 
ATOM     38  C   UNL A   1      43.023  30.176  29.527  1.00  0.00     0.031 C 
ATOM     39  C   UNL A   1      44.412  28.800  31.218  1.00  0.00     0.031 A 
BRANCH  26  40
ATOM     40  C   UNL A   1      46.569  30.871  26.819  1.00  0.00    -0.014 A 
ATOM     41  C   UNL A   1      47.618  31.806  26.863  1.00  0.00     0.009 A 
ATOM     42  C   UNL A   1      45.287  31.381  26.530  1.00  0.00     0.009 A 
ATOM     43  C   UNL A   1      47.376  33.179  26.741  1.00  0.00     0.001 A 
ATOM     44  C   UNL A   1      45.048  32.747  26.366  1.00  0.00     0.001 A 
ATOM     45  C   UNL A   1      46.088  33.650  26.507  1.00  0.00     0.000 A 
ENDBRANCH  26  40
BRANCH  27  46
ATOM     46  C   UNL A   1      38.863  28.469  29.380  1.00  0.00    -0.014 A 
ATOM     47  C   UNL A   1      38.017  28.706  30.481  1.00  0.00     0.009 A 
ATOM     48  C   UNL A   1      38.398  28.863  28.112  1.00  0.00     0.009 A 
ATOM     49  C   UNL A   1      36.781  29.351  30.322  1.00  0.00     0.001 A 
ATOM     50  C   UNL A   1      37.164  29.505  27.954  1.00  0.00     0.001 A 
ATOM     51  C   UNL A   1      36.362  29.764  29.059  1.00  0.00     0.000 A 
ENDBRANCH  27  46
BRANCH  39  52
ATOM     52  C   UNL A   1      44.282  27.847  32.381  1.00  0.00    -0.014 A 
ATOM     53  C   UNL A   1      44.095  28.254  33.715  1.00  0.00     0.009 A 
ATOM     54  C   UNL A   1      44.213  26.478  32.088  1.00  0.00     0.009 A 
ATOM     55  C   UNL A   1      43.880  27.309  34.726  1.00  0.00     0.001 A 
ATOM     56  C   UNL A   1      43.979  25.538  33.093  1.00  0.00     0.001 A 
ATOM     57  C   UNL A   1      43.819  25.953  34.412  1.00  0.00     0.000 A 
ENDBRANCH  39  52
ENDBRANCH  13  14
ENDBRANCH   6   8
ENDBRANCH   5   6
ENDBRANCH   4   5
ENDBRANCH   3   4
ENDBRANCH   2   3
ENDBRANCH   1   2
BRANCH   1  58
ATOM     58  C   UNL A   1      38.460  21.927  26.072  1.00  0.00     0.188 C 
BRANCH  58  59
ATOM     59  O   UNL A   1      37.914  22.662  24.980  1.00  0.00    -0.376 OA
BRANCH  59  60
ATOM     60  C   UNL A   1      36.859  22.118  24.206  1.00  0.00     0.202 C 
BRANCH  60  61
ATOM     61  C   UNL A   1      35.887  21.124  24.860  1.00  0.00     0.261 C 
BRANCH  61  62
ATOM     62  O   UNL A   1      34.549  21.614  24.996  1.00  0.00    -0.458 OA
BRANCH  62  63
ATOM     63  C   UNL A   1      34.129  21.924  26.246  1.00  0.00     0.358 C 
ATOM     64  O   UNL A   1      34.257  21.200  27.243  1.00  0.00    -0.244 OA
BRANCH  63  65
ATOM     65  C   UNL A   1      33.487  23.228  26.303  1.00  0.00     0.166 A 
ATOM     66  C   UNL A   1      34.121  24.444  26.190  1.00  0.00     0.129 A 
ATOM     67  N   UNL A   1      32.119  23.434  26.463  1.00  0.00    -0.229 NA
ATOM     68  N   UNL A   1      33.123  25.386  26.168  1.00  0.00    -0.305 N 
ATOM     69  C   UNL A   1      31.945  24.737  26.427  1.00  0.00     0.205 A 
BRANCH  68  70
ATOM     70  C   UNL A   1      33.278  26.734  25.807  1.00  0.00     0.057 A 
ATOM     71  C   UNL A   1      33.404  27.688  26.811  1.00  0.00     0.047 A 
ATOM     72  C   UNL A   1      33.344  27.083  24.434  1.00  0.00     0.026 A 
ATOM     73  C   UNL A   1      33.696  28.973  26.409  1.00  0.00     0.114 A 
ATOM     74  C   UNL A   1      33.654  28.425  24.150  1.00  0.00     0.072 A 
ATOM     75  C   UNL A   1      33.063  26.198  23.356  1.00  0.00     0.033 A 
ATOM     76  N   UNL A   1      33.838  29.343  25.116  1.00  0.00    -0.256 NA
ATOM     77  C   UNL A   1      33.753  28.813  22.819  1.00  0.00     0.030 A 
ATOM     78  C   UNL A   1      33.154  26.620  22.037  1.00  0.00     0.041 A 
ATOM     79  C   UNL A   1      33.515  27.926  21.762  1.00  0.00     0.023 A 
ATOM     80  Cl  UNL A   1      32.806  25.522  20.763  1.00  0.00    -0.084 Cl
ENDBRANCH  68  70
ENDBRANCH  63  65
ENDBRANCH  62  63
ENDBRANCH  61  62
ENDBRANCH  60  61
ENDBRANCH  59  60
ENDBRANCH  58  59
ENDBRANCH   1  58
TORSDOF 18
ENDMDL
MODEL 2
REMARK VINA RESULT:     -10.2      1.729      2.130
REMARK SMILES O=C(OCCOCCOCCOC(=O)c1cn(-c2ccnc3ccc(Cl)cc23)cn1)c1ccc(-c2c3nc(c(-c4ccccc4)c4ccc([nH]4)c(-c4ccccc4)c4nc(c(-c5ccccc5)c5ccc2[nH]5)C=C4)C=C3)cc1
REMARK SMILES IDX 7 1 6 2 5 3 4 4 3 5 2 6 1 7 31 8 32 9 78 10 33 11 77 12
REMARK SMILES IDX 34 13 35 14 36 15 71 16 37 17 76 18 70 19 72 20 38 21 75 22
REMARK SMILES IDX 69 23 68 24 39 26 61 27 46 28 60 29 47 30 50 31 59 32 73 33
REMARK SMILES IDX 48 34 49 35 58 37 74 38 51 39 40 40 41 41 45 42 42 43 44 44
REMARK SMILES IDX 43 45 62 46 63 47 67 48 64 49 66 50 65 51 52 52 53 53 57 54
REMARK SMILES IDX 54 55 56 56 55 57 8 58 9 59 10 60 11 61 12 62 13 63 14 64
REMARK SMILES IDX 15 65 16 66 30 67 17 68 29 69 18 70 19 71 28 72 20 73 22 74
REMARK SMILES IDX 27 75 21 76 23 77 25 78 24 79 26 80
REMARK H PARENT 72 25 50 36
REMARK Flexibility Score: inf
ROOT
ATOM      1  C   UNL A   1      41.341  21.199  26.118  1.00  0.00     0.188 C 
ENDROOT
BRANCH   1   2
ATOM      2  O   UNL A   1      42.187  20.385  26.900  1.00  0.00    -0.376 OA
BRANCH   2   3
ATOM      3  C   UNL A   1      42.391  19.020  26.605  1.00  0.00     0.202 C 
BRANCH   3   4
ATOM      4  C   UNL A   1      43.555  18.510  25.745  1.00  0.00     0.261 C 
BRANCH   4   5
ATOM      5  O   UNL A   1      43.740  19.140  24.479  1.00  0.00    -0.460 OA
BRANCH   5   6
ATOM      6  C   UNL A   1      44.676  20.007  24.054  1.00  0.00     0.338 C 
ATOM      7  O   UNL A   1      45.411  19.660  23.130  1.00  0.00    -0.246 OA
BRANCH   6   8
ATOM      8  C   UNL A   1      44.950  21.340  24.669  1.00  0.00     0.060 A 
ATOM      9  C   UNL A   1      45.877  21.636  25.670  1.00  0.00     0.016 A 
ATOM     10  C   UNL A   1      44.117  22.374  24.199  1.00  0.00     0.016 A 
ATOM     11  C   UNL A   1      45.771  22.826  26.372  1.00  0.00     0.010 A 
ATOM     12  C   UNL A   1      44.024  23.573  24.872  1.00  0.00     0.010 A 
ATOM     13  C   UNL A   1      44.774  23.737  26.025  1.00  0.00    -0.014 A 
BRANCH  13  14
ATOM     14  C   UNL A   1      44.615  24.938  26.822  1.00  0.00     0.031 A 
ATOM     15  C   UNL A   1      45.722  25.900  26.612  1.00  0.00     0.074 A 
ATOM     16  C   UNL A   1      43.520  25.154  27.581  1.00  0.00     0.049 A 
ATOM     17  N   UNL A   1      46.660  26.198  27.445  1.00  0.00    -0.248 NA
ATOM     18  C   UNL A   1      45.939  26.425  25.251  1.00  0.00     0.031 C 
ATOM     19  C   UNL A   1      42.296  24.348  27.647  1.00  0.00     0.029 A 
ATOM     20  N   UNL A   1      43.222  26.200  28.398  1.00  0.00    -0.354 N 
ATOM     21  C   UNL A   1      47.431  27.160  26.800  1.00  0.00     0.074 A 
ATOM     22  C   UNL A   1      47.091  27.079  25.404  1.00  0.00     0.031 C 
ATOM     23  C   UNL A   1      41.314  25.066  28.241  1.00  0.00     0.029 A 
ATOM     24  C   UNL A   1      41.871  26.320  28.720  1.00  0.00     0.049 A 
ATOM     25  H   UNL A   1      43.906  26.822  28.736  1.00  0.00     0.167 HD
ATOM     26  C   UNL A   1      47.994  28.172  27.516  1.00  0.00     0.031 A 
ATOM     27  C   UNL A   1      41.257  27.394  29.286  1.00  0.00     0.031 A 
ATOM     28  C   UNL A   1      48.079  27.835  28.918  1.00  0.00     0.049 A 
ATOM     29  C   UNL A   1      42.311  28.226  29.912  1.00  0.00     0.074 A 
ATOM     30  C   UNL A   1      48.653  26.806  29.641  1.00  0.00     0.029 A 
ATOM     31  N   UNL A   1      47.142  28.404  29.747  1.00  0.00    -0.354 N 
ATOM     32  N   UNL A   1      42.987  27.847  30.957  1.00  0.00    -0.248 NA
ATOM     33  C   UNL A   1      42.950  29.235  29.083  1.00  0.00     0.031 C 
ATOM     34  C   UNL A   1      47.713  26.512  30.671  1.00  0.00     0.029 A 
ATOM     35  C   UNL A   1      46.670  27.436  30.592  1.00  0.00     0.049 A 
ATOM     36  H   UNL A   1      46.860  29.346  29.736  1.00  0.00     0.167 HD
ATOM     37  C   UNL A   1      44.298  28.189  30.661  1.00  0.00     0.074 A 
ATOM     38  C   UNL A   1      44.203  29.116  29.532  1.00  0.00     0.031 C 
ATOM     39  C   UNL A   1      45.339  27.451  31.151  1.00  0.00     0.031 A 
BRANCH  26  40
ATOM     40  C   UNL A   1      47.940  29.612  27.045  1.00  0.00    -0.014 A 
ATOM     41  C   UNL A   1      49.117  30.378  27.112  1.00  0.00     0.009 A 
ATOM     42  C   UNL A   1      46.739  30.325  26.850  1.00  0.00     0.009 A 
ATOM     43  C   UNL A   1      49.077  31.778  27.103  1.00  0.00     0.001 A 
ATOM     44  C   UNL A   1      46.700  31.719  26.799  1.00  0.00     0.001 A 
ATOM     45  C   UNL A   1      47.866  32.448  26.960  1.00  0.00     0.000 A 
ENDBRANCH  26  40
BRANCH  27  46
ATOM     46  C   UNL A   1      39.890  27.926  29.063  1.00  0.00    -0.014 A 
ATOM     47  C   UNL A   1      38.971  28.032  30.124  1.00  0.00     0.009 A 
ATOM     48  C   UNL A   1      39.581  28.608  27.871  1.00  0.00     0.009 A 
ATOM     49  C   UNL A   1      37.817  28.823  30.011  1.00  0.00     0.001 A 
ATOM     50  C   UNL A   1      38.428  29.395  27.758  1.00  0.00     0.001 A 
ATOM     51  C   UNL A   1      37.554  29.516  28.832  1.00  0.00     0.000 A 
ENDBRANCH  27  46
BRANCH  39  52
ATOM     52  C   UNL A   1      45.043  26.428  32.219  1.00  0.00    -0.014 A 
ATOM     53  C   UNL A   1      44.978  26.720  33.594  1.00  0.00     0.009 A 
ATOM     54  C   UNL A   1      44.683  25.140  31.796  1.00  0.00     0.009 A 
ATOM     55  C   UNL A   1      44.596  25.737  34.516  1.00  0.00     0.001 A 
ATOM     56  C   UNL A   1      44.282  24.167  32.713  1.00  0.00     0.001 A 
ATOM     57  C   UNL A   1      44.246  24.463  34.073  1.00  0.00     0.000 A 
ENDBRANCH  39  52
ENDBRANCH  13  14
ENDBRANCH   6   8
ENDBRANCH   5   6
ENDBRANCH   4   5
ENDBRANCH   3   4
ENDBRANCH   2   3
ENDBRANCH   1   2
BRANCH   1  58
ATOM     58  C   UNL A   1      39.824  20.885  26.213  1.00  0.00     0.188 C 
BRANCH  58  59
ATOM     59  O   UNL A   1      38.840  21.916  26.225  1.00  0.00    -0.376 OA
BRANCH  59  60
ATOM     60  C   UNL A   1      37.605  21.737  25.553  1.00  0.00     0.202 C 
BRANCH  60  61
ATOM     61  C   UNL A   1      36.558  22.860  25.603  1.00  0.00     0.261 C 
BRANCH  61  62
ATOM     62  O   UNL A   1      35.218  22.427  25.341  1.00  0.00    -0.458 OA
BRANCH  62  63
ATOM     63  C   UNL A   1      34.400  22.265  26.408  1.00  0.00     0.358 C 
ATOM     64  O   UNL A   1      34.531  21.398  27.283  1.00  0.00    -0.244 OA
BRANCH  63  65
ATOM     65  C   UNL A   1      33.315  23.234  26.421  1.00  0.00     0.166 A 
ATOM     66  C   UNL A   1      33.211  24.338  25.607  1.00  0.00     0.129 A 
ATOM     67  N   UNL A   1      32.203  23.170  27.256  1.00  0.00    -0.229 NA
ATOM     68  N   UNL A   1      31.979  24.882  25.870  1.00  0.00    -0.305 N 
ATOM     69  C   UNL A   1      31.451  24.199  26.933  1.00  0.00     0.205 A 
BRANCH  68  70
ATOM     70  C   UNL A   1      31.336  25.863  25.098  1.00  0.00     0.057 A 
ATOM     71  C   UNL A   1      30.338  25.472  24.212  1.00  0.00     0.047 A 
ATOM     72  C   UNL A   1      31.688  27.226  25.272  1.00  0.00     0.026 A 
ATOM     73  C   UNL A   1      29.641  26.481  23.584  1.00  0.00     0.114 A 
ATOM     74  C   UNL A   1      30.899  28.162  24.581  1.00  0.00     0.072 A 
ATOM     75  C   UNL A   1      32.800  27.688  26.030  1.00  0.00     0.033 A 
ATOM     76  N   UNL A   1      29.891  27.798  23.768  1.00  0.00    -0.256 NA
ATOM     77  C   UNL A   1      31.190  29.513  24.735  1.00  0.00     0.030 A 
ATOM     78  C   UNL A   1      33.074  29.043  26.151  1.00  0.00     0.041 A 
ATOM     79  C   UNL A   1      32.261  29.963  25.517  1.00  0.00     0.023 A 
ATOM     80  Cl  UNL A   1      34.426  29.562  27.076  1.00  0.00    -0.084 Cl
ENDBRANCH  68  70
ENDBRANCH  63  65
ENDBRANCH  62  63
ENDBRANCH  61  62
ENDBRANCH  60  61
ENDBRANCH  59  60
ENDBRANCH  58  59
ENDBRANCH   1  58
TORSDOF 18
ENDMDL
MODEL 3
REMARK VINA RESULT:     -10.1      5.360     10.580
REMARK SMILES O=C(OCCOCCOCCOC(=O)c1cn(-c2ccnc3ccc(Cl)cc23)cn1)c1ccc(-c2c3nc(c(-c4ccccc4)c4ccc([nH]4)c(-c4ccccc4)c4nc(c(-c5ccccc5)c5ccc2[nH]5)C=C4)C=C3)cc1
REMARK SMILES IDX 7 1 6 2 5 3 4 4 3 5 2 6 1 7 31 8 32 9 78 10 33 11 77 12
REMARK SMILES IDX 34 13 35 14 36 15 71 16 37 17 76 18 70 19 72 20 38 21 75 22
REMARK SMILES IDX 69 23 68 24 39 26 61 27 46 28 60 29 47 30 50 31 59 32 73 33
REMARK SMILES IDX 48 34 49 35 58 37 74 38 51 39 40 40 41 41 45 42 42 43 44 44
REMARK SMILES IDX 43 45 62 46 63 47 67 48 64 49 66 50 65 51 52 52 53 53 57 54
REMARK SMILES IDX 54 55 56 56 55 57 8 58 9 59 10 60 11 61 12 62 13 63 14 64
REMARK SMILES IDX 15 65 16 66 30 67 17 68 29 69 18 70 19 71 28 72 20 73 22 74
REMARK SMILES IDX 27 75 21 76 23 77 25 78 24 79 26 80
REMARK H PARENT 72 25 50 36
REMARK Flexibility Score: inf
ROOT
ATOM      1  C   UNL A   1      33.312  35.165  30.137  1.00  0.00     0.188 C 
ENDROOT
BRANCH   1   2
ATOM      2  O   UNL A   1      32.614  34.590  29.056  1.00  0.00    -0.376 OA
BRANCH   2   3
ATOM      3  C   UNL A   1      33.282  33.959  27.984  1.00  0.00     0.202 C 
BRANCH   3   4
ATOM      4  C   UNL A   1      34.811  33.890  27.869  1.00  0.00     0.261 C 
BRANCH   4   5
ATOM      5  O   UNL A   1      35.384  32.592  27.727  1.00  0.00    -0.460 OA
BRANCH   5   6
ATOM      6  C   UNL A   1      35.752  31.684  28.648  1.00  0.00     0.338 C 
ATOM      7  O   UNL A   1      35.082  31.597  29.677  1.00  0.00    -0.246 OA
BRANCH   6   8
ATOM      8  C   UNL A   1      36.965  30.818  28.559  1.00  0.00     0.060 A 
ATOM      9  C   UNL A   1      37.033  29.501  28.099  1.00  0.00     0.016 A 
ATOM     10  C   UNL A   1      38.139  31.415  29.058  1.00  0.00     0.016 A 
ATOM     11  C   UNL A   1      38.142  28.726  28.400  1.00  0.00     0.010 A 
ATOM     12  C   UNL A   1      39.258  30.660  29.335  1.00  0.00     0.010 A 
ATOM     13  C   UNL A   1      39.201  29.295  29.108  1.00  0.00    -0.014 A 
BRANCH  13  14
ATOM     14  C   UNL A   1      40.316  28.453  29.496  1.00  0.00     0.031 A 
ATOM     15  C   UNL A   1      40.678  28.626  30.922  1.00  0.00     0.074 A 
ATOM     16  C   UNL A   1      40.867  27.560  28.648  1.00  0.00     0.049 A 
ATOM     17  N   UNL A   1      41.733  29.202  31.391  1.00  0.00    -0.248 NA
ATOM     18  C   UNL A   1      39.657  28.323  31.941  1.00  0.00     0.031 C 
ATOM     19  C   UNL A   1      40.403  27.184  27.308  1.00  0.00     0.029 A 
ATOM     20  N   UNL A   1      41.918  26.717  28.836  1.00  0.00    -0.354 N 
ATOM     21  C   UNL A   1      41.630  29.086  32.773  1.00  0.00     0.074 A 
ATOM     22  C   UNL A   1      40.254  28.765  33.049  1.00  0.00     0.031 C 
ATOM     23  C   UNL A   1      41.000  26.028  26.930  1.00  0.00     0.029 A 
ATOM     24  C   UNL A   1      41.985  25.658  27.933  1.00  0.00     0.049 A 
ATOM     25  H   UNL A   1      42.581  26.846  29.553  1.00  0.00     0.167 HD
ATOM     26  C   UNL A   1      42.750  28.901  33.525  1.00  0.00     0.031 A 
ATOM     27  C   UNL A   1      42.753  24.540  28.037  1.00  0.00     0.031 A 
ATOM     28  C   UNL A   1      43.934  29.308  32.806  1.00  0.00     0.049 A 
ATOM     29  C   UNL A   1      43.826  24.832  29.016  1.00  0.00     0.074 A 
ATOM     30  C   UNL A   1      44.355  30.478  32.203  1.00  0.00     0.029 A 
ATOM     31  N   UNL A   1      44.704  28.306  32.266  1.00  0.00    -0.354 N 
ATOM     32  N   UNL A   1      44.788  25.677  28.784  1.00  0.00    -0.248 NA
ATOM     33  C   UNL A   1      43.544  24.570  30.419  1.00  0.00     0.031 C 
ATOM     34  C   UNL A   1      45.009  30.060  31.006  1.00  0.00     0.029 A 
ATOM     35  C   UNL A   1      45.047  28.665  30.991  1.00  0.00     0.049 A 
ATOM     36  H   UNL A   1      44.964  27.472  32.720  1.00  0.00     0.167 HD
ATOM     37  C   UNL A   1      44.897  26.404  29.960  1.00  0.00     0.074 A 
ATOM     38  C   UNL A   1      44.165  25.623  30.960  1.00  0.00     0.031 C 
ATOM     39  C   UNL A   1      45.299  27.710  29.938  1.00  0.00     0.031 A 
BRANCH  26  40
ATOM     40  C   UNL A   1      42.807  27.869  34.635  1.00  0.00    -0.014 A 
ATOM     41  C   UNL A   1      43.274  26.581  34.322  1.00  0.00     0.009 A 
ATOM     42  C   UNL A   1      42.132  28.009  35.865  1.00  0.00     0.009 A 
ATOM     43  C   UNL A   1      42.980  25.481  35.136  1.00  0.00     0.001 A 
ATOM     44  C   UNL A   1      41.872  26.921  36.700  1.00  0.00     0.001 A 
ATOM     45  C   UNL A   1      42.267  25.650  36.318  1.00  0.00     0.000 A 
ENDBRANCH  26  40
BRANCH  27  46
ATOM     46  C   UNL A   1      42.460  23.149  27.612  1.00  0.00    -0.014 A 
ATOM     47  C   UNL A   1      41.317  22.473  28.082  1.00  0.00     0.009 A 
ATOM     48  C   UNL A   1      43.137  22.585  26.515  1.00  0.00     0.009 A 
ATOM     49  C   UNL A   1      40.850  21.310  27.451  1.00  0.00     0.001 A 
ATOM     50  C   UNL A   1      42.671  21.423  25.887  1.00  0.00     0.001 A 
ATOM     51  C   UNL A   1      41.519  20.794  26.344  1.00  0.00     0.000 A 
ENDBRANCH  27  46
BRANCH  39  52
ATOM     52  C   UNL A   1      45.863  28.258  28.650  1.00  0.00    -0.014 A 
ATOM     53  C   UNL A   1      45.080  28.807  27.618  1.00  0.00     0.009 A 
ATOM     54  C   UNL A   1      47.259  28.342  28.541  1.00  0.00     0.009 A 
ATOM     55  C   UNL A   1      45.683  29.389  26.496  1.00  0.00     0.001 A 
ATOM     56  C   UNL A   1      47.859  28.941  27.433  1.00  0.00     0.001 A 
ATOM     57  C   UNL A   1      47.072  29.458  26.408  1.00  0.00     0.000 A 
ENDBRANCH  39  52
ENDBRANCH  13  14
ENDBRANCH   6   8
ENDBRANCH   5   6
ENDBRANCH   4   5
ENDBRANCH   3   4
ENDBRANCH   2   3
ENDBRANCH   1   2
BRANCH   1  58
ATOM     58  C   UNL A   1      33.094  36.687  30.350  1.00  0.00     0.188 C 
BRANCH  58  59
ATOM     59  O   UNL A   1      32.886  37.244  31.645  1.00  0.00    -0.376 OA
BRANCH  59  60
ATOM     60  C   UNL A   1      33.187  36.491  32.808  1.00  0.00     0.202 C 
BRANCH  60  61
ATOM     61  C   UNL A   1      34.626  35.997  33.026  1.00  0.00     0.261 C 
BRANCH  61  62
ATOM     62  O   UNL A   1      34.749  34.961  34.007  1.00  0.00    -0.458 OA
BRANCH  62  63
ATOM     63  C   UNL A   1      34.593  33.685  33.582  1.00  0.00     0.358 C 
ATOM     64  O   UNL A   1      33.505  33.114  33.418  1.00  0.00    -0.244 OA
BRANCH  63  65
ATOM     65  C   UNL A   1      35.867  33.027  33.337  1.00  0.00     0.166 A 
ATOM     66  C   UNL A   1      37.110  33.585  33.525  1.00  0.00     0.129 A 
ATOM     67  N   UNL A   1      36.012  31.716  32.890  1.00  0.00    -0.229 NA
ATOM     68  N   UNL A   1      38.011  32.574  33.300  1.00  0.00    -0.305 N 
ATOM     69  C   UNL A   1      37.306  31.497  32.833  1.00  0.00     0.205 A 
BRANCH  68  70
ATOM     70  C   UNL A   1      39.377  32.608  33.626  1.00  0.00     0.057 A 
ATOM     71  C   UNL A   1      39.789  32.089  34.849  1.00  0.00     0.047 A 
ATOM     72  C   UNL A   1      40.303  33.129  32.685  1.00  0.00     0.026 A 
ATOM     73  C   UNL A   1      41.149  32.015  35.060  1.00  0.00     0.114 A 
ATOM     74  C   UNL A   1      41.663  32.990  33.014  1.00  0.00     0.072 A 
ATOM     75  C   UNL A   1      39.949  33.821  31.494  1.00  0.00     0.033 A 
ATOM     76  N   UNL A   1      42.074  32.434  34.168  1.00  0.00    -0.256 NA
ATOM     77  C   UNL A   1      42.611  33.464  32.114  1.00  0.00     0.030 A 
ATOM     78  C   UNL A   1      40.920  34.297  30.624  1.00  0.00     0.041 A 
ATOM     79  C   UNL A   1      42.256  34.108  30.923  1.00  0.00     0.023 A 
ATOM     80  Cl  UNL A   1      40.452  35.128  29.195  1.00  0.00    -0.084 Cl
ENDBRANCH  68  70
ENDBRANCH  63  65
ENDBRANCH  62  63
ENDBRANCH  61  62
ENDBRANCH  60  61
ENDBRANCH  59  60
ENDBRANCH  58  59
ENDBRANCH   1  58
TORSDOF 18
ENDMDL
