MODEL 1
REMARK VINA RESULT:      -9.5      0.000      0.000
REMARK SMILES CC(C)(C)C(=O)NCCC(=O)N1C[C@@H](O)C[C@@H]1C(=O)OCCOCCOCCOC(=O)c1ccc(-c2c3nc(c(-c4ccccc4)c4ccc([nH]4)c(-c4ccccc4)c4nc(c(-c5ccccc5)c5ccc2[nH]5)C=C4)C=C3)cc1
REMARK SMILES IDX 23 1 22 2 21 3 20 4 18 5 19 6 17 7 12 8 13 9 14 10 16 11
REMARK SMILES IDX 10 12 11 13 9 14 8 15 7 16 5 17 6 18 2 20 1 21 3 22 4 23
REMARK SMILES IDX 15 24 24 26 25 27 26 28 27 29 28 30 29 31 30 32 31 33 32 34
REMARK SMILES IDX 33 35 79 36 34 37 78 38 35 39 36 40 37 41 72 42 38 43 77 44
REMARK SMILES IDX 71 45 73 46 39 47 76 48 70 49 69 50 40 52 62 53 47 54 61 55
REMARK SMILES IDX 48 56 51 57 60 58 74 59 49 60 50 61 59 63 75 64 52 65 41 66
REMARK SMILES IDX 42 67 46 68 43 69 45 70 44 71 63 72 64 73 68 74 65 75 67 76
REMARK SMILES IDX 66 77 53 78 54 79 58 80 55 81 57 82 56 83
REMARK H PARENT 7 19 15 25 73 51 51 62
REMARK Flexibility Score: inf
ROOT
ATOM      1  O   UNL A   1      33.683  30.915  27.746  1.00  0.00    -0.376 OA
ENDROOT
BRANCH   1   2
ATOM      2  C   UNL A   1      32.576  30.551  26.940  1.00  0.00     0.202 C 
BRANCH   2   3
ATOM      3  C   UNL A   1      32.057  29.123  27.080  1.00  0.00     0.261 C 
BRANCH   3   4
ATOM      4  O   UNL A   1      31.358  28.646  25.916  1.00  0.00    -0.462 OA
BRANCH   4   5
ATOM      5  C   UNL A   1      31.837  27.491  25.381  1.00  0.00     0.329 C 
ATOM      6  O   UNL A   1      32.804  26.875  25.818  1.00  0.00    -0.250 OA
BRANCH   5   7
ATOM      7  C   UNL A   1      31.034  27.045  24.143  1.00  0.00     0.197 C 
ATOM      8  N   UNL A   1      31.945  26.576  23.090  1.00  0.00    -0.326 N 
ATOM      9  C   UNL A   1      32.426  27.705  22.303  1.00  0.00     0.152 C 
ATOM     10  C   UNL A   1      31.557  28.902  22.723  1.00  0.00     0.136 C 
ATOM     11  C   UNL A   1      30.398  28.272  23.507  1.00  0.00     0.070 C 
BRANCH   8  12
ATOM     12  C   UNL A   1      32.150  25.244  22.819  1.00  0.00     0.225 C 
ATOM     13  O   UNL A   1      33.204  24.834  22.334  1.00  0.00    -0.275 OA
BRANCH  12  14
ATOM     14  C   UNL A   1      30.969  24.303  22.975  1.00  0.00     0.121 C 
BRANCH  14  15
ATOM     15  C   UNL A   1      31.072  23.153  23.970  1.00  0.00     0.125 C 
BRANCH  15  16
ATOM     16  N   UNL A   1      31.023  23.525  25.373  1.00  0.00    -0.355 N 
ATOM     17  C   UNL A   1      31.842  23.338  26.444  1.00  0.00     0.225 C 
ATOM     18  O   UNL A   1      31.390  23.746  27.521  1.00  0.00    -0.275 OA
ATOM     19  H   UNL A   1      30.210  24.030  25.602  1.00  0.00     0.163 HD
BRANCH  17  20
ATOM     20  C   UNL A   1      33.230  22.672  26.363  1.00  0.00     0.041 C 
ATOM     21  C   UNL A   1      34.180  23.575  25.541  1.00  0.00     0.021 C 
ATOM     22  C   UNL A   1      33.142  21.323  25.634  1.00  0.00     0.021 C 
ATOM     23  C   UNL A   1      33.861  22.513  27.743  1.00  0.00     0.021 C 
ENDBRANCH  17  20
ENDBRANCH  15  16
ENDBRANCH  14  15
ENDBRANCH  12  14
ENDBRANCH   8  12
BRANCH  10  24
ATOM     24  O   UNL A   1      31.054  29.647  21.625  1.00  0.00    -0.391 OA
ATOM     25  H   UNL A   1      31.719  30.294  21.342  1.00  0.00     0.211 HD
ENDBRANCH  10  24
ENDBRANCH   5   7
ENDBRANCH   4   5
ENDBRANCH   3   4
ENDBRANCH   2   3
ENDBRANCH   1   2
BRANCH   1  26
ATOM     26  C   UNL A   1      33.976  32.286  27.968  1.00  0.00     0.188 C 
BRANCH  26  27
ATOM     27  C   UNL A   1      34.476  32.779  29.341  1.00  0.00     0.188 C 
BRANCH  27  28
ATOM     28  O   UNL A   1      34.622  34.171  29.581  1.00  0.00    -0.376 OA
BRANCH  28  29
ATOM     29  C   UNL A   1      33.722  35.068  28.941  1.00  0.00     0.202 C 
BRANCH  29  30
ATOM     30  C   UNL A   1      32.992  36.037  29.866  1.00  0.00     0.261 C 
BRANCH  30  31
ATOM     31  O   UNL A   1      32.331  35.316  30.916  1.00  0.00    -0.460 OA
BRANCH  31  32
ATOM     32  C   UNL A   1      32.563  35.777  32.159  1.00  0.00     0.338 C 
ATOM     33  O   UNL A   1      31.905  36.620  32.765  1.00  0.00    -0.246 OA
BRANCH  32  34
ATOM     34  C   UNL A   1      33.754  35.110  32.719  1.00  0.00     0.060 A 
ATOM     35  C   UNL A   1      34.945  35.817  32.884  1.00  0.00     0.016 A 
ATOM     36  C   UNL A   1      33.718  33.741  32.992  1.00  0.00     0.016 A 
ATOM     37  C   UNL A   1      36.101  35.153  33.295  1.00  0.00     0.010 A 
ATOM     38  C   UNL A   1      34.879  33.079  33.418  1.00  0.00     0.010 A 
ATOM     39  C   UNL A   1      36.091  33.774  33.543  1.00  0.00    -0.014 A 
BRANCH  39  40
ATOM     40  C   UNL A   1      37.375  33.048  33.754  1.00  0.00     0.031 A 
ATOM     41  C   UNL A   1      38.017  33.085  35.117  1.00  0.00     0.074 A 
ATOM     42  C   UNL A   1      37.927  32.274  32.800  1.00  0.00     0.049 A 
ATOM     43  N   UNL A   1      39.149  32.562  35.515  1.00  0.00    -0.248 NA
ATOM     44  C   UNL A   1      37.280  33.798  36.173  1.00  0.00     0.031 C 
ATOM     45  C   UNL A   1      37.362  32.028  31.475  1.00  0.00     0.029 A 
ATOM     46  N   UNL A   1      39.055  31.485  32.835  1.00  0.00    -0.354 N 
ATOM     47  C   UNL A   1      39.305  32.963  36.837  1.00  0.00     0.074 A 
ATOM     48  C   UNL A   1      38.120  33.709  37.195  1.00  0.00     0.031 C 
ATOM     49  C   UNL A   1      38.086  31.070  30.866  1.00  0.00     0.029 A 
ATOM     50  C   UNL A   1      39.205  30.685  31.726  1.00  0.00     0.049 A 
ATOM     51  H   UNL A   1      39.693  31.492  33.584  1.00  0.00     0.167 HD
ATOM     52  C   UNL A   1      40.361  32.771  37.662  1.00  0.00     0.031 A 
ATOM     53  C   UNL A   1      40.130  29.743  31.448  1.00  0.00     0.031 A 
ATOM     54  C   UNL A   1      41.536  32.014  37.332  1.00  0.00     0.049 A 
ATOM     55  C   UNL A   1      41.293  29.535  32.387  1.00  0.00     0.074 A 
ATOM     56  C   UNL A   1      42.692  31.846  38.077  1.00  0.00     0.029 A 
ATOM     57  N   UNL A   1      41.701  31.282  36.170  1.00  0.00    -0.354 N 
ATOM     58  N   UNL A   1      41.488  30.015  33.589  1.00  0.00    -0.248 NA
ATOM     59  C   UNL A   1      42.391  28.683  31.897  1.00  0.00     0.031 C 
ATOM     60  C   UNL A   1      43.573  31.043  37.346  1.00  0.00     0.029 A 
ATOM     61  C   UNL A   1      42.944  30.674  36.169  1.00  0.00     0.049 A 
ATOM     62  H   UNL A   1      41.033  31.204  35.451  1.00  0.00     0.167 HD
ATOM     63  C   UNL A   1      42.737  29.546  33.985  1.00  0.00     0.074 A 
ATOM     64  C   UNL A   1      43.225  28.691  32.926  1.00  0.00     0.031 C 
ATOM     65  C   UNL A   1      43.433  29.830  35.112  1.00  0.00     0.031 A 
BRANCH  52  66
ATOM     66  C   UNL A   1      40.347  33.509  38.966  1.00  0.00    -0.014 A 
ATOM     67  C   UNL A   1      39.823  32.946  40.137  1.00  0.00     0.009 A 
ATOM     68  C   UNL A   1      40.905  34.798  39.014  1.00  0.00     0.009 A 
ATOM     69  C   UNL A   1      39.842  33.674  41.331  1.00  0.00     0.001 A 
ATOM     70  C   UNL A   1      40.941  35.512  40.210  1.00  0.00     0.001 A 
ATOM     71  C   UNL A   1      40.404  34.951  41.366  1.00  0.00     0.000 A 
ENDBRANCH  52  66
BRANCH  53  72
ATOM     72  C   UNL A   1      40.036  28.906  30.219  1.00  0.00    -0.014 A 
ATOM     73  C   UNL A   1      40.476  29.424  28.989  1.00  0.00     0.009 A 
ATOM     74  C   UNL A   1      39.446  27.635  30.243  1.00  0.00     0.009 A 
ATOM     75  C   UNL A   1      40.301  28.700  27.807  1.00  0.00     0.001 A 
ATOM     76  C   UNL A   1      39.302  26.898  29.064  1.00  0.00     0.001 A 
ATOM     77  C   UNL A   1      39.718  27.436  27.847  1.00  0.00     0.000 A 
ENDBRANCH  53  72
BRANCH  65  78
ATOM     78  C   UNL A   1      44.810  29.245  35.252  1.00  0.00    -0.014 A 
ATOM     79  C   UNL A   1      44.996  27.986  35.845  1.00  0.00     0.009 A 
ATOM     80  C   UNL A   1      45.925  29.921  34.733  1.00  0.00     0.009 A 
ATOM     81  C   UNL A   1      46.272  27.428  35.941  1.00  0.00     0.001 A 
ATOM     82  C   UNL A   1      47.197  29.349  34.808  1.00  0.00     0.001 A 
ATOM     83  C   UNL A   1      47.371  28.107  35.418  1.00  0.00     0.000 A 
ENDBRANCH  65  78
ENDBRANCH  39  40
ENDBRANCH  32  34
ENDBRANCH  31  32
ENDBRANCH  30  31
ENDBRANCH  29  30
ENDBRANCH  28  29
ENDBRANCH  27  28
ENDBRANCH  26  27
ENDBRANCH   1  26
TORSDOF 23
ENDMDL
MODEL 2
REMARK VINA RESULT:      -9.4      1.216      3.279
REMARK SMILES CC(C)(C)C(=O)NCCC(=O)N1C[C@@H](O)C[C@@H]1C(=O)OCCOCCOCCOC(=O)c1ccc(-c2c3nc(c(-c4ccccc4)c4ccc([nH]4)c(-c4ccccc4)c4nc(c(-c5ccccc5)c5ccc2[nH]5)C=C4)C=C3)cc1
REMARK SMILES IDX 23 1 22 2 21 3 20 4 18 5 19 6 17 7 12 8 13 9 14 10 16 11
REMARK SMILES IDX 10 12 11 13 9 14 8 15 7 16 5 17 6 18 2 20 1 21 3 22 4 23
REMARK SMILES IDX 15 24 24 26 25 27 26 28 27 29 28 30 29 31 30 32 31 33 32 34
REMARK SMILES IDX 33 35 79 36 34 37 78 38 35 39 36 40 37 41 72 42 38 43 77 44
REMARK SMILES IDX 71 45 73 46 39 47 76 48 70 49 69 50 40 52 62 53 47 54 61 55
REMARK SMILES IDX 48 56 51 57 60 58 74 59 49 60 50 61 59 63 75 64 52 65 41 66
REMARK SMILES IDX 42 67 46 68 43 69 45 70 44 71 63 72 64 73 68 74 65 75 67 76
REMARK SMILES IDX 66 77 53 78 54 79 58 80 55 81 57 82 56 83
REMARK H PARENT 7 19 15 25 73 51 51 62
REMARK Flexibility Score: inf
ROOT
ATOM      1  O   UNL A   1      33.619  30.847  27.509  1.00  0.00    -0.376 OA
ENDROOT
BRANCH   1   2
ATOM      2  C   UNL A   1      32.433  30.511  26.811  1.00  0.00     0.202 C 
BRANCH   2   3
ATOM      3  C   UNL A   1      31.803  29.158  27.129  1.00  0.00     0.261 C 
BRANCH   3   4
ATOM      4  O   UNL A   1      31.471  28.386  25.960  1.00  0.00    -0.462 OA
BRANCH   4   5
ATOM      5  C   UNL A   1      31.698  27.049  26.061  1.00  0.00     0.329 C 
ATOM      6  O   UNL A   1      31.057  26.291  26.783  1.00  0.00    -0.250 OA
BRANCH   5   7
ATOM      7  C   UNL A   1      32.868  26.587  25.169  1.00  0.00     0.197 C 
ATOM      8  N   UNL A   1      32.359  25.829  24.019  1.00  0.00    -0.326 N 
ATOM      9  C   UNL A   1      32.159  24.433  24.387  1.00  0.00     0.152 C 
ATOM     10  C   UNL A   1      32.833  24.266  25.759  1.00  0.00     0.136 C 
ATOM     11  C   UNL A   1      33.672  25.540  25.926  1.00  0.00     0.070 C 
BRANCH   8  12
ATOM     12  C   UNL A   1      32.263  26.363  22.756  1.00  0.00     0.225 C 
ATOM     13  O   UNL A   1      32.364  25.666  21.746  1.00  0.00    -0.275 OA
BRANCH  12  14
ATOM     14  C   UNL A   1      32.199  27.875  22.633  1.00  0.00     0.121 C 
BRANCH  14  15
ATOM     15  C   UNL A   1      30.834  28.547  22.549  1.00  0.00     0.125 C 
BRANCH  15  16
ATOM     16  N   UNL A   1      30.613  29.647  23.471  1.00  0.00    -0.355 N 
ATOM     17  C   UNL A   1      29.602  30.534  23.682  1.00  0.00     0.225 C 
ATOM     18  O   UNL A   1      29.840  31.399  24.533  1.00  0.00    -0.275 OA
ATOM     19  H   UNL A   1      31.369  29.781  24.087  1.00  0.00     0.163 HD
BRANCH  17  20
ATOM     20  C   UNL A   1      28.253  30.497  22.938  1.00  0.00     0.041 C 
ATOM     21  C   UNL A   1      28.487  30.823  21.444  1.00  0.00     0.021 C 
ATOM     22  C   UNL A   1      27.300  31.567  23.492  1.00  0.00     0.021 C 
ATOM     23  C   UNL A   1      27.617  29.112  22.990  1.00  0.00     0.021 C 
ENDBRANCH  17  20
ENDBRANCH  15  16
ENDBRANCH  14  15
ENDBRANCH  12  14
ENDBRANCH   8  12
BRANCH  10  24
ATOM     24  O   UNL A   1      33.667  23.120  25.843  1.00  0.00    -0.391 OA
ATOM     25  H   UNL A   1      33.131  22.345  26.072  1.00  0.00     0.211 HD
ENDBRANCH  10  24
ENDBRANCH   5   7
ENDBRANCH   4   5
ENDBRANCH   3   4
ENDBRANCH   2   3
ENDBRANCH   1   2
BRANCH   1  26
ATOM     26  C   UNL A   1      33.946  32.210  27.733  1.00  0.00     0.188 C 
BRANCH  26  27
ATOM     27  C   UNL A   1      34.493  32.682  29.096  1.00  0.00     0.188 C 
BRANCH  27  28
ATOM     28  O   UNL A   1      34.581  34.071  29.378  1.00  0.00    -0.376 OA
BRANCH  28  29
ATOM     29  C   UNL A   1      33.647  34.949  28.762  1.00  0.00     0.202 C 
BRANCH  29  30
ATOM     30  C   UNL A   1      32.969  35.948  29.695  1.00  0.00     0.261 C 
BRANCH  30  31
ATOM     31  O   UNL A   1      32.259  35.253  30.731  1.00  0.00    -0.460 OA
BRANCH  31  32
ATOM     32  C   UNL A   1      32.481  35.706  31.979  1.00  0.00     0.338 C 
ATOM     33  O   UNL A   1      31.811  36.536  32.590  1.00  0.00    -0.246 OA
BRANCH  32  34
ATOM     34  C   UNL A   1      33.678  35.049  32.537  1.00  0.00     0.060 A 
ATOM     35  C   UNL A   1      34.888  35.739  32.617  1.00  0.00     0.016 A 
ATOM     36  C   UNL A   1      33.626  33.701  32.896  1.00  0.00     0.016 A 
ATOM     37  C   UNL A   1      36.045  35.077  33.028  1.00  0.00     0.010 A 
ATOM     38  C   UNL A   1      34.788  33.041  33.321  1.00  0.00     0.010 A 
ATOM     39  C   UNL A   1      36.017  33.715  33.360  1.00  0.00    -0.014 A 
BRANCH  39  40
ATOM     40  C   UNL A   1      37.293  32.976  33.571  1.00  0.00     0.031 A 
ATOM     41  C   UNL A   1      37.951  33.031  34.926  1.00  0.00     0.074 A 
ATOM     42  C   UNL A   1      37.823  32.176  32.626  1.00  0.00     0.049 A 
ATOM     43  N   UNL A   1      39.080  32.500  35.322  1.00  0.00    -0.248 NA
ATOM     44  C   UNL A   1      37.235  33.773  35.977  1.00  0.00     0.031 C 
ATOM     45  C   UNL A   1      37.241  31.913  31.313  1.00  0.00     0.029 A 
ATOM     46  N   UNL A   1      38.941  31.373  32.664  1.00  0.00    -0.354 N 
ATOM     47  C   UNL A   1      39.257  32.923  36.634  1.00  0.00     0.074 A 
ATOM     48  C   UNL A   1      38.085  33.693  36.990  1.00  0.00     0.031 C 
ATOM     49  C   UNL A   1      37.945  30.933  30.714  1.00  0.00     0.029 A 
ATOM     50  C   UNL A   1      39.068  30.549  31.569  1.00  0.00     0.049 A 
ATOM     51  H   UNL A   1      39.588  31.385  33.406  1.00  0.00     0.167 HD
ATOM     52  C   UNL A   1      40.319  32.733  37.450  1.00  0.00     0.031 A 
ATOM     53  C   UNL A   1      39.977  29.590  31.299  1.00  0.00     0.031 A 
ATOM     54  C   UNL A   1      41.480  31.953  37.123  1.00  0.00     0.049 A 
ATOM     55  C   UNL A   1      41.147  29.384  32.229  1.00  0.00     0.074 A 
ATOM     56  C   UNL A   1      42.641  31.784  37.858  1.00  0.00     0.029 A 
ATOM     57  N   UNL A   1      41.621  31.197  35.973  1.00  0.00    -0.354 N 
ATOM     58  N   UNL A   1      41.363  29.885  33.420  1.00  0.00    -0.248 NA
ATOM     59  C   UNL A   1      42.228  28.508  31.743  1.00  0.00     0.031 C 
ATOM     60  C   UNL A   1      43.503  30.955  37.133  1.00  0.00     0.029 A 
ATOM     61  C   UNL A   1      42.857  30.572  35.970  1.00  0.00     0.049 A 
ATOM     62  H   UNL A   1      40.944  31.115  35.264  1.00  0.00     0.167 HD
ATOM     63  C   UNL A   1      42.609  29.406  33.810  1.00  0.00     0.074 A 
ATOM     64  C   UNL A   1      43.074  28.524  32.764  1.00  0.00     0.031 C 
ATOM     65  C   UNL A   1      43.322  29.702  34.924  1.00  0.00     0.031 A 
BRANCH  52  66
ATOM     66  C   UNL A   1      40.329  33.496  38.741  1.00  0.00    -0.014 A 
ATOM     67  C   UNL A   1      39.755  32.989  39.913  1.00  0.00     0.009 A 
ATOM     68  C   UNL A   1      40.964  34.749  38.774  1.00  0.00     0.009 A 
ATOM     69  C   UNL A   1      39.799  33.737  41.093  1.00  0.00     0.001 A 
ATOM     70  C   UNL A   1      41.026  35.482  39.957  1.00  0.00     0.001 A 
ATOM     71  C   UNL A   1      40.437  34.978  41.114  1.00  0.00     0.000 A 
ENDBRANCH  52  66
BRANCH  53  72
ATOM     72  C   UNL A   1      39.858  28.732  30.088  1.00  0.00    -0.014 A 
ATOM     73  C   UNL A   1      39.189  27.498  30.171  1.00  0.00     0.009 A 
ATOM     74  C   UNL A   1      40.467  29.088  28.876  1.00  0.00     0.009 A 
ATOM     75  C   UNL A   1      39.156  26.630  29.078  1.00  0.00     0.001 A 
ATOM     76  C   UNL A   1      40.405  28.231  27.773  1.00  0.00     0.001 A 
ATOM     77  C   UNL A   1      39.761  26.999  27.878  1.00  0.00     0.000 A 
ENDBRANCH  53  72
BRANCH  65  78
ATOM     78  C   UNL A   1      44.693  29.101  35.060  1.00  0.00    -0.014 A 
ATOM     79  C   UNL A   1      44.895  27.946  35.835  1.00  0.00     0.009 A 
ATOM     80  C   UNL A   1      45.781  29.647  34.362  1.00  0.00     0.009 A 
ATOM     81  C   UNL A   1      46.162  27.368  35.930  1.00  0.00     0.001 A 
ATOM     82  C   UNL A   1      47.042  29.053  34.440  1.00  0.00     0.001 A 
ATOM     83  C   UNL A   1      47.233  27.919  35.228  1.00  0.00     0.000 A 
ENDBRANCH  65  78
ENDBRANCH  39  40
ENDBRANCH  32  34
ENDBRANCH  31  32
ENDBRANCH  30  31
ENDBRANCH  29  30
ENDBRANCH  28  29
ENDBRANCH  27  28
ENDBRANCH  26  27
ENDBRANCH   1  26
TORSDOF 23
ENDMDL
MODEL 3
REMARK VINA RESULT:      -9.1      4.389      6.972
REMARK SMILES CC(C)(C)C(=O)NCCC(=O)N1C[C@@H](O)C[C@@H]1C(=O)OCCOCCOCCOC(=O)c1ccc(-c2c3nc(c(-c4ccccc4)c4ccc([nH]4)c(-c4ccccc4)c4nc(c(-c5ccccc5)c5ccc2[nH]5)C=C4)C=C3)cc1
REMARK SMILES IDX 23 1 22 2 21 3 20 4 18 5 19 6 17 7 12 8 13 9 14 10 16 11
REMARK SMILES IDX 10 12 11 13 9 14 8 15 7 16 5 17 6 18 2 20 1 21 3 22 4 23
REMARK SMILES IDX 15 24 24 26 25 27 26 28 27 29 28 30 29 31 30 32 31 33 32 34
REMARK SMILES IDX 33 35 79 36 34 37 78 38 35 39 36 40 37 41 72 42 38 43 77 44
REMARK SMILES IDX 71 45 73 46 39 47 76 48 70 49 69 50 40 52 62 53 47 54 61 55
REMARK SMILES IDX 48 56 51 57 60 58 74 59 49 60 50 61 59 63 75 64 52 65 41 66
REMARK SMILES IDX 42 67 46 68 43 69 45 70 44 71 63 72 64 73 68 74 65 75 67 76
REMARK SMILES IDX 66 77 53 78 54 79 58 80 55 81 57 82 56 83
REMARK H PARENT 7 19 15 25 73 51 51 62
REMARK Flexibility Score: inf
ROOT
ATOM      1  O   UNL A   1      34.195  31.346  28.020  1.00  0.00    -0.376 OA
ENDROOT
BRANCH   1   2
ATOM      2  C   UNL A   1      33.737  30.153  27.408  1.00  0.00     0.202 C 
BRANCH   2   3
ATOM      3  C   UNL A   1      32.504  30.263  26.516  1.00  0.00     0.261 C 
BRANCH   3   4
ATOM      4  O   UNL A   1      31.752  29.039  26.419  1.00  0.00    -0.462 OA
BRANCH   4   5
ATOM      5  C   UNL A   1      31.825  28.404  25.219  1.00  0.00     0.329 C 
ATOM      6  O   UNL A   1      31.548  28.924  24.142  1.00  0.00    -0.250 OA
BRANCH   5   7
ATOM      7  C   UNL A   1      32.287  26.939  25.362  1.00  0.00     0.197 C 
ATOM      8  N   UNL A   1      31.880  26.164  24.182  1.00  0.00    -0.326 N 
ATOM      9  C   UNL A   1      30.510  25.691  24.340  1.00  0.00     0.152 C 
ATOM     10  C   UNL A   1      30.145  25.963  25.809  1.00  0.00     0.136 C 
ATOM     11  C   UNL A   1      31.488  26.284  26.479  1.00  0.00     0.070 C 
BRANCH   8  12
ATOM     12  C   UNL A   1      32.754  25.817  23.179  1.00  0.00     0.225 C 
ATOM     13  O   UNL A   1      32.478  25.983  21.991  1.00  0.00    -0.275 OA
BRANCH  12  14
ATOM     14  C   UNL A   1      34.011  25.061  23.568  1.00  0.00     0.121 C 
BRANCH  14  15
ATOM     15  C   UNL A   1      33.873  23.776  24.377  1.00  0.00     0.125 C 
BRANCH  15  16
ATOM     16  N   UNL A   1      33.078  22.726  23.766  1.00  0.00    -0.355 N 
ATOM     17  C   UNL A   1      32.916  21.393  23.988  1.00  0.00     0.225 C 
ATOM     18  O   UNL A   1      32.190  20.815  23.170  1.00  0.00    -0.275 OA
ATOM     19  H   UNL A   1      32.529  23.055  23.018  1.00  0.00     0.163 HD
BRANCH  17  20
ATOM     20  C   UNL A   1      33.568  20.627  25.156  1.00  0.00     0.041 C 
ATOM     21  C   UNL A   1      35.087  20.496  24.892  1.00  0.00     0.021 C 
ATOM     22  C   UNL A   1      33.000  19.203  25.253  1.00  0.00     0.021 C 
ATOM     23  C   UNL A   1      33.415  21.374  26.477  1.00  0.00     0.021 C 
ENDBRANCH  17  20
ENDBRANCH  15  16
ENDBRANCH  14  15
ENDBRANCH  12  14
ENDBRANCH   8  12
BRANCH  10  24
ATOM     24  O   UNL A   1      29.534  24.855  26.453  1.00  0.00    -0.391 OA
ATOM     25  H   UNL A   1      29.590  24.076  25.878  1.00  0.00     0.211 HD
ENDBRANCH  10  24
ENDBRANCH   5   7
ENDBRANCH   4   5
ENDBRANCH   3   4
ENDBRANCH   2   3
ENDBRANCH   1   2
BRANCH   1  26
ATOM     26  C   UNL A   1      33.411  32.526  27.944  1.00  0.00     0.188 C 
BRANCH  26  27
ATOM     27  C   UNL A   1      34.059  33.921  28.073  1.00  0.00     0.188 C 
BRANCH  27  28
ATOM     28  O   UNL A   1      34.769  34.263  29.254  1.00  0.00    -0.376 OA
BRANCH  28  29
ATOM     29  C   UNL A   1      34.038  34.775  30.361  1.00  0.00     0.202 C 
BRANCH  29  30
ATOM     30  C   UNL A   1      34.327  34.111  31.704  1.00  0.00     0.261 C 
BRANCH  30  31
ATOM     31  O   UNL A   1      35.723  33.791  31.807  1.00  0.00    -0.460 OA
BRANCH  31  32
ATOM     32  C   UNL A   1      36.002  32.674  32.504  1.00  0.00     0.338 C 
ATOM     33  O   UNL A   1      35.532  32.350  33.592  1.00  0.00    -0.246 OA
BRANCH  32  34
ATOM     34  C   UNL A   1      36.982  31.859  31.760  1.00  0.00     0.060 A 
ATOM     35  C   UNL A   1      37.938  31.108  32.445  1.00  0.00     0.016 A 
ATOM     36  C   UNL A   1      37.016  31.917  30.366  1.00  0.00     0.016 A 
ATOM     37  C   UNL A   1      38.938  30.439  31.739  1.00  0.00     0.010 A 
ATOM     38  C   UNL A   1      38.015  31.233  29.659  1.00  0.00     0.010 A 
ATOM     39  C   UNL A   1      39.007  30.512  30.341  1.00  0.00    -0.014 A 
BRANCH  39  40
ATOM     40  C   UNL A   1      40.205  29.989  29.629  1.00  0.00     0.031 A 
ATOM     41  C   UNL A   1      41.455  30.830  29.589  1.00  0.00     0.074 A 
ATOM     42  C   UNL A   1      40.245  28.746  29.110  1.00  0.00     0.049 A 
ATOM     43  N   UNL A   1      42.597  30.593  28.994  1.00  0.00    -0.248 NA
ATOM     44  C   UNL A   1      41.415  32.104  30.326  1.00  0.00     0.031 C 
ATOM     45  C   UNL A   1      39.169  27.762  29.181  1.00  0.00     0.029 A 
ATOM     46  N   UNL A   1      41.273  28.074  28.486  1.00  0.00    -0.354 N 
ATOM     47  C   UNL A   1      43.374  31.725  29.204  1.00  0.00     0.074 A 
ATOM     48  C   UNL A   1      42.603  32.618  30.041  1.00  0.00     0.031 C 
ATOM     49  C   UNL A   1      39.627  26.583  28.720  1.00  0.00     0.029 A 
ATOM     50  C   UNL A   1      41.005  26.744  28.256  1.00  0.00     0.049 A 
ATOM     51  H   UNL A   1      42.120  28.505  28.230  1.00  0.00     0.167 HD
ATOM     52  C   UNL A   1      44.597  32.019  28.704  1.00  0.00     0.031 A 
ATOM     53  C   UNL A   1      41.788  25.772  27.745  1.00  0.00     0.031 A 
ATOM     54  C   UNL A   1      45.387  31.137  27.891  1.00  0.00     0.049 A 
ATOM     55  C   UNL A   1      43.154  26.117  27.205  1.00  0.00     0.074 A 
ATOM     56  C   UNL A   1      46.597  31.391  27.268  1.00  0.00     0.029 A 
ATOM     57  N   UNL A   1      45.057  29.826  27.603  1.00  0.00    -0.354 N 
ATOM     58  N   UNL A   1      43.831  27.233  27.305  1.00  0.00    -0.248 NA
ATOM     59  C   UNL A   1      43.841  25.066  26.433  1.00  0.00     0.031 C 
ATOM     60  C   UNL A   1      46.981  30.243  26.569  1.00  0.00     0.029 A 
ATOM     61  C   UNL A   1      46.031  29.261  26.797  1.00  0.00     0.049 A 
ATOM     62  H   UNL A   1      44.249  29.362  27.923  1.00  0.00     0.167 HD
ATOM     63  C   UNL A   1      45.007  27.026  26.591  1.00  0.00     0.074 A 
ATOM     64  C   UNL A   1      44.984  25.660  26.118  1.00  0.00     0.031 C 
ATOM     65  C   UNL A   1      46.002  27.905  26.320  1.00  0.00     0.031 A 
BRANCH  52  66
ATOM     66  C   UNL A   1      45.101  33.414  28.919  1.00  0.00    -0.014 A 
ATOM     67  C   UNL A   1      44.753  34.473  28.071  1.00  0.00     0.009 A 
ATOM     68  C   UNL A   1      45.928  33.665  30.027  1.00  0.00     0.009 A 
ATOM     69  C   UNL A   1      45.243  35.758  28.321  1.00  0.00     0.001 A 
ATOM     70  C   UNL A   1      46.397  34.952  30.285  1.00  0.00     0.001 A 
ATOM     71  C   UNL A   1      46.059  35.996  29.427  1.00  0.00     0.000 A 
ENDBRANCH  52  66
BRANCH  53  72
ATOM     72  C   UNL A   1      41.326  24.357  27.689  1.00  0.00    -0.014 A 
ATOM     73  C   UNL A   1      41.931  23.394  28.515  1.00  0.00     0.009 A 
ATOM     74  C   UNL A   1      40.350  23.942  26.772  1.00  0.00     0.009 A 
ATOM     75  C   UNL A   1      41.588  22.044  28.404  1.00  0.00     0.001 A 
ATOM     76  C   UNL A   1      39.984  22.596  26.687  1.00  0.00     0.001 A 
ATOM     77  C   UNL A   1      40.612  21.647  27.493  1.00  0.00     0.000 A 
ENDBRANCH  53  72
BRANCH  65  78
ATOM     78  C   UNL A   1      47.133  27.437  25.446  1.00  0.00    -0.014 A 
ATOM     79  C   UNL A   1      47.138  27.720  24.070  1.00  0.00     0.009 A 
ATOM     80  C   UNL A   1      48.231  26.765  26.005  1.00  0.00     0.009 A 
ATOM     81  C   UNL A   1      48.206  27.316  23.267  1.00  0.00     0.001 A 
ATOM     82  C   UNL A   1      49.309  26.384  25.203  1.00  0.00     0.001 A 
ATOM     83  C   UNL A   1      49.293  26.653  23.835  1.00  0.00     0.000 A 
ENDBRANCH  65  78
ENDBRANCH  39  40
ENDBRANCH  32  34
ENDBRANCH  31  32
ENDBRANCH  30  31
ENDBRANCH  29  30
ENDBRANCH  28  29
ENDBRANCH  27  28
ENDBRANCH  26  27
ENDBRANCH   1  26
TORSDOF 23
ENDMDL
