MODEL 1
REMARK VINA RESULT:     -10.6      0.000      0.000
REMARK SMILES CCOc1cc2c(cc1OCC)[C@@H](C(=O)OCCOCCOCCOC(=O)c1ccc(-c3c4nc(c(-c5ccccc5)c5ccc([nH]5)c(-c5ccccc5)c5nc(c(-c6ccccc6)c6ccc3[nH]6)C=C5)C=C4)cc1)[C@H](c1ccc(F)cc1Cl)N(C)C2=O
REMARK SMILES IDX 20 1 19 2 18 3 17 4 16 5 14 6 15 7 13 8 4 9 5 10 9 11 6 12
REMARK SMILES IDX 8 13 7 14 87 15 85 16 88 17 76 18 86 19 3 20 2 21 1 22 10 23
REMARK SMILES IDX 11 24 12 25 77 26 78 27 83 28 79 29 82 30 84 31 80 32 81 33
REMARK SMILES IDX 21 34 22 35 23 36 24 37 25 38 26 39 27 40 28 41 29 42 75 43
REMARK SMILES IDX 30 44 74 45 31 46 32 47 33 48 68 49 34 50 73 51 67 52 69 53
REMARK SMILES IDX 35 54 72 55 66 56 65 57 36 59 58 60 43 61 57 62 44 63 47 64
REMARK SMILES IDX 56 65 70 66 45 67 46 68 55 70 71 71 48 72 37 73 38 74 42 75
REMARK SMILES IDX 39 76 41 77 40 78 59 79 60 80 64 81 61 82 63 83 62 84 49 85
REMARK SMILES IDX 50 86 54 87 51 88 53 89 52 90
REMARK H PARENT 69 58 47 69
REMARK Flexibility Score: inf
ROOT
ATOM      1  C   UNL A   1      36.521  22.493  23.487  1.00  0.00     0.188 C 
ENDROOT
BRANCH   1   2
ATOM      2  O   UNL A   1      35.574  23.424  22.990  1.00  0.00    -0.376 OA
BRANCH   2   3
ATOM      3  C   UNL A   1      34.208  23.015  22.942  1.00  0.00     0.202 C 
BRANCH   3   4
ATOM      4  C   UNL A   1      33.296  23.673  21.892  1.00  0.00     0.261 C 
BRANCH   4   5
ATOM      5  O   UNL A   1      32.497  24.789  22.355  1.00  0.00    -0.463 OA
BRANCH   5   6
ATOM      6  C   UNL A   1      33.042  26.012  22.154  1.00  0.00     0.316 C 
ATOM      7  O   UNL A   1      33.622  26.334  21.117  1.00  0.00    -0.251 OA
BRANCH   6   8
ATOM      8  C   UNL A   1      32.984  26.991  23.331  1.00  0.00     0.157 C 
ATOM      9  C   UNL A   1      31.269  24.564  26.397  1.00  0.00     0.161 A 
ATOM     10  C   UNL A   1      30.467  25.418  25.623  1.00  0.00     0.064 A 
ATOM     11  C   UNL A   1      32.662  24.542  26.214  1.00  0.00     0.161 A 
ATOM     12  C   UNL A   1      31.023  26.186  24.618  1.00  0.00     0.048 A 
ATOM     13  C   UNL A   1      33.219  25.379  25.250  1.00  0.00     0.056 A 
ATOM     14  C   UNL A   1      32.408  26.190  24.460  1.00  0.00    -0.015 A 
ATOM     15  C   UNL A   1      30.156  26.989  23.699  1.00  0.00     0.254 C 
ATOM     16  N   UNL A   1      30.783  28.045  23.040  1.00  0.00    -0.333 N 
ATOM     17  O   UNL A   1      28.973  26.700  23.561  1.00  0.00    -0.269 OA
ATOM     18  C   UNL A   1      32.193  28.335  23.283  1.00  0.00     0.135 C 
ATOM     19  C   UNL A   1      30.018  28.899  22.149  1.00  0.00     0.147 C 
BRANCH   9  20
ATOM     20  O   UNL A   1      30.666  23.828  27.382  1.00  0.00    -0.490 OA
BRANCH  20  21
ATOM     21  C   UNL A   1      30.021  22.639  26.898  1.00  0.00     0.226 C 
ATOM     22  C   UNL A   1      28.737  22.329  27.655  1.00  0.00     0.049 C 
ENDBRANCH  20  21
ENDBRANCH   9  20
BRANCH  11  23
ATOM     23  O   UNL A   1      33.629  23.800  26.824  1.00  0.00    -0.490 OA
BRANCH  23  24
ATOM     24  C   UNL A   1      33.912  22.482  26.387  1.00  0.00     0.226 C 
ATOM     25  C   UNL A   1      33.655  21.496  27.508  1.00  0.00     0.049 C 
ENDBRANCH  23  24
ENDBRANCH  11  23
BRANCH  18  26
ATOM     26  C   UNL A   1      32.463  29.195  24.575  1.00  0.00    -0.005 A 
ATOM     27  C   UNL A   1      33.677  28.922  25.263  1.00  0.00     0.010 A 
ATOM     28  C   UNL A   1      31.612  30.157  25.182  1.00  0.00     0.049 A 
ATOM     29  C   UNL A   1      33.976  29.496  26.507  1.00  0.00     0.040 A 
ATOM     30  C   UNL A   1      31.921  30.724  26.431  1.00  0.00     0.060 A 
ATOM     31  Cl  UNL A   1      30.142  30.788  24.531  1.00  0.00    -0.084 Cl
ATOM     32  C   UNL A   1      33.086  30.380  27.086  1.00  0.00     0.124 A 
ATOM     33  F   UNL A   1      33.358  30.917  28.282  1.00  0.00    -0.207 F 
ENDBRANCH  18  26
ENDBRANCH   6   8
ENDBRANCH   5   6
ENDBRANCH   4   5
ENDBRANCH   3   4
ENDBRANCH   2   3
ENDBRANCH   1   2
BRANCH   1  34
ATOM     34  C   UNL A   1      37.278  22.871  24.760  1.00  0.00     0.188 C 
BRANCH  34  35
ATOM     35  O   UNL A   1      38.041  21.845  25.366  1.00  0.00    -0.376 OA
BRANCH  35  36
ATOM     36  C   UNL A   1      37.794  20.497  24.967  1.00  0.00     0.202 C 
BRANCH  36  37
ATOM     37  C   UNL A   1      38.795  19.418  25.427  1.00  0.00     0.261 C 
BRANCH  37  38
ATOM     38  O   UNL A   1      40.187  19.630  25.084  1.00  0.00    -0.460 OA
BRANCH  38  39
ATOM     39  C   UNL A   1      41.127  19.472  26.050  1.00  0.00     0.338 C 
ATOM     40  O   UNL A   1      41.778  18.471  26.265  1.00  0.00    -0.246 OA
BRANCH  39  41
ATOM     41  C   UNL A   1      41.462  20.818  26.614  1.00  0.00     0.060 A 
ATOM     42  C   UNL A   1      41.612  21.886  25.715  1.00  0.00     0.016 A 
ATOM     43  C   UNL A   1      41.524  21.068  27.990  1.00  0.00     0.016 A 
ATOM     44  C   UNL A   1      41.865  23.182  26.179  1.00  0.00     0.010 A 
ATOM     45  C   UNL A   1      41.793  22.365  28.454  1.00  0.00     0.010 A 
ATOM     46  C   UNL A   1      42.001  23.424  27.552  1.00  0.00    -0.014 A 
BRANCH  46  47
ATOM     47  C   UNL A   1      42.572  24.716  28.027  1.00  0.00     0.031 A 
ATOM     48  C   UNL A   1      41.616  25.828  28.374  1.00  0.00     0.074 A 
ATOM     49  C   UNL A   1      43.895  24.914  28.185  1.00  0.00     0.049 A 
ATOM     50  N   UNL A   1      41.865  27.051  28.773  1.00  0.00    -0.248 NA
ATOM     51  C   UNL A   1      40.182  25.515  28.255  1.00  0.00     0.031 C 
ATOM     52  C   UNL A   1      44.940  23.921  27.946  1.00  0.00     0.029 A 
ATOM     53  N   UNL A   1      44.583  26.035  28.586  1.00  0.00    -0.354 N 
ATOM     54  C   UNL A   1      40.623  27.652  28.940  1.00  0.00     0.074 A 
ATOM     55  C   UNL A   1      39.624  26.673  28.571  1.00  0.00     0.031 C 
ATOM     56  C   UNL A   1      46.138  24.481  28.199  1.00  0.00     0.029 A 
ATOM     57  C   UNL A   1      45.948  25.881  28.582  1.00  0.00     0.049 A 
ATOM     58  H   UNL A   1      44.138  26.872  28.854  1.00  0.00     0.167 HD
ATOM     59  C   UNL A   1      40.331  28.903  29.366  1.00  0.00     0.031 A 
ATOM     60  C   UNL A   1      46.934  26.770  28.831  1.00  0.00     0.031 A 
ATOM     61  C   UNL A   1      41.312  29.894  29.720  1.00  0.00     0.049 A 
ATOM     62  C   UNL A   1      46.587  28.192  29.204  1.00  0.00     0.074 A 
ATOM     63  C   UNL A   1      41.105  31.185  30.175  1.00  0.00     0.029 A 
ATOM     64  N   UNL A   1      42.683  29.710  29.645  1.00  0.00    -0.354 N 
ATOM     65  N   UNL A   1      45.409  28.738  29.387  1.00  0.00    -0.248 NA
ATOM     66  C   UNL A   1      47.712  29.118  29.411  1.00  0.00     0.031 C 
ATOM     67  C   UNL A   1      42.351  31.806  30.309  1.00  0.00     0.029 A 
ATOM     68  C   UNL A   1      43.334  30.877  30.010  1.00  0.00     0.049 A 
ATOM     69  H   UNL A   1      43.128  28.876  29.374  1.00  0.00     0.167 HD
ATOM     70  C   UNL A   1      45.653  30.056  29.757  1.00  0.00     0.074 A 
ATOM     71  C   UNL A   1      47.090  30.224  29.792  1.00  0.00     0.031 C 
ATOM     72  C   UNL A   1      44.764  31.041  30.043  1.00  0.00     0.031 A 
BRANCH  59  73
ATOM     73  C   UNL A   1      38.879  29.289  29.433  1.00  0.00    -0.014 A 
ATOM     74  C   UNL A   1      38.113  29.065  30.587  1.00  0.00     0.009 A 
ATOM     75  C   UNL A   1      38.277  29.913  28.329  1.00  0.00     0.009 A 
ATOM     76  C   UNL A   1      36.764  29.426  30.620  1.00  0.00     0.001 A 
ATOM     77  C   UNL A   1      36.938  30.303  28.377  1.00  0.00     0.001 A 
ATOM     78  C   UNL A   1      36.180  30.050  29.519  1.00  0.00     0.000 A 
ENDBRANCH  59  73
BRANCH  60  79
ATOM     79  C   UNL A   1      48.363  26.366  28.704  1.00  0.00    -0.014 A 
ATOM     80  C   UNL A   1      49.082  25.905  29.818  1.00  0.00     0.009 A 
ATOM     81  C   UNL A   1      49.030  26.489  27.474  1.00  0.00     0.009 A 
ATOM     82  C   UNL A   1      50.443  25.604  29.710  1.00  0.00     0.001 A 
ATOM     83  C   UNL A   1      50.382  26.155  27.361  1.00  0.00     0.001 A 
ATOM     84  C   UNL A   1      51.089  25.724  28.481  1.00  0.00     0.000 A 
ENDBRANCH  60  79
BRANCH  72  85
ATOM     85  C   UNL A   1      45.312  32.381  30.458  1.00  0.00    -0.014 A 
ATOM     86  C   UNL A   1      45.458  32.728  31.811  1.00  0.00     0.009 A 
ATOM     87  C   UNL A   1      45.738  33.292  29.477  1.00  0.00     0.009 A 
ATOM     88  C   UNL A   1      45.987  33.971  32.170  1.00  0.00     0.001 A 
ATOM     89  C   UNL A   1      46.296  34.520  29.839  1.00  0.00     0.001 A 
ATOM     90  C   UNL A   1      46.411  34.862  31.184  1.00  0.00     0.000 A 
ENDBRANCH  72  85
ENDBRANCH  46  47
ENDBRANCH  39  41
ENDBRANCH  38  39
ENDBRANCH  37  38
ENDBRANCH  36  37
ENDBRANCH  35  36
ENDBRANCH  34  35
ENDBRANCH   1  34
TORSDOF 22
ENDMDL
MODEL 2
REMARK VINA RESULT:     -10.4      1.633      5.474
REMARK SMILES CCOc1cc2c(cc1OCC)[C@@H](C(=O)OCCOCCOCCOC(=O)c1ccc(-c3c4nc(c(-c5ccccc5)c5ccc([nH]5)c(-c5ccccc5)c5nc(c(-c6ccccc6)c6ccc3[nH]6)C=C5)C=C4)cc1)[C@H](c1ccc(F)cc1Cl)N(C)C2=O
REMARK SMILES IDX 20 1 19 2 18 3 17 4 16 5 14 6 15 7 13 8 4 9 5 10 9 11 6 12
REMARK SMILES IDX 8 13 7 14 87 15 85 16 88 17 76 18 86 19 3 20 2 21 1 22 10 23
REMARK SMILES IDX 11 24 12 25 77 26 78 27 83 28 79 29 82 30 84 31 80 32 81 33
REMARK SMILES IDX 21 34 22 35 23 36 24 37 25 38 26 39 27 40 28 41 29 42 75 43
REMARK SMILES IDX 30 44 74 45 31 46 32 47 33 48 68 49 34 50 73 51 67 52 69 53
REMARK SMILES IDX 35 54 72 55 66 56 65 57 36 59 58 60 43 61 57 62 44 63 47 64
REMARK SMILES IDX 56 65 70 66 45 67 46 68 55 70 71 71 48 72 37 73 38 74 42 75
REMARK SMILES IDX 39 76 41 77 40 78 59 79 60 80 64 81 61 82 63 83 62 84 49 85
REMARK SMILES IDX 50 86 54 87 51 88 53 89 52 90
REMARK H PARENT 69 58 47 69
REMARK Flexibility Score: inf
ROOT
ATOM      1  C   UNL A   1      36.300  22.701  23.393  1.00  0.00     0.188 C 
ENDROOT
BRANCH   1   2
ATOM      2  O   UNL A   1      35.297  23.552  22.867  1.00  0.00    -0.376 OA
BRANCH   2   3
ATOM      3  C   UNL A   1      33.959  23.056  22.834  1.00  0.00     0.202 C 
BRANCH   3   4
ATOM      4  C   UNL A   1      32.983  23.682  21.823  1.00  0.00     0.261 C 
BRANCH   4   5
ATOM      5  O   UNL A   1      32.287  24.872  22.267  1.00  0.00    -0.463 OA
BRANCH   5   6
ATOM      6  C   UNL A   1      32.973  26.030  22.124  1.00  0.00     0.316 C 
ATOM      7  O   UNL A   1      33.622  26.314  21.117  1.00  0.00    -0.251 OA
BRANCH   6   8
ATOM      8  C   UNL A   1      32.983  26.975  23.330  1.00  0.00     0.157 C 
ATOM      9  C   UNL A   1      31.324  24.500  26.388  1.00  0.00     0.161 A 
ATOM     10  C   UNL A   1      30.515  25.396  25.670  1.00  0.00     0.064 A 
ATOM     11  C   UNL A   1      32.707  24.450  26.152  1.00  0.00     0.161 A 
ATOM     12  C   UNL A   1      31.053  26.180  24.667  1.00  0.00     0.048 A 
ATOM     13  C   UNL A   1      33.249  25.301  25.192  1.00  0.00     0.056 A 
ATOM     14  C   UNL A   1      32.429  26.154  24.457  1.00  0.00    -0.015 A 
ATOM     15  C   UNL A   1      30.172  27.030  23.806  1.00  0.00     0.254 C 
ATOM     16  N   UNL A   1      30.801  28.090  23.155  1.00  0.00    -0.333 N 
ATOM     17  O   UNL A   1      28.978  26.774  23.705  1.00  0.00    -0.269 OA
ATOM     18  C   UNL A   1      32.225  28.339  23.352  1.00  0.00     0.135 C 
ATOM     19  C   UNL A   1      30.025  28.989  22.319  1.00  0.00     0.147 C 
BRANCH   9  20
ATOM     20  O   UNL A   1      30.739  23.749  27.373  1.00  0.00    -0.490 OA
BRANCH  20  21
ATOM     21  C   UNL A   1      29.952  22.656  26.874  1.00  0.00     0.226 C 
ATOM     22  C   UNL A   1      28.671  22.454  27.671  1.00  0.00     0.049 C 
ENDBRANCH  20  21
ENDBRANCH   9  20
BRANCH  11  23
ATOM     23  O   UNL A   1      33.678  23.666  26.702  1.00  0.00    -0.490 OA
BRANCH  23  24
ATOM     24  C   UNL A   1      33.432  22.298  26.978  1.00  0.00     0.226 C 
ATOM     25  C   UNL A   1      33.199  21.542  25.686  1.00  0.00     0.049 C 
ENDBRANCH  23  24
ENDBRANCH  11  23
BRANCH  18  26
ATOM     26  C   UNL A   1      32.565  29.152  24.657  1.00  0.00    -0.005 A 
ATOM     27  C   UNL A   1      33.789  28.820  25.298  1.00  0.00     0.010 A 
ATOM     28  C   UNL A   1      31.767  30.126  25.317  1.00  0.00     0.049 A 
ATOM     29  C   UNL A   1      34.147  29.349  26.547  1.00  0.00     0.040 A 
ATOM     30  C   UNL A   1      32.134  30.647  26.569  1.00  0.00     0.060 A 
ATOM     31  Cl  UNL A   1      30.300  30.823  24.730  1.00  0.00    -0.084 Cl
ATOM     32  C   UNL A   1      33.306  30.246  27.177  1.00  0.00     0.124 A 
ATOM     33  F   UNL A   1      33.634  30.740  28.378  1.00  0.00    -0.207 F 
ENDBRANCH  18  26
ENDBRANCH   6   8
ENDBRANCH   5   6
ENDBRANCH   4   5
ENDBRANCH   3   4
ENDBRANCH   2   3
ENDBRANCH   1   2
BRANCH   1  34
ATOM     34  C   UNL A   1      36.647  22.853  24.875  1.00  0.00     0.188 C 
BRANCH  34  35
ATOM     35  O   UNL A   1      36.796  21.655  25.612  1.00  0.00    -0.376 OA
BRANCH  35  36
ATOM     36  C   UNL A   1      37.209  20.481  24.913  1.00  0.00     0.202 C 
BRANCH  36  37
ATOM     37  C   UNL A   1      38.509  19.791  25.376  1.00  0.00     0.261 C 
BRANCH  37  38
ATOM     38  O   UNL A   1      39.673  20.637  25.545  1.00  0.00    -0.460 OA
BRANCH  38  39
ATOM     39  C   UNL A   1      40.345  20.592  26.723  1.00  0.00     0.338 C 
ATOM     40  O   UNL A   1      40.841  19.609  27.233  1.00  0.00    -0.246 OA
BRANCH  39  41
ATOM     41  C   UNL A   1      40.653  21.994  27.151  1.00  0.00     0.060 A 
ATOM     42  C   UNL A   1      39.831  23.023  26.664  1.00  0.00     0.016 A 
ATOM     43  C   UNL A   1      41.647  22.299  28.088  1.00  0.00     0.016 A 
ATOM     44  C   UNL A   1      40.025  24.348  27.071  1.00  0.00     0.010 A 
ATOM     45  C   UNL A   1      41.851  23.629  28.484  1.00  0.00     0.010 A 
ATOM     46  C   UNL A   1      41.065  24.668  27.952  1.00  0.00    -0.014 A 
BRANCH  46  47
ATOM     47  C   UNL A   1      41.469  26.090  28.141  1.00  0.00     0.031 A 
ATOM     48  C   UNL A   1      42.774  26.542  27.535  1.00  0.00     0.074 A 
ATOM     49  C   UNL A   1      40.706  26.983  28.799  1.00  0.00     0.049 A 
ATOM     50  N   UNL A   1      43.360  27.712  27.590  1.00  0.00    -0.248 NA
ATOM     51  C   UNL A   1      43.516  25.533  26.761  1.00  0.00     0.031 C 
ATOM     52  C   UNL A   1      39.397  26.715  29.391  1.00  0.00     0.029 A 
ATOM     53  N   UNL A   1      40.936  28.310  29.081  1.00  0.00    -0.354 N 
ATOM     54  C   UNL A   1      44.540  27.576  26.870  1.00  0.00     0.074 A 
ATOM     55  C   UNL A   1      44.603  26.204  26.414  1.00  0.00     0.031 C 
ATOM     56  C   UNL A   1      38.944  27.841  29.972  1.00  0.00     0.029 A 
ATOM     57  C   UNL A   1      39.943  28.899  29.826  1.00  0.00     0.049 A 
ATOM     58  H   UNL A   1      41.738  28.793  28.775  1.00  0.00     0.167 HD
ATOM     59  C   UNL A   1      45.489  28.503  26.603  1.00  0.00     0.031 A 
ATOM     60  C   UNL A   1      39.861  30.140  30.354  1.00  0.00     0.031 A 
ATOM     61  C   UNL A   1      45.451  29.865  27.063  1.00  0.00     0.049 A 
ATOM     62  C   UNL A   1      40.980  31.128  30.130  1.00  0.00     0.074 A 
ATOM     63  C   UNL A   1      46.364  30.879  26.828  1.00  0.00     0.029 A 
ATOM     64  N   UNL A   1      44.454  30.401  27.863  1.00  0.00    -0.354 N 
ATOM     65  N   UNL A   1      42.077  30.995  29.423  1.00  0.00    -0.248 NA
ATOM     66  C   UNL A   1      40.845  32.443  30.778  1.00  0.00     0.031 C 
ATOM     67  C   UNL A   1      45.957  32.009  27.543  1.00  0.00     0.029 A 
ATOM     68  C   UNL A   1      44.750  31.721  28.161  1.00  0.00     0.049 A 
ATOM     69  H   UNL A   1      43.656  29.917  28.171  1.00  0.00     0.167 HD
ATOM     70  C   UNL A   1      42.742  32.213  29.517  1.00  0.00     0.074 A 
ATOM     71  C   UNL A   1      41.919  33.080  30.332  1.00  0.00     0.031 C 
ATOM     72  C   UNL A   1      43.930  32.580  28.974  1.00  0.00     0.031 A 
BRANCH  59  73
ATOM     73  C   UNL A   1      46.683  28.059  25.803  1.00  0.00    -0.014 A 
ATOM     74  C   UNL A   1      47.874  27.656  26.426  1.00  0.00     0.009 A 
ATOM     75  C   UNL A   1      46.601  28.015  24.402  1.00  0.00     0.009 A 
ATOM     76  C   UNL A   1      48.971  27.254  25.660  1.00  0.00     0.001 A 
ATOM     77  C   UNL A   1      47.687  27.581  23.641  1.00  0.00     0.001 A 
ATOM     78  C   UNL A   1      48.874  27.211  24.270  1.00  0.00     0.000 A 
ENDBRANCH  59  73
BRANCH  60  79
ATOM     79  C   UNL A   1      38.686  30.528  31.185  1.00  0.00    -0.014 A 
ATOM     80  C   UNL A   1      37.553  31.115  30.600  1.00  0.00     0.009 A 
ATOM     81  C   UNL A   1      38.715  30.360  32.579  1.00  0.00     0.009 A 
ATOM     82  C   UNL A   1      36.488  31.549  31.396  1.00  0.00     0.001 A 
ATOM     83  C   UNL A   1      37.635  30.763  33.368  1.00  0.00     0.001 A 
ATOM     84  C   UNL A   1      36.528  31.368  32.777  1.00  0.00     0.000 A 
ENDBRANCH  60  79
BRANCH  72  85
ATOM     85  C   UNL A   1      44.400  33.992  29.207  1.00  0.00    -0.014 A 
ATOM     86  C   UNL A   1      45.397  34.287  30.150  1.00  0.00     0.009 A 
ATOM     87  C   UNL A   1      43.874  35.037  28.430  1.00  0.00     0.009 A 
ATOM     88  C   UNL A   1      45.830  35.603  30.334  1.00  0.00     0.001 A 
ATOM     89  C   UNL A   1      44.332  36.346  28.592  1.00  0.00     0.001 A 
ATOM     90  C   UNL A   1      45.302  36.630  29.551  1.00  0.00     0.000 A 
ENDBRANCH  72  85
ENDBRANCH  46  47
ENDBRANCH  39  41
ENDBRANCH  38  39
ENDBRANCH  37  38
ENDBRANCH  36  37
ENDBRANCH  35  36
ENDBRANCH  34  35
ENDBRANCH   1  34
TORSDOF 22
ENDMDL
MODEL 3
REMARK VINA RESULT:      -9.7      4.036      5.539
REMARK SMILES CCOc1cc2c(cc1OCC)[C@@H](C(=O)OCCOCCOCCOC(=O)c1ccc(-c3c4nc(c(-c5ccccc5)c5ccc([nH]5)c(-c5ccccc5)c5nc(c(-c6ccccc6)c6ccc3[nH]6)C=C5)C=C4)cc1)[C@H](c1ccc(F)cc1Cl)N(C)C2=O
REMARK SMILES IDX 20 1 19 2 18 3 17 4 16 5 14 6 15 7 13 8 4 9 5 10 9 11 6 12
REMARK SMILES IDX 8 13 7 14 87 15 85 16 88 17 76 18 86 19 3 20 2 21 1 22 10 23
REMARK SMILES IDX 11 24 12 25 77 26 78 27 83 28 79 29 82 30 84 31 80 32 81 33
REMARK SMILES IDX 21 34 22 35 23 36 24 37 25 38 26 39 27 40 28 41 29 42 75 43
REMARK SMILES IDX 30 44 74 45 31 46 32 47 33 48 68 49 34 50 73 51 67 52 69 53
REMARK SMILES IDX 35 54 72 55 66 56 65 57 36 59 58 60 43 61 57 62 44 63 47 64
REMARK SMILES IDX 56 65 70 66 45 67 46 68 55 70 71 71 48 72 37 73 38 74 42 75
REMARK SMILES IDX 39 76 41 77 40 78 59 79 60 80 64 81 61 82 63 83 62 84 49 85
REMARK SMILES IDX 50 86 54 87 51 88 53 89 52 90
REMARK H PARENT 69 58 47 69
REMARK Flexibility Score: inf
ROOT
ATOM      1  C   UNL A   1      36.290  22.233  23.991  1.00  0.00     0.188 C 
ENDROOT
BRANCH   1   2
ATOM      2  O   UNL A   1      35.296  23.150  23.566  1.00  0.00    -0.376 OA
BRANCH   2   3
ATOM      3  C   UNL A   1      34.020  22.622  23.208  1.00  0.00     0.202 C 
BRANCH   3   4
ATOM      4  C   UNL A   1      33.199  23.381  22.150  1.00  0.00     0.261 C 
BRANCH   4   5
ATOM      5  O   UNL A   1      32.350  24.444  22.649  1.00  0.00    -0.463 OA
BRANCH   5   6
ATOM      6  C   UNL A   1      32.816  25.698  22.446  1.00  0.00     0.316 C 
ATOM      7  O   UNL A   1      33.285  26.083  21.374  1.00  0.00    -0.251 OA
BRANCH   6   8
ATOM      8  C   UNL A   1      32.818  26.634  23.659  1.00  0.00     0.157 C 
ATOM      9  C   UNL A   1      30.369  24.486  26.419  1.00  0.00     0.161 A 
ATOM     10  C   UNL A   1      29.826  25.500  25.613  1.00  0.00     0.064 A 
ATOM     11  C   UNL A   1      31.745  24.205  26.371  1.00  0.00     0.161 A 
ATOM     12  C   UNL A   1      30.618  26.178  24.707  1.00  0.00     0.048 A 
ATOM     13  C   UNL A   1      32.546  24.949  25.509  1.00  0.00     0.056 A 
ATOM     14  C   UNL A   1      31.987  25.923  24.685  1.00  0.00    -0.015 A 
ATOM     15  C   UNL A   1      30.017  27.159  23.750  1.00  0.00     0.254 C 
ATOM     16  N   UNL A   1      30.895  28.096  23.208  1.00  0.00    -0.333 N 
ATOM     17  O   UNL A   1      28.822  27.105  23.483  1.00  0.00    -0.269 OA
ATOM     18  C   UNL A   1      32.301  28.105  23.601  1.00  0.00     0.135 C 
ATOM     19  C   UNL A   1      30.400  29.107  22.291  1.00  0.00     0.147 C 
BRANCH   9  20
ATOM     20  O   UNL A   1      29.540  23.848  27.302  1.00  0.00    -0.490 OA
BRANCH  20  21
ATOM     21  C   UNL A   1      29.303  22.469  26.977  1.00  0.00     0.226 C 
ATOM     22  C   UNL A   1      27.998  21.952  27.565  1.00  0.00     0.049 C 
ENDBRANCH  20  21
ENDBRANCH   9  20
BRANCH  11  23
ATOM     23  O   UNL A   1      32.488  23.274  27.035  1.00  0.00    -0.490 OA
BRANCH  23  24
ATOM     24  C   UNL A   1      33.883  23.173  26.816  1.00  0.00     0.226 C 
ATOM     25  C   UNL A   1      34.367  21.783  27.179  1.00  0.00     0.049 C 
ENDBRANCH  23  24
ENDBRANCH  11  23
BRANCH  18  26
ATOM     26  C   UNL A   1      32.589  28.858  24.954  1.00  0.00    -0.005 A 
ATOM     27  C   UNL A   1      31.683  29.900  25.293  1.00  0.00     0.010 A 
ATOM     28  C   UNL A   1      33.682  28.677  25.844  1.00  0.00     0.049 A 
ATOM     29  C   UNL A   1      31.901  30.756  26.383  1.00  0.00     0.040 A 
ATOM     30  C   UNL A   1      33.892  29.542  26.932  1.00  0.00     0.060 A 
ATOM     31  Cl  UNL A   1      34.869  27.425  25.773  1.00  0.00    -0.084 Cl
ATOM     32  C   UNL A   1      33.014  30.577  27.182  1.00  0.00     0.124 A 
ATOM     33  F   UNL A   1      33.238  31.402  28.213  1.00  0.00    -0.207 F 
ENDBRANCH  18  26
ENDBRANCH   6   8
ENDBRANCH   5   6
ENDBRANCH   4   5
ENDBRANCH   3   4
ENDBRANCH   2   3
ENDBRANCH   1   2
BRANCH   1  34
ATOM     34  C   UNL A   1      37.261  22.699  25.076  1.00  0.00     0.188 C 
BRANCH  34  35
ATOM     35  O   UNL A   1      37.909  21.684  25.818  1.00  0.00    -0.376 OA
BRANCH  35  36
ATOM     36  C   UNL A   1      39.263  21.901  26.215  1.00  0.00     0.202 C 
BRANCH  36  37
ATOM     37  C   UNL A   1      39.732  23.359  26.396  1.00  0.00     0.261 C 
BRANCH  37  38
ATOM     38  O   UNL A   1      40.960  23.564  27.137  1.00  0.00    -0.460 OA
BRANCH  38  39
ATOM     39  C   UNL A   1      41.712  24.659  26.860  1.00  0.00     0.338 C 
ATOM     40  O   UNL A   1      42.340  24.864  25.842  1.00  0.00    -0.246 OA
BRANCH  39  41
ATOM     41  C   UNL A   1      41.404  25.718  27.873  1.00  0.00     0.060 A 
ATOM     42  C   UNL A   1      42.331  26.761  28.032  1.00  0.00     0.016 A 
ATOM     43  C   UNL A   1      40.196  25.765  28.577  1.00  0.00     0.016 A 
ATOM     44  C   UNL A   1      42.079  27.815  28.917  1.00  0.00     0.010 A 
ATOM     45  C   UNL A   1      39.949  26.814  29.476  1.00  0.00     0.010 A 
ATOM     46  C   UNL A   1      40.903  27.828  29.680  1.00  0.00    -0.014 A 
BRANCH  46  47
ATOM     47  C   UNL A   1      40.773  28.763  30.832  1.00  0.00     0.031 A 
ATOM     48  C   UNL A   1      39.719  29.838  30.756  1.00  0.00     0.074 A 
ATOM     49  C   UNL A   1      41.534  28.665  31.939  1.00  0.00     0.049 A 
ATOM     50  N   UNL A   1      39.434  30.790  31.609  1.00  0.00    -0.248 NA
ATOM     51  C   UNL A   1      38.871  29.835  29.553  1.00  0.00     0.031 C 
ATOM     52  C   UNL A   1      42.554  27.648  32.186  1.00  0.00     0.029 A 
ATOM     53  N   UNL A   1      41.560  29.448  33.070  1.00  0.00    -0.354 N 
ATOM     54  C   UNL A   1      38.385  31.503  31.040  1.00  0.00     0.074 A 
ATOM     55  C   UNL A   1      38.105  30.894  29.759  1.00  0.00     0.031 C 
ATOM     56  C   UNL A   1      43.111  27.875  33.391  1.00  0.00     0.029 A 
ATOM     57  C   UNL A   1      42.515  29.072  33.984  1.00  0.00     0.049 A 
ATOM     58  H   UNL A   1      40.949  30.207  33.212  1.00  0.00     0.167 HD
ATOM     59  C   UNL A   1      37.708  32.566  31.535  1.00  0.00     0.031 A 
ATOM     60  C   UNL A   1      42.885  29.641  35.152  1.00  0.00     0.031 A 
ATOM     61  C   UNL A   1      37.986  33.193  32.798  1.00  0.00     0.049 A 
ATOM     62  C   UNL A   1      42.184  30.888  35.636  1.00  0.00     0.074 A 
ATOM     63  C   UNL A   1      37.340  34.269  33.385  1.00  0.00     0.029 A 
ATOM     64  N   UNL A   1      39.000  32.814  33.664  1.00  0.00    -0.354 N 
ATOM     65  N   UNL A   1      41.176  31.534  35.102  1.00  0.00    -0.248 NA
ATOM     66  C   UNL A   1      42.675  31.481  36.890  1.00  0.00     0.031 C 
ATOM     67  C   UNL A   1      38.007  34.584  34.573  1.00  0.00     0.029 A 
ATOM     68  C   UNL A   1      39.020  33.657  34.762  1.00  0.00     0.049 A 
ATOM     69  H   UNL A   1      39.612  32.058  33.520  1.00  0.00     0.167 HD
ATOM     70  C   UNL A   1      40.895  32.586  35.968  1.00  0.00     0.074 A 
ATOM     71  C   UNL A   1      41.825  32.482  37.071  1.00  0.00     0.031 C 
ATOM     72  C   UNL A   1      39.948  33.552  35.858  1.00  0.00     0.031 A 
BRANCH  59  73
ATOM     73  C   UNL A   1      36.618  33.149  30.678  1.00  0.00    -0.014 A 
ATOM     74  C   UNL A   1      36.911  33.923  29.544  1.00  0.00     0.009 A 
ATOM     75  C   UNL A   1      35.275  32.893  30.997  1.00  0.00     0.009 A 
ATOM     76  C   UNL A   1      35.880  34.458  28.769  1.00  0.00     0.001 A 
ATOM     77  C   UNL A   1      34.248  33.402  30.201  1.00  0.00     0.001 A 
ATOM     78  C   UNL A   1      34.551  34.193  29.095  1.00  0.00     0.000 A 
ENDBRANCH  59  73
BRANCH  60  79
ATOM     79  C   UNL A   1      44.004  29.065  35.949  1.00  0.00    -0.014 A 
ATOM     80  C   UNL A   1      45.317  29.535  35.791  1.00  0.00     0.009 A 
ATOM     81  C   UNL A   1      43.771  28.001  36.836  1.00  0.00     0.009 A 
ATOM     82  C   UNL A   1      46.374  28.935  36.482  1.00  0.00     0.001 A 
ATOM     83  C   UNL A   1      44.824  27.426  37.551  1.00  0.00     0.001 A 
ATOM     84  C   UNL A   1      46.126  27.886  37.365  1.00  0.00     0.000 A 
ENDBRANCH  60  79
BRANCH  72  85
ATOM     85  C   UNL A   1      39.839  34.556  36.975  1.00  0.00    -0.014 A 
ATOM     86  C   UNL A   1      39.064  34.302  38.118  1.00  0.00     0.009 A 
ATOM     87  C   UNL A   1      40.566  35.756  36.904  1.00  0.00     0.009 A 
ATOM     88  C   UNL A   1      38.994  35.243  39.149  1.00  0.00     0.001 A 
ATOM     89  C   UNL A   1      40.521  36.680  37.950  1.00  0.00     0.001 A 
ATOM     90  C   UNL A   1      39.727  36.427  39.068  1.00  0.00     0.000 A 
ENDBRANCH  72  85
ENDBRANCH  46  47
ENDBRANCH  39  41
ENDBRANCH  38  39
ENDBRANCH  37  38
ENDBRANCH  36  37
ENDBRANCH  35  36
ENDBRANCH  34  35
ENDBRANCH   1  34
TORSDOF 22
ENDMDL
