MODEL 1
REMARK VINA RESULT:     -10.0      0.000      0.000
REMARK SMILES COc1ccc(/C=C/c2nc(C(=O)OCCOCCOCCOC(=O)c3ccc(-c4c5nc(c(-c6ccccc6)c6ccc([nH]6)c(-c6ccccc6)c6nc(c(-c7ccccc7)c7ccc4[nH]7)C=C6)C=C5)cc3)ccc2C#N)cc1F
REMARK SMILES IDX 18 1 17 2 16 3 15 4 14 5 12 6 13 7 11 8 9 9 10 10 76 11
REMARK SMILES IDX 75 12 74 13 8 14 7 15 6 16 3 17 4 18 80 19 5 20 79 21 81 22
REMARK SMILES IDX 2 23 1 24 77 25 78 26 19 27 20 28 21 29 22 30 23 31 24 32
REMARK SMILES IDX 25 33 26 34 27 35 73 36 28 37 72 38 29 39 30 40 31 41 66 42
REMARK SMILES IDX 32 43 71 44 65 45 67 46 33 47 70 48 64 49 63 50 34 52 56 53
REMARK SMILES IDX 41 54 55 55 42 56 45 57 54 58 68 59 43 60 44 61 53 63 69 64
REMARK SMILES IDX 46 65 35 66 36 67 40 68 37 69 39 70 38 71 57 72 58 73 62 74
REMARK SMILES IDX 59 75 61 76 60 77 47 78 48 79 52 80 49 81 51 82 50 83
REMARK H PARENT 67 51 45 62
REMARK Flexibility Score: inf
ROOT
ATOM      1  C   UNL A   1      43.600  19.037  25.734  1.00  0.00     0.188 C 
ENDROOT
BRANCH   1   2
ATOM      2  O   UNL A   1      42.262  19.280  25.362  1.00  0.00    -0.376 OA
BRANCH   2   3
ATOM      3  C   UNL A   1      41.260  19.466  26.350  1.00  0.00     0.202 C 
BRANCH   3   4
ATOM      4  C   UNL A   1      40.719  20.835  26.812  1.00  0.00     0.261 C 
BRANCH   4   5
ATOM      5  O   UNL A   1      40.052  21.645  25.835  1.00  0.00    -0.459 OA
BRANCH   5   6
ATOM      6  C   UNL A   1      39.203  22.591  26.327  1.00  0.00     0.357 C 
ATOM      7  O   UNL A   1      39.522  23.579  26.968  1.00  0.00    -0.244 OA
BRANCH   6   8
ATOM      8  C   UNL A   1      37.819  22.334  25.818  1.00  0.00     0.149 A 
ATOM      9  C   UNL A   1      35.667  23.188  25.527  1.00  0.00     0.082 A 
ATOM     10  N   UNL A   1      36.941  23.367  25.959  1.00  0.00    -0.240 NA
ATOM     11  C   UNL A   1      35.243  22.003  24.920  1.00  0.00     0.078 A 
ATOM     12  C   UNL A   1      36.181  20.977  24.739  1.00  0.00     0.024 A 
ATOM     13  C   UNL A   1      37.489  21.140  25.192  1.00  0.00     0.037 A 
BRANCH   9  14
ATOM     14  C   UNL A   1      34.802  24.360  25.742  1.00  0.00     0.030 C 
ATOM     15  C   UNL A   1      34.491  25.200  24.740  1.00  0.00     0.010 C 
BRANCH  15  16
ATOM     16  C   UNL A   1      33.624  26.390  24.794  1.00  0.00    -0.022 A 
ATOM     17  C   UNL A   1      32.038  28.730  24.721  1.00  0.00     0.154 A 
ATOM     18  C   UNL A   1      31.800  27.746  25.680  1.00  0.00     0.050 A 
ATOM     19  C   UNL A   1      33.100  28.566  23.837  1.00  0.00     0.165 A 
ATOM     20  C   UNL A   1      32.581  26.578  25.712  1.00  0.00     0.012 A 
ATOM     21  C   UNL A   1      33.882  27.413  23.869  1.00  0.00     0.051 A 
ATOM     22  F   UNL A   1      33.415  29.515  22.945  1.00  0.00    -0.203 F 
BRANCH  17  23
ATOM     23  O   UNL A   1      31.227  29.833  24.760  1.00  0.00    -0.494 OA
ATOM     24  C   UNL A   1      30.088  29.721  23.908  1.00  0.00     0.278 C 
ENDBRANCH  17  23
ENDBRANCH  15  16
ENDBRANCH   9  14
BRANCH  11  25
ATOM     25  C   UNL A   1      33.893  21.801  24.494  1.00  0.00     0.101 C 
ATOM     26  N   UNL A   1      32.800  21.667  24.123  1.00  0.00    -0.192 NA
ENDBRANCH  11  25
ENDBRANCH   6   8
ENDBRANCH   5   6
ENDBRANCH   4   5
ENDBRANCH   3   4
ENDBRANCH   2   3
ENDBRANCH   1   2
BRANCH   1  27
ATOM     27  C   UNL A   1      44.707  19.217  24.675  1.00  0.00     0.188 C 
BRANCH  27  28
ATOM     28  O   UNL A   1      45.369  20.457  24.616  1.00  0.00    -0.376 OA
BRANCH  28  29
ATOM     29  C   UNL A   1      44.702  21.634  25.047  1.00  0.00     0.202 C 
BRANCH  29  30
ATOM     30  C   UNL A   1      43.699  22.473  24.222  1.00  0.00     0.261 C 
BRANCH  30  31
ATOM     31  O   UNL A   1      43.419  23.817  24.631  1.00  0.00    -0.460 OA
BRANCH  31  32
ATOM     32  C   UNL A   1      44.479  24.533  25.081  1.00  0.00     0.338 C 
ATOM     33  O   UNL A   1      45.570  24.653  24.551  1.00  0.00    -0.246 OA
BRANCH  32  34
ATOM     34  C   UNL A   1      44.053  25.330  26.248  1.00  0.00     0.060 A 
ATOM     35  C   UNL A   1      43.174  24.764  27.184  1.00  0.00     0.016 A 
ATOM     36  C   UNL A   1      44.495  26.643  26.394  1.00  0.00     0.016 A 
ATOM     37  C   UNL A   1      42.736  25.512  28.278  1.00  0.00     0.010 A 
ATOM     38  C   UNL A   1      44.029  27.400  27.471  1.00  0.00     0.010 A 
ATOM     39  C   UNL A   1      43.133  26.848  28.406  1.00  0.00    -0.014 A 
BRANCH  39  40
ATOM     40  C   UNL A   1      42.496  27.728  29.413  1.00  0.00     0.031 A 
ATOM     41  C   UNL A   1      43.150  27.869  30.759  1.00  0.00     0.074 A 
ATOM     42  C   UNL A   1      41.345  28.373  29.152  1.00  0.00     0.049 A 
ATOM     43  N   UNL A   1      42.714  28.469  31.837  1.00  0.00    -0.248 NA
ATOM     44  C   UNL A   1      44.473  27.240  30.910  1.00  0.00     0.031 C 
ATOM     45  C   UNL A   1      40.642  28.369  27.870  1.00  0.00     0.029 A 
ATOM     46  N   UNL A   1      40.556  29.144  29.968  1.00  0.00    -0.354 N 
ATOM     47  C   UNL A   1      43.697  28.272  32.799  1.00  0.00     0.074 A 
ATOM     48  C   UNL A   1      44.737  27.475  32.186  1.00  0.00     0.031 C 
ATOM     49  C   UNL A   1      39.511  29.086  27.994  1.00  0.00     0.029 A 
ATOM     50  C   UNL A   1      39.389  29.557  29.372  1.00  0.00     0.049 A 
ATOM     51  H   UNL A   1      40.801  29.378  30.893  1.00  0.00     0.167 HD
ATOM     52  C   UNL A   1      43.729  28.715  34.078  1.00  0.00     0.031 A 
ATOM     53  C   UNL A   1      38.327  30.205  29.891  1.00  0.00     0.031 A 
ATOM     54  C   UNL A   1      42.681  29.488  34.690  1.00  0.00     0.049 A 
ATOM     55  C   UNL A   1      38.338  30.594  31.348  1.00  0.00     0.074 A 
ATOM     56  C   UNL A   1      42.625  29.994  35.977  1.00  0.00     0.029 A 
ATOM     57  N   UNL A   1      41.501  29.855  34.062  1.00  0.00    -0.354 N 
ATOM     58  N   UNL A   1      39.278  30.422  32.246  1.00  0.00    -0.248 NA
ATOM     59  C   UNL A   1      37.138  31.273  31.863  1.00  0.00     0.031 C 
ATOM     60  C   UNL A   1      41.377  30.601  36.151  1.00  0.00     0.029 A 
ATOM     61  C   UNL A   1      40.694  30.551  34.947  1.00  0.00     0.049 A 
ATOM     62  H   UNL A   1      41.270  29.651  33.126  1.00  0.00     0.167 HD
ATOM     63  C   UNL A   1      38.802  31.006  33.415  1.00  0.00     0.074 A 
ATOM     64  C   UNL A   1      37.494  31.547  33.110  1.00  0.00     0.031 C 
ATOM     65  C   UNL A   1      39.397  31.093  34.630  1.00  0.00     0.031 A 
BRANCH  52  66
ATOM     66  C   UNL A   1      44.918  28.333  34.916  1.00  0.00    -0.014 A 
ATOM     67  C   UNL A   1      45.939  29.252  35.208  1.00  0.00     0.009 A 
ATOM     68  C   UNL A   1      45.002  27.037  35.452  1.00  0.00     0.009 A 
ATOM     69  C   UNL A   1      47.035  28.870  35.984  1.00  0.00     0.001 A 
ATOM     70  C   UNL A   1      46.080  26.669  36.257  1.00  0.00     0.001 A 
ATOM     71  C   UNL A   1      47.102  27.582  36.514  1.00  0.00     0.000 A 
ENDBRANCH  52  66
BRANCH  53  72
ATOM     72  C   UNL A   1      37.142  30.506  29.041  1.00  0.00    -0.014 A 
ATOM     73  C   UNL A   1      36.866  31.822  28.639  1.00  0.00     0.009 A 
ATOM     74  C   UNL A   1      36.261  29.484  28.655  1.00  0.00     0.009 A 
ATOM     75  C   UNL A   1      35.717  32.112  27.899  1.00  0.00     0.001 A 
ATOM     76  C   UNL A   1      35.133  29.770  27.882  1.00  0.00     0.001 A 
ATOM     77  C   UNL A   1      34.855  31.085  27.516  1.00  0.00     0.000 A 
ENDBRANCH  53  72
BRANCH  65  78
ATOM     78  C   UNL A   1      38.676  31.851  35.713  1.00  0.00    -0.014 A 
ATOM     79  C   UNL A   1      38.421  33.227  35.609  1.00  0.00     0.009 A 
ATOM     80  C   UNL A   1      38.185  31.154  36.830  1.00  0.00     0.009 A 
ATOM     81  C   UNL A   1      37.717  33.892  36.615  1.00  0.00     0.001 A 
ATOM     82  C   UNL A   1      37.450  31.813  37.814  1.00  0.00     0.001 A 
ATOM     83  C   UNL A   1      37.224  33.184  37.712  1.00  0.00     0.000 A 
ENDBRANCH  65  78
ENDBRANCH  39  40
ENDBRANCH  32  34
ENDBRANCH  31  32
ENDBRANCH  30  31
ENDBRANCH  29  30
ENDBRANCH  28  29
ENDBRANCH  27  28
ENDBRANCH   1  27
TORSDOF 21
ENDMDL
MODEL 2
REMARK VINA RESULT:      -9.8      4.922      9.947
REMARK SMILES COc1ccc(/C=C/c2nc(C(=O)OCCOCCOCCOC(=O)c3ccc(-c4c5nc(c(-c6ccccc6)c6ccc([nH]6)c(-c6ccccc6)c6nc(c(-c7ccccc7)c7ccc4[nH]7)C=C6)C=C5)cc3)ccc2C#N)cc1F
REMARK SMILES IDX 18 1 17 2 16 3 15 4 14 5 12 6 13 7 11 8 9 9 10 10 76 11
REMARK SMILES IDX 75 12 74 13 8 14 7 15 6 16 3 17 4 18 80 19 5 20 79 21 81 22
REMARK SMILES IDX 2 23 1 24 77 25 78 26 19 27 20 28 21 29 22 30 23 31 24 32
REMARK SMILES IDX 25 33 26 34 27 35 73 36 28 37 72 38 29 39 30 40 31 41 66 42
REMARK SMILES IDX 32 43 71 44 65 45 67 46 33 47 70 48 64 49 63 50 34 52 56 53
REMARK SMILES IDX 41 54 55 55 42 56 45 57 54 58 68 59 43 60 44 61 53 63 69 64
REMARK SMILES IDX 46 65 35 66 36 67 40 68 37 69 39 70 38 71 57 72 58 73 62 74
REMARK SMILES IDX 59 75 61 76 60 77 47 78 48 79 52 80 49 81 51 82 50 83
REMARK H PARENT 67 51 45 62
REMARK Flexibility Score: inf
ROOT
ATOM      1  C   UNL A   1      31.452  28.334  24.267  1.00  0.00     0.188 C 
ENDROOT
BRANCH   1   2
ATOM      2  O   UNL A   1      30.931  27.259  25.016  1.00  0.00    -0.376 OA
BRANCH   2   3
ATOM      3  C   UNL A   1      29.979  26.375  24.444  1.00  0.00     0.202 C 
BRANCH   3   4
ATOM      4  C   UNL A   1      30.187  24.859  24.250  1.00  0.00     0.261 C 
BRANCH   4   5
ATOM      5  O   UNL A   1      30.571  24.407  22.944  1.00  0.00    -0.459 OA
BRANCH   5   6
ATOM      6  C   UNL A   1      31.687  24.986  22.420  1.00  0.00     0.357 C 
ATOM      7  O   UNL A   1      31.718  25.767  21.483  1.00  0.00    -0.244 OA
BRANCH   6   8
ATOM      8  C   UNL A   1      32.870  24.659  23.276  1.00  0.00     0.149 A 
ATOM      9  C   UNL A   1      34.128  22.975  24.289  1.00  0.00     0.082 A 
ATOM     10  N   UNL A   1      33.078  23.332  23.507  1.00  0.00    -0.240 NA
ATOM     11  C   UNL A   1      35.011  23.914  24.830  1.00  0.00     0.078 A 
ATOM     12  C   UNL A   1      34.804  25.268  24.532  1.00  0.00     0.024 A 
ATOM     13  C   UNL A   1      33.721  25.652  23.744  1.00  0.00     0.037 A 
BRANCH   9  14
ATOM     14  C   UNL A   1      34.250  21.521  24.485  1.00  0.00     0.030 C 
ATOM     15  C   UNL A   1      33.186  20.706  24.398  1.00  0.00     0.010 C 
BRANCH  15  16
ATOM     16  C   UNL A   1      33.155  19.239  24.543  1.00  0.00    -0.022 A 
ATOM     17  C   UNL A   1      33.208  16.415  24.656  1.00  0.00     0.154 A 
ATOM     18  C   UNL A   1      32.697  17.154  25.722  1.00  0.00     0.050 A 
ATOM     19  C   UNL A   1      33.640  17.087  23.517  1.00  0.00     0.165 A 
ATOM     20  C   UNL A   1      32.679  18.558  25.672  1.00  0.00     0.012 A 
ATOM     21  C   UNL A   1      33.618  18.478  23.459  1.00  0.00     0.051 A 
ATOM     22  F   UNL A   1      34.071  16.419  22.437  1.00  0.00    -0.203 F 
BRANCH  17  23
ATOM     23  O   UNL A   1      33.192  15.052  24.791  1.00  0.00    -0.494 OA
ATOM     24  C   UNL A   1      32.575  14.616  26.002  1.00  0.00     0.278 C 
ENDBRANCH  17  23
ENDBRANCH  15  16
ENDBRANCH   9  14
BRANCH  11  25
ATOM     25  C   UNL A   1      36.099  23.542  25.680  1.00  0.00     0.101 C 
ATOM     26  N   UNL A   1      36.965  23.258  26.401  1.00  0.00    -0.192 NA
ENDBRANCH  11  25
ENDBRANCH   6   8
ENDBRANCH   5   6
ENDBRANCH   4   5
ENDBRANCH   3   4
ENDBRANCH   2   3
ENDBRANCH   1   2
BRANCH   1  27
ATOM     27  C   UNL A   1      31.050  29.771  24.657  1.00  0.00     0.188 C 
BRANCH  27  28
ATOM     28  O   UNL A   1      31.443  30.247  25.921  1.00  0.00    -0.376 OA
BRANCH  28  29
ATOM     29  C   UNL A   1      32.813  30.512  26.181  1.00  0.00     0.202 C 
BRANCH  29  30
ATOM     30  C   UNL A   1      33.477  30.628  27.572  1.00  0.00     0.261 C 
BRANCH  30  31
ATOM     31  O   UNL A   1      34.549  31.559  27.753  1.00  0.00    -0.460 OA
BRANCH  31  32
ATOM     32  C   UNL A   1      35.101  31.595  28.992  1.00  0.00     0.338 C 
ATOM     33  O   UNL A   1      34.619  32.075  30.004  1.00  0.00    -0.246 OA
BRANCH  32  34
ATOM     34  C   UNL A   1      36.329  30.776  28.989  1.00  0.00     0.060 A 
ATOM     35  C   UNL A   1      36.839  30.295  30.204  1.00  0.00     0.016 A 
ATOM     36  C   UNL A   1      36.989  30.515  27.790  1.00  0.00     0.016 A 
ATOM     37  C   UNL A   1      38.016  29.545  30.224  1.00  0.00     0.010 A 
ATOM     38  C   UNL A   1      38.184  29.792  27.816  1.00  0.00     0.010 A 
ATOM     39  C   UNL A   1      38.714  29.321  29.032  1.00  0.00    -0.014 A 
BRANCH  39  40
ATOM     40  C   UNL A   1      40.077  28.742  29.057  1.00  0.00     0.031 A 
ATOM     41  C   UNL A   1      41.237  29.649  29.359  1.00  0.00     0.074 A 
ATOM     42  C   UNL A   1      40.290  27.440  28.794  1.00  0.00     0.049 A 
ATOM     43  N   UNL A   1      42.521  29.403  29.305  1.00  0.00    -0.248 NA
ATOM     44  C   UNL A   1      40.901  31.023  29.769  1.00  0.00     0.031 C 
ATOM     45  C   UNL A   1      39.250  26.443  28.547  1.00  0.00     0.029 A 
ATOM     46  N   UNL A   1      41.465  26.741  28.672  1.00  0.00    -0.354 N 
ATOM     47  C   UNL A   1      43.145  30.595  29.652  1.00  0.00     0.074 A 
ATOM     48  C   UNL A   1      42.101  31.569  29.887  1.00  0.00     0.031 C 
ATOM     49  C   UNL A   1      39.836  25.262  28.281  1.00  0.00     0.029 A 
ATOM     50  C   UNL A   1      41.288  25.433  28.291  1.00  0.00     0.049 A 
ATOM     51  H   UNL A   1      42.350  27.138  28.840  1.00  0.00     0.167 HD
ATOM     52  C   UNL A   1      44.469  30.855  29.765  1.00  0.00     0.031 A 
ATOM     53  C   UNL A   1      42.193  24.494  27.951  1.00  0.00     0.031 A 
ATOM     54  C   UNL A   1      45.505  29.890  29.507  1.00  0.00     0.049 A 
ATOM     55  C   UNL A   1      43.661  24.838  27.978  1.00  0.00     0.074 A 
ATOM     56  C   UNL A   1      46.876  30.052  29.603  1.00  0.00     0.029 A 
ATOM     57  N   UNL A   1      45.283  28.587  29.089  1.00  0.00    -0.354 N 
ATOM     58  N   UNL A   1      44.244  25.960  28.326  1.00  0.00    -0.248 NA
ATOM     59  C   UNL A   1      44.599  23.780  27.568  1.00  0.00     0.031 C 
ATOM     60  C   UNL A   1      47.485  28.871  29.170  1.00  0.00     0.029 A 
ATOM     61  C   UNL A   1      46.494  27.944  28.889  1.00  0.00     0.049 A 
ATOM     62  H   UNL A   1      44.397  28.178  28.954  1.00  0.00     0.167 HD
ATOM     63  C   UNL A   1      45.612  25.730  28.218  1.00  0.00     0.074 A 
ATOM     64  C   UNL A   1      45.772  24.358  27.782  1.00  0.00     0.031 C 
ATOM     65  C   UNL A   1      46.642  26.576  28.464  1.00  0.00     0.031 A 
BRANCH  52  66
ATOM     66  C   UNL A   1      44.874  32.254  30.139  1.00  0.00    -0.014 A 
ATOM     67  C   UNL A   1      45.088  33.244  29.166  1.00  0.00     0.009 A 
ATOM     68  C   UNL A   1      45.010  32.599  31.494  1.00  0.00     0.009 A 
ATOM     69  C   UNL A   1      45.468  34.534  29.540  1.00  0.00     0.001 A 
ATOM     70  C   UNL A   1      45.354  33.898  31.867  1.00  0.00     0.001 A 
ATOM     71  C   UNL A   1      45.594  34.863  30.889  1.00  0.00     0.000 A 
ENDBRANCH  52  66
BRANCH  53  72
ATOM     72  C   UNL A   1      41.746  23.140  27.522  1.00  0.00    -0.014 A 
ATOM     73  C   UNL A   1      40.746  22.992  26.549  1.00  0.00     0.009 A 
ATOM     74  C   UNL A   1      42.295  21.988  28.108  1.00  0.00     0.009 A 
ATOM     75  C   UNL A   1      40.280  21.721  26.198  1.00  0.00     0.001 A 
ATOM     76  C   UNL A   1      41.855  20.718  27.727  1.00  0.00     0.001 A 
ATOM     77  C   UNL A   1      40.839  20.586  26.782  1.00  0.00     0.000 A 
ENDBRANCH  53  72
BRANCH  65  78
ATOM     78  C   UNL A   1      48.042  26.036  28.331  1.00  0.00    -0.014 A 
ATOM     79  C   UNL A   1      48.708  26.007  27.096  1.00  0.00     0.009 A 
ATOM     80  C   UNL A   1      48.727  25.610  29.481  1.00  0.00     0.009 A 
ATOM     81  C   UNL A   1      50.021  25.534  27.014  1.00  0.00     0.001 A 
ATOM     82  C   UNL A   1      50.049  25.174  29.402  1.00  0.00     0.001 A 
ATOM     83  C   UNL A   1      50.693  25.127  28.167  1.00  0.00     0.000 A 
ENDBRANCH  65  78
ENDBRANCH  39  40
ENDBRANCH  32  34
ENDBRANCH  31  32
ENDBRANCH  30  31
ENDBRANCH  29  30
ENDBRANCH  28  29
ENDBRANCH  27  28
ENDBRANCH   1  27
TORSDOF 21
ENDMDL
MODEL 3
REMARK VINA RESULT:      -9.5      4.835     11.438
REMARK SMILES COc1ccc(/C=C/c2nc(C(=O)OCCOCCOCCOC(=O)c3ccc(-c4c5nc(c(-c6ccccc6)c6ccc([nH]6)c(-c6ccccc6)c6nc(c(-c7ccccc7)c7ccc4[nH]7)C=C6)C=C5)cc3)ccc2C#N)cc1F
REMARK SMILES IDX 18 1 17 2 16 3 15 4 14 5 12 6 13 7 11 8 9 9 10 10 76 11
REMARK SMILES IDX 75 12 74 13 8 14 7 15 6 16 3 17 4 18 80 19 5 20 79 21 81 22
REMARK SMILES IDX 2 23 1 24 77 25 78 26 19 27 20 28 21 29 22 30 23 31 24 32
REMARK SMILES IDX 25 33 26 34 27 35 73 36 28 37 72 38 29 39 30 40 31 41 66 42
REMARK SMILES IDX 32 43 71 44 65 45 67 46 33 47 70 48 64 49 63 50 34 52 56 53
REMARK SMILES IDX 41 54 55 55 42 56 45 57 54 58 68 59 43 60 44 61 53 63 69 64
REMARK SMILES IDX 46 65 35 66 36 67 40 68 37 69 39 70 38 71 57 72 58 73 62 74
REMARK SMILES IDX 59 75 61 76 60 77 47 78 48 79 52 80 49 81 51 82 50 83
REMARK H PARENT 67 51 45 62
REMARK Flexibility Score: inf
ROOT
ATOM      1  C   UNL A   1      33.576  36.917  32.497  1.00  0.00     0.188 C 
ENDROOT
BRANCH   1   2
ATOM      2  O   UNL A   1      32.693  36.539  31.465  1.00  0.00    -0.376 OA
BRANCH   2   3
ATOM      3  C   UNL A   1      32.946  36.924  30.123  1.00  0.00     0.202 C 
BRANCH   3   4
ATOM      4  C   UNL A   1      33.140  35.946  28.945  1.00  0.00     0.261 C 
BRANCH   4   5
ATOM      5  O   UNL A   1      33.100  34.543  29.238  1.00  0.00    -0.459 OA
BRANCH   5   6
ATOM      6  C   UNL A   1      32.929  33.717  28.168  1.00  0.00     0.357 C 
ATOM      7  O   UNL A   1      32.073  33.827  27.306  1.00  0.00    -0.244 OA
BRANCH   6   8
ATOM      8  C   UNL A   1      34.063  32.743  28.102  1.00  0.00     0.149 A 
ATOM      9  C   UNL A   1      34.723  30.562  27.599  1.00  0.00     0.082 A 
ATOM     10  N   UNL A   1      33.738  31.493  27.666  1.00  0.00    -0.240 NA
ATOM     11  C   UNL A   1      36.050  30.852  27.928  1.00  0.00     0.078 A 
ATOM     12  C   UNL A   1      36.366  32.159  28.322  1.00  0.00     0.024 A 
ATOM     13  C   UNL A   1      35.362  33.123  28.411  1.00  0.00     0.037 A 
BRANCH   9  14
ATOM     14  C   UNL A   1      34.259  29.245  27.131  1.00  0.00     0.030 C 
ATOM     15  C   UNL A   1      33.001  29.052  26.701  1.00  0.00     0.010 C 
BRANCH  15  16
ATOM     16  C   UNL A   1      32.402  27.809  26.183  1.00  0.00    -0.022 A 
ATOM     17  C   UNL A   1      31.383  25.324  25.303  1.00  0.00     0.154 A 
ATOM     18  C   UNL A   1      30.715  26.509  24.995  1.00  0.00     0.050 A 
ATOM     19  C   UNL A   1      32.584  25.390  26.001  1.00  0.00     0.165 A 
ATOM     20  C   UNL A   1      31.215  27.744  25.440  1.00  0.00     0.012 A 
ATOM     21  C   UNL A   1      33.088  26.612  26.439  1.00  0.00     0.051 A 
ATOM     22  F   UNL A   1      33.301  24.286  26.258  1.00  0.00    -0.203 F 
BRANCH  17  23
ATOM     23  O   UNL A   1      30.824  24.165  24.833  1.00  0.00    -0.494 OA
ATOM     24  C   UNL A   1      30.988  23.995  23.425  1.00  0.00     0.278 C 
ENDBRANCH  17  23
ENDBRANCH  15  16
ENDBRANCH   9  14
BRANCH  11  25
ATOM     25  C   UNL A   1      37.083  29.864  27.889  1.00  0.00     0.101 C 
ATOM     26  N   UNL A   1      37.895  29.034  27.847  1.00  0.00    -0.192 NA
ENDBRANCH  11  25
ENDBRANCH   6   8
ENDBRANCH   5   6
ENDBRANCH   4   5
ENDBRANCH   3   4
ENDBRANCH   2   3
ENDBRANCH   1   2
BRANCH   1  27
ATOM     27  C   UNL A   1      34.410  35.823  33.195  1.00  0.00     0.188 C 
BRANCH  27  28
ATOM     28  O   UNL A   1      35.013  34.838  32.391  1.00  0.00    -0.376 OA
BRANCH  28  29
ATOM     29  C   UNL A   1      34.900  33.469  32.751  1.00  0.00     0.202 C 
BRANCH  29  30
ATOM     30  C   UNL A   1      35.963  32.626  33.495  1.00  0.00     0.261 C 
BRANCH  30  31
ATOM     31  O   UNL A   1      37.161  32.256  32.804  1.00  0.00    -0.460 OA
BRANCH  31  32
ATOM     32  C   UNL A   1      37.272  30.945  32.471  1.00  0.00     0.338 C 
ATOM     33  O   UNL A   1      36.398  30.097  32.502  1.00  0.00    -0.246 OA
BRANCH  32  34
ATOM     34  C   UNL A   1      38.598  30.721  31.863  1.00  0.00     0.060 A 
ATOM     35  C   UNL A   1      38.885  31.282  30.609  1.00  0.00     0.016 A 
ATOM     36  C   UNL A   1      39.540  29.931  32.518  1.00  0.00     0.016 A 
ATOM     37  C   UNL A   1      40.122  31.056  30.005  1.00  0.00     0.010 A 
ATOM     38  C   UNL A   1      40.765  29.679  31.896  1.00  0.00     0.010 A 
ATOM     39  C   UNL A   1      41.056  30.222  30.630  1.00  0.00    -0.014 A 
BRANCH  39  40
ATOM     40  C   UNL A   1      42.268  29.774  29.905  1.00  0.00     0.031 A 
ATOM     41  C   UNL A   1      42.287  28.386  29.329  1.00  0.00     0.074 A 
ATOM     42  C   UNL A   1      43.343  30.571  29.780  1.00  0.00     0.049 A 
ATOM     43  N   UNL A   1      43.274  27.730  28.775  1.00  0.00    -0.248 NA
ATOM     44  C   UNL A   1      41.022  27.636  29.392  1.00  0.00     0.031 C 
ATOM     45  C   UNL A   1      43.431  31.957  30.239  1.00  0.00     0.029 A 
ATOM     46  N   UNL A   1      44.579  30.315  29.241  1.00  0.00    -0.354 N 
ATOM     47  C   UNL A   1      42.756  26.483  28.446  1.00  0.00     0.074 A 
ATOM     48  C   UNL A   1      41.378  26.466  28.885  1.00  0.00     0.031 C 
ATOM     49  C   UNL A   1      44.666  32.422  29.981  1.00  0.00     0.029 A 
ATOM     50  C   UNL A   1      45.467  31.354  29.384  1.00  0.00     0.049 A 
ATOM     51  H   UNL A   1      44.808  29.468  28.794  1.00  0.00     0.167 HD
ATOM     52  C   UNL A   1      43.374  25.446  27.832  1.00  0.00     0.031 A 
ATOM     53  C   UNL A   1      46.783  31.420  29.104  1.00  0.00     0.031 A 
ATOM     54  C   UNL A   1      44.752  25.458  27.418  1.00  0.00     0.049 A 
ATOM     55  C   UNL A   1      47.477  30.215  28.521  1.00  0.00     0.074 A 
ATOM     56  C   UNL A   1      45.468  24.462  26.779  1.00  0.00     0.029 A 
ATOM     57  N   UNL A   1      45.625  26.517  27.614  1.00  0.00    -0.354 N 
ATOM     58  N   UNL A   1      46.977  29.047  28.194  1.00  0.00    -0.248 NA
ATOM     59  C   UNL A   1      48.921  30.339  28.264  1.00  0.00     0.031 C 
ATOM     60  C   UNL A   1      46.794  24.888  26.658  1.00  0.00     0.029 A 
ATOM     61  C   UNL A   1      46.883  26.184  27.140  1.00  0.00     0.049 A 
ATOM     62  H   UNL A   1      45.387  27.379  28.030  1.00  0.00     0.167 HD
ATOM     63  C   UNL A   1      48.031  28.317  27.656  1.00  0.00     0.074 A 
ATOM     64  C   UNL A   1      49.196  29.176  27.691  1.00  0.00     0.031 C 
ATOM     65  C   UNL A   1      48.033  27.051  27.171  1.00  0.00     0.031 A 
BRANCH  52  66
ATOM     66  C   UNL A   1      42.574  24.190  27.616  1.00  0.00    -0.014 A 
ATOM     67  C   UNL A   1      41.924  23.934  26.397  1.00  0.00     0.009 A 
ATOM     68  C   UNL A   1      42.498  23.231  28.637  1.00  0.00     0.009 A 
ATOM     69  C   UNL A   1      41.183  22.763  26.224  1.00  0.00     0.001 A 
ATOM     70  C   UNL A   1      41.788  22.045  28.449  1.00  0.00     0.001 A 
ATOM     71  C   UNL A   1      41.121  21.817  27.246  1.00  0.00     0.000 A 
ENDBRANCH  52  66
BRANCH  53  72
ATOM     72  C   UNL A   1      47.552  32.661  29.396  1.00  0.00    -0.014 A 
ATOM     73  C   UNL A   1      47.683  33.666  28.425  1.00  0.00     0.009 A 
ATOM     74  C   UNL A   1      48.187  32.834  30.636  1.00  0.00     0.009 A 
ATOM     75  C   UNL A   1      48.461  34.800  28.677  1.00  0.00     0.001 A 
ATOM     76  C   UNL A   1      48.932  33.985  30.900  1.00  0.00     0.001 A 
ATOM     77  C   UNL A   1      49.080  34.960  29.916  1.00  0.00     0.000 A 
ENDBRANCH  53  72
BRANCH  65  78
ATOM     78  C   UNL A   1      49.315  26.527  26.578  1.00  0.00    -0.014 A 
ATOM     79  C   UNL A   1      49.726  26.875  25.282  1.00  0.00     0.009 A 
ATOM     80  C   UNL A   1      50.157  25.722  27.363  1.00  0.00     0.009 A 
ATOM     81  C   UNL A   1      50.940  26.402  24.777  1.00  0.00     0.001 A 
ATOM     82  C   UNL A   1      51.385  25.282  26.869  1.00  0.00     0.001 A 
ATOM     83  C   UNL A   1      51.772  25.614  25.572  1.00  0.00     0.000 A 
ENDBRANCH  65  78
ENDBRANCH  39  40
ENDBRANCH  32  34
ENDBRANCH  31  32
ENDBRANCH  30  31
ENDBRANCH  29  30
ENDBRANCH  28  29
ENDBRANCH  27  28
ENDBRANCH   1  27
TORSDOF 21
ENDMDL
