MODEL 1
REMARK VINA RESULT:     -11.6      0.000      0.000
REMARK SMILES O=C(Nc1ccccc1C(=O)OCCOCCOCCOC(=O)c1ccc(-c2c3nc(c(-c4ccccc4)c4ccc([nH]4)c(-c4ccccc4)c4nc(c(-c5ccccc5)c5ccc2[nH]5)C=C4)C=C3)cc1)c1ccc2c(c1)C(=O)N(Cc1ccccc1)C2=O
REMARK SMILES IDX 16 1 15 2 14 3 13 4 12 5 10 6 11 7 9 8 4 9 5 10 6 11 8 12
REMARK SMILES IDX 7 13 3 14 1 15 2 16 72 18 73 19 77 20 74 21 76 22 75 23
REMARK SMILES IDX 78 24 88 25 79 26 80 27 89 28 81 29 82 30 83 31 87 32 84 33
REMARK SMILES IDX 86 34 85 35 17 36 18 37 19 38 20 39 21 40 22 41 23 42 24 43
REMARK SMILES IDX 25 44 71 45 26 46 70 47 27 48 28 49 29 50 64 51 30 52 69 53
REMARK SMILES IDX 63 54 65 55 31 56 68 57 62 58 61 59 32 61 54 62 39 63 53 64
REMARK SMILES IDX 40 65 43 66 52 67 66 68 41 69 42 70 51 72 67 73 44 74 33 75
REMARK SMILES IDX 34 76 38 77 35 78 37 79 36 80 55 81 56 82 60 83 57 84 59 85
REMARK SMILES IDX 58 86 45 87 46 88 50 89 47 90 49 91 48 92
REMARK H PARENT 3 17 65 60 43 71
REMARK Flexibility Score: inf
ROOT
ATOM      1  C   UNL A   1      32.893  20.630  25.407  1.00  0.00     0.188 C 
ENDROOT
BRANCH   1   2
ATOM      2  O   UNL A   1      31.767  21.459  25.197  1.00  0.00    -0.376 OA
BRANCH   2   3
ATOM      3  C   UNL A   1      31.755  22.169  23.966  1.00  0.00     0.202 C 
BRANCH   3   4
ATOM      4  C   UNL A   1      31.362  23.638  24.105  1.00  0.00     0.261 C 
BRANCH   4   5
ATOM      5  O   UNL A   1      32.039  24.416  25.118  1.00  0.00    -0.460 OA
BRANCH   5   6
ATOM      6  C   UNL A   1      33.270  24.929  24.904  1.00  0.00     0.340 C 
ATOM      7  O   UNL A   1      34.344  24.381  25.078  1.00  0.00    -0.246 OA
BRANCH   6   8
ATOM      8  C   UNL A   1      33.116  26.238  24.238  1.00  0.00     0.083 A 
ATOM      9  C   UNL A   1      32.219  27.237  24.647  1.00  0.00     0.056 A 
ATOM     10  C   UNL A   1      31.894  28.235  23.708  1.00  0.00     0.027 A 
ATOM     11  C   UNL A   1      32.523  28.308  22.462  1.00  0.00     0.002 A 
ATOM     12  C   UNL A   1      33.790  26.343  23.002  1.00  0.00     0.018 A 
ATOM     13  C   UNL A   1      33.500  27.382  22.122  1.00  0.00     0.001 A 
BRANCH   9  14
ATOM     14  N   UNL A   1      31.573  27.377  25.897  1.00  0.00    -0.321 N 
ATOM     15  O   UNL A   1      31.132  27.900  28.042  1.00  0.00    -0.269 OA
ATOM     16  C   UNL A   1      31.814  28.107  27.039  1.00  0.00     0.255 C 
ATOM     17  H   UNL A   1      30.761  26.826  25.966  1.00  0.00     0.170 HD
BRANCH  16  18
ATOM     18  C   UNL A   1      32.838  29.164  27.118  1.00  0.00     0.041 A 
ATOM     19  C   UNL A   1      34.198  28.882  27.380  1.00  0.00     0.015 A 
ATOM     20  C   UNL A   1      32.389  30.482  26.980  1.00  0.00     0.028 A 
ATOM     21  C   UNL A   1      35.104  29.932  27.612  1.00  0.00     0.015 A 
ATOM     22  C   UNL A   1      33.280  31.484  27.308  1.00  0.00     0.054 A 
ATOM     23  C   UNL A   1      34.602  31.223  27.614  1.00  0.00     0.053 A 
ATOM     24  C   UNL A   1      33.030  32.899  27.577  1.00  0.00     0.261 C 
ATOM     25  C   UNL A   1      35.215  32.497  28.006  1.00  0.00     0.261 C 
ATOM     26  O   UNL A   1      31.939  33.429  27.471  1.00  0.00    -0.269 OA
ATOM     27  N   UNL A   1      34.215  33.432  27.995  1.00  0.00    -0.270 N 
ATOM     28  O   UNL A   1      36.398  32.638  28.254  1.00  0.00    -0.269 OA
BRANCH  27  29
ATOM     29  C   UNL A   1      34.386  34.826  28.344  1.00  0.00     0.164 C 
BRANCH  29  30
ATOM     30  C   UNL A   1      33.965  35.151  29.761  1.00  0.00    -0.028 A 
ATOM     31  C   UNL A   1      32.873  35.999  29.999  1.00  0.00     0.005 A 
ATOM     32  C   UNL A   1      34.635  34.589  30.860  1.00  0.00     0.005 A 
ATOM     33  C   UNL A   1      32.436  36.246  31.302  1.00  0.00     0.000 A 
ATOM     34  C   UNL A   1      34.197  34.841  32.164  1.00  0.00     0.000 A 
ATOM     35  C   UNL A   1      33.092  35.661  32.384  1.00  0.00     0.000 A 
ENDBRANCH  29  30
ENDBRANCH  27  29
ENDBRANCH  16  18
ENDBRANCH   9  14
ENDBRANCH   6   8
ENDBRANCH   5   6
ENDBRANCH   4   5
ENDBRANCH   3   4
ENDBRANCH   2   3
ENDBRANCH   1   2
BRANCH   1  36
ATOM     36  C   UNL A   1      33.989  21.189  26.342  1.00  0.00     0.188 C 
BRANCH  36  37
ATOM     37  O   UNL A   1      35.352  21.283  25.948  1.00  0.00    -0.376 OA
BRANCH  37  38
ATOM     38  C   UNL A   1      35.885  20.431  24.946  1.00  0.00     0.202 C 
BRANCH  38  39
ATOM     39  C   UNL A   1      37.397  20.194  24.917  1.00  0.00     0.261 C 
BRANCH  39  40
ATOM     40  O   UNL A   1      38.162  21.340  25.309  1.00  0.00    -0.460 OA
BRANCH  40  41
ATOM     41  C   UNL A   1      39.264  21.075  26.049  1.00  0.00     0.338 C 
ATOM     42  O   UNL A   1      39.877  20.023  26.120  1.00  0.00    -0.246 OA
BRANCH  41  43
ATOM     43  C   UNL A   1      39.772  22.339  26.622  1.00  0.00     0.060 A 
ATOM     44  C   UNL A   1      39.170  23.531  26.196  1.00  0.00     0.016 A 
ATOM     45  C   UNL A   1      40.789  22.358  27.583  1.00  0.00     0.016 A 
ATOM     46  C   UNL A   1      39.610  24.752  26.697  1.00  0.00     0.010 A 
ATOM     47  C   UNL A   1      41.254  23.586  28.059  1.00  0.00     0.010 A 
ATOM     48  C   UNL A   1      40.694  24.785  27.582  1.00  0.00    -0.014 A 
BRANCH  48  49
ATOM     49  C   UNL A   1      41.429  26.058  27.748  1.00  0.00     0.031 A 
ATOM     50  C   UNL A   1      40.784  27.113  28.607  1.00  0.00     0.074 A 
ATOM     51  C   UNL A   1      42.635  26.268  27.196  1.00  0.00     0.049 A 
ATOM     52  N   UNL A   1      41.220  28.301  28.931  1.00  0.00    -0.248 NA
ATOM     53  C   UNL A   1      39.470  26.773  29.182  1.00  0.00     0.031 C 
ATOM     54  C   UNL A   1      43.385  25.308  26.390  1.00  0.00     0.029 A 
ATOM     55  N   UNL A   1      43.441  27.378  27.240  1.00  0.00    -0.354 N 
ATOM     56  C   UNL A   1      40.237  28.845  29.749  1.00  0.00     0.074 A 
ATOM     57  C   UNL A   1      39.176  27.872  29.856  1.00  0.00     0.031 C 
ATOM     58  C   UNL A   1      44.545  25.875  26.008  1.00  0.00     0.029 A 
ATOM     59  C   UNL A   1      44.604  27.242  26.524  1.00  0.00     0.049 A 
ATOM     60  H   UNL A   1      43.207  28.194  27.739  1.00  0.00     0.167 HD
ATOM     61  C   UNL A   1      40.217  30.051  30.359  1.00  0.00     0.031 A 
ATOM     62  C   UNL A   1      45.589  28.133  26.300  1.00  0.00     0.031 A 
ATOM     63  C   UNL A   1      41.248  31.038  30.225  1.00  0.00     0.049 A 
ATOM     64  C   UNL A   1      45.492  29.511  26.905  1.00  0.00     0.074 A 
ATOM     65  C   UNL A   1      41.323  32.293  30.802  1.00  0.00     0.029 A 
ATOM     66  N   UNL A   1      42.379  30.886  29.439  1.00  0.00    -0.354 N 
ATOM     67  N   UNL A   1      44.577  30.001  27.708  1.00  0.00    -0.248 NA
ATOM     68  C   UNL A   1      46.568  30.456  26.572  1.00  0.00     0.031 C 
ATOM     69  C   UNL A   1      42.477  32.921  30.323  1.00  0.00     0.029 A 
ATOM     70  C   UNL A   1      43.144  32.036  29.489  1.00  0.00     0.049 A 
ATOM     71  H   UNL A   1      42.603  30.078  28.922  1.00  0.00     0.167 HD
ATOM     72  C   UNL A   1      44.983  31.299  27.998  1.00  0.00     0.074 A 
ATOM     73  C   UNL A   1      46.229  31.518  27.292  1.00  0.00     0.031 C 
ATOM     74  C   UNL A   1      44.382  32.228  28.782  1.00  0.00     0.031 A 
BRANCH  61  75
ATOM     75  C   UNL A   1      39.006  30.375  31.183  1.00  0.00    -0.014 A 
ATOM     76  C   UNL A   1      37.979  31.189  30.679  1.00  0.00     0.009 A 
ATOM     77  C   UNL A   1      38.898  29.866  32.485  1.00  0.00     0.009 A 
ATOM     78  C   UNL A   1      36.881  31.512  31.478  1.00  0.00     0.001 A 
ATOM     79  C   UNL A   1      37.788  30.173  33.273  1.00  0.00     0.001 A 
ATOM     80  C   UNL A   1      36.785  31.002  32.772  1.00  0.00     0.000 A 
ENDBRANCH  61  75
BRANCH  62  81
ATOM     81  C   UNL A   1      46.753  27.770  25.451  1.00  0.00    -0.014 A 
ATOM     82  C   UNL A   1      46.749  28.051  24.076  1.00  0.00     0.009 A 
ATOM     83  C   UNL A   1      47.856  27.102  26.004  1.00  0.00     0.009 A 
ATOM     84  C   UNL A   1      47.815  27.649  23.268  1.00  0.00     0.001 A 
ATOM     85  C   UNL A   1      48.932  26.722  25.198  1.00  0.00     0.001 A 
ATOM     86  C   UNL A   1      48.907  26.988  23.829  1.00  0.00     0.000 A 
ENDBRANCH  62  81
BRANCH  74  87
ATOM     87  C   UNL A   1      45.079  33.547  28.950  1.00  0.00    -0.014 A 
ATOM     88  C   UNL A   1      44.822  34.623  28.086  1.00  0.00     0.009 A 
ATOM     89  C   UNL A   1      45.961  33.732  30.027  1.00  0.00     0.009 A 
ATOM     90  C   UNL A   1      45.456  35.851  28.283  1.00  0.00     0.001 A 
ATOM     91  C   UNL A   1      46.572  34.968  30.236  1.00  0.00     0.001 A 
ATOM     92  C   UNL A   1      46.326  36.023  29.360  1.00  0.00     0.000 A 
ENDBRANCH  74  87
ENDBRANCH  48  49
ENDBRANCH  41  43
ENDBRANCH  40  41
ENDBRANCH  39  40
ENDBRANCH  38  39
ENDBRANCH  37  38
ENDBRANCH  36  37
ENDBRANCH   1  36
TORSDOF 21
ENDMDL
MODEL 2
REMARK VINA RESULT:     -11.4      0.979      5.625
REMARK SMILES O=C(Nc1ccccc1C(=O)OCCOCCOCCOC(=O)c1ccc(-c2c3nc(c(-c4ccccc4)c4ccc([nH]4)c(-c4ccccc4)c4nc(c(-c5ccccc5)c5ccc2[nH]5)C=C4)C=C3)cc1)c1ccc2c(c1)C(=O)N(Cc1ccccc1)C2=O
REMARK SMILES IDX 16 1 15 2 14 3 13 4 12 5 10 6 11 7 9 8 4 9 5 10 6 11 8 12
REMARK SMILES IDX 7 13 3 14 1 15 2 16 72 18 73 19 77 20 74 21 76 22 75 23
REMARK SMILES IDX 78 24 88 25 79 26 80 27 89 28 81 29 82 30 83 31 87 32 84 33
REMARK SMILES IDX 86 34 85 35 17 36 18 37 19 38 20 39 21 40 22 41 23 42 24 43
REMARK SMILES IDX 25 44 71 45 26 46 70 47 27 48 28 49 29 50 64 51 30 52 69 53
REMARK SMILES IDX 63 54 65 55 31 56 68 57 62 58 61 59 32 61 54 62 39 63 53 64
REMARK SMILES IDX 40 65 43 66 52 67 66 68 41 69 42 70 51 72 67 73 44 74 33 75
REMARK SMILES IDX 34 76 38 77 35 78 37 79 36 80 55 81 56 82 60 83 57 84 59 85
REMARK SMILES IDX 58 86 45 87 46 88 50 89 47 90 49 91 48 92
REMARK H PARENT 3 17 65 60 43 71
REMARK Flexibility Score: inf
ROOT
ATOM      1  C   UNL A   1      37.301  23.495  25.297  1.00  0.00     0.188 C 
ENDROOT
BRANCH   1   2
ATOM      2  O   UNL A   1      35.974  23.984  25.317  1.00  0.00    -0.376 OA
BRANCH   2   3
ATOM      3  C   UNL A   1      35.051  23.210  26.071  1.00  0.00     0.202 C 
BRANCH   3   4
ATOM      4  C   UNL A   1      33.893  22.654  25.245  1.00  0.00     0.261 C 
BRANCH   4   5
ATOM      5  O   UNL A   1      33.275  23.539  24.284  1.00  0.00    -0.460 OA
BRANCH   5   6
ATOM      6  C   UNL A   1      32.307  24.408  24.648  1.00  0.00     0.340 C 
ATOM      7  O   UNL A   1      31.345  24.191  25.361  1.00  0.00    -0.246 OA
BRANCH   6   8
ATOM      8  C   UNL A   1      32.697  25.754  24.181  1.00  0.00     0.083 A 
ATOM      9  C   UNL A   1      32.177  26.953  24.692  1.00  0.00     0.056 A 
ATOM     10  C   UNL A   1      32.324  28.109  23.900  1.00  0.00     0.027 A 
ATOM     11  C   UNL A   1      33.062  28.100  22.712  1.00  0.00     0.002 A 
ATOM     12  C   UNL A   1      33.486  25.757  23.011  1.00  0.00     0.018 A 
ATOM     13  C   UNL A   1      33.675  26.930  22.286  1.00  0.00     0.001 A 
BRANCH   9  14
ATOM     14  N   UNL A   1      31.498  27.165  25.914  1.00  0.00    -0.321 N 
ATOM     15  O   UNL A   1      31.004  27.808  28.015  1.00  0.00    -0.269 OA
ATOM     16  C   UNL A   1      31.713  27.957  27.020  1.00  0.00     0.255 C 
ATOM     17  H   UNL A   1      30.682  26.622  25.992  1.00  0.00     0.170 HD
BRANCH  16  18
ATOM     18  C   UNL A   1      32.740  29.013  27.067  1.00  0.00     0.041 A 
ATOM     19  C   UNL A   1      34.108  28.730  27.279  1.00  0.00     0.015 A 
ATOM     20  C   UNL A   1      32.286  30.332  26.951  1.00  0.00     0.028 A 
ATOM     21  C   UNL A   1      35.022  29.778  27.483  1.00  0.00     0.015 A 
ATOM     22  C   UNL A   1      33.189  31.333  27.252  1.00  0.00     0.054 A 
ATOM     23  C   UNL A   1      34.521  31.070  27.508  1.00  0.00     0.053 A 
ATOM     24  C   UNL A   1      32.950  32.747  27.536  1.00  0.00     0.261 C 
ATOM     25  C   UNL A   1      35.149  32.342  27.884  1.00  0.00     0.261 C 
ATOM     26  O   UNL A   1      31.856  33.277  27.471  1.00  0.00    -0.269 OA
ATOM     27  N   UNL A   1      34.149  33.277  27.913  1.00  0.00    -0.270 N 
ATOM     28  O   UNL A   1      36.340  32.482  28.090  1.00  0.00    -0.269 OA
BRANCH  27  29
ATOM     29  C   UNL A   1      34.332  34.669  28.261  1.00  0.00     0.164 C 
BRANCH  29  30
ATOM     30  C   UNL A   1      33.927  34.996  29.683  1.00  0.00    -0.028 A 
ATOM     31  C   UNL A   1      34.528  34.331  30.762  1.00  0.00     0.005 A 
ATOM     32  C   UNL A   1      32.971  35.989  29.951  1.00  0.00     0.005 A 
ATOM     33  C   UNL A   1      34.211  34.678  32.077  1.00  0.00     0.000 A 
ATOM     34  C   UNL A   1      32.652  36.331  31.269  1.00  0.00     0.000 A 
ATOM     35  C   UNL A   1      33.280  35.683  32.331  1.00  0.00     0.000 A 
ENDBRANCH  29  30
ENDBRANCH  27  29
ENDBRANCH  16  18
ENDBRANCH   9  14
ENDBRANCH   6   8
ENDBRANCH   5   6
ENDBRANCH   4   5
ENDBRANCH   3   4
ENDBRANCH   2   3
ENDBRANCH   1   2
BRANCH   1  36
ATOM     36  C   UNL A   1      37.481  21.995  25.626  1.00  0.00     0.188 C 
BRANCH  36  37
ATOM     37  O   UNL A   1      37.834  21.035  24.638  1.00  0.00    -0.376 OA
BRANCH  37  38
ATOM     38  C   UNL A   1      38.198  19.712  24.999  1.00  0.00     0.202 C 
BRANCH  38  39
ATOM     39  C   UNL A   1      39.365  19.514  25.969  1.00  0.00     0.261 C 
BRANCH  39  40
ATOM     40  O   UNL A   1      40.650  19.696  25.361  1.00  0.00    -0.460 OA
BRANCH  40  41
ATOM     41  C   UNL A   1      41.676  19.889  26.224  1.00  0.00     0.338 C 
ATOM     42  O   UNL A   1      42.608  19.137  26.452  1.00  0.00    -0.246 OA
BRANCH  41  43
ATOM     43  C   UNL A   1      41.630  21.281  26.718  1.00  0.00     0.060 A 
ATOM     44  C   UNL A   1      41.152  22.265  25.842  1.00  0.00     0.016 A 
ATOM     45  C   UNL A   1      42.010  21.614  28.023  1.00  0.00     0.016 A 
ATOM     46  C   UNL A   1      41.090  23.593  26.251  1.00  0.00     0.010 A 
ATOM     47  C   UNL A   1      41.983  22.952  28.421  1.00  0.00     0.010 A 
ATOM     48  C   UNL A   1      41.565  23.947  27.520  1.00  0.00    -0.014 A 
BRANCH  48  49
ATOM     49  C   UNL A   1      41.915  25.363  27.770  1.00  0.00     0.031 A 
ATOM     50  C   UNL A   1      43.226  25.851  27.216  1.00  0.00     0.074 A 
ATOM     51  C   UNL A   1      41.096  26.199  28.428  1.00  0.00     0.049 A 
ATOM     52  N   UNL A   1      43.760  27.042  27.273  1.00  0.00    -0.248 NA
ATOM     53  C   UNL A   1      44.040  24.858  26.493  1.00  0.00     0.031 C 
ATOM     54  C   UNL A   1      39.780  25.860  28.966  1.00  0.00     0.029 A 
ATOM     55  N   UNL A   1      41.265  27.521  28.753  1.00  0.00    -0.354 N 
ATOM     56  C   UNL A   1      44.966  26.940  26.591  1.00  0.00     0.074 A 
ATOM     57  C   UNL A   1      45.097  25.572  26.147  1.00  0.00     0.031 C 
ATOM     58  C   UNL A   1      39.261  26.950  29.561  1.00  0.00     0.029 A 
ATOM     59  C   UNL A   1      40.219  28.051  29.466  1.00  0.00     0.049 A 
ATOM     60  H   UNL A   1      42.061  28.041  28.497  1.00  0.00     0.167 HD
ATOM     61  C   UNL A   1      45.888  27.900  26.355  1.00  0.00     0.031 A 
ATOM     62  C   UNL A   1      40.068  29.282  29.993  1.00  0.00     0.031 A 
ATOM     63  C   UNL A   1      45.783  29.250  26.827  1.00  0.00     0.049 A 
ATOM     64  C   UNL A   1      41.160  30.305  29.806  1.00  0.00     0.074 A 
ATOM     65  C   UNL A   1      46.663  30.300  26.640  1.00  0.00     0.029 A 
ATOM     66  N   UNL A   1      44.738  29.729  27.599  1.00  0.00    -0.354 N 
ATOM     67  N   UNL A   1      42.279  30.209  29.127  1.00  0.00    -0.248 NA
ATOM     68  C   UNL A   1      40.964  31.608  30.459  1.00  0.00     0.031 C 
ATOM     69  C   UNL A   1      46.174  31.404  27.346  1.00  0.00     0.029 A 
ATOM     70  C   UNL A   1      44.964  31.053  27.927  1.00  0.00     0.049 A 
ATOM     71  H   UNL A   1      43.951  29.204  27.874  1.00  0.00     0.167 HD
ATOM     72  C   UNL A   1      42.903  31.446  29.246  1.00  0.00     0.074 A 
ATOM     73  C   UNL A   1      42.036  32.277  30.057  1.00  0.00     0.031 C 
ATOM     74  C   UNL A   1      44.086  31.860  28.730  1.00  0.00     0.031 A 
BRANCH  61  75
ATOM     75  C   UNL A   1      47.113  27.492  25.590  1.00  0.00    -0.014 A 
ATOM     76  C   UNL A   1      47.188  27.651  24.198  1.00  0.00     0.009 A 
ATOM     77  C   UNL A   1      48.201  26.931  26.274  1.00  0.00     0.009 A 
ATOM     78  C   UNL A   1      48.319  27.226  23.500  1.00  0.00     0.001 A 
ATOM     79  C   UNL A   1      49.340  26.528  25.577  1.00  0.00     0.001 A 
ATOM     80  C   UNL A   1      49.396  26.668  24.190  1.00  0.00     0.000 A 
ENDBRANCH  61  75
BRANCH  62  81
ATOM     81  C   UNL A   1      38.848  29.624  30.768  1.00  0.00    -0.014 A 
ATOM     82  C   UNL A   1      37.654  29.959  30.109  1.00  0.00     0.009 A 
ATOM     83  C   UNL A   1      38.882  29.657  32.170  1.00  0.00     0.009 A 
ATOM     84  C   UNL A   1      36.527  30.345  30.840  1.00  0.00     0.001 A 
ATOM     85  C   UNL A   1      37.746  30.020  32.899  1.00  0.00     0.001 A 
ATOM     86  C   UNL A   1      36.573  30.373  32.233  1.00  0.00     0.000 A 
ENDBRANCH  62  81
BRANCH  74  87
ATOM     87  C   UNL A   1      44.494  33.282  28.989  1.00  0.00    -0.014 A 
ATOM     88  C   UNL A   1      45.344  33.613  30.056  1.00  0.00     0.009 A 
ATOM     89  C   UNL A   1      44.069  34.295  28.116  1.00  0.00     0.009 A 
ATOM     90  C   UNL A   1      45.738  34.937  30.257  1.00  0.00     0.001 A 
ATOM     91  C   UNL A   1      44.486  35.613  28.304  1.00  0.00     0.001 A 
ATOM     92  C   UNL A   1      45.313  35.934  29.378  1.00  0.00     0.000 A 
ENDBRANCH  74  87
ENDBRANCH  48  49
ENDBRANCH  41  43
ENDBRANCH  40  41
ENDBRANCH  39  40
ENDBRANCH  38  39
ENDBRANCH  37  38
ENDBRANCH  36  37
ENDBRANCH   1  36
TORSDOF 21
ENDMDL
MODEL 3
REMARK VINA RESULT:     -11.0      1.603      2.549
REMARK SMILES O=C(Nc1ccccc1C(=O)OCCOCCOCCOC(=O)c1ccc(-c2c3nc(c(-c4ccccc4)c4ccc([nH]4)c(-c4ccccc4)c4nc(c(-c5ccccc5)c5ccc2[nH]5)C=C4)C=C3)cc1)c1ccc2c(c1)C(=O)N(Cc1ccccc1)C2=O
REMARK SMILES IDX 16 1 15 2 14 3 13 4 12 5 10 6 11 7 9 8 4 9 5 10 6 11 8 12
REMARK SMILES IDX 7 13 3 14 1 15 2 16 72 18 73 19 77 20 74 21 76 22 75 23
REMARK SMILES IDX 78 24 88 25 79 26 80 27 89 28 81 29 82 30 83 31 87 32 84 33
REMARK SMILES IDX 86 34 85 35 17 36 18 37 19 38 20 39 21 40 22 41 23 42 24 43
REMARK SMILES IDX 25 44 71 45 26 46 70 47 27 48 28 49 29 50 64 51 30 52 69 53
REMARK SMILES IDX 63 54 65 55 31 56 68 57 62 58 61 59 32 61 54 62 39 63 53 64
REMARK SMILES IDX 40 65 43 66 52 67 66 68 41 69 42 70 51 72 67 73 44 74 33 75
REMARK SMILES IDX 34 76 38 77 35 78 37 79 36 80 55 81 56 82 60 83 57 84 59 85
REMARK SMILES IDX 58 86 45 87 46 88 50 89 47 90 49 91 48 92
REMARK H PARENT 3 17 65 60 43 71
REMARK Flexibility Score: inf
ROOT
ATOM      1  C   UNL A   1      35.664  22.122  26.105  1.00  0.00     0.188 C 
ENDROOT
BRANCH   1   2
ATOM      2  O   UNL A   1      35.367  21.245  25.036  1.00  0.00    -0.376 OA
BRANCH   2   3
ATOM      3  C   UNL A   1      34.497  21.770  24.041  1.00  0.00     0.202 C 
BRANCH   3   4
ATOM      4  C   UNL A   1      33.116  22.152  24.569  1.00  0.00     0.261 C 
BRANCH   4   5
ATOM      5  O   UNL A   1      32.652  23.496  24.309  1.00  0.00    -0.460 OA
BRANCH   5   6
ATOM      6  C   UNL A   1      32.849  24.493  25.198  1.00  0.00     0.340 C 
ATOM      7  O   UNL A   1      33.108  24.392  26.384  1.00  0.00    -0.246 OA
BRANCH   6   8
ATOM      8  C   UNL A   1      32.882  25.771  24.459  1.00  0.00     0.083 A 
ATOM      9  C   UNL A   1      32.063  26.875  24.742  1.00  0.00     0.056 A 
ATOM     10  C   UNL A   1      31.915  27.845  23.731  1.00  0.00     0.027 A 
ATOM     11  C   UNL A   1      32.644  27.785  22.540  1.00  0.00     0.002 A 
ATOM     12  C   UNL A   1      33.658  25.740  23.280  1.00  0.00     0.018 A 
ATOM     13  C   UNL A   1      33.545  26.751  22.329  1.00  0.00     0.001 A 
BRANCH   9  14
ATOM     14  N   UNL A   1      31.338  27.149  25.925  1.00  0.00    -0.321 N 
ATOM     15  O   UNL A   1      30.772  27.875  27.979  1.00  0.00    -0.269 OA
ATOM     16  C   UNL A   1      31.529  27.968  27.014  1.00  0.00     0.255 C 
ATOM     17  H   UNL A   1      30.501  26.634  25.982  1.00  0.00     0.170 HD
BRANCH  16  18
ATOM     18  C   UNL A   1      32.587  28.992  27.075  1.00  0.00     0.041 A 
ATOM     19  C   UNL A   1      33.938  28.670  27.338  1.00  0.00     0.015 A 
ATOM     20  C   UNL A   1      32.181  30.323  26.919  1.00  0.00     0.028 A 
ATOM     21  C   UNL A   1      34.879  29.692  27.552  1.00  0.00     0.015 A 
ATOM     22  C   UNL A   1      33.106  31.299  27.230  1.00  0.00     0.054 A 
ATOM     23  C   UNL A   1      34.419  31.000  27.536  1.00  0.00     0.053 A 
ATOM     24  C   UNL A   1      32.903  32.726  27.478  1.00  0.00     0.261 C 
ATOM     25  C   UNL A   1      35.075  32.258  27.908  1.00  0.00     0.261 C 
ATOM     26  O   UNL A   1      31.830  33.289  27.367  1.00  0.00    -0.269 OA
ATOM     27  N   UNL A   1      34.106  33.226  27.886  1.00  0.00    -0.270 N 
ATOM     28  O   UNL A   1      36.263  32.364  28.151  1.00  0.00    -0.269 OA
BRANCH  27  29
ATOM     29  C   UNL A   1      34.323  34.618  28.213  1.00  0.00     0.164 C 
BRANCH  29  30
ATOM     30  C   UNL A   1      33.978  34.963  29.646  1.00  0.00    -0.028 A 
ATOM     31  C   UNL A   1      32.934  35.857  29.928  1.00  0.00     0.005 A 
ATOM     32  C   UNL A   1      34.669  34.375  30.717  1.00  0.00     0.005 A 
ATOM     33  C   UNL A   1      32.564  36.125  31.247  1.00  0.00     0.000 A 
ATOM     34  C   UNL A   1      34.299  34.648  32.038  1.00  0.00     0.000 A 
ATOM     35  C   UNL A   1      33.241  35.515  32.302  1.00  0.00     0.000 A 
ENDBRANCH  29  30
ENDBRANCH  27  29
ENDBRANCH  16  18
ENDBRANCH   9  14
ENDBRANCH   6   8
ENDBRANCH   5   6
ENDBRANCH   4   5
ENDBRANCH   3   4
ENDBRANCH   2   3
ENDBRANCH   1   2
BRANCH   1  36
ATOM     36  C   UNL A   1      36.550  23.341  25.762  1.00  0.00     0.188 C 
BRANCH  36  37
ATOM     37  O   UNL A   1      37.935  23.217  25.465  1.00  0.00    -0.376 OA
BRANCH  37  38
ATOM     38  C   UNL A   1      38.794  22.440  26.285  1.00  0.00     0.202 C 
BRANCH  38  39
ATOM     39  C   UNL A   1      39.258  21.075  25.771  1.00  0.00     0.261 C 
BRANCH  39  40
ATOM     40  O   UNL A   1      40.005  20.324  26.736  1.00  0.00    -0.460 OA
BRANCH  40  41
ATOM     41  C   UNL A   1      41.251  19.963  26.350  1.00  0.00     0.338 C 
ATOM     42  O   UNL A   1      41.585  18.942  25.773  1.00  0.00    -0.246 OA
BRANCH  41  43
ATOM     43  C   UNL A   1      42.162  21.111  26.539  1.00  0.00     0.060 A 
ATOM     44  C   UNL A   1      42.388  21.550  27.850  1.00  0.00     0.016 A 
ATOM     45  C   UNL A   1      42.813  21.722  25.462  1.00  0.00     0.016 A 
ATOM     46  C   UNL A   1      43.232  22.629  28.089  1.00  0.00     0.010 A 
ATOM     47  C   UNL A   1      43.632  22.828  25.698  1.00  0.00     0.010 A 
ATOM     48  C   UNL A   1      43.806  23.309  27.008  1.00  0.00    -0.014 A 
BRANCH  48  49
ATOM     49  C   UNL A   1      44.311  24.682  27.228  1.00  0.00     0.031 A 
ATOM     50  C   UNL A   1      43.317  25.710  27.697  1.00  0.00     0.074 A 
ATOM     51  C   UNL A   1      45.603  25.008  27.057  1.00  0.00     0.049 A 
ATOM     52  N   UNL A   1      43.498  26.972  27.984  1.00  0.00    -0.248 NA
ATOM     53  C   UNL A   1      41.930  25.243  27.873  1.00  0.00     0.031 C 
ATOM     54  C   UNL A   1      46.670  24.093  26.656  1.00  0.00     0.029 A 
ATOM     55  N   UNL A   1      46.231  26.219  27.205  1.00  0.00    -0.354 N 
ATOM     56  C   UNL A   1      42.252  27.444  28.377  1.00  0.00     0.074 A 
ATOM     57  C   UNL A   1      41.320  26.346  28.274  1.00  0.00     0.031 C 
ATOM     58  C   UNL A   1      47.825  24.780  26.585  1.00  0.00     0.029 A 
ATOM     59  C   UNL A   1      47.571  26.183  26.911  1.00  0.00     0.049 A 
ATOM     60  H   UNL A   1      45.764  27.035  27.495  1.00  0.00     0.167 HD
ATOM     61  C   UNL A   1      41.910  28.686  28.788  1.00  0.00     0.031 A 
ATOM     62  C   UNL A   1      48.478  27.178  26.892  1.00  0.00     0.031 A 
ATOM     63  C   UNL A   1      42.821  29.791  28.855  1.00  0.00     0.049 A 
ATOM     64  C   UNL A   1      48.048  28.578  27.252  1.00  0.00     0.074 A 
ATOM     65  C   UNL A   1      42.573  31.090  29.258  1.00  0.00     0.029 A 
ATOM     66  N   UNL A   1      44.155  29.728  28.488  1.00  0.00    -0.354 N 
ATOM     67  N   UNL A   1      46.876  29.006  27.658  1.00  0.00    -0.248 NA
ATOM     68  C   UNL A   1      49.070  29.630  27.150  1.00  0.00     0.031 C 
ATOM     69  C   UNL A   1      43.750  31.827  29.086  1.00  0.00     0.029 A 
ATOM     70  C   UNL A   1      44.739  30.973  28.624  1.00  0.00     0.049 A 
ATOM     71  H   UNL A   1      44.618  28.916  28.176  1.00  0.00     0.167 HD
ATOM     72  C   UNL A   1      47.029  30.369  27.889  1.00  0.00     0.074 A 
ATOM     73  C   UNL A   1      48.408  30.695  27.585  1.00  0.00     0.031 C 
ATOM     74  C   UNL A   1      46.113  31.271  28.319  1.00  0.00     0.031 A 
BRANCH  61  75
ATOM     75  C   UNL A   1      40.470  28.910  29.144  1.00  0.00    -0.014 A 
ATOM     76  C   UNL A   1      40.006  28.718  30.454  1.00  0.00     0.009 A 
ATOM     77  C   UNL A   1      39.564  29.309  28.150  1.00  0.00     0.009 A 
ATOM     78  C   UNL A   1      38.654  28.891  30.755  1.00  0.00     0.001 A 
ATOM     79  C   UNL A   1      38.218  29.504  28.459  1.00  0.00     0.001 A 
ATOM     80  C   UNL A   1      37.762  29.288  29.759  1.00  0.00     0.000 A 
ENDBRANCH  61  75
BRANCH  62  81
ATOM     81  C   UNL A   1      49.886  26.906  26.502  1.00  0.00    -0.014 A 
ATOM     82  C   UNL A   1      50.276  26.952  25.155  1.00  0.00     0.009 A 
ATOM     83  C   UNL A   1      50.838  26.558  27.472  1.00  0.00     0.009 A 
ATOM     84  C   UNL A   1      51.584  26.631  24.785  1.00  0.00     0.001 A 
ATOM     85  C   UNL A   1      52.152  26.260  27.102  1.00  0.00     0.001 A 
ATOM     86  C   UNL A   1      52.522  26.288  25.758  1.00  0.00     0.000 A 
ENDBRANCH  62  81
BRANCH  74  87
ATOM     87  C   UNL A   1      46.578  32.685  28.523  1.00  0.00    -0.014 A 
ATOM     88  C   UNL A   1      47.044  33.125  29.772  1.00  0.00     0.009 A 
ATOM     89  C   UNL A   1      46.605  33.569  27.434  1.00  0.00     0.009 A 
ATOM     90  C   UNL A   1      47.503  34.434  29.930  1.00  0.00     0.001 A 
ATOM     91  C   UNL A   1      47.089  34.868  27.589  1.00  0.00     0.001 A 
ATOM     92  C   UNL A   1      47.530  35.302  28.838  1.00  0.00     0.000 A 
ENDBRANCH  74  87
ENDBRANCH  48  49
ENDBRANCH  41  43
ENDBRANCH  40  41
ENDBRANCH  39  40
ENDBRANCH  38  39
ENDBRANCH  37  38
ENDBRANCH  36  37
ENDBRANCH   1  36
TORSDOF 21
ENDMDL
