MODEL 1
REMARK VINA RESULT:     -10.2      0.000      0.000
REMARK SMILES COc1c(C(=O)OCCOCCOCCOC(=O)c2ccc(-c3c4nc(c(-c5ccccc5)c5ccc([nH]5)c(-c5ccccc5)c5nc(c(-c6ccccc6)c6ccc3[nH]6)C=C5)C=C4)cc2)cccc1-c1cc(C)ccc1C
REMARK SMILES IDX 12 1 11 2 10 3 9 4 8 5 7 6 5 7 6 8 4 9 3 10 70 11 67 12
REMARK SMILES IDX 69 13 68 14 2 15 1 16 71 17 72 18 77 19 73 20 76 21 78 22
REMARK SMILES IDX 74 23 75 24 13 25 14 26 15 27 16 28 17 29 18 30 19 31 20 32
REMARK SMILES IDX 66 33 21 34 65 35 22 36 23 37 24 38 59 39 25 40 64 41 58 42
REMARK SMILES IDX 60 43 26 44 63 45 57 46 56 47 27 49 49 50 34 51 48 52 35 53
REMARK SMILES IDX 38 54 47 55 61 56 36 57 37 58 46 60 62 61 39 62 28 63 29 64
REMARK SMILES IDX 33 65 30 66 32 67 31 68 50 69 51 70 55 71 52 72 54 73 53 74
REMARK SMILES IDX 40 75 41 76 45 77 42 78 44 79 43 80
REMARK H PARENT 60 48 38 59
REMARK Flexibility Score: inf
ROOT
ATOM      1  C   UNL A   1      35.067  24.073  24.559  1.00  0.00     0.188 C 
ENDROOT
BRANCH   1   2
ATOM      2  C   UNL A   1      34.019  23.995  23.428  1.00  0.00     0.188 C 
BRANCH   2   3
ATOM      3  O   UNL A   1      33.950  25.012  22.445  1.00  0.00    -0.376 OA
BRANCH   3   4
ATOM      4  C   UNL A   1      32.832  25.068  21.567  1.00  0.00     0.202 C 
BRANCH   4   5
ATOM      5  C   UNL A   1      32.164  26.403  21.216  1.00  0.00     0.261 C 
BRANCH   5   6
ATOM      6  O   UNL A   1      30.865  26.558  21.800  1.00  0.00    -0.460 OA
BRANCH   6   7
ATOM      7  C   UNL A   1      30.659  27.722  22.464  1.00  0.00     0.342 C 
ATOM      8  O   UNL A   1      30.011  28.681  22.071  1.00  0.00    -0.246 OA
BRANCH   7   9
ATOM      9  C   UNL A   1      31.104  27.603  23.870  1.00  0.00     0.102 A 
ATOM     10  C   UNL A   1      32.183  28.326  24.401  1.00  0.00     0.141 A 
ATOM     11  C   UNL A   1      32.432  28.286  25.793  1.00  0.00     0.025 A 
ATOM     12  C   UNL A   1      30.383  26.709  24.676  1.00  0.00     0.019 A 
ATOM     13  C   UNL A   1      31.720  27.344  26.568  1.00  0.00     0.012 A 
ATOM     14  C   UNL A   1      30.722  26.544  26.012  1.00  0.00     0.002 A 
BRANCH  10  15
ATOM     15  O   UNL A   1      32.894  29.135  23.548  1.00  0.00    -0.495 OA
ATOM     16  C   UNL A   1      34.152  28.564  23.169  1.00  0.00     0.278 C 
ENDBRANCH  10  15
BRANCH  11  17
ATOM     17  C   UNL A   1      33.295  29.270  26.491  1.00  0.00    -0.011 A 
ATOM     18  C   UNL A   1      34.608  28.913  26.870  1.00  0.00     0.012 A 
ATOM     19  C   UNL A   1      32.825  30.557  26.854  1.00  0.00    -0.043 A 
ATOM     20  C   UNL A   1      35.446  29.800  27.565  1.00  0.00    -0.050 A 
ATOM     21  C   UNL A   1      33.692  31.460  27.492  1.00  0.00     0.004 A 
ATOM     22  C   UNL A   1      31.425  31.041  26.566  1.00  0.00     0.045 C 
ATOM     23  C   UNL A   1      36.810  29.364  28.011  1.00  0.00     0.044 C 
ATOM     24  C   UNL A   1      34.984  31.084  27.850  1.00  0.00     0.004 A 
ENDBRANCH  11  17
ENDBRANCH   7   9
ENDBRANCH   6   7
ENDBRANCH   5   6
ENDBRANCH   4   5
ENDBRANCH   3   4
ENDBRANCH   2   3
ENDBRANCH   1   2
BRANCH   1  25
ATOM     25  O   UNL A   1      36.386  23.639  24.333  1.00  0.00    -0.376 OA
BRANCH  25  26
ATOM     26  C   UNL A   1      36.643  22.331  23.856  1.00  0.00     0.202 C 
BRANCH  26  27
ATOM     27  C   UNL A   1      37.358  21.220  24.648  1.00  0.00     0.261 C 
BRANCH  27  28
ATOM     28  O   UNL A   1      37.783  21.518  25.981  1.00  0.00    -0.460 OA
BRANCH  28  29
ATOM     29  C   UNL A   1      39.101  21.334  26.226  1.00  0.00     0.338 C 
ATOM     30  O   UNL A   1      39.779  20.347  25.959  1.00  0.00    -0.246 OA
BRANCH  29  31
ATOM     31  C   UNL A   1      39.681  22.593  26.720  1.00  0.00     0.060 A 
ATOM     32  C   UNL A   1      39.211  23.808  26.202  1.00  0.00     0.016 A 
ATOM     33  C   UNL A   1      40.708  22.573  27.663  1.00  0.00     0.016 A 
ATOM     34  C   UNL A   1      39.774  25.012  26.622  1.00  0.00     0.010 A 
ATOM     35  C   UNL A   1      41.288  23.780  28.064  1.00  0.00     0.010 A 
ATOM     36  C   UNL A   1      40.840  25.002  27.530  1.00  0.00    -0.014 A 
BRANCH  36  37
ATOM     37  C   UNL A   1      41.593  26.248  27.815  1.00  0.00     0.031 A 
ATOM     38  C   UNL A   1      40.957  27.289  28.695  1.00  0.00     0.074 A 
ATOM     39  C   UNL A   1      42.811  26.462  27.286  1.00  0.00     0.049 A 
ATOM     40  N   UNL A   1      41.381  28.489  28.998  1.00  0.00    -0.248 NA
ATOM     41  C   UNL A   1      39.669  26.930  29.314  1.00  0.00     0.031 C 
ATOM     42  C   UNL A   1      43.556  25.517  26.456  1.00  0.00     0.029 A 
ATOM     43  N   UNL A   1      43.628  27.564  27.358  1.00  0.00    -0.354 N 
ATOM     44  C   UNL A   1      40.404  29.036  29.820  1.00  0.00     0.074 A 
ATOM     45  C   UNL A   1      39.363  28.043  29.964  1.00  0.00     0.031 C 
ATOM     46  C   UNL A   1      44.714  26.089  26.078  1.00  0.00     0.029 A 
ATOM     47  C   UNL A   1      44.770  27.452  26.603  1.00  0.00     0.049 A 
ATOM     48  H   UNL A   1      43.414  28.359  27.899  1.00  0.00     0.167 HD
ATOM     49  C   UNL A   1      40.375  30.259  30.398  1.00  0.00     0.031 A 
ATOM     50  C   UNL A   1      45.731  28.359  26.337  1.00  0.00     0.031 A 
ATOM     51  C   UNL A   1      41.408  31.250  30.254  1.00  0.00     0.049 A 
ATOM     52  C   UNL A   1      45.629  29.742  26.933  1.00  0.00     0.074 A 
ATOM     53  C   UNL A   1      41.483  32.503  30.837  1.00  0.00     0.029 A 
ATOM     54  N   UNL A   1      42.537  31.106  29.465  1.00  0.00    -0.354 N 
ATOM     55  N   UNL A   1      44.727  30.230  27.748  1.00  0.00    -0.248 NA
ATOM     56  C   UNL A   1      46.686  30.699  26.568  1.00  0.00     0.031 C 
ATOM     57  C   UNL A   1      42.622  33.145  30.345  1.00  0.00     0.029 A 
ATOM     58  C   UNL A   1      43.293  32.264  29.512  1.00  0.00     0.049 A 
ATOM     59  H   UNL A   1      42.765  30.300  28.946  1.00  0.00     0.167 HD
ATOM     60  C   UNL A   1      45.127  31.533  28.022  1.00  0.00     0.074 A 
ATOM     61  C   UNL A   1      46.361  31.755  27.300  1.00  0.00     0.031 C 
ATOM     62  C   UNL A   1      44.527  32.467  28.801  1.00  0.00     0.031 A 
BRANCH  49  63
ATOM     63  C   UNL A   1      39.165  30.625  31.208  1.00  0.00    -0.014 A 
ATOM     64  C   UNL A   1      38.067  31.282  30.631  1.00  0.00     0.009 A 
ATOM     65  C   UNL A   1      39.093  30.234  32.555  1.00  0.00     0.009 A 
ATOM     66  C   UNL A   1      36.928  31.552  31.394  1.00  0.00     0.001 A 
ATOM     67  C   UNL A   1      37.944  30.481  33.306  1.00  0.00     0.001 A 
ATOM     68  C   UNL A   1      36.865  31.144  32.726  1.00  0.00     0.000 A 
ENDBRANCH  49  63
BRANCH  50  69
ATOM     69  C   UNL A   1      46.859  28.027  25.425  1.00  0.00    -0.014 A 
ATOM     70  C   UNL A   1      46.721  28.160  24.034  1.00  0.00     0.009 A 
ATOM     71  C   UNL A   1      48.056  27.501  25.937  1.00  0.00     0.009 A 
ATOM     72  C   UNL A   1      47.738  27.732  23.176  1.00  0.00     0.001 A 
ATOM     73  C   UNL A   1      49.084  27.107  25.079  1.00  0.00     0.001 A 
ATOM     74  C   UNL A   1      48.918  27.207  23.698  1.00  0.00     0.000 A 
ENDBRANCH  50  69
BRANCH  62  75
ATOM     75  C   UNL A   1      45.221  33.792  28.960  1.00  0.00    -0.014 A 
ATOM     76  C   UNL A   1      44.985  34.855  28.074  1.00  0.00     0.009 A 
ATOM     77  C   UNL A   1      46.091  33.992  30.044  1.00  0.00     0.009 A 
ATOM     78  C   UNL A   1      45.636  36.078  28.250  1.00  0.00     0.001 A 
ATOM     79  C   UNL A   1      46.714  35.226  30.236  1.00  0.00     0.001 A 
ATOM     80  C   UNL A   1      46.494  36.264  29.334  1.00  0.00     0.000 A 
ENDBRANCH  62  75
ENDBRANCH  36  37
ENDBRANCH  29  31
ENDBRANCH  28  29
ENDBRANCH  27  28
ENDBRANCH  26  27
ENDBRANCH  25  26
ENDBRANCH   1  25
TORSDOF 19
ENDMDL
MODEL 2
REMARK VINA RESULT:      -9.9      3.599      7.320
REMARK SMILES COc1c(C(=O)OCCOCCOCCOC(=O)c2ccc(-c3c4nc(c(-c5ccccc5)c5ccc([nH]5)c(-c5ccccc5)c5nc(c(-c6ccccc6)c6ccc3[nH]6)C=C5)C=C4)cc2)cccc1-c1cc(C)ccc1C
REMARK SMILES IDX 12 1 11 2 10 3 9 4 8 5 7 6 5 7 6 8 4 9 3 10 70 11 67 12
REMARK SMILES IDX 69 13 68 14 2 15 1 16 71 17 72 18 77 19 73 20 76 21 78 22
REMARK SMILES IDX 74 23 75 24 13 25 14 26 15 27 16 28 17 29 18 30 19 31 20 32
REMARK SMILES IDX 66 33 21 34 65 35 22 36 23 37 24 38 59 39 25 40 64 41 58 42
REMARK SMILES IDX 60 43 26 44 63 45 57 46 56 47 27 49 49 50 34 51 48 52 35 53
REMARK SMILES IDX 38 54 47 55 61 56 36 57 37 58 46 60 62 61 39 62 28 63 29 64
REMARK SMILES IDX 33 65 30 66 32 67 31 68 50 69 51 70 55 71 52 72 54 73 53 74
REMARK SMILES IDX 40 75 41 76 45 77 42 78 44 79 43 80
REMARK H PARENT 60 48 38 59
REMARK Flexibility Score: inf
ROOT
ATOM      1  C   UNL A   1      39.280  20.819  25.638  1.00  0.00     0.188 C 
ENDROOT
BRANCH   1   2
ATOM      2  C   UNL A   1      38.016  21.688  25.470  1.00  0.00     0.188 C 
BRANCH   2   3
ATOM      3  O   UNL A   1      36.748  21.083  25.291  1.00  0.00    -0.376 OA
BRANCH   3   4
ATOM      4  C   UNL A   1      35.568  21.825  25.570  1.00  0.00     0.202 C 
BRANCH   4   5
ATOM      5  C   UNL A   1      34.382  21.826  24.599  1.00  0.00     0.261 C 
BRANCH   5   6
ATOM      6  O   UNL A   1      33.646  23.056  24.602  1.00  0.00    -0.460 OA
BRANCH   6   7
ATOM      7  C   UNL A   1      34.145  24.037  23.811  1.00  0.00     0.342 C 
ATOM      8  O   UNL A   1      34.795  23.888  22.787  1.00  0.00    -0.246 OA
BRANCH   7   9
ATOM      9  C   UNL A   1      33.580  25.350  24.194  1.00  0.00     0.102 A 
ATOM     10  C   UNL A   1      32.512  25.957  23.518  1.00  0.00     0.141 A 
ATOM     11  C   UNL A   1      31.920  27.126  24.055  1.00  0.00     0.025 A 
ATOM     12  C   UNL A   1      34.177  25.985  25.295  1.00  0.00     0.019 A 
ATOM     13  C   UNL A   1      32.571  27.763  25.134  1.00  0.00     0.012 A 
ATOM     14  C   UNL A   1      33.703  27.213  25.734  1.00  0.00     0.002 A 
BRANCH  10  15
ATOM     15  O   UNL A   1      32.012  25.322  22.407  1.00  0.00    -0.495 OA
ATOM     16  C   UNL A   1      32.467  25.912  21.184  1.00  0.00     0.278 C 
ENDBRANCH  10  15
BRANCH  11  17
ATOM     17  C   UNL A   1      30.590  27.628  23.631  1.00  0.00    -0.011 A 
ATOM     18  C   UNL A   1      30.496  28.794  22.840  1.00  0.00     0.012 A 
ATOM     19  C   UNL A   1      29.385  27.009  24.048  1.00  0.00    -0.043 A 
ATOM     20  C   UNL A   1      29.257  29.326  22.449  1.00  0.00    -0.050 A 
ATOM     21  C   UNL A   1      28.153  27.511  23.599  1.00  0.00     0.004 A 
ATOM     22  C   UNL A   1      29.343  25.796  24.945  1.00  0.00     0.045 C 
ATOM     23  C   UNL A   1      29.193  30.603  21.665  1.00  0.00     0.044 C 
ATOM     24  C   UNL A   1      28.089  28.660  22.815  1.00  0.00     0.004 A 
ENDBRANCH  11  17
ENDBRANCH   7   9
ENDBRANCH   6   7
ENDBRANCH   5   6
ENDBRANCH   4   5
ENDBRANCH   3   4
ENDBRANCH   2   3
ENDBRANCH   1   2
BRANCH   1  25
ATOM     25  O   UNL A   1      40.088  20.959  26.780  1.00  0.00    -0.376 OA
BRANCH  25  26
ATOM     26  C   UNL A   1      41.440  20.538  26.764  1.00  0.00     0.202 C 
BRANCH  26  27
ATOM     27  C   UNL A   1      42.596  21.288  26.077  1.00  0.00     0.261 C 
BRANCH  27  28
ATOM     28  O   UNL A   1      42.268  22.406  25.248  1.00  0.00    -0.460 OA
BRANCH  28  29
ATOM     29  C   UNL A   1      43.163  23.421  25.257  1.00  0.00     0.338 C 
ATOM     30  O   UNL A   1      44.165  23.539  24.558  1.00  0.00    -0.246 OA
BRANCH  29  31
ATOM     31  C   UNL A   1      42.665  24.496  26.129  1.00  0.00     0.060 A 
ATOM     32  C   UNL A   1      43.350  25.719  26.159  1.00  0.00     0.016 A 
ATOM     33  C   UNL A   1      41.550  24.287  26.939  1.00  0.00     0.016 A 
ATOM     34  C   UNL A   1      42.924  26.739  27.009  1.00  0.00     0.010 A 
ATOM     35  C   UNL A   1      41.139  25.301  27.808  1.00  0.00     0.010 A 
ATOM     36  C   UNL A   1      41.836  26.522  27.864  1.00  0.00    -0.014 A 
BRANCH  36  37
ATOM     37  C   UNL A   1      41.510  27.507  28.925  1.00  0.00     0.031 A 
ATOM     38  C   UNL A   1      42.299  27.475  30.204  1.00  0.00     0.074 A 
ATOM     39  C   UNL A   1      40.517  28.400  28.764  1.00  0.00     0.049 A 
ATOM     40  N   UNL A   1      42.127  28.167  31.301  1.00  0.00    -0.248 NA
ATOM     41  C   UNL A   1      43.432  26.535  30.255  1.00  0.00     0.031 C 
ATOM     42  C   UNL A   1      39.708  28.565  27.557  1.00  0.00     0.029 A 
ATOM     43  N   UNL A   1      40.010  29.329  29.640  1.00  0.00    -0.354 N 
ATOM     44  C   UNL A   1      43.111  27.730  32.180  1.00  0.00     0.074 A 
ATOM     45  C   UNL A   1      43.873  26.710  31.493  1.00  0.00     0.031 C 
ATOM     46  C   UNL A   1      38.791  29.525  27.778  1.00  0.00     0.029 A 
ATOM     47  C   UNL A   1      38.921  30.009  29.150  1.00  0.00     0.049 A 
ATOM     48  H   UNL A   1      40.391  29.491  30.533  1.00  0.00     0.167 HD
ATOM     49  C   UNL A   1      43.354  28.139  33.446  1.00  0.00     0.031 A 
ATOM     50  C   UNL A   1      38.101  30.892  29.756  1.00  0.00     0.031 A 
ATOM     51  C   UNL A   1      42.597  29.151  34.132  1.00  0.00     0.049 A 
ATOM     52  C   UNL A   1      38.351  31.267  31.195  1.00  0.00     0.074 A 
ATOM     53  C   UNL A   1      42.796  29.659  35.404  1.00  0.00     0.029 A 
ATOM     54  N   UNL A   1      41.489  29.799  33.610  1.00  0.00    -0.354 N 
ATOM     55  N   UNL A   1      39.315  30.886  31.998  1.00  0.00    -0.248 NA
ATOM     56  C   UNL A   1      37.395  32.202  31.811  1.00  0.00     0.031 C 
ATOM     57  C   UNL A   1      41.768  30.564  35.678  1.00  0.00     0.029 A 
ATOM     58  C   UNL A   1      40.970  30.672  34.550  1.00  0.00     0.049 A 
ATOM     59  H   UNL A   1      41.125  29.658  32.706  1.00  0.00     0.167 HD
ATOM     60  C   UNL A   1      39.101  31.560  33.196  1.00  0.00     0.074 A 
ATOM     61  C   UNL A   1      37.928  32.387  33.010  1.00  0.00     0.031 C 
ATOM     62  C   UNL A   1      39.812  31.501  34.349  1.00  0.00     0.031 A 
BRANCH  49  63
ATOM     63  C   UNL A   1      44.460  27.461  34.203  1.00  0.00    -0.014 A 
ATOM     64  C   UNL A   1      45.765  27.977  34.214  1.00  0.00     0.009 A 
ATOM     65  C   UNL A   1      44.168  26.330  34.983  1.00  0.00     0.009 A 
ATOM     66  C   UNL A   1      46.758  27.362  34.980  1.00  0.00     0.001 A 
ATOM     67  C   UNL A   1      45.156  25.735  35.767  1.00  0.00     0.001 A 
ATOM     68  C   UNL A   1      46.451  26.248  35.761  1.00  0.00     0.000 A 
ENDBRANCH  49  63
BRANCH  50  69
ATOM     69  C   UNL A   1      36.928  31.458  29.035  1.00  0.00    -0.014 A 
ATOM     70  C   UNL A   1      36.964  32.762  28.517  1.00  0.00     0.009 A 
ATOM     71  C   UNL A   1      35.737  30.723  28.929  1.00  0.00     0.009 A 
ATOM     72  C   UNL A   1      35.822  33.332  27.950  1.00  0.00     0.001 A 
ATOM     73  C   UNL A   1      34.607  31.282  28.330  1.00  0.00     0.001 A 
ATOM     74  C   UNL A   1      34.645  32.592  27.856  1.00  0.00     0.000 A 
ENDBRANCH  50  69
BRANCH  62  75
ATOM     75  C   UNL A   1      39.378  32.390  35.481  1.00  0.00    -0.014 A 
ATOM     76  C   UNL A   1      38.479  31.945  36.462  1.00  0.00     0.009 A 
ATOM     77  C   UNL A   1      39.915  33.683  35.590  1.00  0.00     0.009 A 
ATOM     78  C   UNL A   1      38.099  32.789  37.508  1.00  0.00     0.001 A 
ATOM     79  C   UNL A   1      39.561  34.513  36.655  1.00  0.00     0.001 A 
ATOM     80  C   UNL A   1      38.645  34.069  37.606  1.00  0.00     0.000 A 
ENDBRANCH  62  75
ENDBRANCH  36  37
ENDBRANCH  29  31
ENDBRANCH  28  29
ENDBRANCH  27  28
ENDBRANCH  26  27
ENDBRANCH  25  26
ENDBRANCH   1  25
TORSDOF 19
ENDMDL
MODEL 3
REMARK VINA RESULT:      -9.6      3.712      6.822
REMARK SMILES COc1c(C(=O)OCCOCCOCCOC(=O)c2ccc(-c3c4nc(c(-c5ccccc5)c5ccc([nH]5)c(-c5ccccc5)c5nc(c(-c6ccccc6)c6ccc3[nH]6)C=C5)C=C4)cc2)cccc1-c1cc(C)ccc1C
REMARK SMILES IDX 12 1 11 2 10 3 9 4 8 5 7 6 5 7 6 8 4 9 3 10 70 11 67 12
REMARK SMILES IDX 69 13 68 14 2 15 1 16 71 17 72 18 77 19 73 20 76 21 78 22
REMARK SMILES IDX 74 23 75 24 13 25 14 26 15 27 16 28 17 29 18 30 19 31 20 32
REMARK SMILES IDX 66 33 21 34 65 35 22 36 23 37 24 38 59 39 25 40 64 41 58 42
REMARK SMILES IDX 60 43 26 44 63 45 57 46 56 47 27 49 49 50 34 51 48 52 35 53
REMARK SMILES IDX 38 54 47 55 61 56 36 57 37 58 46 60 62 61 39 62 28 63 29 64
REMARK SMILES IDX 33 65 30 66 32 67 31 68 50 69 51 70 55 71 52 72 54 73 53 74
REMARK SMILES IDX 40 75 41 76 45 77 42 78 44 79 43 80
REMARK H PARENT 60 48 38 59
REMARK Flexibility Score: inf
ROOT
ATOM      1  C   UNL A   1      40.480  21.927  27.216  1.00  0.00     0.188 C 
ENDROOT
BRANCH   1   2
ATOM      2  C   UNL A   1      39.320  22.193  26.234  1.00  0.00     0.188 C 
BRANCH   2   3
ATOM      3  O   UNL A   1      38.421  23.264  26.459  1.00  0.00    -0.376 OA
BRANCH   3   4
ATOM      4  C   UNL A   1      37.186  23.308  25.756  1.00  0.00     0.202 C 
BRANCH   4   5
ATOM      5  C   UNL A   1      36.760  22.165  24.826  1.00  0.00     0.261 C 
BRANCH   5   6
ATOM      6  O   UNL A   1      35.950  22.600  23.727  1.00  0.00    -0.460 OA
BRANCH   6   7
ATOM      7  C   UNL A   1      34.617  22.397  23.868  1.00  0.00     0.342 C 
ATOM      8  O   UNL A   1      34.074  21.384  24.283  1.00  0.00    -0.246 OA
BRANCH   7   9
ATOM      9  C   UNL A   1      33.878  23.667  23.700  1.00  0.00     0.102 A 
ATOM     10  C   UNL A   1      33.486  24.480  24.774  1.00  0.00     0.141 A 
ATOM     11  C   UNL A   1      32.939  25.760  24.518  1.00  0.00     0.025 A 
ATOM     12  C   UNL A   1      33.574  24.039  22.380  1.00  0.00     0.019 A 
ATOM     13  C   UNL A   1      32.605  26.084  23.184  1.00  0.00     0.012 A 
ATOM     14  C   UNL A   1      32.896  25.223  22.127  1.00  0.00     0.002 A 
BRANCH  10  15
ATOM     15  O   UNL A   1      33.750  24.032  26.046  1.00  0.00    -0.495 OA
ATOM     16  C   UNL A   1      32.619  23.396  26.652  1.00  0.00     0.278 C 
ENDBRANCH  10  15
BRANCH  11  17
ATOM     17  C   UNL A   1      32.832  26.817  25.553  1.00  0.00    -0.011 A 
ATOM     18  C   UNL A   1      33.963  27.595  25.886  1.00  0.00     0.012 A 
ATOM     19  C   UNL A   1      31.635  27.040  26.278  1.00  0.00    -0.043 A 
ATOM     20  C   UNL A   1      33.916  28.580  26.886  1.00  0.00    -0.050 A 
ATOM     21  C   UNL A   1      31.580  28.071  27.231  1.00  0.00     0.004 A 
ATOM     22  C   UNL A   1      30.374  26.238  26.066  1.00  0.00     0.045 C 
ATOM     23  C   UNL A   1      35.154  29.341  27.260  1.00  0.00     0.044 C 
ATOM     24  C   UNL A   1      32.709  28.826  27.537  1.00  0.00     0.004 A 
ENDBRANCH  11  17
ENDBRANCH   7   9
ENDBRANCH   6   7
ENDBRANCH   5   6
ENDBRANCH   4   5
ENDBRANCH   3   4
ENDBRANCH   2   3
ENDBRANCH   1   2
BRANCH   1  25
ATOM     25  O   UNL A   1      41.462  20.968  26.908  1.00  0.00    -0.376 OA
BRANCH  25  26
ATOM     26  C   UNL A   1      42.767  21.368  26.529  1.00  0.00     0.202 C 
BRANCH  26  27
ATOM     27  C   UNL A   1      43.106  22.618  25.696  1.00  0.00     0.261 C 
BRANCH  27  28
ATOM     28  O   UNL A   1      43.462  23.813  26.398  1.00  0.00    -0.460 OA
BRANCH  28  29
ATOM     29  C   UNL A   1      43.040  24.967  25.833  1.00  0.00     0.338 C 
ATOM     30  O   UNL A   1      42.971  25.231  24.636  1.00  0.00    -0.246 OA
BRANCH  29  31
ATOM     31  C   UNL A   1      42.487  25.843  26.878  1.00  0.00     0.060 A 
ATOM     32  C   UNL A   1      42.999  27.141  27.019  1.00  0.00     0.016 A 
ATOM     33  C   UNL A   1      41.493  25.374  27.736  1.00  0.00     0.016 A 
ATOM     34  C   UNL A   1      42.520  27.975  28.029  1.00  0.00     0.010 A 
ATOM     35  C   UNL A   1      41.033  26.203  28.763  1.00  0.00     0.010 A 
ATOM     36  C   UNL A   1      41.559  27.497  28.928  1.00  0.00    -0.014 A 
BRANCH  36  37
ATOM     37  C   UNL A   1      41.206  28.286  30.134  1.00  0.00     0.031 A 
ATOM     38  C   UNL A   1      40.060  29.256  30.051  1.00  0.00     0.074 A 
ATOM     39  C   UNL A   1      41.902  28.159  31.278  1.00  0.00     0.049 A 
ATOM     40  N   UNL A   1      39.637  30.118  30.939  1.00  0.00    -0.248 NA
ATOM     41  C   UNL A   1      39.289  29.257  28.795  1.00  0.00     0.031 C 
ATOM     42  C   UNL A   1      43.003  27.224  31.504  1.00  0.00     0.029 A 
ATOM     43  N   UNL A   1      41.791  28.842  32.464  1.00  0.00    -0.354 N 
ATOM     44  C   UNL A   1      38.569  30.779  30.344  1.00  0.00     0.074 A 
ATOM     45  C   UNL A   1      38.412  30.226  29.017  1.00  0.00     0.031 C 
ATOM     46  C   UNL A   1      43.480  27.408  32.749  1.00  0.00     0.029 A 
ATOM     47  C   UNL A   1      42.748  28.499  33.388  1.00  0.00     0.049 A 
ATOM     48  H   UNL A   1      41.091  29.514  32.635  1.00  0.00     0.167 HD
ATOM     49  C   UNL A   1      37.795  31.763  30.856  1.00  0.00     0.031 A 
ATOM     50  C   UNL A   1      43.024  29.032  34.595  1.00  0.00     0.031 A 
ATOM     51  C   UNL A   1      37.951  32.316  32.174  1.00  0.00     0.049 A 
ATOM     52  C   UNL A   1      42.191  30.182  35.105  1.00  0.00     0.074 A 
ATOM     53  C   UNL A   1      37.185  33.289  32.793  1.00  0.00     0.029 A 
ATOM     54  N   UNL A   1      38.944  31.958  33.069  1.00  0.00    -0.354 N 
ATOM     55  N   UNL A   1      41.154  30.765  34.554  1.00  0.00    -0.248 NA
ATOM     56  C   UNL A   1      42.571  30.748  36.410  1.00  0.00     0.031 C 
ATOM     57  C   UNL A   1      37.757  33.568  34.036  1.00  0.00     0.029 A 
ATOM     58  C   UNL A   1      38.837  32.719  34.220  1.00  0.00     0.049 A 
ATOM     59  H   UNL A   1      39.626  31.265  32.910  1.00  0.00     0.167 HD
ATOM     60  C   UNL A   1      40.737  31.735  35.459  1.00  0.00     0.074 A 
ATOM     61  C   UNL A   1      41.622  31.652  36.601  1.00  0.00     0.031 C 
ATOM     62  C   UNL A   1      39.714  32.618  35.356  1.00  0.00     0.031 A 
BRANCH  49  63
ATOM     63  C   UNL A   1      36.728  32.347  29.975  1.00  0.00    -0.014 A 
ATOM     64  C   UNL A   1      35.397  31.908  30.045  1.00  0.00     0.009 A 
ATOM     65  C   UNL A   1      37.050  33.411  29.116  1.00  0.00     0.009 A 
ATOM     66  C   UNL A   1      34.413  32.515  29.260  1.00  0.00     0.001 A 
ATOM     67  C   UNL A   1      36.061  34.032  28.354  1.00  0.00     0.001 A 
ATOM     68  C   UNL A   1      34.745  33.580  28.423  1.00  0.00     0.000 A 
ENDBRANCH  49  63
BRANCH  50  69
ATOM     69  C   UNL A   1      44.169  28.531  35.404  1.00  0.00    -0.014 A 
ATOM     70  C   UNL A   1      43.981  27.536  36.377  1.00  0.00     0.009 A 
ATOM     71  C   UNL A   1      45.444  29.101  35.260  1.00  0.00     0.009 A 
ATOM     72  C   UNL A   1      45.031  27.157  37.216  1.00  0.00     0.001 A 
ATOM     73  C   UNL A   1      46.501  28.695  36.076  1.00  0.00     0.001 A 
ATOM     74  C   UNL A   1      46.291  27.735  37.064  1.00  0.00     0.000 A 
ENDBRANCH  50  69
BRANCH  62  75
ATOM     75  C   UNL A   1      39.458  33.528  36.525  1.00  0.00    -0.014 A 
ATOM     76  C   UNL A   1      39.993  34.824  36.578  1.00  0.00     0.009 A 
ATOM     77  C   UNL A   1      38.628  33.093  37.572  1.00  0.00     0.009 A 
ATOM     78  C   UNL A   1      39.733  35.652  37.672  1.00  0.00     0.001 A 
ATOM     79  C   UNL A   1      38.342  33.935  38.647  1.00  0.00     0.001 A 
ATOM     80  C   UNL A   1      38.903  35.208  38.702  1.00  0.00     0.000 A 
ENDBRANCH  62  75
ENDBRANCH  36  37
ENDBRANCH  29  31
ENDBRANCH  28  29
ENDBRANCH  27  28
ENDBRANCH  26  27
ENDBRANCH  25  26
ENDBRANCH   1  25
TORSDOF 19
ENDMDL
