MODEL 1
REMARK VINA RESULT:      -7.7      0.000      0.000
REMARK SMILES Cn1cncc1COc1c(F)cc(C(=O)OCCOCCOCCOC(=O)c2ccc(-c3c4nc(c(-c5ccccc5)c5ccc([nH]5)c(-c5ccccc5)c5nc(c(-c6ccccc6)c6ccc3[nH]6)C=C5)C=C4)cc2)cc1F
REMARK SMILES IDX 20 1 19 2 18 3 17 4 16 5 14 6 15 7 13 8 9 9 10 10 77 11
REMARK SMILES IDX 11 12 12 13 76 14 78 15 8 16 7 17 6 18 1 19 2 20 3 21 4 22
REMARK SMILES IDX 5 23 21 24 22 25 23 26 24 27 25 28 26 29 27 30 28 31 29 32
REMARK SMILES IDX 75 33 30 34 74 35 31 36 32 37 33 38 68 39 34 40 73 41 67 42
REMARK SMILES IDX 69 43 35 44 72 45 66 46 65 47 36 49 58 50 43 51 57 52 44 53
REMARK SMILES IDX 47 54 56 55 70 56 45 57 46 58 55 60 71 61 48 62 37 63 38 64
REMARK SMILES IDX 42 65 39 66 41 67 40 68 59 69 60 70 64 71 61 72 63 73 62 74
REMARK SMILES IDX 49 75 50 76 54 77 51 78 53 79 52 80
REMARK H PARENT 69 48 47 59
REMARK Flexibility Score: inf
ROOT
ATOM      1  C   UNL A   1      34.696  34.414  33.354  1.00  0.00     0.188 C 
ENDROOT
BRANCH   1   2
ATOM      2  O   UNL A   1      35.252  35.041  34.503  1.00  0.00    -0.376 OA
BRANCH   2   3
ATOM      3  C   UNL A   1      35.907  34.266  35.500  1.00  0.00     0.202 C 
BRANCH   3   4
ATOM      4  C   UNL A   1      37.324  33.725  35.250  1.00  0.00     0.261 C 
BRANCH   4   5
ATOM      5  O   UNL A   1      37.460  32.308  35.412  1.00  0.00    -0.460 OA
BRANCH   5   6
ATOM      6  C   UNL A   1      37.420  31.564  34.275  1.00  0.00     0.338 C 
ATOM      7  O   UNL A   1      36.625  31.642  33.368  1.00  0.00    -0.246 OA
BRANCH   6   8
ATOM      8  C   UNL A   1      38.646  30.729  34.217  1.00  0.00     0.066 A 
ATOM      9  C   UNL A   1      40.986  29.220  33.945  1.00  0.00     0.191 A 
ATOM     10  C   UNL A   1      40.933  30.307  34.818  1.00  0.00     0.169 A 
ATOM     11  C   UNL A   1      39.873  28.941  33.156  1.00  0.00     0.169 A 
ATOM     12  F   UNL A   1      42.015  30.700  35.498  1.00  0.00    -0.203 F 
ATOM     13  C   UNL A   1      39.766  31.039  34.990  1.00  0.00     0.059 A 
ATOM     14  C   UNL A   1      38.702  29.685  33.285  1.00  0.00     0.059 A 
ATOM     15  F   UNL A   1      39.920  27.958  32.246  1.00  0.00    -0.203 F 
BRANCH   9  16
ATOM     16  O   UNL A   1      42.127  28.478  33.797  1.00  0.00    -0.481 OA
BRANCH  16  17
ATOM     17  C   UNL A   1      42.068  27.247  34.542  1.00  0.00     0.285 C 
BRANCH  17  18
ATOM     18  C   UNL A   1      43.302  27.134  35.363  1.00  0.00     0.075 A 
ATOM     19  C   UNL A   1      43.999  24.799  34.691  1.00  0.00     0.151 C 
ATOM     20  N   UNL A   1      44.112  26.026  35.441  1.00  0.00    -0.335 N 
ATOM     21  C   UNL A   1      45.047  26.262  36.410  1.00  0.00     0.199 A 
ATOM     22  N   UNL A   1      44.939  27.475  36.900  1.00  0.00    -0.245 NA
ATOM     23  C   UNL A   1      43.856  28.022  36.265  1.00  0.00     0.138 A 
ENDBRANCH  17  18
ENDBRANCH  16  17
ENDBRANCH   9  16
ENDBRANCH   6   8
ENDBRANCH   5   6
ENDBRANCH   4   5
ENDBRANCH   3   4
ENDBRANCH   2   3
ENDBRANCH   1   2
BRANCH   1  24
ATOM     24  C   UNL A   1      33.504  35.056  32.611  1.00  0.00     0.188 C 
BRANCH  24  25
ATOM     25  O   UNL A   1      33.804  36.295  32.017  1.00  0.00    -0.376 OA
BRANCH  25  26
ATOM     26  C   UNL A   1      33.064  36.701  30.879  1.00  0.00     0.202 C 
BRANCH  26  27
ATOM     27  C   UNL A   1      33.176  36.023  29.496  1.00  0.00     0.261 C 
BRANCH  27  28
ATOM     28  O   UNL A   1      32.527  34.760  29.300  1.00  0.00    -0.460 OA
BRANCH  28  29
ATOM     29  C   UNL A   1      33.062  33.930  28.374  1.00  0.00     0.338 C 
ATOM     30  O   UNL A   1      32.630  33.686  27.263  1.00  0.00    -0.246 OA
BRANCH  29  31
ATOM     31  C   UNL A   1      34.379  33.478  28.871  1.00  0.00     0.060 A 
ATOM     32  C   UNL A   1      35.535  33.823  28.157  1.00  0.00     0.016 A 
ATOM     33  C   UNL A   1      34.467  32.709  30.033  1.00  0.00     0.016 A 
ATOM     34  C   UNL A   1      36.786  33.385  28.600  1.00  0.00     0.010 A 
ATOM     35  C   UNL A   1      35.719  32.256  30.462  1.00  0.00     0.010 A 
ATOM     36  C   UNL A   1      36.882  32.572  29.737  1.00  0.00    -0.014 A 
BRANCH  36  37
ATOM     37  C   UNL A   1      38.168  31.920  30.088  1.00  0.00     0.031 A 
ATOM     38  C   UNL A   1      39.121  32.643  31.001  1.00  0.00     0.074 A 
ATOM     39  C   UNL A   1      38.495  30.709  29.600  1.00  0.00     0.049 A 
ATOM     40  N   UNL A   1      40.325  32.303  31.383  1.00  0.00    -0.248 NA
ATOM     41  C   UNL A   1      38.652  33.926  31.550  1.00  0.00     0.031 C 
ATOM     42  C   UNL A   1      37.649  29.883  28.742  1.00  0.00     0.029 A 
ATOM     43  N   UNL A   1      39.643  29.971  29.753  1.00  0.00    -0.354 N 
ATOM     44  C   UNL A   1      40.762  33.334  32.206  1.00  0.00     0.074 A 
ATOM     45  C   UNL A   1      39.706  34.323  32.244  1.00  0.00     0.031 C 
ATOM     46  C   UNL A   1      38.311  28.754  28.435  1.00  0.00     0.029 A 
ATOM     47  C   UNL A   1      39.641  28.796  29.041  1.00  0.00     0.049 A 
ATOM     48  H   UNL A   1      40.397  30.257  30.319  1.00  0.00     0.167 HD
ATOM     49  C   UNL A   1      41.935  33.447  32.875  1.00  0.00     0.031 A 
ATOM     50  C   UNL A   1      40.610  27.875  28.875  1.00  0.00     0.031 A 
ATOM     51  C   UNL A   1      42.993  32.474  32.823  1.00  0.00     0.049 A 
ATOM     52  C   UNL A   1      41.941  28.065  29.558  1.00  0.00     0.074 A 
ATOM     53  C   UNL A   1      44.212  32.492  33.479  1.00  0.00     0.029 A 
ATOM     54  N   UNL A   1      42.963  31.315  32.062  1.00  0.00    -0.354 N 
ATOM     55  N   UNL A   1      42.331  29.027  30.359  1.00  0.00    -0.248 NA
ATOM     56  C   UNL A   1      42.964  27.035  29.317  1.00  0.00     0.031 C 
ATOM     57  C   UNL A   1      44.946  31.378  33.063  1.00  0.00     0.029 A 
ATOM     58  C   UNL A   1      44.156  30.626  32.208  1.00  0.00     0.049 A 
ATOM     59  H   UNL A   1      42.207  31.025  31.503  1.00  0.00     0.167 HD
ATOM     60  C   UNL A   1      43.627  28.700  30.745  1.00  0.00     0.074 A 
ATOM     61  C   UNL A   1      43.953  27.447  30.098  1.00  0.00     0.031 C 
ATOM     62  C   UNL A   1      44.468  29.376  31.565  1.00  0.00     0.031 A 
BRANCH  49  63
ATOM     63  C   UNL A   1      42.149  34.692  33.691  1.00  0.00    -0.014 A 
ATOM     64  C   UNL A   1      42.771  35.827  33.147  1.00  0.00     0.009 A 
ATOM     65  C   UNL A   1      41.689  34.740  35.016  1.00  0.00     0.009 A 
ATOM     66  C   UNL A   1      42.960  36.971  33.926  1.00  0.00     0.001 A 
ATOM     67  C   UNL A   1      41.851  35.896  35.783  1.00  0.00     0.001 A 
ATOM     68  C   UNL A   1      42.495  37.006  35.240  1.00  0.00     0.000 A 
ENDBRANCH  49  63
BRANCH  50  69
ATOM     69  C   UNL A   1      40.375  26.689  28.008  1.00  0.00    -0.014 A 
ATOM     70  C   UNL A   1      39.682  25.570  28.494  1.00  0.00     0.009 A 
ATOM     71  C   UNL A   1      40.870  26.658  26.694  1.00  0.00     0.009 A 
ATOM     72  C   UNL A   1      39.513  24.436  27.694  1.00  0.00     0.001 A 
ATOM     73  C   UNL A   1      40.671  25.536  25.885  1.00  0.00     0.001 A 
ATOM     74  C   UNL A   1      40.004  24.423  26.389  1.00  0.00     0.000 A 
ENDBRANCH  50  69
BRANCH  62  75
ATOM     75  C   UNL A   1      45.807  28.754  31.857  1.00  0.00    -0.014 A 
ATOM     76  C   UNL A   1      46.102  28.195  33.110  1.00  0.00     0.009 A 
ATOM     77  C   UNL A   1      46.770  28.676  30.837  1.00  0.00     0.009 A 
ATOM     78  C   UNL A   1      47.344  27.598  33.343  1.00  0.00     0.001 A 
ATOM     79  C   UNL A   1      47.997  28.052  31.062  1.00  0.00     0.001 A 
ATOM     80  C   UNL A   1      48.287  27.522  32.318  1.00  0.00     0.000 A 
ENDBRANCH  62  75
ENDBRANCH  36  37
ENDBRANCH  29  31
ENDBRANCH  28  29
ENDBRANCH  27  28
ENDBRANCH  26  27
ENDBRANCH  25  26
ENDBRANCH  24  25
ENDBRANCH   1  24
TORSDOF 20
ENDMDL
MODEL 2
REMARK VINA RESULT:      -7.3      5.061      8.060
REMARK SMILES Cn1cncc1COc1c(F)cc(C(=O)OCCOCCOCCOC(=O)c2ccc(-c3c4nc(c(-c5ccccc5)c5ccc([nH]5)c(-c5ccccc5)c5nc(c(-c6ccccc6)c6ccc3[nH]6)C=C5)C=C4)cc2)cc1F
REMARK SMILES IDX 20 1 19 2 18 3 17 4 16 5 14 6 15 7 13 8 9 9 10 10 77 11
REMARK SMILES IDX 11 12 12 13 76 14 78 15 8 16 7 17 6 18 1 19 2 20 3 21 4 22
REMARK SMILES IDX 5 23 21 24 22 25 23 26 24 27 25 28 26 29 27 30 28 31 29 32
REMARK SMILES IDX 75 33 30 34 74 35 31 36 32 37 33 38 68 39 34 40 73 41 67 42
REMARK SMILES IDX 69 43 35 44 72 45 66 46 65 47 36 49 58 50 43 51 57 52 44 53
REMARK SMILES IDX 47 54 56 55 70 56 45 57 46 58 55 60 71 61 48 62 37 63 38 64
REMARK SMILES IDX 42 65 39 66 41 67 40 68 59 69 60 70 64 71 61 72 63 73 62 74
REMARK SMILES IDX 49 75 50 76 54 77 51 78 53 79 52 80
REMARK H PARENT 69 48 47 59
REMARK Flexibility Score: inf
ROOT
ATOM      1  C   UNL A   1      34.670  32.525  28.075  1.00  0.00     0.188 C 
ENDROOT
BRANCH   1   2
ATOM      2  O   UNL A   1      33.700  31.567  27.671  1.00  0.00    -0.376 OA
BRANCH   2   3
ATOM      3  C   UNL A   1      34.103  30.270  27.247  1.00  0.00     0.202 C 
BRANCH   3   4
ATOM      4  C   UNL A   1      33.193  29.057  27.502  1.00  0.00     0.261 C 
BRANCH   4   5
ATOM      5  O   UNL A   1      31.920  29.116  26.849  1.00  0.00    -0.460 OA
BRANCH   5   6
ATOM      6  C   UNL A   1      31.910  28.836  25.519  1.00  0.00     0.338 C 
ATOM      7  O   UNL A   1      32.046  29.608  24.599  1.00  0.00    -0.246 OA
BRANCH   6   8
ATOM      8  C   UNL A   1      31.888  27.361  25.350  1.00  0.00     0.066 A 
ATOM      9  C   UNL A   1      31.991  24.574  25.134  1.00  0.00     0.191 A 
ATOM     10  C   UNL A   1      30.994  25.197  25.884  1.00  0.00     0.169 A 
ATOM     11  C   UNL A   1      32.980  25.362  24.550  1.00  0.00     0.169 A 
ATOM     12  F   UNL A   1      30.101  24.481  26.575  1.00  0.00    -0.203 F 
ATOM     13  C   UNL A   1      30.910  26.580  25.966  1.00  0.00     0.059 A 
ATOM     14  C   UNL A   1      32.937  26.751  24.649  1.00  0.00     0.059 A 
ATOM     15  F   UNL A   1      34.000  24.790  23.895  1.00  0.00    -0.203 F 
BRANCH   9  16
ATOM     16  O   UNL A   1      32.058  23.210  25.026  1.00  0.00    -0.481 OA
BRANCH  16  17
ATOM     17  C   UNL A   1      32.688  22.611  26.174  1.00  0.00     0.285 C 
BRANCH  17  18
ATOM     18  C   UNL A   1      33.950  21.961  25.733  1.00  0.00     0.075 A 
ATOM     19  C   UNL A   1      32.968  19.860  24.726  1.00  0.00     0.151 C 
ATOM     20  N   UNL A   1      34.046  20.727  25.133  1.00  0.00    -0.335 N 
ATOM     21  C   UNL A   1      35.374  20.422  25.022  1.00  0.00     0.199 A 
ATOM     22  N   UNL A   1      36.133  21.410  25.437  1.00  0.00    -0.245 NA
ATOM     23  C   UNL A   1      35.262  22.366  25.887  1.00  0.00     0.138 A 
ENDBRANCH  17  18
ENDBRANCH  16  17
ENDBRANCH   9  16
ENDBRANCH   6   8
ENDBRANCH   5   6
ENDBRANCH   4   5
ENDBRANCH   3   4
ENDBRANCH   2   3
ENDBRANCH   1   2
BRANCH   1  24
ATOM     24  C   UNL A   1      34.334  34.032  28.063  1.00  0.00     0.188 C 
BRANCH  24  25
ATOM     25  O   UNL A   1      34.595  34.684  29.281  1.00  0.00    -0.376 OA
BRANCH  25  26
ATOM     26  C   UNL A   1      34.014  34.169  30.467  1.00  0.00     0.202 C 
BRANCH  26  27
ATOM     27  C   UNL A   1      34.542  34.479  31.885  1.00  0.00     0.261 C 
BRANCH  27  28
ATOM     28  O   UNL A   1      35.913  34.189  32.183  1.00  0.00    -0.460 OA
BRANCH  28  29
ATOM     29  C   UNL A   1      36.166  33.054  32.875  1.00  0.00     0.338 C 
ATOM     30  O   UNL A   1      35.586  32.647  33.864  1.00  0.00    -0.246 OA
BRANCH  29  31
ATOM     31  C   UNL A   1      37.180  32.278  32.128  1.00  0.00     0.060 A 
ATOM     32  C   UNL A   1      38.123  31.524  32.839  1.00  0.00     0.016 A 
ATOM     33  C   UNL A   1      37.200  32.305  30.734  1.00  0.00     0.016 A 
ATOM     34  C   UNL A   1      39.102  30.802  32.150  1.00  0.00     0.010 A 
ATOM     35  C   UNL A   1      38.192  31.598  30.048  1.00  0.00     0.010 A 
ATOM     36  C   UNL A   1      39.163  30.861  30.752  1.00  0.00    -0.014 A 
BRANCH  36  37
ATOM     37  C   UNL A   1      40.321  30.286  30.024  1.00  0.00     0.031 A 
ATOM     38  C   UNL A   1      41.533  31.149  29.797  1.00  0.00     0.074 A 
ATOM     39  C   UNL A   1      40.301  29.023  29.561  1.00  0.00     0.049 A 
ATOM     40  N   UNL A   1      42.626  30.886  29.127  1.00  0.00    -0.248 NA
ATOM     41  C   UNL A   1      41.502  32.490  30.403  1.00  0.00     0.031 C 
ATOM     42  C   UNL A   1      39.210  28.068  29.748  1.00  0.00     0.029 A 
ATOM     43  N   UNL A   1      41.231  28.332  28.824  1.00  0.00    -0.354 N 
ATOM     44  C   UNL A   1      43.407  32.032  29.221  1.00  0.00     0.074 A 
ATOM     45  C   UNL A   1      42.651  33.000  29.986  1.00  0.00     0.031 C 
ATOM     46  C   UNL A   1      39.529  26.917  29.132  1.00  0.00     0.029 A 
ATOM     47  C   UNL A   1      40.827  27.067  28.474  1.00  0.00     0.049 A 
ATOM     48  H   UNL A   1      42.104  28.709  28.570  1.00  0.00     0.167 HD
ATOM     49  C   UNL A   1      44.645  32.259  28.719  1.00  0.00     0.031 A 
ATOM     50  C   UNL A   1      41.422  26.146  27.691  1.00  0.00     0.031 A 
ATOM     51  C   UNL A   1      45.390  31.304  27.942  1.00  0.00     0.049 A 
ATOM     52  C   UNL A   1      42.761  26.454  27.068  1.00  0.00     0.074 A 
ATOM     53  C   UNL A   1      46.659  31.436  27.404  1.00  0.00     0.029 A 
ATOM     54  N   UNL A   1      44.929  30.048  27.581  1.00  0.00    -0.354 N 
ATOM     55  N   UNL A   1      43.503  27.527  27.190  1.00  0.00    -0.248 NA
ATOM     56  C   UNL A   1      43.345  25.416  26.205  1.00  0.00     0.031 C 
ATOM     57  C   UNL A   1      46.938  30.285  26.662  1.00  0.00     0.029 A 
ATOM     58  C   UNL A   1      45.876  29.406  26.800  1.00  0.00     0.049 A 
ATOM     59  H   UNL A   1      44.059  29.668  27.842  1.00  0.00     0.167 HD
ATOM     60  C   UNL A   1      44.655  27.280  26.451  1.00  0.00     0.074 A 
ATOM     61  C   UNL A   1      44.518  25.951  25.892  1.00  0.00     0.031 C 
ATOM     62  C   UNL A   1      45.732  28.080  26.256  1.00  0.00     0.031 A 
BRANCH  49  63
ATOM     63  C   UNL A   1      45.254  33.612  28.963  1.00  0.00    -0.014 A 
ATOM     64  C   UNL A   1      46.208  33.814  29.973  1.00  0.00     0.009 A 
ATOM     65  C   UNL A   1      44.891  34.694  28.146  1.00  0.00     0.009 A 
ATOM     66  C   UNL A   1      46.758  35.082  30.183  1.00  0.00     0.001 A 
ATOM     67  C   UNL A   1      45.466  35.952  28.336  1.00  0.00     0.001 A 
ATOM     68  C   UNL A   1      46.390  36.146  29.361  1.00  0.00     0.000 A 
ENDBRANCH  49  63
BRANCH  50  69
ATOM     69  C   UNL A   1      40.754  24.843  27.425  1.00  0.00    -0.014 A 
ATOM     70  C   UNL A   1      41.243  23.657  27.993  1.00  0.00     0.009 A 
ATOM     71  C   UNL A   1      39.636  24.776  26.577  1.00  0.00     0.009 A 
ATOM     72  C   UNL A   1      40.645  22.429  27.695  1.00  0.00     0.001 A 
ATOM     73  C   UNL A   1      39.021  23.551  26.308  1.00  0.00     0.001 A 
ATOM     74  C   UNL A   1      39.532  22.378  26.857  1.00  0.00     0.000 A 
ENDBRANCH  50  69
BRANCH  62  75
ATOM     75  C   UNL A   1      46.875  27.528  25.448  1.00  0.00    -0.014 A 
ATOM     76  C   UNL A   1      47.001  27.789  24.075  1.00  0.00     0.009 A 
ATOM     77  C   UNL A   1      47.876  26.779  26.089  1.00  0.00     0.009 A 
ATOM     78  C   UNL A   1      48.089  27.287  23.356  1.00  0.00     0.001 A 
ATOM     79  C   UNL A   1      48.978  26.305  25.377  1.00  0.00     0.001 A 
ATOM     80  C   UNL A   1      49.078  26.552  24.008  1.00  0.00     0.000 A 
ENDBRANCH  62  75
ENDBRANCH  36  37
ENDBRANCH  29  31
ENDBRANCH  28  29
ENDBRANCH  27  28
ENDBRANCH  26  27
ENDBRANCH  25  26
ENDBRANCH  24  25
ENDBRANCH   1  24
TORSDOF 20
ENDMDL
MODEL 3
REMARK VINA RESULT:      -7.3      6.132     12.312
REMARK SMILES Cn1cncc1COc1c(F)cc(C(=O)OCCOCCOCCOC(=O)c2ccc(-c3c4nc(c(-c5ccccc5)c5ccc([nH]5)c(-c5ccccc5)c5nc(c(-c6ccccc6)c6ccc3[nH]6)C=C5)C=C4)cc2)cc1F
REMARK SMILES IDX 20 1 19 2 18 3 17 4 16 5 14 6 15 7 13 8 9 9 10 10 77 11
REMARK SMILES IDX 11 12 12 13 76 14 78 15 8 16 7 17 6 18 1 19 2 20 3 21 4 22
REMARK SMILES IDX 5 23 21 24 22 25 23 26 24 27 25 28 26 29 27 30 28 31 29 32
REMARK SMILES IDX 75 33 30 34 74 35 31 36 32 37 33 38 68 39 34 40 73 41 67 42
REMARK SMILES IDX 69 43 35 44 72 45 66 46 65 47 36 49 58 50 43 51 57 52 44 53
REMARK SMILES IDX 47 54 56 55 70 56 45 57 46 58 55 60 71 61 48 62 37 63 38 64
REMARK SMILES IDX 42 65 39 66 41 67 40 68 59 69 60 70 64 71 61 72 63 73 62 74
REMARK SMILES IDX 49 75 50 76 54 77 51 78 53 79 52 80
REMARK H PARENT 69 48 47 59
REMARK Flexibility Score: inf
ROOT
ATOM      1  C   UNL A   1      35.692  22.192  26.134  1.00  0.00     0.188 C 
ENDROOT
BRANCH   1   2
ATOM      2  O   UNL A   1      34.517  21.407  25.974  1.00  0.00    -0.376 OA
BRANCH   2   3
ATOM      3  C   UNL A   1      33.399  21.921  25.260  1.00  0.00     0.202 C 
BRANCH   3   4
ATOM      4  C   UNL A   1      33.107  21.439  23.830  1.00  0.00     0.261 C 
BRANCH   4   5
ATOM      5  O   UNL A   1      33.094  22.475  22.840  1.00  0.00    -0.460 OA
BRANCH   5   6
ATOM      6  C   UNL A   1      34.092  23.393  22.915  1.00  0.00     0.338 C 
ATOM      7  O   UNL A   1      35.279  23.209  22.777  1.00  0.00    -0.246 OA
BRANCH   6   8
ATOM      8  C   UNL A   1      33.482  24.743  23.014  1.00  0.00     0.066 A 
ATOM      9  C   UNL A   1      32.480  27.352  23.128  1.00  0.00     0.191 A 
ATOM     10  C   UNL A   1      31.952  26.421  22.234  1.00  0.00     0.169 A 
ATOM     11  C   UNL A   1      33.566  26.981  23.917  1.00  0.00     0.169 A 
ATOM     12  F   UNL A   1      31.000  26.766  21.360  1.00  0.00    -0.203 F 
ATOM     13  C   UNL A   1      32.415  25.114  22.196  1.00  0.00     0.059 A 
ATOM     14  C   UNL A   1      34.071  25.683  23.870  1.00  0.00     0.059 A 
ATOM     15  F   UNL A   1      34.152  27.876  24.725  1.00  0.00    -0.203 F 
BRANCH   9  16
ATOM     16  O   UNL A   1      32.003  28.635  23.189  1.00  0.00    -0.481 OA
BRANCH  16  17
ATOM     17  C   UNL A   1      31.014  28.792  24.223  1.00  0.00     0.285 C 
BRANCH  17  18
ATOM     18  C   UNL A   1      29.727  29.181  23.588  1.00  0.00     0.075 A 
ATOM     19  C   UNL A   1      28.554  26.944  23.699  1.00  0.00     0.151 C 
ATOM     20  N   UNL A   1      28.674  28.334  23.332  1.00  0.00    -0.335 N 
ATOM     21  C   UNL A   1      27.747  29.031  22.608  1.00  0.00     0.199 A 
ATOM     22  N   UNL A   1      28.100  30.285  22.453  1.00  0.00    -0.245 NA
ATOM     23  C   UNL A   1      29.328  30.389  23.049  1.00  0.00     0.138 A 
ENDBRANCH  17  18
ENDBRANCH  16  17
ENDBRANCH   9  16
ENDBRANCH   6   8
ENDBRANCH   5   6
ENDBRANCH   4   5
ENDBRANCH   3   4
ENDBRANCH   2   3
ENDBRANCH   1   2
BRANCH   1  24
ATOM     24  C   UNL A   1      37.041  21.708  25.559  1.00  0.00     0.188 C 
BRANCH  24  25
ATOM     25  O   UNL A   1      36.965  20.471  24.895  1.00  0.00    -0.376 OA
BRANCH  25  26
ATOM     26  C   UNL A   1      38.053  19.570  25.006  1.00  0.00     0.202 C 
BRANCH  26  27
ATOM     27  C   UNL A   1      39.471  19.988  25.454  1.00  0.00     0.261 C 
BRANCH  27  28
ATOM     28  O   UNL A   1      40.315  19.002  26.061  1.00  0.00    -0.460 OA
BRANCH  28  29
ATOM     29  C   UNL A   1      41.630  19.302  26.175  1.00  0.00     0.338 C 
ATOM     30  O   UNL A   1      42.577  18.593  25.891  1.00  0.00    -0.246 OA
BRANCH  29  31
ATOM     31  C   UNL A   1      41.743  20.727  26.553  1.00  0.00     0.060 A 
ATOM     32  C   UNL A   1      42.223  21.648  25.612  1.00  0.00     0.016 A 
ATOM     33  C   UNL A   1      41.383  21.146  27.835  1.00  0.00     0.016 A 
ATOM     34  C   UNL A   1      42.358  22.996  25.960  1.00  0.00     0.010 A 
ATOM     35  C   UNL A   1      41.538  22.491  28.186  1.00  0.00     0.010 A 
ATOM     36  C   UNL A   1      42.047  23.419  27.259  1.00  0.00    -0.014 A 
BRANCH  36  37
ATOM     37  C   UNL A   1      42.393  24.791  27.705  1.00  0.00     0.031 A 
ATOM     38  C   UNL A   1      43.837  25.124  27.967  1.00  0.00     0.074 A 
ATOM     39  C   UNL A   1      41.446  25.728  27.888  1.00  0.00     0.049 A 
ATOM     40  N   UNL A   1      44.365  26.227  28.432  1.00  0.00    -0.248 NA
ATOM     41  C   UNL A   1      44.815  24.065  27.668  1.00  0.00     0.031 C 
ATOM     42  C   UNL A   1      40.018  25.552  27.632  1.00  0.00     0.029 A 
ATOM     43  N   UNL A   1      41.549  27.019  28.347  1.00  0.00    -0.354 N 
ATOM     44  C   UNL A   1      45.733  25.991  28.493  1.00  0.00     0.074 A 
ATOM     45  C   UNL A   1      45.950  24.632  28.046  1.00  0.00     0.031 C 
ATOM     46  C   UNL A   1      39.375  26.690  27.947  1.00  0.00     0.029 A 
ATOM     47  C   UNL A   1      40.340  27.660  28.464  1.00  0.00     0.049 A 
ATOM     48  H   UNL A   1      42.409  27.443  28.571  1.00  0.00     0.167 HD
ATOM     49  C   UNL A   1      46.722  26.831  28.883  1.00  0.00     0.031 A 
ATOM     50  C   UNL A   1      40.043  28.878  28.958  1.00  0.00     0.031 A 
ATOM     51  C   UNL A   1      46.506  28.176  29.346  1.00  0.00     0.049 A 
ATOM     52  C   UNL A   1      41.152  29.763  29.470  1.00  0.00     0.074 A 
ATOM     53  C   UNL A   1      47.447  29.110  29.746  1.00  0.00     0.029 A 
ATOM     54  N   UNL A   1      45.263  28.774  29.482  1.00  0.00    -0.354 N 
ATOM     55  N   UNL A   1      42.444  29.542  29.493  1.00  0.00    -0.248 NA
ATOM     56  C   UNL A   1      40.758  31.071  30.017  1.00  0.00     0.031 C 
ATOM     57  C   UNL A   1      46.768  30.249  30.188  1.00  0.00     0.029 A 
ATOM     58  C   UNL A   1      45.410  30.054  29.991  1.00  0.00     0.049 A 
ATOM     59  H   UNL A   1      44.404  28.352  29.250  1.00  0.00     0.167 HD
ATOM     60  C   UNL A   1      43.018  30.693  30.022  1.00  0.00     0.074 A 
ATOM     61  C   UNL A   1      41.935  31.614  30.296  1.00  0.00     0.031 C 
ATOM     62  C   UNL A   1      44.326  30.964  30.254  1.00  0.00     0.031 A 
BRANCH  49  63
ATOM     63  C   UNL A   1      48.129  26.300  28.862  1.00  0.00    -0.014 A 
ATOM     64  C   UNL A   1      48.924  26.376  27.707  1.00  0.00     0.009 A 
ATOM     65  C   UNL A   1      48.679  25.746  30.029  1.00  0.00     0.009 A 
ATOM     66  C   UNL A   1      50.228  25.874  27.712  1.00  0.00     0.001 A 
ATOM     67  C   UNL A   1      49.993  25.274  30.040  1.00  0.00     0.001 A 
ATOM     68  C   UNL A   1      50.762  25.329  28.879  1.00  0.00     0.000 A 
ENDBRANCH  49  63
BRANCH  50  69
ATOM     69  C   UNL A   1      38.629  29.338  29.017  1.00  0.00    -0.014 A 
ATOM     70  C   UNL A   1      37.858  29.141  30.172  1.00  0.00     0.009 A 
ATOM     71  C   UNL A   1      38.033  29.952  27.902  1.00  0.00     0.009 A 
ATOM     72  C   UNL A   1      36.514  29.525  30.202  1.00  0.00     0.001 A 
ATOM     73  C   UNL A   1      36.699  30.363  27.947  1.00  0.00     0.001 A 
ATOM     74  C   UNL A   1      35.938  30.139  29.092  1.00  0.00     0.000 A 
ENDBRANCH  50  69
BRANCH  62  75
ATOM     75  C   UNL A   1      44.672  32.329  30.786  1.00  0.00    -0.014 A 
ATOM     76  C   UNL A   1      44.790  32.575  32.162  1.00  0.00     0.009 A 
ATOM     77  C   UNL A   1      44.940  33.373  29.885  1.00  0.00     0.009 A 
ATOM     78  C   UNL A   1      45.141  33.846  32.625  1.00  0.00     0.001 A 
ATOM     79  C   UNL A   1      45.322  34.632  30.349  1.00  0.00     0.001 A 
ATOM     80  C   UNL A   1      45.412  34.870  31.719  1.00  0.00     0.000 A 
ENDBRANCH  62  75
ENDBRANCH  36  37
ENDBRANCH  29  31
ENDBRANCH  28  29
ENDBRANCH  27  28
ENDBRANCH  26  27
ENDBRANCH  25  26
ENDBRANCH  24  25
ENDBRANCH   1  24
TORSDOF 20
ENDMDL
