MODEL 1
REMARK VINA RESULT:      -9.5      0.000      0.000
REMARK SMILES C[C@H](C(=O)OCCOCCOCCOC(=O)c1ccc(-c2c3nc(c(-c4ccccc4)c4ccc([nH]4)c(-c4ccccc4)c4nc(c(-c5ccccc5)c5ccc2[nH]5)C=C4)C=C3)cc1)c1ccc2c(c1)OCCO2
REMARK SMILES IDX 10 1 9 2 8 3 7 4 6 5 5 6 3 7 4 8 2 9 1 10 65 11 66 12 70 13
REMARK SMILES IDX 67 14 69 15 68 16 71 17 74 18 72 19 73 20 11 21 12 22 13 23
REMARK SMILES IDX 14 24 15 25 16 26 17 27 18 28 64 29 19 30 63 31 20 32 21 33
REMARK SMILES IDX 22 34 57 35 23 36 62 37 56 38 58 39 24 40 61 41 55 42 54 43
REMARK SMILES IDX 25 45 47 46 32 47 46 48 33 49 36 50 45 51 59 52 34 53 35 54
REMARK SMILES IDX 44 56 60 57 37 58 26 59 27 60 31 61 28 62 30 63 29 64 48 65
REMARK SMILES IDX 49 66 53 67 50 68 52 69 51 70 38 71 39 72 43 73 40 74 42 75
REMARK SMILES IDX 41 76
REMARK H PARENT 58 44 36 55
REMARK Flexibility Score: inf
ROOT
ATOM      1  C   UNL A   1      34.379  33.148  29.031  1.00  0.00     0.188 C 
ENDROOT
BRANCH   1   2
ATOM      2  C   UNL A   1      34.188  31.788  28.345  1.00  0.00     0.188 C 
BRANCH   2   3
ATOM      3  O   UNL A   1      35.322  31.106  27.810  1.00  0.00    -0.376 OA
BRANCH   3   4
ATOM      4  C   UNL A   1      35.242  29.698  27.646  1.00  0.00     0.202 C 
BRANCH   4   5
ATOM      5  C   UNL A   1      34.046  29.198  26.835  1.00  0.00     0.261 C 
BRANCH   5   6
ATOM      6  O   UNL A   1      33.338  28.096  27.442  1.00  0.00    -0.463 OA
BRANCH   6   7
ATOM      7  C   UNL A   1      32.237  27.676  26.763  1.00  0.00     0.313 C 
ATOM      8  O   UNL A   1      31.220  27.259  27.310  1.00  0.00    -0.252 OA
BRANCH   7   9
ATOM      9  C   UNL A   1      32.422  27.623  25.253  1.00  0.00     0.126 C 
ATOM     10  C   UNL A   1      32.719  26.166  24.847  1.00  0.00     0.025 C 
BRANCH   9  11
ATOM     11  C   UNL A   1      31.328  28.174  24.338  1.00  0.00    -0.030 A 
ATOM     12  C   UNL A   1      30.435  27.286  23.710  1.00  0.00     0.009 A 
ATOM     13  C   UNL A   1      31.033  29.547  24.289  1.00  0.00     0.055 A 
ATOM     14  C   UNL A   1      29.235  27.743  23.152  1.00  0.00     0.051 A 
ATOM     15  C   UNL A   1      29.826  30.000  23.750  1.00  0.00     0.161 A 
ATOM     16  C   UNL A   1      28.907  29.093  23.225  1.00  0.00     0.161 A 
ATOM     17  O   UNL A   1      29.572  31.343  23.859  1.00  0.00    -0.486 OA
ATOM     18  O   UNL A   1      27.649  29.460  22.817  1.00  0.00    -0.486 OA
ATOM     19  C   UNL A   1      28.368  31.734  23.187  1.00  0.00     0.271 C 
ATOM     20  C   UNL A   1      27.275  30.707  23.422  1.00  0.00     0.271 C 
ENDBRANCH   9  11
ENDBRANCH   7   9
ENDBRANCH   6   7
ENDBRANCH   5   6
ENDBRANCH   4   5
ENDBRANCH   3   4
ENDBRANCH   2   3
ENDBRANCH   1   2
BRANCH   1  21
ATOM     21  O   UNL A   1      34.678  34.170  28.082  1.00  0.00    -0.376 OA
BRANCH  21  22
ATOM     22  C   UNL A   1      34.323  35.478  28.526  1.00  0.00     0.202 C 
BRANCH  22  23
ATOM     23  C   UNL A   1      33.127  35.378  29.469  1.00  0.00     0.261 C 
BRANCH  23  24
ATOM     24  O   UNL A   1      33.217  36.319  30.557  1.00  0.00    -0.460 OA
BRANCH  24  25
ATOM     25  C   UNL A   1      32.760  35.879  31.743  1.00  0.00     0.338 C 
ATOM     26  O   UNL A   1      31.629  35.989  32.194  1.00  0.00    -0.246 OA
BRANCH  25  27
ATOM     27  C   UNL A   1      33.838  35.153  32.428  1.00  0.00     0.060 A 
ATOM     28  C   UNL A   1      35.110  35.723  32.463  1.00  0.00     0.016 A 
ATOM     29  C   UNL A   1      33.629  33.866  32.917  1.00  0.00     0.016 A 
ATOM     30  C   UNL A   1      36.205  34.980  32.907  1.00  0.00     0.010 A 
ATOM     31  C   UNL A   1      34.719  33.135  33.401  1.00  0.00     0.010 A 
ATOM     32  C   UNL A   1      36.023  33.668  33.356  1.00  0.00    -0.014 A 
BRANCH  32  33
ATOM     33  C   UNL A   1      37.186  32.789  33.655  1.00  0.00     0.031 A 
ATOM     34  C   UNL A   1      37.903  32.949  34.969  1.00  0.00     0.074 A 
ATOM     35  C   UNL A   1      37.612  31.856  32.783  1.00  0.00     0.049 A 
ATOM     36  N   UNL A   1      39.064  32.476  35.348  1.00  0.00    -0.248 NA
ATOM     37  C   UNL A   1      37.220  33.760  35.991  1.00  0.00     0.031 C 
ATOM     38  C   UNL A   1      36.968  31.512  31.517  1.00  0.00     0.029 A 
ATOM     39  N   UNL A   1      38.712  31.033  32.836  1.00  0.00    -0.354 N 
ATOM     40  C   UNL A   1      39.273  32.974  36.627  1.00  0.00     0.074 A 
ATOM     41  C   UNL A   1      38.120  33.781  36.963  1.00  0.00     0.031 C 
ATOM     42  C   UNL A   1      37.688  30.554  30.908  1.00  0.00     0.029 A 
ATOM     43  C   UNL A   1      38.879  30.271  31.705  1.00  0.00     0.049 A 
ATOM     44  H   UNL A   1      39.320  30.993  33.608  1.00  0.00     0.167 HD
ATOM     45  C   UNL A   1      40.334  32.783  37.448  1.00  0.00     0.031 A 
ATOM     46  C   UNL A   1      39.901  29.479  31.327  1.00  0.00     0.031 A 
ATOM     47  C   UNL A   1      41.472  31.965  37.128  1.00  0.00     0.049 A 
ATOM     48  C   UNL A   1      41.110  29.348  32.212  1.00  0.00     0.074 A 
ATOM     49  C   UNL A   1      42.603  31.721  37.888  1.00  0.00     0.029 A 
ATOM     50  N   UNL A   1      41.617  31.244  35.952  1.00  0.00    -0.354 N 
ATOM     51  N   UNL A   1      41.335  29.879  33.390  1.00  0.00    -0.248 NA
ATOM     52  C   UNL A   1      42.213  28.517  31.707  1.00  0.00     0.031 C 
ATOM     53  C   UNL A   1      43.452  30.883  37.155  1.00  0.00     0.029 A 
ATOM     54  C   UNL A   1      42.824  30.568  35.960  1.00  0.00     0.049 A 
ATOM     55  H   UNL A   1      40.958  31.218  35.221  1.00  0.00     0.167 HD
ATOM     56  C   UNL A   1      42.596  29.436  33.770  1.00  0.00     0.074 A 
ATOM     57  C   UNL A   1      43.080  28.580  32.708  1.00  0.00     0.031 C 
ATOM     58  C   UNL A   1      43.293  29.718  34.898  1.00  0.00     0.031 A 
BRANCH  45  59
ATOM     59  C   UNL A   1      40.335  33.523  38.755  1.00  0.00    -0.014 A 
ATOM     60  C   UNL A   1      39.694  33.008  39.891  1.00  0.00     0.009 A 
ATOM     61  C   UNL A   1      41.010  34.751  38.850  1.00  0.00     0.009 A 
ATOM     62  C   UNL A   1      39.703  33.724  41.090  1.00  0.00     0.001 A 
ATOM     63  C   UNL A   1      41.038  35.452  40.056  1.00  0.00     0.001 A 
ATOM     64  C   UNL A   1      40.377  34.943  41.172  1.00  0.00     0.000 A 
ENDBRANCH  45  59
BRANCH  46  65
ATOM     65  C   UNL A   1      39.861  28.798  30.006  1.00  0.00    -0.014 A 
ATOM     66  C   UNL A   1      40.260  29.470  28.841  1.00  0.00     0.009 A 
ATOM     67  C   UNL A   1      39.408  27.474  29.904  1.00  0.00     0.009 A 
ATOM     68  C   UNL A   1      40.189  28.834  27.599  1.00  0.00     0.001 A 
ATOM     69  C   UNL A   1      39.366  26.831  28.666  1.00  0.00     0.001 A 
ATOM     70  C   UNL A   1      39.749  27.514  27.514  1.00  0.00     0.000 A 
ENDBRANCH  46  65
BRANCH  58  71
ATOM     71  C   UNL A   1      44.636  29.064  35.059  1.00  0.00    -0.014 A 
ATOM     72  C   UNL A   1      44.758  27.789  35.633  1.00  0.00     0.009 A 
ATOM     73  C   UNL A   1      45.788  29.718  34.596  1.00  0.00     0.009 A 
ATOM     74  C   UNL A   1      46.015  27.194  35.763  1.00  0.00     0.001 A 
ATOM     75  C   UNL A   1      47.039  29.109  34.705  1.00  0.00     0.001 A 
ATOM     76  C   UNL A   1      47.153  27.852  35.297  1.00  0.00     0.000 A 
ENDBRANCH  58  71
ENDBRANCH  32  33
ENDBRANCH  25  27
ENDBRANCH  24  25
ENDBRANCH  23  24
ENDBRANCH  22  23
ENDBRANCH  21  22
ENDBRANCH   1  21
TORSDOF 18
ENDMDL
MODEL 2
REMARK VINA RESULT:      -9.4      5.033      9.137
REMARK SMILES C[C@H](C(=O)OCCOCCOCCOC(=O)c1ccc(-c2c3nc(c(-c4ccccc4)c4ccc([nH]4)c(-c4ccccc4)c4nc(c(-c5ccccc5)c5ccc2[nH]5)C=C4)C=C3)cc1)c1ccc2c(c1)OCCO2
REMARK SMILES IDX 10 1 9 2 8 3 7 4 6 5 5 6 3 7 4 8 2 9 1 10 65 11 66 12 70 13
REMARK SMILES IDX 67 14 69 15 68 16 71 17 74 18 72 19 73 20 11 21 12 22 13 23
REMARK SMILES IDX 14 24 15 25 16 26 17 27 18 28 64 29 19 30 63 31 20 32 21 33
REMARK SMILES IDX 22 34 57 35 23 36 62 37 56 38 58 39 24 40 61 41 55 42 54 43
REMARK SMILES IDX 25 45 47 46 32 47 46 48 33 49 36 50 45 51 59 52 34 53 35 54
REMARK SMILES IDX 44 56 60 57 37 58 26 59 27 60 31 61 28 62 30 63 29 64 48 65
REMARK SMILES IDX 49 66 53 67 50 68 52 69 51 70 38 71 39 72 43 73 40 74 42 75
REMARK SMILES IDX 41 76
REMARK H PARENT 58 44 36 55
REMARK Flexibility Score: inf
ROOT
ATOM      1  C   UNL A   1      35.217  23.278  24.234  1.00  0.00     0.188 C 
ENDROOT
BRANCH   1   2
ATOM      2  C   UNL A   1      35.237  23.887  25.643  1.00  0.00     0.188 C 
BRANCH   2   3
ATOM      3  O   UNL A   1      34.370  24.978  25.949  1.00  0.00    -0.376 OA
BRANCH   3   4
ATOM      4  C   UNL A   1      33.795  25.701  24.870  1.00  0.00     0.202 C 
BRANCH   4   5
ATOM      5  C   UNL A   1      32.958  26.916  25.266  1.00  0.00     0.261 C 
BRANCH   5   6
ATOM      6  O   UNL A   1      31.863  26.616  26.159  1.00  0.00    -0.463 OA
BRANCH   6   7
ATOM      7  C   UNL A   1      30.904  25.805  25.639  1.00  0.00     0.313 C 
ATOM      8  O   UNL A   1      30.276  24.984  26.303  1.00  0.00    -0.252 OA
BRANCH   7   9
ATOM      9  C   UNL A   1      30.773  25.887  24.125  1.00  0.00     0.126 C 
ATOM     10  C   UNL A   1      30.506  24.471  23.578  1.00  0.00     0.025 C 
BRANCH   9  11
ATOM     11  C   UNL A   1      29.762  26.851  23.505  1.00  0.00    -0.030 A 
ATOM     12  C   UNL A   1      28.405  26.760  23.866  1.00  0.00     0.009 A 
ATOM     13  C   UNL A   1      30.173  27.977  22.771  1.00  0.00     0.055 A 
ATOM     14  C   UNL A   1      27.515  27.809  23.600  1.00  0.00     0.051 A 
ATOM     15  C   UNL A   1      29.290  29.031  22.525  1.00  0.00     0.161 A 
ATOM     16  C   UNL A   1      27.974  28.967  22.980  1.00  0.00     0.161 A 
ATOM     17  O   UNL A   1      29.814  30.140  21.911  1.00  0.00    -0.486 OA
ATOM     18  O   UNL A   1      27.105  30.026  22.898  1.00  0.00    -0.486 OA
ATOM     19  C   UNL A   1      28.819  31.123  21.601  1.00  0.00     0.271 C 
ATOM     20  C   UNL A   1      27.832  31.254  22.747  1.00  0.00     0.271 C 
ENDBRANCH   9  11
ENDBRANCH   7   9
ENDBRANCH   6   7
ENDBRANCH   5   6
ENDBRANCH   4   5
ENDBRANCH   3   4
ENDBRANCH   2   3
ENDBRANCH   1   2
BRANCH   1  21
ATOM     21  O   UNL A   1      35.003  21.868  24.281  1.00  0.00    -0.376 OA
BRANCH  21  22
ATOM     22  C   UNL A   1      35.554  21.249  25.441  1.00  0.00     0.202 C 
BRANCH  22  23
ATOM     23  C   UNL A   1      36.818  20.488  25.049  1.00  0.00     0.261 C 
BRANCH  23  24
ATOM     24  O   UNL A   1      37.975  21.347  25.011  1.00  0.00    -0.460 OA
BRANCH  24  25
ATOM     25  C   UNL A   1      38.985  20.996  25.827  1.00  0.00     0.338 C 
ATOM     26  O   UNL A   1      39.473  19.885  25.976  1.00  0.00    -0.246 OA
BRANCH  25  27
ATOM     27  C   UNL A   1      39.492  22.200  26.500  1.00  0.00     0.060 A 
ATOM     28  C   UNL A   1      38.956  23.439  26.146  1.00  0.00     0.016 A 
ATOM     29  C   UNL A   1      40.572  22.124  27.374  1.00  0.00     0.016 A 
ATOM     30  C   UNL A   1      39.551  24.619  26.593  1.00  0.00     0.010 A 
ATOM     31  C   UNL A   1      41.143  23.306  27.858  1.00  0.00     0.010 A 
ATOM     32  C   UNL A   1      40.668  24.564  27.434  1.00  0.00    -0.014 A 
BRANCH  32  33
ATOM     33  C   UNL A   1      41.436  25.792  27.774  1.00  0.00     0.031 A 
ATOM     34  C   UNL A   1      40.798  26.830  28.659  1.00  0.00     0.074 A 
ATOM     35  C   UNL A   1      42.684  25.997  27.313  1.00  0.00     0.049 A 
ATOM     36  N   UNL A   1      41.167  28.064  28.893  1.00  0.00    -0.248 NA
ATOM     37  C   UNL A   1      39.575  26.421  29.368  1.00  0.00     0.031 C 
ATOM     38  C   UNL A   1      43.473  25.048  26.531  1.00  0.00     0.029 A 
ATOM     39  N   UNL A   1      43.500  27.097  27.432  1.00  0.00    -0.354 N 
ATOM     40  C   UNL A   1      40.195  28.593  29.732  1.00  0.00     0.074 A 
ATOM     41  C   UNL A   1      39.223  27.548  29.970  1.00  0.00     0.031 C 
ATOM     42  C   UNL A   1      44.659  25.609  26.233  1.00  0.00     0.029 A 
ATOM     43  C   UNL A   1      44.681  26.979  26.740  1.00  0.00     0.049 A 
ATOM     44  H   UNL A   1      43.263  27.892  27.962  1.00  0.00     0.167 HD
ATOM     45  C   UNL A   1      40.113  29.841  30.253  1.00  0.00     0.031 A 
ATOM     46  C   UNL A   1      45.645  27.886  26.492  1.00  0.00     0.031 A 
ATOM     47  C   UNL A   1      41.087  30.878  30.038  1.00  0.00     0.049 A 
ATOM     48  C   UNL A   1      45.495  29.292  27.006  1.00  0.00     0.074 A 
ATOM     49  C   UNL A   1      41.084  32.179  30.511  1.00  0.00     0.029 A 
ATOM     50  N   UNL A   1      42.247  30.724  29.294  1.00  0.00    -0.354 N 
ATOM     51  N   UNL A   1      44.537  29.808  27.737  1.00  0.00    -0.248 NA
ATOM     52  C   UNL A   1      46.555  30.245  26.645  1.00  0.00     0.031 C 
ATOM     53  C   UNL A   1      42.225  32.825  30.021  1.00  0.00     0.029 A 
ATOM     54  C   UNL A   1      42.959  31.911  29.284  1.00  0.00     0.049 A 
ATOM     55  H   UNL A   1      42.522  29.895  28.841  1.00  0.00     0.167 HD
ATOM     56  C   UNL A   1      44.887  31.139  27.935  1.00  0.00     0.074 A 
ATOM     57  C   UNL A   1      46.151  31.346  27.262  1.00  0.00     0.031 C 
ATOM     58  C   UNL A   1      44.217  32.104  28.611  1.00  0.00     0.031 A 
BRANCH  45  59
ATOM     59  C   UNL A   1      38.892  30.170  31.064  1.00  0.00    -0.014 A 
ATOM     60  C   UNL A   1      38.871  30.008  32.457  1.00  0.00     0.009 A 
ATOM     61  C   UNL A   1      37.750  30.671  30.418  1.00  0.00     0.009 A 
ATOM     62  C   UNL A   1      37.718  30.312  33.184  1.00  0.00     0.001 A 
ATOM     63  C   UNL A   1      36.608  30.996  31.150  1.00  0.00     0.001 A 
ATOM     64  C   UNL A   1      36.590  30.808  32.531  1.00  0.00     0.000 A 
ENDBRANCH  45  59
BRANCH  46  65
ATOM     65  C   UNL A   1      46.814  27.515  25.654  1.00  0.00    -0.014 A 
ATOM     66  C   UNL A   1      47.933  26.886  26.221  1.00  0.00     0.009 A 
ATOM     67  C   UNL A   1      46.822  27.802  24.280  1.00  0.00     0.009 A 
ATOM     68  C   UNL A   1      49.042  26.570  25.433  1.00  0.00     0.001 A 
ATOM     69  C   UNL A   1      47.920  27.458  23.488  1.00  0.00     0.001 A 
ATOM     70  C   UNL A   1      49.031  26.850  24.067  1.00  0.00     0.000 A 
ENDBRANCH  46  65
BRANCH  58  71
ATOM     71  C   UNL A   1      44.856  33.460  28.689  1.00  0.00    -0.014 A 
ATOM     72  C   UNL A   1      45.953  33.699  29.532  1.00  0.00     0.009 A 
ATOM     73  C   UNL A   1      44.379  34.502  27.879  1.00  0.00     0.009 A 
ATOM     74  C   UNL A   1      46.540  34.965  29.582  1.00  0.00     0.001 A 
ATOM     75  C   UNL A   1      44.984  35.759  27.913  1.00  0.00     0.001 A 
ATOM     76  C   UNL A   1      46.059  35.992  28.770  1.00  0.00     0.000 A 
ENDBRANCH  58  71
ENDBRANCH  32  33
ENDBRANCH  25  27
ENDBRANCH  24  25
ENDBRANCH  23  24
ENDBRANCH  22  23
ENDBRANCH  21  22
ENDBRANCH   1  21
TORSDOF 18
ENDMDL
MODEL 3
REMARK VINA RESULT:      -9.4      3.679      8.571
REMARK SMILES C[C@H](C(=O)OCCOCCOCCOC(=O)c1ccc(-c2c3nc(c(-c4ccccc4)c4ccc([nH]4)c(-c4ccccc4)c4nc(c(-c5ccccc5)c5ccc2[nH]5)C=C4)C=C3)cc1)c1ccc2c(c1)OCCO2
REMARK SMILES IDX 10 1 9 2 8 3 7 4 6 5 5 6 3 7 4 8 2 9 1 10 65 11 66 12 70 13
REMARK SMILES IDX 67 14 69 15 68 16 71 17 74 18 72 19 73 20 11 21 12 22 13 23
REMARK SMILES IDX 14 24 15 25 16 26 17 27 18 28 64 29 19 30 63 31 20 32 21 33
REMARK SMILES IDX 22 34 57 35 23 36 62 37 56 38 58 39 24 40 61 41 55 42 54 43
REMARK SMILES IDX 25 45 47 46 32 47 46 48 33 49 36 50 45 51 59 52 34 53 35 54
REMARK SMILES IDX 44 56 60 57 37 58 26 59 27 60 31 61 28 62 30 63 29 64 48 65
REMARK SMILES IDX 49 66 53 67 50 68 52 69 51 70 38 71 39 72 43 73 40 74 42 75
REMARK SMILES IDX 41 76
REMARK H PARENT 58 44 36 55
REMARK Flexibility Score: inf
ROOT
ATOM      1  C   UNL A   1      32.934  27.356  23.788  1.00  0.00     0.188 C 
ENDROOT
BRANCH   1   2
ATOM      2  C   UNL A   1      32.726  26.221  22.775  1.00  0.00     0.188 C 
BRANCH   2   3
ATOM      3  O   UNL A   1      33.087  24.887  23.131  1.00  0.00    -0.376 OA
BRANCH   3   4
ATOM      4  C   UNL A   1      32.057  23.914  23.220  1.00  0.00     0.202 C 
BRANCH   4   5
ATOM      5  C   UNL A   1      31.015  24.159  24.311  1.00  0.00     0.261 C 
BRANCH   5   6
ATOM      6  O   UNL A   1      30.737  23.005  25.133  1.00  0.00    -0.463 OA
BRANCH   6   7
ATOM      7  C   UNL A   1      31.250  23.059  26.391  1.00  0.00     0.313 C 
ATOM      8  O   UNL A   1      30.639  23.514  27.355  1.00  0.00    -0.252 OA
BRANCH   7   9
ATOM      9  C   UNL A   1      32.711  22.643  26.485  1.00  0.00     0.126 C 
ATOM     10  C   UNL A   1      33.046  22.358  27.962  1.00  0.00     0.025 C 
BRANCH   9  11
ATOM     11  C   UNL A   1      33.223  21.481  25.633  1.00  0.00    -0.030 A 
ATOM     12  C   UNL A   1      34.588  21.415  25.297  1.00  0.00     0.009 A 
ATOM     13  C   UNL A   1      32.426  20.354  25.373  1.00  0.00     0.055 A 
ATOM     14  C   UNL A   1      35.158  20.226  24.824  1.00  0.00     0.051 A 
ATOM     15  C   UNL A   1      32.999  19.162  24.920  1.00  0.00     0.161 A 
ATOM     16  C   UNL A   1      34.372  19.086  24.691  1.00  0.00     0.161 A 
ATOM     17  O   UNL A   1      32.163  18.081  24.814  1.00  0.00    -0.486 OA
ATOM     18  O   UNL A   1      35.012  17.910  24.388  1.00  0.00    -0.486 OA
ATOM     19  C   UNL A   1      32.808  16.936  24.243  1.00  0.00     0.271 C 
ATOM     20  C   UNL A   1      34.213  16.790  24.799  1.00  0.00     0.271 C 
ENDBRANCH   9  11
ENDBRANCH   7   9
ENDBRANCH   6   7
ENDBRANCH   5   6
ENDBRANCH   4   5
ENDBRANCH   3   4
ENDBRANCH   2   3
ENDBRANCH   1   2
BRANCH   1  21
ATOM     21  O   UNL A   1      31.746  27.608  24.537  1.00  0.00    -0.376 OA
BRANCH  21  22
ATOM     22  C   UNL A   1      31.436  28.994  24.661  1.00  0.00     0.202 C 
BRANCH  22  23
ATOM     23  C   UNL A   1      32.669  29.737  25.170  1.00  0.00     0.261 C 
BRANCH  23  24
ATOM     24  O   UNL A   1      32.664  29.872  26.605  1.00  0.00    -0.460 OA
BRANCH  24  25
ATOM     25  C   UNL A   1      33.148  31.033  27.080  1.00  0.00     0.338 C 
ATOM     26  O   UNL A   1      32.554  32.094  27.206  1.00  0.00    -0.246 OA
BRANCH  25  27
ATOM     27  C   UNL A   1      34.537  30.827  27.512  1.00  0.00     0.060 A 
ATOM     28  C   UNL A   1      34.988  29.522  27.713  1.00  0.00     0.016 A 
ATOM     29  C   UNL A   1      35.348  31.911  27.841  1.00  0.00     0.016 A 
ATOM     30  C   UNL A   1      36.219  29.288  28.327  1.00  0.00     0.010 A 
ATOM     31  C   UNL A   1      36.600  31.676  28.417  1.00  0.00     0.010 A 
ATOM     32  C   UNL A   1      37.027  30.364  28.709  1.00  0.00    -0.014 A 
BRANCH  32  33
ATOM     33  C   UNL A   1      38.249  30.155  29.531  1.00  0.00     0.031 A 
ATOM     34  C   UNL A   1      39.384  29.347  28.959  1.00  0.00     0.074 A 
ATOM     35  C   UNL A   1      38.367  30.670  30.769  1.00  0.00     0.049 A 
ATOM     36  N   UNL A   1      40.428  28.837  29.560  1.00  0.00    -0.248 NA
ATOM     37  C   UNL A   1      39.325  29.072  27.514  1.00  0.00     0.031 C 
ATOM     38  C   UNL A   1      37.403  31.552  31.424  1.00  0.00     0.029 A 
ATOM     39  N   UNL A   1      39.360  30.501  31.705  1.00  0.00    -0.354 N 
ATOM     40  C   UNL A   1      41.122  28.139  28.580  1.00  0.00     0.074 A 
ATOM     41  C   UNL A   1      40.384  28.292  27.346  1.00  0.00     0.031 C 
ATOM     42  C   UNL A   1      37.848  31.843  32.659  1.00  0.00     0.029 A 
ATOM     43  C   UNL A   1      39.087  31.110  32.907  1.00  0.00     0.049 A 
ATOM     44  H   UNL A   1      40.186  29.995  31.532  1.00  0.00     0.167 HD
ATOM     45  C   UNL A   1      42.268  27.425  28.698  1.00  0.00     0.031 A 
ATOM     46  C   UNL A   1      39.729  31.040  34.088  1.00  0.00     0.031 A 
ATOM     47  C   UNL A   1      43.017  27.286  29.918  1.00  0.00     0.049 A 
ATOM     48  C   UNL A   1      40.951  30.174  34.223  1.00  0.00     0.074 A 
ATOM     49  C   UNL A   1      44.182  26.572  30.140  1.00  0.00     0.029 A 
ATOM     50  N   UNL A   1      42.679  27.887  31.120  1.00  0.00    -0.354 N 
ATOM     51  N   UNL A   1      41.561  29.456  33.311  1.00  0.00    -0.248 NA
ATOM     52  C   UNL A   1      41.564  30.096  35.558  1.00  0.00     0.031 C 
ATOM     53  C   UNL A   1      44.528  26.708  31.490  1.00  0.00     0.029 A 
ATOM     54  C   UNL A   1      43.604  27.547  32.092  1.00  0.00     0.049 A 
ATOM     55  H   UNL A   1      41.897  28.468  31.262  1.00  0.00     0.167 HD
ATOM     56  C   UNL A   1      42.635  28.855  33.958  1.00  0.00     0.074 A 
ATOM     57  C   UNL A   1      42.604  29.305  35.333  1.00  0.00     0.031 C 
ATOM     58  C   UNL A   1      43.562  28.003  33.457  1.00  0.00     0.031 A 
BRANCH  45  59
ATOM     59  C   UNL A   1      42.749  26.690  27.480  1.00  0.00    -0.014 A 
ATOM     60  C   UNL A   1      42.303  25.394  27.181  1.00  0.00     0.009 A 
ATOM     61  C   UNL A   1      43.650  27.320  26.607  1.00  0.00     0.009 A 
ATOM     62  C   UNL A   1      42.777  24.731  26.046  1.00  0.00     0.001 A 
ATOM     63  C   UNL A   1      44.102  26.664  25.461  1.00  0.00     0.001 A 
ATOM     64  C   UNL A   1      43.672  25.367  25.187  1.00  0.00     0.000 A 
ENDBRANCH  45  59
BRANCH  46  65
ATOM     65  C   UNL A   1      39.187  31.761  35.270  1.00  0.00    -0.014 A 
ATOM     66  C   UNL A   1      38.320  31.119  36.165  1.00  0.00     0.009 A 
ATOM     67  C   UNL A   1      39.526  33.104  35.499  1.00  0.00     0.009 A 
ATOM     68  C   UNL A   1      37.789  31.812  37.256  1.00  0.00     0.001 A 
ATOM     69  C   UNL A   1      39.017  33.786  36.606  1.00  0.00     0.001 A 
ATOM     70  C   UNL A   1      38.143  33.142  37.478  1.00  0.00     0.000 A 
ENDBRANCH  46  65
BRANCH  58  71
ATOM     71  C   UNL A   1      44.641  27.532  34.390  1.00  0.00    -0.014 A 
ATOM     72  C   UNL A   1      45.841  28.246  34.532  1.00  0.00     0.009 A 
ATOM     73  C   UNL A   1      44.436  26.381  35.165  1.00  0.00     0.009 A 
ATOM     74  C   UNL A   1      46.827  27.797  35.414  1.00  0.00     0.001 A 
ATOM     75  C   UNL A   1      45.413  25.949  36.063  1.00  0.00     0.001 A 
ATOM     76  C   UNL A   1      46.611  26.653  36.181  1.00  0.00     0.000 A 
ENDBRANCH  58  71
ENDBRANCH  32  33
ENDBRANCH  25  27
ENDBRANCH  24  25
ENDBRANCH  23  24
ENDBRANCH  22  23
ENDBRANCH  21  22
ENDBRANCH   1  21
TORSDOF 18
ENDMDL
