MODEL 1
REMARK VINA RESULT:     -10.9      0.000      0.000
REMARK SMILES O=C(OCCOCCOCCOC(=O)[C@@H]1CCCC[C@H]1C(=O)Nc1cnn(Cc2ccc(Cl)c(Cl)c2)c1)c1ccc(-c2c3nc(c(-c4ccccc4)c4ccc([nH]4)c(-c4ccccc4)c4nc(c(-c5ccccc5)c5ccc2[nH]5)C=C4)C=C3)cc1
REMARK SMILES IDX 8 1 7 2 6 3 5 4 4 5 3 6 2 7 1 8 38 9 39 10 85 11 40 12 84 13
REMARK SMILES IDX 41 14 42 15 43 16 78 17 44 18 83 19 77 20 79 21 45 22 82 23
REMARK SMILES IDX 76 24 75 25 46 27 68 28 53 29 67 30 54 31 57 32 66 33 80 34
REMARK SMILES IDX 55 35 56 36 65 38 81 39 58 40 47 41 48 42 52 43 49 44 51 45
REMARK SMILES IDX 50 46 69 47 70 48 74 49 71 50 73 51 72 52 59 53 60 54 64 55
REMARK SMILES IDX 61 56 63 57 62 58 9 59 10 60 11 61 12 62 13 63 14 64 15 65
REMARK SMILES IDX 16 66 20 67 17 68 19 69 18 70 21 71 22 72 23 73 24 75 25 76
REMARK SMILES IDX 37 77 26 78 27 79 28 80 29 81 30 82 36 83 31 84 34 85 32 86
REMARK SMILES IDX 35 87 33 88
REMARK H PARENT 79 26 57 37 23 74
REMARK Flexibility Score: inf
ROOT
ATOM      1  C   UNL A   1      38.388  21.685  25.857  1.00  0.00     0.188 C 
ENDROOT
BRANCH   1   2
ATOM      2  C   UNL A   1      39.868  22.050  25.921  1.00  0.00     0.188 C 
BRANCH   2   3
ATOM      3  O   UNL A   1      40.831  21.215  26.539  1.00  0.00    -0.376 OA
BRANCH   3   4
ATOM      4  C   UNL A   1      41.180  19.934  26.050  1.00  0.00     0.202 C 
BRANCH   4   5
ATOM      5  C   UNL A   1      42.625  19.450  26.179  1.00  0.00     0.261 C 
BRANCH   5   6
ATOM      6  O   UNL A   1      43.355  19.212  24.973  1.00  0.00    -0.460 OA
BRANCH   6   7
ATOM      7  C   UNL A   1      44.158  20.059  24.298  1.00  0.00     0.338 C 
ATOM      8  O   UNL A   1      44.661  19.706  23.236  1.00  0.00    -0.246 OA
BRANCH   7   9
ATOM      9  C   UNL A   1      44.544  21.395  24.823  1.00  0.00     0.060 A 
ATOM     10  C   UNL A   1      45.485  21.580  25.834  1.00  0.00     0.016 A 
ATOM     11  C   UNL A   1      43.759  22.482  24.392  1.00  0.00     0.016 A 
ATOM     12  C   UNL A   1      45.597  22.819  26.451  1.00  0.00     0.010 A 
ATOM     13  C   UNL A   1      43.848  23.713  25.026  1.00  0.00     0.010 A 
ATOM     14  C   UNL A   1      44.726  23.855  26.097  1.00  0.00    -0.014 A 
BRANCH  14  15
ATOM     15  C   UNL A   1      44.671  25.008  26.986  1.00  0.00     0.031 A 
ATOM     16  C   UNL A   1      45.867  25.876  27.078  1.00  0.00     0.074 A 
ATOM     17  C   UNL A   1      43.556  25.309  27.682  1.00  0.00     0.049 A 
ATOM     18  N   UNL A   1      46.592  26.121  28.122  1.00  0.00    -0.248 NA
ATOM     19  C   UNL A   1      46.320  26.546  25.854  1.00  0.00     0.031 C 
ATOM     20  C   UNL A   1      42.215  24.743  27.512  1.00  0.00     0.029 A 
ATOM     21  N   UNL A   1      43.373  26.272  28.632  1.00  0.00    -0.354 N 
ATOM     22  C   UNL A   1      47.499  27.105  27.737  1.00  0.00     0.074 A 
ATOM     23  C   UNL A   1      47.354  27.254  26.308  1.00  0.00     0.031 C 
ATOM     24  C   UNL A   1      41.322  25.520  28.162  1.00  0.00     0.029 A 
ATOM     25  C   UNL A   1      42.042  26.546  28.898  1.00  0.00     0.049 A 
ATOM     26  H   UNL A   1      44.117  26.730  29.084  1.00  0.00     0.167 HD
ATOM     27  C   UNL A   1      48.151  27.881  28.647  1.00  0.00     0.031 A 
ATOM     28  C   UNL A   1      41.550  27.579  29.620  1.00  0.00     0.031 A 
ATOM     29  C   UNL A   1      48.158  27.298  29.963  1.00  0.00     0.049 A 
ATOM     30  C   UNL A   1      42.628  28.099  30.487  1.00  0.00     0.074 A 
ATOM     31  C   UNL A   1      48.597  26.108  30.510  1.00  0.00     0.029 A 
ATOM     32  N   UNL A   1      47.366  27.874  30.926  1.00  0.00    -0.354 N 
ATOM     33  N   UNL A   1      43.099  27.464  31.520  1.00  0.00    -0.248 NA
ATOM     34  C   UNL A   1      43.452  29.194  30.001  1.00  0.00     0.031 C 
ATOM     35  C   UNL A   1      47.676  25.817  31.559  1.00  0.00     0.029 A 
ATOM     36  C   UNL A   1      46.747  26.857  31.599  1.00  0.00     0.049 A 
ATOM     37  H   UNL A   1      47.263  28.838  31.098  1.00  0.00     0.167 HD
ATOM     38  C   UNL A   1      44.448  27.785  31.548  1.00  0.00     0.074 A 
ATOM     39  C   UNL A   1      44.574  28.952  30.682  1.00  0.00     0.031 C 
ATOM     40  C   UNL A   1      45.371  26.906  32.040  1.00  0.00     0.031 A 
BRANCH  27  41
ATOM     41  C   UNL A   1      48.427  29.352  28.432  1.00  0.00    -0.014 A 
ATOM     42  C   UNL A   1      49.680  29.870  28.812  1.00  0.00     0.009 A 
ATOM     43  C   UNL A   1      47.413  30.291  28.166  1.00  0.00     0.009 A 
ATOM     44  C   UNL A   1      49.874  31.242  29.012  1.00  0.00     0.001 A 
ATOM     45  C   UNL A   1      47.618  31.665  28.316  1.00  0.00     0.001 A 
ATOM     46  C   UNL A   1      48.839  32.139  28.774  1.00  0.00     0.000 A 
ENDBRANCH  27  41
BRANCH  28  47
ATOM     47  C   UNL A   1      40.264  28.283  29.437  1.00  0.00    -0.014 A 
ATOM     48  C   UNL A   1      39.983  28.983  28.254  1.00  0.00     0.009 A 
ATOM     49  C   UNL A   1      39.204  28.064  30.338  1.00  0.00     0.009 A 
ATOM     50  C   UNL A   1      38.683  29.425  27.975  1.00  0.00     0.001 A 
ATOM     51  C   UNL A   1      37.910  28.514  30.064  1.00  0.00     0.001 A 
ATOM     52  C   UNL A   1      37.647  29.182  28.875  1.00  0.00     0.000 A 
ENDBRANCH  28  47
BRANCH  40  53
ATOM     53  C   UNL A   1      44.874  25.718  32.824  1.00  0.00    -0.014 A 
ATOM     54  C   UNL A   1      44.578  25.789  34.196  1.00  0.00     0.009 A 
ATOM     55  C   UNL A   1      44.552  24.541  32.131  1.00  0.00     0.009 A 
ATOM     56  C   UNL A   1      44.017  24.697  34.864  1.00  0.00     0.001 A 
ATOM     57  C   UNL A   1      43.969  23.459  32.795  1.00  0.00     0.001 A 
ATOM     58  C   UNL A   1      43.709  23.534  34.162  1.00  0.00     0.000 A 
ENDBRANCH  40  53
ENDBRANCH  14  15
ENDBRANCH   7   9
ENDBRANCH   6   7
ENDBRANCH   5   6
ENDBRANCH   4   5
ENDBRANCH   3   4
ENDBRANCH   2   3
ENDBRANCH   1   2
BRANCH   1  59
ATOM     59  O   UNL A   1      37.606  22.630  25.154  1.00  0.00    -0.376 OA
BRANCH  59  60
ATOM     60  C   UNL A   1      36.322  22.146  24.793  1.00  0.00     0.202 C 
BRANCH  60  61
ATOM     61  C   UNL A   1      35.433  23.061  23.914  1.00  0.00     0.261 C 
BRANCH  61  62
ATOM     62  O   UNL A   1      34.754  24.175  24.549  1.00  0.00    -0.463 OA
BRANCH  62  63
ATOM     63  C   UNL A   1      33.726  24.706  23.851  1.00  0.00     0.309 C 
ATOM     64  O   UNL A   1      33.273  24.173  22.841  1.00  0.00    -0.252 OA
BRANCH  63  65
ATOM     65  C   UNL A   1      33.084  25.985  24.438  1.00  0.00     0.111 C 
ATOM     66  C   UNL A   1      33.834  27.139  23.728  1.00  0.00     0.016 C 
ATOM     67  C   UNL A   1      32.975  26.173  25.968  1.00  0.00     0.093 C 
ATOM     68  C   UNL A   1      33.595  28.527  24.288  1.00  0.00     0.001 C 
ATOM     69  C   UNL A   1      33.070  27.625  26.514  1.00  0.00     0.014 C 
ATOM     70  C   UNL A   1      33.984  28.551  25.749  1.00  0.00     0.001 C 
BRANCH  67  71
ATOM     71  C   UNL A   1      31.719  25.646  26.687  1.00  0.00     0.228 C 
ATOM     72  O   UNL A   1      30.841  26.473  26.986  1.00  0.00    -0.274 OA
ATOM     73  N   UNL A   1      31.325  24.338  26.765  1.00  0.00    -0.323 N 
ATOM     74  H   UNL A   1      30.445  24.229  27.194  1.00  0.00     0.170 HD
BRANCH  73  75
ATOM     75  C   UNL A   1      31.882  23.137  26.377  1.00  0.00     0.079 A 
ATOM     76  C   UNL A   1      32.906  22.313  26.888  1.00  0.00     0.161 A 
ATOM     77  C   UNL A   1      31.379  22.400  25.322  1.00  0.00     0.135 A 
ATOM     78  N   UNL A   1      33.112  21.216  26.155  1.00  0.00    -0.179 NA
ATOM     79  N   UNL A   1      32.230  21.341  25.149  1.00  0.00    -0.266 N 
BRANCH  79  80
ATOM     80  C   UNL A   1      32.275  20.405  24.031  1.00  0.00     0.179 C 
BRANCH  80  81
ATOM     81  C   UNL A   1      33.071  19.165  24.381  1.00  0.00    -0.025 A 
ATOM     82  C   UNL A   1      34.468  19.146  24.237  1.00  0.00     0.007 A 
ATOM     83  C   UNL A   1      32.432  18.011  24.859  1.00  0.00     0.027 A 
ATOM     84  C   UNL A   1      35.206  17.999  24.543  1.00  0.00     0.022 A 
ATOM     85  C   UNL A   1      33.171  16.862  25.175  1.00  0.00     0.060 A 
ATOM     86  C   UNL A   1      34.561  16.855  25.012  1.00  0.00     0.059 A 
ATOM     87  Cl  UNL A   1      32.301  15.488  25.760  1.00  0.00    -0.083 Cl
ATOM     88  Cl  UNL A   1      35.532  15.473  25.373  1.00  0.00    -0.083 Cl
ENDBRANCH  80  81
ENDBRANCH  79  80
ENDBRANCH  73  75
ENDBRANCH  67  71
ENDBRANCH  63  65
ENDBRANCH  62  63
ENDBRANCH  61  62
ENDBRANCH  60  61
ENDBRANCH  59  60
ENDBRANCH   1  59
TORSDOF 21
ENDMDL
MODEL 2
REMARK VINA RESULT:     -10.6      3.421      5.400
REMARK SMILES O=C(OCCOCCOCCOC(=O)[C@@H]1CCCC[C@H]1C(=O)Nc1cnn(Cc2ccc(Cl)c(Cl)c2)c1)c1ccc(-c2c3nc(c(-c4ccccc4)c4ccc([nH]4)c(-c4ccccc4)c4nc(c(-c5ccccc5)c5ccc2[nH]5)C=C4)C=C3)cc1
REMARK SMILES IDX 8 1 7 2 6 3 5 4 4 5 3 6 2 7 1 8 38 9 39 10 85 11 40 12 84 13
REMARK SMILES IDX 41 14 42 15 43 16 78 17 44 18 83 19 77 20 79 21 45 22 82 23
REMARK SMILES IDX 76 24 75 25 46 27 68 28 53 29 67 30 54 31 57 32 66 33 80 34
REMARK SMILES IDX 55 35 56 36 65 38 81 39 58 40 47 41 48 42 52 43 49 44 51 45
REMARK SMILES IDX 50 46 69 47 70 48 74 49 71 50 73 51 72 52 59 53 60 54 64 55
REMARK SMILES IDX 61 56 63 57 62 58 9 59 10 60 11 61 12 62 13 63 14 64 15 65
REMARK SMILES IDX 16 66 20 67 17 68 19 69 18 70 21 71 22 72 23 73 24 75 25 76
REMARK SMILES IDX 37 77 26 78 27 79 28 80 29 81 30 82 36 83 31 84 34 85 32 86
REMARK SMILES IDX 35 87 33 88
REMARK H PARENT 79 26 57 37 23 74
REMARK Flexibility Score: inf
ROOT
ATOM      1  C   UNL A   1      37.816  22.104  25.285  1.00  0.00     0.188 C 
ENDROOT
BRANCH   1   2
ATOM      2  C   UNL A   1      39.162  22.375  25.951  1.00  0.00     0.188 C 
BRANCH   2   3
ATOM      3  O   UNL A   1      39.676  21.557  26.987  1.00  0.00    -0.376 OA
BRANCH   3   4
ATOM      4  C   UNL A   1      40.967  20.978  26.953  1.00  0.00     0.202 C 
BRANCH   4   5
ATOM      5  C   UNL A   1      42.076  21.565  27.827  1.00  0.00     0.261 C 
BRANCH   5   6
ATOM      6  O   UNL A   1      42.134  22.988  27.957  1.00  0.00    -0.460 OA
BRANCH   6   7
ATOM      7  C   UNL A   1      43.055  23.734  28.600  1.00  0.00     0.338 C 
ATOM      8  O   UNL A   1      43.953  23.183  29.231  1.00  0.00    -0.246 OA
BRANCH   7   9
ATOM      9  C   UNL A   1      42.993  25.218  28.660  1.00  0.00     0.060 A 
ATOM     10  C   UNL A   1      43.076  25.943  29.847  1.00  0.00     0.016 A 
ATOM     11  C   UNL A   1      42.634  25.872  27.465  1.00  0.00     0.016 A 
ATOM     12  C   UNL A   1      42.745  27.291  29.853  1.00  0.00     0.010 A 
ATOM     13  C   UNL A   1      42.276  27.213  27.475  1.00  0.00     0.010 A 
ATOM     14  C   UNL A   1      42.274  27.898  28.686  1.00  0.00    -0.014 A 
BRANCH  14  15
ATOM     15  C   UNL A   1      41.643  29.205  28.826  1.00  0.00     0.031 A 
ATOM     16  C   UNL A   1      42.492  30.409  28.677  1.00  0.00     0.074 A 
ATOM     17  C   UNL A   1      40.318  29.328  29.047  1.00  0.00     0.049 A 
ATOM     18  N   UNL A   1      42.731  31.326  29.558  1.00  0.00    -0.248 NA
ATOM     19  C   UNL A   1      43.169  30.613  27.391  1.00  0.00     0.031 C 
ATOM     20  C   UNL A   1      39.294  28.285  28.948  1.00  0.00     0.029 A 
ATOM     21  N   UNL A   1      39.596  30.456  29.312  1.00  0.00    -0.354 N 
ATOM     22  C   UNL A   1      43.455  32.315  28.897  1.00  0.00     0.074 A 
ATOM     23  C   UNL A   1      43.783  31.778  27.598  1.00  0.00     0.031 C 
ATOM     24  C   UNL A   1      38.074  28.865  28.927  1.00  0.00     0.029 A 
ATOM     25  C   UNL A   1      38.230  30.293  29.148  1.00  0.00     0.049 A 
ATOM     26  H   UNL A   1      40.007  31.305  29.592  1.00  0.00     0.167 HD
ATOM     27  C   UNL A   1      43.548  33.585  29.381  1.00  0.00     0.031 A 
ATOM     28  C   UNL A   1      37.290  31.265  29.128  1.00  0.00     0.031 A 
ATOM     29  C   UNL A   1      43.237  33.665  30.783  1.00  0.00     0.049 A 
ATOM     30  C   UNL A   1      37.845  32.466  29.786  1.00  0.00     0.074 A 
ATOM     31  C   UNL A   1      43.728  33.082  31.935  1.00  0.00     0.029 A 
ATOM     32  N   UNL A   1      42.048  34.250  31.145  1.00  0.00    -0.354 N 
ATOM     33  N   UNL A   1      38.066  32.558  31.064  1.00  0.00    -0.248 NA
ATOM     34  C   UNL A   1      38.502  33.473  28.967  1.00  0.00     0.031 C 
ATOM     35  C   UNL A   1      42.596  32.940  32.793  1.00  0.00     0.029 A 
ATOM     36  C   UNL A   1      41.493  33.464  32.119  1.00  0.00     0.049 A 
ATOM     37  H   UNL A   1      41.667  35.078  30.774  1.00  0.00     0.167 HD
ATOM     38  C   UNL A   1      39.204  33.343  31.172  1.00  0.00     0.074 A 
ATOM     39  C   UNL A   1      39.343  33.985  29.870  1.00  0.00     0.031 C 
ATOM     40  C   UNL A   1      40.081  33.174  32.208  1.00  0.00     0.031 A 
BRANCH  27  41
ATOM     41  C   UNL A   1      43.525  34.810  28.494  1.00  0.00    -0.014 A 
ATOM     42  C   UNL A   1      44.631  35.682  28.512  1.00  0.00     0.009 A 
ATOM     43  C   UNL A   1      42.351  35.296  27.888  1.00  0.00     0.009 A 
ATOM     44  C   UNL A   1      44.533  36.998  28.044  1.00  0.00     0.001 A 
ATOM     45  C   UNL A   1      42.265  36.593  27.374  1.00  0.00     0.001 A 
ATOM     46  C   UNL A   1      43.346  37.456  27.485  1.00  0.00     0.000 A 
ENDBRANCH  27  41
BRANCH  28  47
ATOM     47  C   UNL A   1      36.019  31.284  28.374  1.00  0.00    -0.014 A 
ATOM     48  C   UNL A   1      35.547  30.136  27.722  1.00  0.00     0.009 A 
ATOM     49  C   UNL A   1      35.141  32.377  28.497  1.00  0.00     0.009 A 
ATOM     50  C   UNL A   1      34.235  30.078  27.234  1.00  0.00     0.001 A 
ATOM     51  C   UNL A   1      33.836  32.324  28.002  1.00  0.00     0.001 A 
ATOM     52  C   UNL A   1      33.378  31.167  27.382  1.00  0.00     0.000 A 
ENDBRANCH  28  47
BRANCH  40  53
ATOM     53  C   UNL A   1      39.638  32.341  33.384  1.00  0.00    -0.014 A 
ATOM     54  C   UNL A   1      38.749  32.823  34.359  1.00  0.00     0.009 A 
ATOM     55  C   UNL A   1      40.008  30.988  33.427  1.00  0.00     0.009 A 
ATOM     56  C   UNL A   1      38.278  31.985  35.374  1.00  0.00     0.001 A 
ATOM     57  C   UNL A   1      39.518  30.146  34.428  1.00  0.00     0.001 A 
ATOM     58  C   UNL A   1      38.659  30.646  35.405  1.00  0.00     0.000 A 
ENDBRANCH  40  53
ENDBRANCH  14  15
ENDBRANCH   7   9
ENDBRANCH   6   7
ENDBRANCH   5   6
ENDBRANCH   4   5
ENDBRANCH   3   4
ENDBRANCH   2   3
ENDBRANCH   1   2
BRANCH   1  59
ATOM     59  O   UNL A   1      36.728  22.128  26.187  1.00  0.00    -0.376 OA
BRANCH  59  60
ATOM     60  C   UNL A   1      35.960  23.319  26.115  1.00  0.00     0.202 C 
BRANCH  60  61
ATOM     61  C   UNL A   1      35.618  23.865  24.707  1.00  0.00     0.261 C 
BRANCH  61  62
ATOM     62  O   UNL A   1      34.679  24.967  24.605  1.00  0.00    -0.463 OA
BRANCH  62  63
ATOM     63  C   UNL A   1      34.029  25.073  23.426  1.00  0.00     0.309 C 
ATOM     64  O   UNL A   1      34.296  24.360  22.462  1.00  0.00    -0.252 OA
BRANCH  63  65
ATOM     65  C   UNL A   1      32.861  26.086  23.374  1.00  0.00     0.111 C 
ATOM     66  C   UNL A   1      33.546  27.427  23.015  1.00  0.00     0.016 C 
ATOM     67  C   UNL A   1      31.871  26.199  24.556  1.00  0.00     0.093 C 
ATOM     68  C   UNL A   1      32.683  28.667  23.141  1.00  0.00     0.001 C 
ATOM     69  C   UNL A   1      31.261  27.600  24.840  1.00  0.00     0.014 C 
ATOM     70  C   UNL A   1      32.166  28.775  24.558  1.00  0.00     0.001 C 
BRANCH  67  71
ATOM     71  C   UNL A   1      30.618  25.303  24.555  1.00  0.00     0.228 C 
ATOM     72  O   UNL A   1      29.577  25.774  24.065  1.00  0.00    -0.274 OA
ATOM     73  N   UNL A   1      30.596  23.950  24.756  1.00  0.00    -0.323 N 
ATOM     74  H   UNL A   1      29.701  23.558  24.625  1.00  0.00     0.170 HD
BRANCH  73  75
ATOM     75  C   UNL A   1      31.545  23.009  25.100  1.00  0.00     0.079 A 
ATOM     76  C   UNL A   1      32.129  22.595  26.315  1.00  0.00     0.161 A 
ATOM     77  C   UNL A   1      32.078  22.130  24.176  1.00  0.00     0.135 A 
ATOM     78  N   UNL A   1      33.035  21.626  26.159  1.00  0.00    -0.179 NA
ATOM     79  N   UNL A   1      33.054  21.427  24.830  1.00  0.00    -0.266 N 
BRANCH  79  80
ATOM     80  C   UNL A   1      34.064  20.549  24.248  1.00  0.00     0.179 C 
BRANCH  80  81
ATOM     81  C   UNL A   1      33.760  19.093  24.532  1.00  0.00    -0.025 A 
ATOM     82  C   UNL A   1      32.436  18.623  24.529  1.00  0.00     0.007 A 
ATOM     83  C   UNL A   1      34.792  18.182  24.802  1.00  0.00     0.027 A 
ATOM     84  C   UNL A   1      32.148  17.284  24.806  1.00  0.00     0.022 A 
ATOM     85  C   UNL A   1      34.507  16.836  25.072  1.00  0.00     0.060 A 
ATOM     86  C   UNL A   1      33.182  16.387  25.078  1.00  0.00     0.059 A 
ATOM     87  Cl  UNL A   1      35.841  15.785  25.390  1.00  0.00    -0.083 Cl
ATOM     88  Cl  UNL A   1      32.757  14.747  25.412  1.00  0.00    -0.083 Cl
ENDBRANCH  80  81
ENDBRANCH  79  80
ENDBRANCH  73  75
ENDBRANCH  67  71
ENDBRANCH  63  65
ENDBRANCH  62  63
ENDBRANCH  61  62
ENDBRANCH  60  61
ENDBRANCH  59  60
ENDBRANCH   1  59
TORSDOF 21
ENDMDL
MODEL 3
REMARK VINA RESULT:     -10.5      4.817      9.434
REMARK SMILES O=C(OCCOCCOCCOC(=O)[C@@H]1CCCC[C@H]1C(=O)Nc1cnn(Cc2ccc(Cl)c(Cl)c2)c1)c1ccc(-c2c3nc(c(-c4ccccc4)c4ccc([nH]4)c(-c4ccccc4)c4nc(c(-c5ccccc5)c5ccc2[nH]5)C=C4)C=C3)cc1
REMARK SMILES IDX 8 1 7 2 6 3 5 4 4 5 3 6 2 7 1 8 38 9 39 10 85 11 40 12 84 13
REMARK SMILES IDX 41 14 42 15 43 16 78 17 44 18 83 19 77 20 79 21 45 22 82 23
REMARK SMILES IDX 76 24 75 25 46 27 68 28 53 29 67 30 54 31 57 32 66 33 80 34
REMARK SMILES IDX 55 35 56 36 65 38 81 39 58 40 47 41 48 42 52 43 49 44 51 45
REMARK SMILES IDX 50 46 69 47 70 48 74 49 71 50 73 51 72 52 59 53 60 54 64 55
REMARK SMILES IDX 61 56 63 57 62 58 9 59 10 60 11 61 12 62 13 63 14 64 15 65
REMARK SMILES IDX 16 66 20 67 17 68 19 69 18 70 21 71 22 72 23 73 24 75 25 76
REMARK SMILES IDX 37 77 26 78 27 79 28 80 29 81 30 82 36 83 31 84 34 85 32 86
REMARK SMILES IDX 35 87 33 88
REMARK H PARENT 79 26 57 37 23 74
REMARK Flexibility Score: inf
ROOT
ATOM      1  C   UNL A   1      34.977  32.057  28.871  1.00  0.00     0.188 C 
ENDROOT
BRANCH   1   2
ATOM      2  C   UNL A   1      35.318  33.262  28.000  1.00  0.00     0.188 C 
BRANCH   2   3
ATOM      3  O   UNL A   1      34.736  34.538  28.204  1.00  0.00    -0.376 OA
BRANCH   3   4
ATOM      4  C   UNL A   1      33.383  34.725  28.571  1.00  0.00     0.202 C 
BRANCH   4   5
ATOM      5  C   UNL A   1      33.049  35.580  29.794  1.00  0.00     0.261 C 
BRANCH   5   6
ATOM      6  O   UNL A   1      32.910  34.912  31.052  1.00  0.00    -0.460 OA
BRANCH   6   7
ATOM      7  C   UNL A   1      33.584  35.136  32.198  1.00  0.00     0.338 C 
ATOM      8  O   UNL A   1      33.251  36.064  32.930  1.00  0.00    -0.246 OA
BRANCH   7   9
ATOM      9  C   UNL A   1      34.788  34.358  32.591  1.00  0.00     0.060 A 
ATOM     10  C   UNL A   1      36.036  34.936  32.817  1.00  0.00     0.016 A 
ATOM     11  C   UNL A   1      34.668  32.956  32.529  1.00  0.00     0.016 A 
ATOM     12  C   UNL A   1      37.159  34.127  32.916  1.00  0.00     0.010 A 
ATOM     13  C   UNL A   1      35.793  32.147  32.601  1.00  0.00     0.010 A 
ATOM     14  C   UNL A   1      37.043  32.746  32.731  1.00  0.00    -0.014 A 
BRANCH  14  15
ATOM     15  C   UNL A   1      38.276  31.997  32.525  1.00  0.00     0.031 A 
ATOM     16  C   UNL A   1      39.135  31.729  33.701  1.00  0.00     0.074 A 
ATOM     17  C   UNL A   1      38.619  31.525  31.309  1.00  0.00     0.049 A 
ATOM     18  N   UNL A   1      40.353  32.118  33.900  1.00  0.00    -0.248 NA
ATOM     19  C   UNL A   1      38.563  30.940  34.798  1.00  0.00     0.031 C 
ATOM     20  C   UNL A   1      37.781  31.450  30.109  1.00  0.00     0.029 A 
ATOM     21  N   UNL A   1      39.777  30.911  30.924  1.00  0.00    -0.354 N 
ATOM     22  C   UNL A   1      40.770  31.491  35.071  1.00  0.00     0.074 A 
ATOM     23  C   UNL A   1      39.599  30.862  35.634  1.00  0.00     0.031 C 
ATOM     24  C   UNL A   1      38.371  30.634  29.209  1.00  0.00     0.029 A 
ATOM     25  C   UNL A   1      39.677  30.246  29.714  1.00  0.00     0.049 A 
ATOM     26  H   UNL A   1      40.603  30.938  31.457  1.00  0.00     0.167 HD
ATOM     27  C   UNL A   1      42.089  31.348  35.382  1.00  0.00     0.031 A 
ATOM     28  C   UNL A   1      40.573  29.382  29.182  1.00  0.00     0.031 A 
ATOM     29  C   UNL A   1      42.928  32.267  34.659  1.00  0.00     0.049 A 
ATOM     30  C   UNL A   1      41.883  29.613  29.826  1.00  0.00     0.074 A 
ATOM     31  C   UNL A   1      43.001  33.640  34.530  1.00  0.00     0.029 A 
ATOM     32  N   UNL A   1      43.722  31.761  33.659  1.00  0.00    -0.354 N 
ATOM     33  N   UNL A   1      42.618  30.667  29.621  1.00  0.00    -0.248 NA
ATOM     34  C   UNL A   1      42.238  28.825  30.995  1.00  0.00     0.031 C 
ATOM     35  C   UNL A   1      43.440  33.866  33.191  1.00  0.00     0.029 A 
ATOM     36  C   UNL A   1      43.626  32.618  32.597  1.00  0.00     0.049 A 
ATOM     37  H   UNL A   1      44.258  30.936  33.700  1.00  0.00     0.167 HD
ATOM     38  C   UNL A   1      43.232  30.913  30.840  1.00  0.00     0.074 A 
ATOM     39  C   UNL A   1      43.070  29.677  31.598  1.00  0.00     0.031 C 
ATOM     40  C   UNL A   1      43.558  32.185  31.220  1.00  0.00     0.031 A 
BRANCH  27  41
ATOM     41  C   UNL A   1      42.654  30.108  36.038  1.00  0.00    -0.014 A 
ATOM     42  C   UNL A   1      43.711  30.247  36.957  1.00  0.00     0.009 A 
ATOM     43  C   UNL A   1      42.402  28.807  35.560  1.00  0.00     0.009 A 
ATOM     44  C   UNL A   1      44.532  29.164  37.297  1.00  0.00     0.001 A 
ATOM     45  C   UNL A   1      43.188  27.715  35.937  1.00  0.00     0.001 A 
ATOM     46  C   UNL A   1      44.276  27.901  36.778  1.00  0.00     0.000 A 
ENDBRANCH  27  41
BRANCH  28  47
ATOM     47  C   UNL A   1      40.306  28.220  28.310  1.00  0.00    -0.014 A 
ATOM     48  C   UNL A   1      40.901  28.112  27.045  1.00  0.00     0.009 A 
ATOM     49  C   UNL A   1      39.646  27.088  28.824  1.00  0.00     0.009 A 
ATOM     50  C   UNL A   1      40.858  26.905  26.334  1.00  0.00     0.001 A 
ATOM     51  C   UNL A   1      39.595  25.888  28.111  1.00  0.00     0.001 A 
ATOM     52  C   UNL A   1      40.214  25.792  26.871  1.00  0.00     0.000 A 
ENDBRANCH  28  47
BRANCH  40  53
ATOM     53  C   UNL A   1      43.519  33.270  30.175  1.00  0.00    -0.014 A 
ATOM     54  C   UNL A   1      42.353  33.996  29.882  1.00  0.00     0.009 A 
ATOM     55  C   UNL A   1      44.724  33.673  29.579  1.00  0.00     0.009 A 
ATOM     56  C   UNL A   1      42.383  35.067  28.984  1.00  0.00     0.001 A 
ATOM     57  C   UNL A   1      44.758  34.758  28.700  1.00  0.00     0.001 A 
ATOM     58  C   UNL A   1      43.586  35.450  28.397  1.00  0.00     0.000 A 
ENDBRANCH  40  53
ENDBRANCH  14  15
ENDBRANCH   7   9
ENDBRANCH   6   7
ENDBRANCH   5   6
ENDBRANCH   4   5
ENDBRANCH   3   4
ENDBRANCH   2   3
ENDBRANCH   1   2
BRANCH   1  59
ATOM     59  O   UNL A   1      34.823  30.859  28.136  1.00  0.00    -0.376 OA
BRANCH  59  60
ATOM     60  C   UNL A   1      33.666  30.845  27.313  1.00  0.00     0.202 C 
BRANCH  60  61
ATOM     61  C   UNL A   1      33.518  29.677  26.307  1.00  0.00     0.261 C 
BRANCH  61  62
ATOM     62  O   UNL A   1      32.647  29.861  25.162  1.00  0.00    -0.463 OA
BRANCH  62  63
ATOM     63  C   UNL A   1      32.858  29.021  24.125  1.00  0.00     0.309 C 
ATOM     64  O   UNL A   1      33.621  29.296  23.202  1.00  0.00    -0.252 OA
BRANCH  63  65
ATOM     65  C   UNL A   1      32.154  27.645  24.200  1.00  0.00     0.111 C 
ATOM     66  C   UNL A   1      31.721  27.369  22.739  1.00  0.00     0.016 C 
ATOM     67  C   UNL A   1      31.031  27.398  25.232  1.00  0.00     0.093 C 
ATOM     68  C   UNL A   1      30.777  26.200  22.539  1.00  0.00     0.001 C 
ATOM     69  C   UNL A   1      29.895  26.418  24.824  1.00  0.00     0.014 C 
ATOM     70  C   UNL A   1      29.526  26.420  23.360  1.00  0.00     0.001 C 
BRANCH  67  71
ATOM     71  C   UNL A   1      31.415  26.872  26.627  1.00  0.00     0.228 C 
ATOM     72  O   UNL A   1      30.987  27.496  27.613  1.00  0.00    -0.274 OA
ATOM     73  N   UNL A   1      31.921  25.632  26.909  1.00  0.00    -0.323 N 
ATOM     74  H   UNL A   1      32.014  25.468  27.876  1.00  0.00     0.170 HD
BRANCH  73  75
ATOM     75  C   UNL A   1      32.330  24.559  26.143  1.00  0.00     0.079 A 
ATOM     76  C   UNL A   1      31.960  23.200  26.072  1.00  0.00     0.161 A 
ATOM     77  C   UNL A   1      33.232  24.697  25.106  1.00  0.00     0.135 A 
ATOM     78  N   UNL A   1      32.650  22.516  25.157  1.00  0.00    -0.179 NA
ATOM     79  N   UNL A   1      33.489  23.433  24.646  1.00  0.00    -0.266 N 
BRANCH  79  80
ATOM     80  C   UNL A   1      34.539  23.015  23.724  1.00  0.00     0.179 C 
BRANCH  80  81
ATOM     81  C   UNL A   1      35.834  22.727  24.454  1.00  0.00    -0.025 A 
ATOM     82  C   UNL A   1      36.497  23.741  25.164  1.00  0.00     0.007 A 
ATOM     83  C   UNL A   1      36.398  21.442  24.440  1.00  0.00     0.027 A 
ATOM     84  C   UNL A   1      37.700  23.485  25.827  1.00  0.00     0.022 A 
ATOM     85  C   UNL A   1      37.600  21.180  25.112  1.00  0.00     0.060 A 
ATOM     86  C   UNL A   1      38.255  22.205  25.803  1.00  0.00     0.059 A 
ATOM     87  Cl  UNL A   1      38.219  19.568  25.043  1.00  0.00    -0.083 Cl
ATOM     88  Cl  UNL A   1      39.744  21.957  26.643  1.00  0.00    -0.083 Cl
ENDBRANCH  80  81
ENDBRANCH  79  80
ENDBRANCH  73  75
ENDBRANCH  67  71
ENDBRANCH  63  65
ENDBRANCH  62  63
ENDBRANCH  61  62
ENDBRANCH  60  61
ENDBRANCH  59  60
ENDBRANCH   1  59
TORSDOF 21
ENDMDL
