MODEL 1
REMARK VINA RESULT:      -9.1      0.000      0.000
REMARK SMILES C[C@H](C(=O)OCCOCCOCCOC(=O)c1ccc(-c2c3nc(c(-c4ccccc4)c4ccc([nH]4)c(-c4ccccc4)c4nc(c(-c5ccccc5)c5ccc2[nH]5)C=C4)C=C3)cc1)c1ccc2c(c1)[nH]c1ccc(Cl)cc12
REMARK SMILES IDX 10 1 9 2 8 3 7 4 6 5 5 6 3 7 4 8 2 9 1 10 65 11 66 12 70 13
REMARK SMILES IDX 67 14 69 15 68 16 71 17 78 18 72 19 77 21 73 22 75 23 74 24
REMARK SMILES IDX 76 25 11 26 12 27 13 28 14 29 15 30 16 31 17 32 18 33 64 34
REMARK SMILES IDX 19 35 63 36 20 37 21 38 22 39 57 40 23 41 62 42 56 43 58 44
REMARK SMILES IDX 24 45 61 46 55 47 54 48 25 50 47 51 32 52 46 53 33 54 36 55
REMARK SMILES IDX 45 56 59 57 34 58 35 59 44 61 60 62 37 63 26 64 27 65 31 66
REMARK SMILES IDX 28 67 30 68 29 69 48 70 49 71 53 72 50 73 52 74 51 75 38 76
REMARK SMILES IDX 39 77 43 78 40 79 42 80 41 81
REMARK H PARENT 71 20 58 49 36 60
REMARK Flexibility Score: inf
ROOT
ATOM      1  C   UNL A   1      33.435  36.162  28.693  1.00  0.00     0.188 C 
ENDROOT
BRANCH   1   2
ATOM      2  C   UNL A   1      33.149  37.238  29.745  1.00  0.00     0.188 C 
BRANCH   2   3
ATOM      3  O   UNL A   1      32.519  36.849  30.956  1.00  0.00    -0.376 OA
BRANCH   3   4
ATOM      4  C   UNL A   1      33.269  36.906  32.168  1.00  0.00     0.202 C 
BRANCH   4   5
ATOM      5  C   UNL A   1      33.903  35.611  32.712  1.00  0.00     0.261 C 
BRANCH   5   6
ATOM      6  O   UNL A   1      34.575  34.780  31.734  1.00  0.00    -0.463 OA
BRANCH   6   7
ATOM      7  C   UNL A   1      34.802  33.487  32.085  1.00  0.00     0.313 C 
ATOM      8  O   UNL A   1      33.962  32.595  31.970  1.00  0.00    -0.252 OA
BRANCH   7   9
ATOM      9  C   UNL A   1      36.222  33.156  32.544  1.00  0.00     0.126 C 
ATOM     10  C   UNL A   1      36.354  31.700  33.023  1.00  0.00     0.025 C 
BRANCH   9  11
ATOM     11  C   UNL A   1      37.418  33.654  31.729  1.00  0.00    -0.032 A 
ATOM     12  C   UNL A   1      37.570  33.521  30.337  1.00  0.00     0.005 A 
ATOM     13  C   UNL A   1      38.507  34.139  32.468  1.00  0.00     0.031 A 
ATOM     14  C   UNL A   1      38.765  33.875  29.673  1.00  0.00     0.011 A 
ATOM     15  C   UNL A   1      39.722  34.345  31.815  1.00  0.00     0.047 A 
ATOM     16  C   UNL A   1      39.882  34.264  30.437  1.00  0.00     0.007 A 
ATOM     17  N   UNL A   1      40.956  34.588  32.357  1.00  0.00    -0.355 N 
ATOM     18  C   UNL A   1      41.253  34.579  30.153  1.00  0.00     0.009 A 
ATOM     19  C   UNL A   1      41.917  34.624  31.380  1.00  0.00     0.047 A 
ATOM     20  H   UNL A   1      41.129  34.719  33.317  1.00  0.00     0.167 HD
ATOM     21  C   UNL A   1      42.017  34.764  28.980  1.00  0.00     0.031 A 
ATOM     22  C   UNL A   1      43.306  34.696  31.505  1.00  0.00     0.028 A 
ATOM     23  C   UNL A   1      43.406  34.917  29.096  1.00  0.00     0.041 A 
ATOM     24  C   UNL A   1      44.045  34.837  30.332  1.00  0.00     0.022 A 
ATOM     25  Cl  UNL A   1      44.350  35.207  27.683  1.00  0.00    -0.084 Cl
ENDBRANCH   9  11
ENDBRANCH   7   9
ENDBRANCH   6   7
ENDBRANCH   5   6
ENDBRANCH   4   5
ENDBRANCH   3   4
ENDBRANCH   2   3
ENDBRANCH   1   2
BRANCH   1  26
ATOM     26  O   UNL A   1      32.680  34.982  28.844  1.00  0.00    -0.376 OA
BRANCH  26  27
ATOM     27  C   UNL A   1      32.991  33.885  28.007  1.00  0.00     0.202 C 
BRANCH  27  28
ATOM     28  C   UNL A   1      34.223  33.069  28.421  1.00  0.00     0.261 C 
BRANCH  28  29
ATOM     29  O   UNL A   1      34.710  32.127  27.445  1.00  0.00    -0.460 OA
BRANCH  29  30
ATOM     30  C   UNL A   1      34.590  30.809  27.740  1.00  0.00     0.338 C 
ATOM     31  O   UNL A   1      33.707  30.058  27.385  1.00  0.00    -0.246 OA
BRANCH  30  32
ATOM     32  C   UNL A   1      35.870  30.376  28.358  1.00  0.00     0.060 A 
ATOM     33  C   UNL A   1      37.075  30.645  27.689  1.00  0.00     0.016 A 
ATOM     34  C   UNL A   1      35.886  29.742  29.601  1.00  0.00     0.016 A 
ATOM     35  C   UNL A   1      38.294  30.255  28.250  1.00  0.00     0.010 A 
ATOM     36  C   UNL A   1      37.104  29.332  30.150  1.00  0.00     0.010 A 
ATOM     37  C   UNL A   1      38.313  29.559  29.466  1.00  0.00    -0.014 A 
BRANCH  37  38
ATOM     38  C   UNL A   1      39.557  28.898  29.935  1.00  0.00     0.031 A 
ATOM     39  C   UNL A   1      40.279  29.494  31.114  1.00  0.00     0.074 A 
ATOM     40  C   UNL A   1      40.048  27.796  29.339  1.00  0.00     0.049 A 
ATOM     41  N   UNL A   1      41.422  29.150  31.652  1.00  0.00    -0.248 NA
ATOM     42  C   UNL A   1      39.622  30.637  31.771  1.00  0.00     0.031 C 
ATOM     43  C   UNL A   1      39.428  27.085  28.225  1.00  0.00     0.029 A 
ATOM     44  N   UNL A   1      41.201  27.092  29.591  1.00  0.00    -0.354 N 
ATOM     45  C   UNL A   1      41.624  30.039  32.700  1.00  0.00     0.074 A 
ATOM     46  C   UNL A   1      40.505  30.955  32.703  1.00  0.00     0.031 C 
ATOM     47  C   UNL A   1      40.217  26.051  27.877  1.00  0.00     0.029 A 
ATOM     48  C   UNL A   1      41.413  26.053  28.717  1.00  0.00     0.049 A 
ATOM     49  H   UNL A   1      41.817  27.311  30.327  1.00  0.00     0.167 HD
ATOM     50  C   UNL A   1      42.647  30.088  33.587  1.00  0.00     0.031 A 
ATOM     51  C   UNL A   1      42.466  25.221  28.590  1.00  0.00     0.031 A 
ATOM     52  C   UNL A   1      43.774  29.195  33.575  1.00  0.00     0.049 A 
ATOM     53  C   UNL A   1      43.642  25.356  29.526  1.00  0.00     0.074 A 
ATOM     54  C   UNL A   1      44.859  29.165  34.435  1.00  0.00     0.029 A 
ATOM     55  N   UNL A   1      43.970  28.181  32.650  1.00  0.00    -0.354 N 
ATOM     56  N   UNL A   1      43.814  26.186  30.527  1.00  0.00    -0.248 NA
ATOM     57  C   UNL A   1      44.766  24.431  29.317  1.00  0.00     0.031 C 
ATOM     58  C   UNL A   1      45.741  28.175  33.991  1.00  0.00     0.029 A 
ATOM     59  C   UNL A   1      45.171  27.539  32.900  1.00  0.00     0.049 A 
ATOM     60  H   UNL A   1      43.347  27.953  31.923  1.00  0.00     0.167 HD
ATOM     61  C   UNL A   1      45.046  25.861  31.084  1.00  0.00     0.074 A 
ATOM     62  C   UNL A   1      45.571  24.748  30.322  1.00  0.00     0.031 C 
ATOM     63  C   UNL A   1      45.684  26.431  32.136  1.00  0.00     0.031 A 
BRANCH  50  64
ATOM     64  C   UNL A   1      42.610  31.177  34.623  1.00  0.00    -0.014 A 
ATOM     65  C   UNL A   1      42.047  30.961  35.892  1.00  0.00     0.009 A 
ATOM     66  C   UNL A   1      43.171  32.431  34.335  1.00  0.00     0.009 A 
ATOM     67  C   UNL A   1      42.014  31.990  36.835  1.00  0.00     0.001 A 
ATOM     68  C   UNL A   1      43.167  33.447  35.292  1.00  0.00     0.001 A 
ATOM     69  C   UNL A   1      42.580  33.229  36.537  1.00  0.00     0.000 A 
ENDBRANCH  50  64
BRANCH  51  70
ATOM     70  C   UNL A   1      42.485  24.195  27.511  1.00  0.00    -0.014 A 
ATOM     71  C   UNL A   1      41.991  22.901  27.738  1.00  0.00     0.009 A 
ATOM     72  C   UNL A   1      43.035  24.495  26.254  1.00  0.00     0.009 A 
ATOM     73  C   UNL A   1      42.073  21.925  26.742  1.00  0.00     0.001 A 
ATOM     74  C   UNL A   1      43.085  23.528  25.248  1.00  0.00     0.001 A 
ATOM     75  C   UNL A   1      42.614  22.240  25.497  1.00  0.00     0.000 A 
ENDBRANCH  51  70
BRANCH  63  76
ATOM     76  C   UNL A   1      46.999  25.835  32.562  1.00  0.00    -0.014 A 
ATOM     77  C   UNL A   1      48.209  26.209  31.955  1.00  0.00     0.009 A 
ATOM     78  C   UNL A   1      47.031  24.915  33.623  1.00  0.00     0.009 A 
ATOM     79  C   UNL A   1      49.416  25.647  32.380  1.00  0.00     0.001 A 
ATOM     80  C   UNL A   1      48.242  24.382  34.068  1.00  0.00     0.001 A 
ATOM     81  C   UNL A   1      49.432  24.740  33.439  1.00  0.00     0.000 A 
ENDBRANCH  63  76
ENDBRANCH  37  38
ENDBRANCH  30  32
ENDBRANCH  29  30
ENDBRANCH  28  29
ENDBRANCH  27  28
ENDBRANCH  26  27
ENDBRANCH   1  26
TORSDOF 18
ENDMDL
MODEL 2
REMARK VINA RESULT:      -9.0      5.020     11.095
REMARK SMILES C[C@H](C(=O)OCCOCCOCCOC(=O)c1ccc(-c2c3nc(c(-c4ccccc4)c4ccc([nH]4)c(-c4ccccc4)c4nc(c(-c5ccccc5)c5ccc2[nH]5)C=C4)C=C3)cc1)c1ccc2c(c1)[nH]c1ccc(Cl)cc12
REMARK SMILES IDX 10 1 9 2 8 3 7 4 6 5 5 6 3 7 4 8 2 9 1 10 65 11 66 12 70 13
REMARK SMILES IDX 67 14 69 15 68 16 71 17 78 18 72 19 77 21 73 22 75 23 74 24
REMARK SMILES IDX 76 25 11 26 12 27 13 28 14 29 15 30 16 31 17 32 18 33 64 34
REMARK SMILES IDX 19 35 63 36 20 37 21 38 22 39 57 40 23 41 62 42 56 43 58 44
REMARK SMILES IDX 24 45 61 46 55 47 54 48 25 50 47 51 32 52 46 53 33 54 36 55
REMARK SMILES IDX 45 56 59 57 34 58 35 59 44 61 60 62 37 63 26 64 27 65 31 66
REMARK SMILES IDX 28 67 30 68 29 69 48 70 49 71 53 72 50 73 52 74 51 75 38 76
REMARK SMILES IDX 39 77 43 78 40 79 42 80 41 81
REMARK H PARENT 71 20 58 49 36 60
REMARK Flexibility Score: inf
ROOT
ATOM      1  C   UNL A   1      42.295  19.374  26.568  1.00  0.00     0.188 C 
ENDROOT
BRANCH   1   2
ATOM      2  C   UNL A   1      40.785  19.550  26.381  1.00  0.00     0.188 C 
BRANCH   2   3
ATOM      3  O   UNL A   1      40.158  20.680  26.967  1.00  0.00    -0.376 OA
BRANCH   3   4
ATOM      4  C   UNL A   1      39.930  21.834  26.161  1.00  0.00     0.202 C 
BRANCH   4   5
ATOM      5  C   UNL A   1      38.500  22.397  26.055  1.00  0.00     0.261 C 
BRANCH   5   6
ATOM      6  O   UNL A   1      37.849  22.225  24.772  1.00  0.00    -0.463 OA
BRANCH   6   7
ATOM      7  C   UNL A   1      36.923  21.234  24.685  1.00  0.00     0.313 C 
ATOM      8  O   UNL A   1      37.171  20.052  24.919  1.00  0.00    -0.252 OA
BRANCH   7   9
ATOM      9  C   UNL A   1      35.492  21.679  24.380  1.00  0.00     0.126 C 
ATOM     10  C   UNL A   1      34.451  20.646  24.842  1.00  0.00     0.025 C 
BRANCH   9  11
ATOM     11  C   UNL A   1      35.080  23.132  24.629  1.00  0.00    -0.032 A 
ATOM     12  C   UNL A   1      34.898  23.725  25.891  1.00  0.00     0.005 A 
ATOM     13  C   UNL A   1      34.710  23.868  23.493  1.00  0.00     0.031 A 
ATOM     14  C   UNL A   1      34.377  25.028  26.041  1.00  0.00     0.011 A 
ATOM     15  C   UNL A   1      34.065  25.093  23.670  1.00  0.00     0.047 A 
ATOM     16  C   UNL A   1      33.916  25.717  24.903  1.00  0.00     0.007 A 
ATOM     17  N   UNL A   1      33.420  25.864  22.740  1.00  0.00    -0.355 N 
ATOM     18  C   UNL A   1      33.244  26.963  24.665  1.00  0.00     0.009 A 
ATOM     19  C   UNL A   1      32.822  26.944  23.335  1.00  0.00     0.047 A 
ATOM     20  H   UNL A   1      33.392  25.670  21.775  1.00  0.00     0.167 HD
ATOM     21  C   UNL A   1      32.889  28.077  25.456  1.00  0.00     0.031 A 
ATOM     22  C   UNL A   1      31.951  27.888  22.787  1.00  0.00     0.028 A 
ATOM     23  C   UNL A   1      32.080  29.074  24.894  1.00  0.00     0.041 A 
ATOM     24  C   UNL A   1      31.580  28.959  23.598  1.00  0.00     0.022 A 
ATOM     25  Cl  UNL A   1      31.687  30.473  25.821  1.00  0.00    -0.084 Cl
ENDBRANCH   9  11
ENDBRANCH   7   9
ENDBRANCH   6   7
ENDBRANCH   5   6
ENDBRANCH   4   5
ENDBRANCH   3   4
ENDBRANCH   2   3
ENDBRANCH   1   2
BRANCH   1  26
ATOM     26  O   UNL A   1      43.065  20.488  26.181  1.00  0.00    -0.376 OA
BRANCH  26  27
ATOM     27  C   UNL A   1      43.991  20.319  25.125  1.00  0.00     0.202 C 
BRANCH  27  28
ATOM     28  C   UNL A   1      44.619  21.612  24.587  1.00  0.00     0.261 C 
BRANCH  28  29
ATOM     29  O   UNL A   1      43.901  22.827  24.876  1.00  0.00    -0.460 OA
BRANCH  29  30
ATOM     30  C   UNL A   1      44.631  23.961  25.023  1.00  0.00     0.338 C 
ATOM     31  O   UNL A   1      45.594  24.299  24.370  1.00  0.00    -0.246 OA
BRANCH  30  32
ATOM     32  C   UNL A   1      43.886  24.847  25.954  1.00  0.00     0.060 A 
ATOM     33  C   UNL A   1      44.176  26.221  25.964  1.00  0.00     0.016 A 
ATOM     34  C   UNL A   1      42.888  24.335  26.784  1.00  0.00     0.016 A 
ATOM     35  C   UNL A   1      43.486  27.079  26.825  1.00  0.00     0.010 A 
ATOM     36  C   UNL A   1      42.215  25.191  27.661  1.00  0.00     0.010 A 
ATOM     37  C   UNL A   1      42.529  26.562  27.708  1.00  0.00    -0.014 A 
BRANCH  37  38
ATOM     38  C   UNL A   1      41.993  27.400  28.811  1.00  0.00     0.031 A 
ATOM     39  C   UNL A   1      42.711  27.382  30.134  1.00  0.00     0.074 A 
ATOM     40  C   UNL A   1      40.895  28.162  28.658  1.00  0.00     0.049 A 
ATOM     41  N   UNL A   1      42.390  27.958  31.264  1.00  0.00    -0.248 NA
ATOM     42  C   UNL A   1      43.960  26.603  30.186  1.00  0.00     0.031 C 
ATOM     43  C   UNL A   1      40.131  28.315  27.423  1.00  0.00     0.029 A 
ATOM     44  N   UNL A   1      40.225  28.944  29.570  1.00  0.00    -0.354 N 
ATOM     45  C   UNL A   1      43.389  27.602  32.163  1.00  0.00     0.074 A 
ATOM     46  C   UNL A   1      44.308  26.738  31.456  1.00  0.00     0.031 C 
ATOM     47  C   UNL A   1      39.086  29.130  27.657  1.00  0.00     0.029 A 
ATOM     48  C   UNL A   1      39.085  29.522  29.066  1.00  0.00     0.049 A 
ATOM     49  H   UNL A   1      40.533  29.076  30.495  1.00  0.00     0.167 HD
ATOM     50  C   UNL A   1      43.534  27.966  33.460  1.00  0.00     0.031 A 
ATOM     51  C   UNL A   1      38.135  30.257  29.679  1.00  0.00     0.031 A 
ATOM     52  C   UNL A   1      42.612  28.806  34.174  1.00  0.00     0.049 A 
ATOM     53  C   UNL A   1      38.265  30.568  31.149  1.00  0.00     0.074 A 
ATOM     54  C   UNL A   1      42.677  29.232  35.490  1.00  0.00     0.029 A 
ATOM     55  N   UNL A   1      41.450  29.340  33.638  1.00  0.00    -0.354 N 
ATOM     56  N   UNL A   1      39.223  30.245  31.984  1.00  0.00    -0.248 NA
ATOM     57  C   UNL A   1      37.182  31.354  31.759  1.00  0.00     0.031 C 
ATOM     58  C   UNL A   1      41.522  29.970  35.767  1.00  0.00     0.029 A 
ATOM     59  C   UNL A   1      40.775  30.066  34.604  1.00  0.00     0.049 A 
ATOM     60  H   UNL A   1      41.150  29.219  32.708  1.00  0.00     0.167 HD
ATOM     61  C   UNL A   1      38.876  30.814  33.205  1.00  0.00     0.074 A 
ATOM     62  C   UNL A   1      37.627  31.517  32.998  1.00  0.00     0.031 C 
ATOM     63  C   UNL A   1      39.533  30.764  34.388  1.00  0.00     0.031 A 
BRANCH  50  64
ATOM     64  C   UNL A   1      44.722  27.416  34.200  1.00  0.00    -0.014 A 
ATOM     65  C   UNL A   1      44.615  26.272  35.007  1.00  0.00     0.009 A 
ATOM     66  C   UNL A   1      45.973  28.037  34.067  1.00  0.00     0.009 A 
ATOM     67  C   UNL A   1      45.729  25.785  35.694  1.00  0.00     0.001 A 
ATOM     68  C   UNL A   1      47.092  27.528  34.728  1.00  0.00     0.001 A 
ATOM     69  C   UNL A   1      46.967  26.408  35.549  1.00  0.00     0.000 A 
ENDBRANCH  50  64
BRANCH  51  70
ATOM     70  C   UNL A   1      36.946  30.730  28.917  1.00  0.00    -0.014 A 
ATOM     71  C   UNL A   1      36.801  32.084  28.578  1.00  0.00     0.009 A 
ATOM     72  C   UNL A   1      35.928  29.832  28.559  1.00  0.00     0.009 A 
ATOM     73  C   UNL A   1      35.651  32.532  27.922  1.00  0.00     0.001 A 
ATOM     74  C   UNL A   1      34.795  30.276  27.873  1.00  0.00     0.001 A 
ATOM     75  C   UNL A   1      34.652  31.628  27.566  1.00  0.00     0.000 A 
ENDBRANCH  51  70
BRANCH  63  76
ATOM     76  C   UNL A   1      38.946  31.526  35.547  1.00  0.00    -0.014 A 
ATOM     77  C   UNL A   1      38.140  30.899  36.510  1.00  0.00     0.009 A 
ATOM     78  C   UNL A   1      39.247  32.890  35.701  1.00  0.00     0.009 A 
ATOM     79  C   UNL A   1      37.619  31.630  37.581  1.00  0.00     0.001 A 
ATOM     80  C   UNL A   1      38.754  33.609  36.790  1.00  0.00     0.001 A 
ATOM     81  C   UNL A   1      37.931  32.982  37.723  1.00  0.00     0.000 A 
ENDBRANCH  63  76
ENDBRANCH  37  38
ENDBRANCH  30  32
ENDBRANCH  29  30
ENDBRANCH  28  29
ENDBRANCH  27  28
ENDBRANCH  26  27
ENDBRANCH   1  26
TORSDOF 18
ENDMDL
MODEL 3
REMARK VINA RESULT:      -8.6      4.965     11.205
REMARK SMILES C[C@H](C(=O)OCCOCCOCCOC(=O)c1ccc(-c2c3nc(c(-c4ccccc4)c4ccc([nH]4)c(-c4ccccc4)c4nc(c(-c5ccccc5)c5ccc2[nH]5)C=C4)C=C3)cc1)c1ccc2c(c1)[nH]c1ccc(Cl)cc12
REMARK SMILES IDX 10 1 9 2 8 3 7 4 6 5 5 6 3 7 4 8 2 9 1 10 65 11 66 12 70 13
REMARK SMILES IDX 67 14 69 15 68 16 71 17 78 18 72 19 77 21 73 22 75 23 74 24
REMARK SMILES IDX 76 25 11 26 12 27 13 28 14 29 15 30 16 31 17 32 18 33 64 34
REMARK SMILES IDX 19 35 63 36 20 37 21 38 22 39 57 40 23 41 62 42 56 43 58 44
REMARK SMILES IDX 24 45 61 46 55 47 54 48 25 50 47 51 32 52 46 53 33 54 36 55
REMARK SMILES IDX 45 56 59 57 34 58 35 59 44 61 60 62 37 63 26 64 27 65 31 66
REMARK SMILES IDX 28 67 30 68 29 69 48 70 49 71 53 72 50 73 52 74 51 75 38 76
REMARK SMILES IDX 39 77 43 78 40 79 42 80 41 81
REMARK H PARENT 71 20 58 49 36 60
REMARK Flexibility Score: inf
ROOT
ATOM      1  C   UNL A   1      41.882  20.901  26.624  1.00  0.00     0.188 C 
ENDROOT
BRANCH   1   2
ATOM      2  C   UNL A   1      40.452  21.213  26.173  1.00  0.00     0.188 C 
BRANCH   2   3
ATOM      3  O   UNL A   1      39.664  22.081  26.972  1.00  0.00    -0.376 OA
BRANCH   3   4
ATOM      4  C   UNL A   1      39.240  23.326  26.420  1.00  0.00     0.202 C 
BRANCH   4   5
ATOM      5  C   UNL A   1      37.778  23.477  25.961  1.00  0.00     0.261 C 
BRANCH   5   6
ATOM      6  O   UNL A   1      37.423  22.773  24.745  1.00  0.00    -0.463 OA
BRANCH   6   7
ATOM      7  C   UNL A   1      36.330  21.967  24.804  1.00  0.00     0.313 C 
ATOM      8  O   UNL A   1      36.297  20.913  25.439  1.00  0.00    -0.252 OA
BRANCH   7   9
ATOM      9  C   UNL A   1      35.072  22.493  24.114  1.00  0.00     0.126 C 
ATOM     10  C   UNL A   1      33.926  21.467  24.131  1.00  0.00     0.025 C 
BRANCH   9  11
ATOM     11  C   UNL A   1      34.619  23.935  24.358  1.00  0.00    -0.032 A 
ATOM     12  C   UNL A   1      34.590  24.581  25.607  1.00  0.00     0.005 A 
ATOM     13  C   UNL A   1      34.046  24.593  23.260  1.00  0.00     0.031 A 
ATOM     14  C   UNL A   1      34.024  25.864  25.777  1.00  0.00     0.011 A 
ATOM     15  C   UNL A   1      33.366  25.792  23.477  1.00  0.00     0.047 A 
ATOM     16  C   UNL A   1      33.364  26.470  24.691  1.00  0.00     0.007 A 
ATOM     17  N   UNL A   1      32.549  26.482  22.621  1.00  0.00    -0.355 N 
ATOM     18  C   UNL A   1      32.595  27.667  24.503  1.00  0.00     0.009 A 
ATOM     19  C   UNL A   1      31.984  27.559  23.252  1.00  0.00     0.047 A 
ATOM     20  H   UNL A   1      32.390  26.237  21.681  1.00  0.00     0.167 HD
ATOM     21  C   UNL A   1      32.298  28.801  25.288  1.00  0.00     0.031 A 
ATOM     22  C   UNL A   1      30.991  28.430  22.800  1.00  0.00     0.028 A 
ATOM     23  C   UNL A   1      31.360  29.727  24.810  1.00  0.00     0.041 A 
ATOM     24  C   UNL A   1      30.683  29.522  23.610  1.00  0.00     0.022 A 
ATOM     25  Cl  UNL A   1      31.029  31.151  25.724  1.00  0.00    -0.084 Cl
ENDBRANCH   9  11
ENDBRANCH   7   9
ENDBRANCH   6   7
ENDBRANCH   5   6
ENDBRANCH   4   5
ENDBRANCH   3   4
ENDBRANCH   2   3
ENDBRANCH   1   2
BRANCH   1  26
ATOM     26  O   UNL A   1      42.831  21.883  26.280  1.00  0.00    -0.376 OA
BRANCH  26  27
ATOM     27  C   UNL A   1      43.822  21.543  25.330  1.00  0.00     0.202 C 
BRANCH  27  28
ATOM     28  C   UNL A   1      44.245  22.676  24.385  1.00  0.00     0.261 C 
BRANCH  28  29
ATOM     29  O   UNL A   1      43.630  23.956  24.624  1.00  0.00    -0.460 OA
BRANCH  29  30
ATOM     30  C   UNL A   1      44.423  24.947  25.104  1.00  0.00     0.338 C 
ATOM     31  O   UNL A   1      45.466  25.342  24.629  1.00  0.00    -0.246 OA
BRANCH  30  32
ATOM     32  C   UNL A   1      43.660  25.647  26.168  1.00  0.00     0.060 A 
ATOM     33  C   UNL A   1      43.952  26.992  26.444  1.00  0.00     0.016 A 
ATOM     34  C   UNL A   1      42.641  24.995  26.865  1.00  0.00     0.016 A 
ATOM     35  C   UNL A   1      43.245  27.678  27.436  1.00  0.00     0.010 A 
ATOM     36  C   UNL A   1      41.951  25.675  27.873  1.00  0.00     0.010 A 
ATOM     37  C   UNL A   1      42.267  27.010  28.185  1.00  0.00    -0.014 A 
BRANCH  37  38
ATOM     38  C   UNL A   1      41.708  27.628  29.414  1.00  0.00     0.031 A 
ATOM     39  C   UNL A   1      40.401  28.367  29.308  1.00  0.00     0.074 A 
ATOM     40  C   UNL A   1      42.334  27.546  30.602  1.00  0.00     0.049 A 
ATOM     41  N   UNL A   1      39.758  29.058  30.216  1.00  0.00    -0.248 NA
ATOM     42  C   UNL A   1      39.732  28.323  27.997  1.00  0.00     0.031 C 
ATOM     43  C   UNL A   1      43.575  26.821  30.861  1.00  0.00     0.029 A 
ATOM     44  N   UNL A   1      42.005  28.099  31.817  1.00  0.00    -0.354 N 
ATOM     45  C   UNL A   1      38.618  29.538  29.583  1.00  0.00     0.074 A 
ATOM     46  C   UNL A   1      38.672  29.087  28.210  1.00  0.00     0.031 C 
ATOM     47  C   UNL A   1      43.913  26.987  32.153  1.00  0.00     0.029 A 
ATOM     48  C   UNL A   1      42.934  27.859  32.800  1.00  0.00     0.049 A 
ATOM     49  H   UNL A   1      41.181  28.617  31.968  1.00  0.00     0.167 HD
ATOM     50  C   UNL A   1      37.611  30.283  30.098  1.00  0.00     0.031 A 
ATOM     51  C   UNL A   1      43.003  28.318  34.066  1.00  0.00     0.031 A 
ATOM     52  C   UNL A   1      37.563  30.755  31.455  1.00  0.00     0.049 A 
ATOM     53  C   UNL A   1      41.921  29.229  34.590  1.00  0.00     0.074 A 
ATOM     54  C   UNL A   1      36.581  31.513  32.069  1.00  0.00     0.029 A 
ATOM     55  N   UNL A   1      38.543  30.522  32.408  1.00  0.00    -0.354 N 
ATOM     56  N   UNL A   1      40.837  29.660  33.990  1.00  0.00    -0.248 NA
ATOM     57  C   UNL A   1      42.070  29.710  35.972  1.00  0.00     0.031 C 
ATOM     58  C   UNL A   1      36.999  31.794  33.374  1.00  0.00     0.029 A 
ATOM     59  C   UNL A   1      38.204  31.148  33.596  1.00  0.00     0.049 A 
ATOM     60  H   UNL A   1      39.359  29.992  32.260  1.00  0.00     0.167 HD
ATOM     61  C   UNL A   1      40.162  30.433  34.930  1.00  0.00     0.074 A 
ATOM     62  C   UNL A   1      40.950  30.398  36.144  1.00  0.00     0.031 C 
ATOM     63  C   UNL A   1      38.993  31.106  34.800  1.00  0.00     0.031 A 
BRANCH  50  64
ATOM     64  C   UNL A   1      36.495  30.670  29.167  1.00  0.00    -0.014 A 
ATOM     65  C   UNL A   1      35.619  29.710  28.636  1.00  0.00     0.009 A 
ATOM     66  C   UNL A   1      36.300  32.021  28.839  1.00  0.00     0.009 A 
ATOM     67  C   UNL A   1      34.595  30.091  27.766  1.00  0.00     0.001 A 
ATOM     68  C   UNL A   1      35.255  32.402  27.995  1.00  0.00     0.001 A 
ATOM     69  C   UNL A   1      34.410  31.437  27.451  1.00  0.00     0.000 A 
ENDBRANCH  50  64
BRANCH  51  70
ATOM     70  C   UNL A   1      44.159  27.955  34.933  1.00  0.00    -0.014 A 
ATOM     71  C   UNL A   1      44.104  26.832  35.772  1.00  0.00     0.009 A 
ATOM     72  C   UNL A   1      45.312  28.756  34.952  1.00  0.00     0.009 A 
ATOM     73  C   UNL A   1      45.166  26.536  36.632  1.00  0.00     0.001 A 
ATOM     74  C   UNL A   1      46.385  28.440  35.787  1.00  0.00     0.001 A 
ATOM     75  C   UNL A   1      46.307  27.336  36.635  1.00  0.00     0.000 A 
ENDBRANCH  51  70
BRANCH  63  76
ATOM     76  C   UNL A   1      38.463  31.825  36.012  1.00  0.00    -0.014 A 
ATOM     77  C   UNL A   1      37.802  31.141  37.045  1.00  0.00     0.009 A 
ATOM     78  C   UNL A   1      38.671  33.208  36.142  1.00  0.00     0.009 A 
ATOM     79  C   UNL A   1      37.331  31.833  38.163  1.00  0.00     0.001 A 
ATOM     80  C   UNL A   1      38.231  33.891  37.276  1.00  0.00     0.001 A 
ATOM     81  C   UNL A   1      37.552  33.205  38.281  1.00  0.00     0.000 A 
ENDBRANCH  63  76
ENDBRANCH  37  38
ENDBRANCH  30  32
ENDBRANCH  29  30
ENDBRANCH  28  29
ENDBRANCH  27  28
ENDBRANCH  26  27
ENDBRANCH   1  26
TORSDOF 18
ENDMDL
