MODEL 1
REMARK VINA RESULT:      -9.6      0.000      0.000
REMARK SMILES CC(C)[C@@H](CNC(=O)Cc1ccc(F)cc1F)C(=O)OCCOCCOCCOC(=O)c1ccc(-c2c3nc(c(-c4ccccc4)c4ccc([nH]4)c(-c4ccccc4)c4nc(c(-c5ccccc5)c5ccc2[nH]5)C=C4)C=C3)cc1
REMARK SMILES IDX 24 1 23 2 22 3 21 4 20 5 18 6 19 7 4 8 2 9 1 10 3 11 5 12
REMARK SMILES IDX 6 13 7 14 8 16 9 17 10 18 11 19 16 20 12 21 15 22 17 23
REMARK SMILES IDX 13 24 14 25 25 26 26 27 27 28 28 29 29 30 30 31 31 32 32 33
REMARK SMILES IDX 33 34 79 35 34 36 78 37 35 38 36 39 37 40 72 41 38 42 77 43
REMARK SMILES IDX 71 44 73 45 39 46 76 47 70 48 69 49 40 51 62 52 47 53 61 54
REMARK SMILES IDX 48 55 51 56 60 57 74 58 49 59 50 60 59 62 75 63 52 64 41 65
REMARK SMILES IDX 42 66 46 67 43 68 45 69 44 70 63 71 64 72 68 73 65 74 67 75
REMARK SMILES IDX 66 76 53 77 54 78 58 79 55 80 57 81 56 82
REMARK H PARENT 6 15 73 50 51 61
REMARK Flexibility Score: inf
ROOT
ATOM      1  C   UNL A   1      40.008  20.994  26.354  1.00  0.00     0.188 C 
ENDROOT
BRANCH   1   2
ATOM      2  O   UNL A   1      38.764  21.053  25.714  1.00  0.00    -0.376 OA
BRANCH   2   3
ATOM      3  C   UNL A   1      38.160  22.322  25.517  1.00  0.00     0.202 C 
BRANCH   3   4
ATOM      4  C   UNL A   1      36.710  22.765  25.856  1.00  0.00     0.261 C 
BRANCH   4   5
ATOM      5  O   UNL A   1      35.673  23.025  24.885  1.00  0.00    -0.463 OA
BRANCH   5   6
ATOM      6  C   UNL A   1      34.802  22.008  24.663  1.00  0.00     0.311 C 
ATOM      7  O   UNL A   1      35.103  20.820  24.713  1.00  0.00    -0.252 OA
BRANCH   6   8
ATOM      8  C   UNL A   1      33.423  22.381  24.154  1.00  0.00     0.121 C 
BRANCH   8   9
ATOM      9  C   UNL A   1      33.176  22.463  22.630  1.00  0.00    -0.001 C 
ATOM     10  C   UNL A   1      31.983  21.584  22.217  1.00  0.00     0.008 C 
ATOM     11  C   UNL A   1      32.843  23.889  22.183  1.00  0.00     0.008 C 
ENDBRANCH   8   9
BRANCH   8  12
ATOM     12  C   UNL A   1      32.433  21.486  24.937  1.00  0.00     0.131 C 
BRANCH  12  13
ATOM     13  N   UNL A   1      32.581  21.609  26.378  1.00  0.00    -0.355 N 
ATOM     14  C   UNL A   1      32.260  22.656  27.197  1.00  0.00     0.224 C 
ATOM     15  H   UNL A   1      32.968  20.824  26.829  1.00  0.00     0.163 HD
ATOM     16  O   UNL A   1      32.711  22.633  28.345  1.00  0.00    -0.275 OA
BRANCH  14  17
ATOM     17  C   UNL A   1      31.315  23.763  26.735  1.00  0.00     0.138 C 
BRANCH  17  18
ATOM     18  C   UNL A   1      31.943  24.899  25.962  1.00  0.00    -0.003 A 
ATOM     19  C   UNL A   1      33.285  25.259  26.179  1.00  0.00     0.010 A 
ATOM     20  C   UNL A   1      31.208  25.637  25.027  1.00  0.00     0.129 A 
ATOM     21  C   UNL A   1      33.823  26.392  25.559  1.00  0.00     0.040 A 
ATOM     22  C   UNL A   1      31.733  26.773  24.412  1.00  0.00     0.078 A 
ATOM     23  F   UNL A   1      29.936  25.307  24.767  1.00  0.00    -0.207 F 
ATOM     24  C   UNL A   1      33.033  27.153  24.706  1.00  0.00     0.126 A 
ATOM     25  F   UNL A   1      33.529  28.280  24.177  1.00  0.00    -0.207 F 
ENDBRANCH  17  18
ENDBRANCH  14  17
ENDBRANCH  12  13
ENDBRANCH   8  12
ENDBRANCH   6   8
ENDBRANCH   5   6
ENDBRANCH   4   5
ENDBRANCH   3   4
ENDBRANCH   2   3
ENDBRANCH   1   2
BRANCH   1  26
ATOM     26  C   UNL A   1      40.730  19.674  26.157  1.00  0.00     0.188 C 
BRANCH  26  27
ATOM     27  O   UNL A   1      41.928  19.642  25.410  1.00  0.00    -0.376 OA
BRANCH  27  28
ATOM     28  C   UNL A   1      43.179  20.097  25.904  1.00  0.00     0.202 C 
BRANCH  28  29
ATOM     29  C   UNL A   1      43.954  21.225  25.208  1.00  0.00     0.261 C 
BRANCH  29  30
ATOM     30  O   UNL A   1      43.237  22.434  24.944  1.00  0.00    -0.460 OA
BRANCH  30  31
ATOM     31  C   UNL A   1      43.955  23.584  24.928  1.00  0.00     0.338 C 
ATOM     32  O   UNL A   1      44.838  23.887  24.158  1.00  0.00    -0.246 OA
BRANCH  31  33
ATOM     33  C   UNL A   1      43.282  24.521  25.874  1.00  0.00     0.060 A 
ATOM     34  C   UNL A   1      43.784  25.824  25.965  1.00  0.00     0.016 A 
ATOM     35  C   UNL A   1      42.112  24.174  26.561  1.00  0.00     0.016 A 
ATOM     36  C   UNL A   1      43.165  26.758  26.797  1.00  0.00     0.010 A 
ATOM     37  C   UNL A   1      41.494  25.108  27.399  1.00  0.00     0.010 A 
ATOM     38  C   UNL A   1      42.051  26.389  27.563  1.00  0.00    -0.014 A 
BRANCH  38  39
ATOM     39  C   UNL A   1      41.645  27.246  28.707  1.00  0.00     0.031 A 
ATOM     40  C   UNL A   1      42.482  27.186  29.959  1.00  0.00     0.074 A 
ATOM     41  C   UNL A   1      40.620  28.113  28.628  1.00  0.00     0.049 A 
ATOM     42  N   UNL A   1      42.359  27.857  31.077  1.00  0.00    -0.248 NA
ATOM     43  C   UNL A   1      43.614  26.244  29.946  1.00  0.00     0.031 C 
ATOM     44  C   UNL A   1      39.761  28.314  27.463  1.00  0.00     0.029 A 
ATOM     45  N   UNL A   1      40.139  29.001  29.559  1.00  0.00    -0.354 N 
ATOM     46  C   UNL A   1      43.391  27.411  31.897  1.00  0.00     0.074 A 
ATOM     47  C   UNL A   1      44.101  26.386  31.167  1.00  0.00     0.031 C 
ATOM     48  C   UNL A   1      38.863  29.276  27.746  1.00  0.00     0.029 A 
ATOM     49  C   UNL A   1      39.063  29.733  29.121  1.00  0.00     0.049 A 
ATOM     50  H   UNL A   1      40.530  29.104  30.457  1.00  0.00     0.167 HD
ATOM     51  C   UNL A   1      43.729  27.822  33.141  1.00  0.00     0.031 A 
ATOM     52  C   UNL A   1      38.320  30.660  29.758  1.00  0.00     0.031 A 
ATOM     53  C   UNL A   1      43.022  28.831  33.881  1.00  0.00     0.049 A 
ATOM     54  C   UNL A   1      38.665  31.042  31.177  1.00  0.00     0.074 A 
ATOM     55  C   UNL A   1      43.289  29.318  35.148  1.00  0.00     0.029 A 
ATOM     56  N   UNL A   1      41.900  29.504  33.421  1.00  0.00    -0.354 N 
ATOM     57  N   UNL A   1      39.652  30.625  31.934  1.00  0.00    -0.248 NA
ATOM     58  C   UNL A   1      37.796  32.038  31.821  1.00  0.00     0.031 C 
ATOM     59  C   UNL A   1      42.291  30.239  35.481  1.00  0.00     0.029 A 
ATOM     60  C   UNL A   1      41.447  30.383  34.391  1.00  0.00     0.049 A 
ATOM     61  H   UNL A   1      41.487  29.377  32.537  1.00  0.00     0.167 HD
ATOM     62  C   UNL A   1      39.541  31.331  33.128  1.00  0.00     0.074 A 
ATOM     63  C   UNL A   1      38.405  32.218  32.984  1.00  0.00     0.031 C 
ATOM     64  C   UNL A   1      40.312  31.257  34.241  1.00  0.00     0.031 A 
BRANCH  51  65
ATOM     65  C   UNL A   1      44.900  27.139  33.794  1.00  0.00    -0.014 A 
ATOM     66  C   UNL A   1      46.206  27.642  33.671  1.00  0.00     0.009 A 
ATOM     67  C   UNL A   1      44.689  25.980  34.554  1.00  0.00     0.009 A 
ATOM     68  C   UNL A   1      47.280  26.972  34.263  1.00  0.00     0.001 A 
ATOM     69  C   UNL A   1      45.759  25.332  35.174  1.00  0.00     0.001 A 
ATOM     70  C   UNL A   1      47.054  25.822  35.018  1.00  0.00     0.000 A 
ENDBRANCH  51  65
BRANCH  52  71
ATOM     71  C   UNL A   1      37.159  31.293  29.075  1.00  0.00    -0.014 A 
ATOM     72  C   UNL A   1      37.227  32.618  28.615  1.00  0.00     0.009 A 
ATOM     73  C   UNL A   1      35.958  30.585  28.916  1.00  0.00     0.009 A 
ATOM     74  C   UNL A   1      36.109  33.228  28.040  1.00  0.00     0.001 A 
ATOM     75  C   UNL A   1      34.852  31.185  28.310  1.00  0.00     0.001 A 
ATOM     76  C   UNL A   1      34.925  32.509  27.883  1.00  0.00     0.000 A 
ENDBRANCH  52  71
BRANCH  64  77
ATOM     77  C   UNL A   1      39.984  32.195  35.373  1.00  0.00    -0.014 A 
ATOM     78  C   UNL A   1      39.098  31.832  36.400  1.00  0.00     0.009 A 
ATOM     79  C   UNL A   1      40.586  33.464  35.417  1.00  0.00     0.009 A 
ATOM     80  C   UNL A   1      38.779  32.740  37.413  1.00  0.00     0.001 A 
ATOM     81  C   UNL A   1      40.295  34.355  36.451  1.00  0.00     0.001 A 
ATOM     82  C   UNL A   1      39.379  33.998  37.440  1.00  0.00     0.000 A 
ENDBRANCH  64  77
ENDBRANCH  38  39
ENDBRANCH  31  33
ENDBRANCH  30  31
ENDBRANCH  29  30
ENDBRANCH  28  29
ENDBRANCH  27  28
ENDBRANCH  26  27
ENDBRANCH   1  26
TORSDOF 22
ENDMDL
MODEL 2
REMARK VINA RESULT:      -9.5      3.703      8.915
REMARK SMILES CC(C)[C@@H](CNC(=O)Cc1ccc(F)cc1F)C(=O)OCCOCCOCCOC(=O)c1ccc(-c2c3nc(c(-c4ccccc4)c4ccc([nH]4)c(-c4ccccc4)c4nc(c(-c5ccccc5)c5ccc2[nH]5)C=C4)C=C3)cc1
REMARK SMILES IDX 24 1 23 2 22 3 21 4 20 5 18 6 19 7 4 8 2 9 1 10 3 11 5 12
REMARK SMILES IDX 6 13 7 14 8 16 9 17 10 18 11 19 16 20 12 21 15 22 17 23
REMARK SMILES IDX 13 24 14 25 25 26 26 27 27 28 28 29 29 30 30 31 31 32 32 33
REMARK SMILES IDX 33 34 79 35 34 36 78 37 35 38 36 39 37 40 72 41 38 42 77 43
REMARK SMILES IDX 71 44 73 45 39 46 76 47 70 48 69 49 40 51 62 52 47 53 61 54
REMARK SMILES IDX 48 55 51 56 60 57 74 58 49 59 50 60 59 62 75 63 52 64 41 65
REMARK SMILES IDX 42 66 46 67 43 68 45 69 44 70 63 71 64 72 68 73 65 74 67 75
REMARK SMILES IDX 66 76 53 77 54 78 58 79 55 80 57 81 56 82
REMARK H PARENT 6 15 73 50 51 61
REMARK Flexibility Score: inf
ROOT
ATOM      1  C   UNL A   1      34.570  31.397  27.629  1.00  0.00     0.188 C 
ENDROOT
BRANCH   1   2
ATOM      2  O   UNL A   1      34.267  30.032  27.669  1.00  0.00    -0.376 OA
BRANCH   2   3
ATOM      3  C   UNL A   1      33.874  29.385  26.468  1.00  0.00     0.202 C 
BRANCH   3   4
ATOM      4  C   UNL A   1      33.968  27.877  26.107  1.00  0.00     0.261 C 
BRANCH   4   5
ATOM      5  O   UNL A   1      32.956  26.890  26.399  1.00  0.00    -0.463 OA
BRANCH   5   6
ATOM      6  C   UNL A   1      31.727  27.376  26.708  1.00  0.00     0.311 C 
ATOM      7  O   UNL A   1      31.386  27.719  27.835  1.00  0.00    -0.252 OA
BRANCH   6   8
ATOM      8  C   UNL A   1      30.671  27.323  25.621  1.00  0.00     0.121 C 
BRANCH   8   9
ATOM      9  C   UNL A   1      30.969  27.962  24.245  1.00  0.00    -0.001 C 
ATOM     10  C   UNL A   1      30.028  27.404  23.163  1.00  0.00     0.008 C 
ATOM     11  C   UNL A   1      30.760  29.479  24.265  1.00  0.00     0.008 C 
ENDBRANCH   8   9
BRANCH   8  12
ATOM     12  C   UNL A   1      30.191  25.853  25.577  1.00  0.00     0.131 C 
BRANCH  12  13
ATOM     13  N   UNL A   1      30.801  25.030  26.608  1.00  0.00    -0.355 N 
ATOM     14  C   UNL A   1      31.093  23.693  26.592  1.00  0.00     0.224 C 
ATOM     15  H   UNL A   1      31.039  25.502  27.438  1.00  0.00     0.163 HD
ATOM     16  O   UNL A   1      31.370  23.164  27.671  1.00  0.00    -0.275 OA
BRANCH  14  17
ATOM     17  C   UNL A   1      31.153  22.911  25.282  1.00  0.00     0.138 C 
BRANCH  17  18
ATOM     18  C   UNL A   1      32.387  22.068  25.062  1.00  0.00    -0.003 A 
ATOM     19  C   UNL A   1      32.333  20.669  25.188  1.00  0.00     0.010 A 
ATOM     20  C   UNL A   1      33.621  22.652  24.749  1.00  0.00     0.129 A 
ATOM     21  C   UNL A   1      33.502  19.905  25.113  1.00  0.00     0.040 A 
ATOM     22  C   UNL A   1      34.792  21.899  24.682  1.00  0.00     0.078 A 
ATOM     23  F   UNL A   1      33.710  23.979  24.588  1.00  0.00    -0.207 F 
ATOM     24  C   UNL A   1      34.723  20.531  24.891  1.00  0.00     0.126 A 
ATOM     25  F   UNL A   1      35.848  19.804  24.898  1.00  0.00    -0.207 F 
ENDBRANCH  17  18
ENDBRANCH  14  17
ENDBRANCH  12  13
ENDBRANCH   8  12
ENDBRANCH   6   8
ENDBRANCH   5   6
ENDBRANCH   4   5
ENDBRANCH   3   4
ENDBRANCH   2   3
ENDBRANCH   1   2
BRANCH   1  26
ATOM     26  C   UNL A   1      35.110  31.939  28.940  1.00  0.00     0.188 C 
BRANCH  26  27
ATOM     27  O   UNL A   1      34.435  33.000  29.583  1.00  0.00    -0.376 OA
BRANCH  27  28
ATOM     28  C   UNL A   1      33.807  34.069  28.893  1.00  0.00     0.202 C 
BRANCH  28  29
ATOM     29  C   UNL A   1      33.195  35.259  29.646  1.00  0.00     0.261 C 
BRANCH  29  30
ATOM     30  O   UNL A   1      32.507  34.968  30.866  1.00  0.00    -0.460 OA
BRANCH  30  31
ATOM     31  C   UNL A   1      32.916  35.630  31.976  1.00  0.00     0.338 C 
ATOM     32  O   UNL A   1      32.320  36.495  32.576  1.00  0.00    -0.246 OA
BRANCH  31  33
ATOM     33  C   UNL A   1      34.124  34.914  32.478  1.00  0.00     0.060 A 
ATOM     34  C   UNL A   1      35.352  35.583  32.411  1.00  0.00     0.016 A 
ATOM     35  C   UNL A   1      34.043  33.669  33.115  1.00  0.00     0.016 A 
ATOM     36  C   UNL A   1      36.508  34.982  32.910  1.00  0.00     0.010 A 
ATOM     37  C   UNL A   1      35.202  33.064  33.612  1.00  0.00     0.010 A 
ATOM     38  C   UNL A   1      36.450  33.695  33.461  1.00  0.00    -0.014 A 
BRANCH  38  39
ATOM     39  C   UNL A   1      37.709  32.925  33.629  1.00  0.00     0.031 A 
ATOM     40  C   UNL A   1      38.483  33.115  34.909  1.00  0.00     0.074 A 
ATOM     41  C   UNL A   1      38.125  32.020  32.725  1.00  0.00     0.049 A 
ATOM     42  N   UNL A   1      39.586  32.537  35.310  1.00  0.00    -0.248 NA
ATOM     43  C   UNL A   1      37.933  34.090  35.866  1.00  0.00     0.031 C 
ATOM     44  C   UNL A   1      37.448  31.695  31.471  1.00  0.00     0.029 A 
ATOM     45  N   UNL A   1      39.226  31.198  32.738  1.00  0.00    -0.354 N 
ATOM     46  C   UNL A   1      39.863  33.083  36.559  1.00  0.00     0.074 A 
ATOM     47  C   UNL A   1      38.839  34.066  36.830  1.00  0.00     0.031 C 
ATOM     48  C   UNL A   1      38.145  30.732  30.839  1.00  0.00     0.029 A 
ATOM     49  C   UNL A   1      39.331  30.397  31.627  1.00  0.00     0.049 A 
ATOM     50  H   UNL A   1      39.878  31.184  33.475  1.00  0.00     0.167 HD
ATOM     51  C   UNL A   1      40.869  32.789  37.415  1.00  0.00     0.031 A 
ATOM     52  C   UNL A   1      40.279  29.503  31.282  1.00  0.00     0.031 A 
ATOM     53  C   UNL A   1      41.900  31.822  37.150  1.00  0.00     0.049 A 
ATOM     54  C   UNL A   1      41.439  29.252  32.215  1.00  0.00     0.074 A 
ATOM     55  C   UNL A   1      42.962  31.452  37.956  1.00  0.00     0.029 A 
ATOM     56  N   UNL A   1      42.001  31.077  35.986  1.00  0.00    -0.354 N 
ATOM     57  N   UNL A   1      41.679  29.763  33.398  1.00  0.00    -0.248 NA
ATOM     58  C   UNL A   1      42.450  28.286  31.763  1.00  0.00     0.031 C 
ATOM     59  C   UNL A   1      43.742  30.530  37.252  1.00  0.00     0.029 A 
ATOM     60  C   UNL A   1      43.124  30.268  36.040  1.00  0.00     0.049 A 
ATOM     61  H   UNL A   1      41.369  31.117  35.232  1.00  0.00     0.167 HD
ATOM     62  C   UNL A   1      42.848  29.156  33.845  1.00  0.00     0.074 A 
ATOM     63  C   UNL A   1      43.254  28.223  32.814  1.00  0.00     0.031 C 
ATOM     64  C   UNL A   1      43.523  29.348  35.006  1.00  0.00     0.031 A 
BRANCH  51  65
ATOM     65  C   UNL A   1      40.921  33.561  38.704  1.00  0.00    -0.014 A 
ATOM     66  C   UNL A   1      40.262  33.109  39.860  1.00  0.00     0.009 A 
ATOM     67  C   UNL A   1      41.652  34.757  38.766  1.00  0.00     0.009 A 
ATOM     68  C   UNL A   1      40.302  33.860  41.037  1.00  0.00     0.001 A 
ATOM     69  C   UNL A   1      41.719  35.489  39.953  1.00  0.00     0.001 A 
ATOM     70  C   UNL A   1      41.035  35.045  41.083  1.00  0.00     0.000 A 
ENDBRANCH  51  65
BRANCH  52  71
ATOM     71  C   UNL A   1      40.192  28.778  29.985  1.00  0.00    -0.014 A 
ATOM     72  C   UNL A   1      40.734  29.329  28.813  1.00  0.00     0.009 A 
ATOM     73  C   UNL A   1      39.526  27.545  29.905  1.00  0.00     0.009 A 
ATOM     74  C   UNL A   1      40.585  28.677  27.586  1.00  0.00     0.001 A 
ATOM     75  C   UNL A   1      39.407  26.878  28.684  1.00  0.00     0.001 A 
ATOM     76  C   UNL A   1      39.927  27.449  27.524  1.00  0.00     0.000 A 
ENDBRANCH  52  71
BRANCH  64  77
ATOM     77  C   UNL A   1      44.743  28.497  35.245  1.00  0.00    -0.014 A 
ATOM     78  C   UNL A   1      44.656  27.234  35.852  1.00  0.00     0.009 A 
ATOM     79  C   UNL A   1      46.005  28.967  34.842  1.00  0.00     0.009 A 
ATOM     80  C   UNL A   1      45.810  26.487  36.101  1.00  0.00     0.001 A 
ATOM     81  C   UNL A   1      47.151  28.202  35.057  1.00  0.00     0.001 A 
ATOM     82  C   UNL A   1      47.055  26.969  35.701  1.00  0.00     0.000 A 
ENDBRANCH  64  77
ENDBRANCH  38  39
ENDBRANCH  31  33
ENDBRANCH  30  31
ENDBRANCH  29  30
ENDBRANCH  28  29
ENDBRANCH  27  28
ENDBRANCH  26  27
ENDBRANCH   1  26
TORSDOF 22
ENDMDL
MODEL 3
REMARK VINA RESULT:      -9.4      4.333      9.496
REMARK SMILES CC(C)[C@@H](CNC(=O)Cc1ccc(F)cc1F)C(=O)OCCOCCOCCOC(=O)c1ccc(-c2c3nc(c(-c4ccccc4)c4ccc([nH]4)c(-c4ccccc4)c4nc(c(-c5ccccc5)c5ccc2[nH]5)C=C4)C=C3)cc1
REMARK SMILES IDX 24 1 23 2 22 3 21 4 20 5 18 6 19 7 4 8 2 9 1 10 3 11 5 12
REMARK SMILES IDX 6 13 7 14 8 16 9 17 10 18 11 19 16 20 12 21 15 22 17 23
REMARK SMILES IDX 13 24 14 25 25 26 26 27 27 28 28 29 29 30 30 31 31 32 32 33
REMARK SMILES IDX 33 34 79 35 34 36 78 37 35 38 36 39 37 40 72 41 38 42 77 43
REMARK SMILES IDX 71 44 73 45 39 46 76 47 70 48 69 49 40 51 62 52 47 53 61 54
REMARK SMILES IDX 48 55 51 56 60 57 74 58 49 59 50 60 59 62 75 63 52 64 41 65
REMARK SMILES IDX 42 66 46 67 43 68 45 69 44 70 63 71 64 72 68 73 65 74 67 75
REMARK SMILES IDX 66 76 53 77 54 78 58 79 55 80 57 81 56 82
REMARK H PARENT 6 15 73 50 51 61
REMARK Flexibility Score: inf
ROOT
ATOM      1  C   UNL A   1      34.890  31.872  27.967  1.00  0.00     0.188 C 
ENDROOT
BRANCH   1   2
ATOM      2  O   UNL A   1      34.430  30.553  27.882  1.00  0.00    -0.376 OA
BRANCH   2   3
ATOM      3  C   UNL A   1      33.352  30.262  27.006  1.00  0.00     0.202 C 
BRANCH   3   4
ATOM      4  C   UNL A   1      32.103  29.377  27.272  1.00  0.00     0.261 C 
BRANCH   4   5
ATOM      5  O   UNL A   1      32.094  27.933  27.277  1.00  0.00    -0.463 OA
BRANCH   5   6
ATOM      6  C   UNL A   1      32.096  27.339  26.057  1.00  0.00     0.311 C 
ATOM      7  O   UNL A   1      33.108  27.119  25.399  1.00  0.00    -0.252 OA
BRANCH   6   8
ATOM      8  C   UNL A   1      30.747  27.095  25.406  1.00  0.00     0.121 C 
BRANCH   8   9
ATOM      9  C   UNL A   1      30.429  27.769  24.052  1.00  0.00    -0.001 C 
ATOM     10  C   UNL A   1      31.155  29.119  23.924  1.00  0.00     0.008 C 
ATOM     11  C   UNL A   1      30.888  26.912  22.868  1.00  0.00     0.008 C 
ENDBRANCH   8   9
BRANCH   8  12
ATOM     12  C   UNL A   1      30.533  25.564  25.450  1.00  0.00     0.131 C 
BRANCH  12  13
ATOM     13  N   UNL A   1      31.264  24.923  26.531  1.00  0.00    -0.355 N 
ATOM     14  C   UNL A   1      31.727  23.639  26.624  1.00  0.00     0.224 C 
ATOM     15  H   UNL A   1      31.453  25.496  27.309  1.00  0.00     0.163 HD
ATOM     16  O   UNL A   1      32.090  23.250  27.737  1.00  0.00    -0.275 OA
BRANCH  14  17
ATOM     17  C   UNL A   1      31.864  22.755  25.387  1.00  0.00     0.138 C 
BRANCH  17  18
ATOM     18  C   UNL A   1      33.273  22.477  24.917  1.00  0.00    -0.003 A 
ATOM     19  C   UNL A   1      33.911  21.266  25.239  1.00  0.00     0.010 A 
ATOM     20  C   UNL A   1      33.990  23.418  24.169  1.00  0.00     0.129 A 
ATOM     21  C   UNL A   1      35.257  21.067  24.915  1.00  0.00     0.040 A 
ATOM     22  C   UNL A   1      35.334  23.232  23.850  1.00  0.00     0.078 A 
ATOM     23  F   UNL A   1      33.408  24.571  23.813  1.00  0.00    -0.207 F 
ATOM     24  C   UNL A   1      35.962  22.063  24.250  1.00  0.00     0.126 A 
ATOM     25  F   UNL A   1      37.270  21.899  24.013  1.00  0.00    -0.207 F 
ENDBRANCH  17  18
ENDBRANCH  14  17
ENDBRANCH  12  13
ENDBRANCH   8  12
ENDBRANCH   6   8
ENDBRANCH   5   6
ENDBRANCH   4   5
ENDBRANCH   3   4
ENDBRANCH   2   3
ENDBRANCH   1   2
BRANCH   1  26
ATOM     26  C   UNL A   1      33.999  32.774  28.801  1.00  0.00     0.188 C 
BRANCH  26  27
ATOM     27  O   UNL A   1      34.537  33.953  29.363  1.00  0.00    -0.376 OA
BRANCH  27  28
ATOM     28  C   UNL A   1      35.049  34.035  30.684  1.00  0.00     0.202 C 
BRANCH  28  29
ATOM     29  C   UNL A   1      34.490  33.163  31.817  1.00  0.00     0.261 C 
BRANCH  29  30
ATOM     30  O   UNL A   1      35.128  31.903  32.038  1.00  0.00    -0.460 OA
BRANCH  30  31
ATOM     31  C   UNL A   1      36.246  31.905  32.804  1.00  0.00     0.338 C 
ATOM     32  O   UNL A   1      36.328  32.166  33.983  1.00  0.00    -0.246 OA
BRANCH  31  33
ATOM     33  C   UNL A   1      37.324  31.273  31.989  1.00  0.00     0.060 A 
ATOM     34  C   UNL A   1      38.431  30.751  32.668  1.00  0.00     0.016 A 
ATOM     35  C   UNL A   1      37.199  31.082  30.608  1.00  0.00     0.016 A 
ATOM     36  C   UNL A   1      39.448  30.105  31.962  1.00  0.00     0.010 A 
ATOM     37  C   UNL A   1      38.219  30.438  29.899  1.00  0.00     0.010 A 
ATOM     38  C   UNL A   1      39.375  29.996  30.567  1.00  0.00    -0.014 A 
BRANCH  38  39
ATOM     39  C   UNL A   1      40.606  29.666  29.804  1.00  0.00     0.031 A 
ATOM     40  C   UNL A   1      40.704  28.292  29.192  1.00  0.00     0.074 A 
ATOM     41  C   UNL A   1      41.579  30.568  29.582  1.00  0.00     0.049 A 
ATOM     42  N   UNL A   1      41.653  27.773  28.455  1.00  0.00    -0.248 NA
ATOM     43  C   UNL A   1      39.575  27.381  29.445  1.00  0.00     0.031 C 
ATOM     44  C   UNL A   1      41.590  31.947  30.066  1.00  0.00     0.029 A 
ATOM     45  N   UNL A   1      42.749  30.450  28.871  1.00  0.00    -0.354 N 
ATOM     46  C   UNL A   1      41.237  26.478  28.164  1.00  0.00     0.074 A 
ATOM     47  C   UNL A   1      39.975  26.276  28.838  1.00  0.00     0.031 C 
ATOM     48  C   UNL A   1      42.710  32.552  29.629  1.00  0.00     0.029 A 
ATOM     49  C   UNL A   1      43.508  31.595  28.863  1.00  0.00     0.049 A 
ATOM     50  H   UNL A   1      43.018  29.622  28.411  1.00  0.00     0.167 HD
ATOM     51  C   UNL A   1      41.840  25.540  27.397  1.00  0.00     0.031 A 
ATOM     52  C   UNL A   1      44.711  31.840  28.307  1.00  0.00     0.031 A 
ATOM     53  C   UNL A   1      43.101  25.726  26.733  1.00  0.00     0.049 A 
ATOM     54  C   UNL A   1      45.405  30.751  27.526  1.00  0.00     0.074 A 
ATOM     55  C   UNL A   1      43.794  24.836  25.932  1.00  0.00     0.029 A 
ATOM     56  N   UNL A   1      43.865  26.881  26.801  1.00  0.00    -0.354 N 
ATOM     57  N   UNL A   1      44.993  29.537  27.246  1.00  0.00    -0.248 NA
ATOM     58  C   UNL A   1      46.727  31.077  26.971  1.00  0.00     0.031 C 
ATOM     59  C   UNL A   1      45.006  25.429  25.567  1.00  0.00     0.029 A 
ATOM     60  C   UNL A   1      45.034  26.717  26.077  1.00  0.00     0.049 A 
ATOM     61  H   UNL A   1      43.614  27.698  27.291  1.00  0.00     0.167 HD
ATOM     62  C   UNL A   1      45.989  28.970  26.456  1.00  0.00     0.074 A 
ATOM     63  C   UNL A   1      47.012  29.980  26.285  1.00  0.00     0.031 C 
ATOM     64  C   UNL A   1      46.049  27.727  25.917  1.00  0.00     0.031 A 
BRANCH  51  65
ATOM     65  C   UNL A   1      41.152  24.209  27.274  1.00  0.00    -0.014 A 
ATOM     66  C   UNL A   1      40.036  24.031  26.439  1.00  0.00     0.009 A 
ATOM     67  C   UNL A   1      41.637  23.110  27.999  1.00  0.00     0.009 A 
ATOM     68  C   UNL A   1      39.397  22.791  26.366  1.00  0.00     0.001 A 
ATOM     69  C   UNL A   1      41.018  21.862  27.897  1.00  0.00     0.001 A 
ATOM     70  C   UNL A   1      39.893  21.707  27.089  1.00  0.00     0.000 A 
ENDBRANCH  51  65
BRANCH  52  71
ATOM     71  C   UNL A   1      45.359  33.169  28.473  1.00  0.00    -0.014 A 
ATOM     72  C   UNL A   1      46.211  33.425  29.561  1.00  0.00     0.009 A 
ATOM     73  C   UNL A   1      45.096  34.206  27.565  1.00  0.00     0.009 A 
ATOM     74  C   UNL A   1      46.757  34.697  29.750  1.00  0.00     0.001 A 
ATOM     75  C   UNL A   1      45.670  35.467  27.737  1.00  0.00     0.001 A 
ATOM     76  C   UNL A   1      46.491  35.715  28.835  1.00  0.00     0.000 A 
ENDBRANCH  52  71
BRANCH  64  77
ATOM     77  C   UNL A   1      47.238  27.407  25.049  1.00  0.00    -0.014 A 
ATOM     78  C   UNL A   1      47.271  27.747  23.687  1.00  0.00     0.009 A 
ATOM     79  C   UNL A   1      48.352  26.762  25.612  1.00  0.00     0.009 A 
ATOM     80  C   UNL A   1      48.369  27.398  22.897  1.00  0.00     0.001 A 
ATOM     81  C   UNL A   1      49.464  26.449  24.829  1.00  0.00     0.001 A 
ATOM     82  C   UNL A   1      49.465  26.753  23.468  1.00  0.00     0.000 A 
ENDBRANCH  64  77
ENDBRANCH  38  39
ENDBRANCH  31  33
ENDBRANCH  30  31
ENDBRANCH  29  30
ENDBRANCH  28  29
ENDBRANCH  27  28
ENDBRANCH  26  27
ENDBRANCH   1  26
TORSDOF 22
ENDMDL
