MODEL 1
REMARK VINA RESULT:     -11.1      0.000      0.000
REMARK SMILES Cc1ccc(-c2cc(C(=O)OCCOCCOCCOC(=O)c3ccc(-c4c5nc(c(-c6ccccc6)c6ccc([nH]6)c(-c6ccccc6)c6nc(c(-c7ccccc7)c7ccc4[nH]7)C=C6)C=C5)cc3)c3cc(C)ccc3n2)c(C)c1
REMARK SMILES IDX 16 1 15 2 14 3 13 4 12 5 11 6 9 7 10 8 8 9 6 10 7 11 78 12
REMARK SMILES IDX 77 13 71 14 76 15 72 16 75 17 73 18 74 19 5 20 1 21 2 22
REMARK SMILES IDX 3 23 81 24 4 25 79 26 80 27 17 28 18 29 19 30 20 31 21 32
REMARK SMILES IDX 22 33 23 34 24 35 70 36 25 37 69 38 26 39 27 40 28 41 63 42
REMARK SMILES IDX 29 43 68 44 62 45 64 46 30 47 67 48 61 49 60 50 31 52 53 53
REMARK SMILES IDX 38 54 52 55 39 56 42 57 51 58 65 59 40 60 41 61 50 63 66 64
REMARK SMILES IDX 43 65 32 66 33 67 37 68 34 69 36 70 35 71 54 72 55 73 59 74
REMARK SMILES IDX 56 75 58 76 57 77 44 78 45 79 49 80 46 81 48 82 47 83
REMARK H PARENT 64 51 42 62
REMARK Flexibility Score: inf
ROOT
ATOM      1  C   UNL A   1      41.596  20.871  26.752  1.00  0.00     0.188 C 
ENDROOT
BRANCH   1   2
ATOM      2  C   UNL A   1      40.369  21.594  26.153  1.00  0.00     0.188 C 
BRANCH   2   3
ATOM      3  O   UNL A   1      39.569  22.421  26.995  1.00  0.00    -0.376 OA
BRANCH   3   4
ATOM      4  C   UNL A   1      39.037  23.636  26.470  1.00  0.00     0.202 C 
BRANCH   4   5
ATOM      5  C   UNL A   1      37.570  23.652  26.025  1.00  0.00     0.261 C 
BRANCH   5   6
ATOM      6  O   UNL A   1      37.267  22.629  25.061  1.00  0.00    -0.460 OA
BRANCH   6   7
ATOM      7  C   UNL A   1      36.565  23.023  23.972  1.00  0.00     0.338 C 
ATOM      8  O   UNL A   1      36.963  23.041  22.819  1.00  0.00    -0.246 OA
BRANCH   7   9
ATOM      9  C   UNL A   1      35.140  23.240  24.316  1.00  0.00     0.071 A 
ATOM     10  C   UNL A   1      33.451  24.867  24.776  1.00  0.00     0.072 A 
ATOM     11  C   UNL A   1      34.758  24.580  24.431  1.00  0.00     0.045 A 
ATOM     12  N   UNL A   1      32.541  23.899  25.012  1.00  0.00    -0.248 NA
ATOM     13  C   UNL A   1      32.906  22.612  24.906  1.00  0.00     0.072 A 
ATOM     14  C   UNL A   1      34.204  22.201  24.537  1.00  0.00     0.015 A 
ATOM     15  C   UNL A   1      31.948  21.650  25.183  1.00  0.00     0.029 A 
ATOM     16  C   UNL A   1      34.466  20.811  24.421  1.00  0.00     0.014 A 
ATOM     17  C   UNL A   1      32.214  20.285  25.073  1.00  0.00     0.005 A 
ATOM     18  C   UNL A   1      33.478  19.853  24.680  1.00  0.00    -0.050 A 
ATOM     19  C   UNL A   1      33.761  18.396  24.469  1.00  0.00     0.044 C 
BRANCH  10  20
ATOM     20  C   UNL A   1      32.987  26.246  24.962  1.00  0.00     0.003 A 
ATOM     21  C   UNL A   1      31.486  30.264  25.589  1.00  0.00     0.044 C 
ATOM     22  C   UNL A   1      32.008  28.872  25.389  1.00  0.00    -0.051 A 
ATOM     23  C   UNL A   1      32.086  27.968  26.450  1.00  0.00     0.004 A 
ATOM     24  C   UNL A   1      32.437  28.464  24.120  1.00  0.00     0.007 A 
ATOM     25  C   UNL A   1      32.572  26.674  26.237  1.00  0.00     0.011 A 
ATOM     26  C   UNL A   1      32.922  27.163  23.892  1.00  0.00    -0.041 A 
ATOM     27  C   UNL A   1      33.386  26.823  22.501  1.00  0.00     0.045 C 
ENDBRANCH  10  20
ENDBRANCH   7   9
ENDBRANCH   6   7
ENDBRANCH   5   6
ENDBRANCH   4   5
ENDBRANCH   3   4
ENDBRANCH   2   3
ENDBRANCH   1   2
BRANCH   1  28
ATOM     28  O   UNL A   1      42.603  20.594  25.811  1.00  0.00    -0.376 OA
BRANCH  28  29
ATOM     29  C   UNL A   1      43.730  21.446  25.721  1.00  0.00     0.202 C 
BRANCH  29  30
ATOM     30  C   UNL A   1      44.038  22.341  24.502  1.00  0.00     0.261 C 
BRANCH  30  31
ATOM     31  O   UNL A   1      43.565  23.692  24.520  1.00  0.00    -0.460 OA
BRANCH  31  32
ATOM     32  C   UNL A   1      44.401  24.624  25.033  1.00  0.00     0.338 C 
ATOM     33  O   UNL A   1      45.518  24.908  24.648  1.00  0.00    -0.246 OA
BRANCH  32  34
ATOM     34  C   UNL A   1      43.660  25.384  26.062  1.00  0.00     0.060 A 
ATOM     35  C   UNL A   1      43.983  26.731  26.268  1.00  0.00     0.016 A 
ATOM     36  C   UNL A   1      42.672  24.766  26.831  1.00  0.00     0.016 A 
ATOM     37  C   UNL A   1      43.329  27.459  27.263  1.00  0.00     0.010 A 
ATOM     38  C   UNL A   1      42.031  25.493  27.841  1.00  0.00     0.010 A 
ATOM     39  C   UNL A   1      42.374  26.836  28.077  1.00  0.00    -0.014 A 
BRANCH  39  40
ATOM     40  C   UNL A   1      41.870  27.534  29.286  1.00  0.00     0.031 A 
ATOM     41  C   UNL A   1      40.581  28.305  29.182  1.00  0.00     0.074 A 
ATOM     42  C   UNL A   1      42.515  27.460  30.463  1.00  0.00     0.049 A 
ATOM     43  N   UNL A   1      39.977  29.037  30.083  1.00  0.00    -0.248 NA
ATOM     44  C   UNL A   1      39.876  28.232  27.891  1.00  0.00     0.031 C 
ATOM     45  C   UNL A   1      43.731  26.689  30.721  1.00  0.00     0.029 A 
ATOM     46  N   UNL A   1      42.229  28.052  31.670  1.00  0.00    -0.354 N 
ATOM     47  C   UNL A   1      38.822  29.507  29.470  1.00  0.00     0.074 A 
ATOM     48  C   UNL A   1      38.823  29.003  28.114  1.00  0.00     0.031 C 
ATOM     49  C   UNL A   1      44.095  26.867  32.005  1.00  0.00     0.029 A 
ATOM     50  C   UNL A   1      43.160  27.792  32.646  1.00  0.00     0.049 A 
ATOM     51  H   UNL A   1      41.433  28.610  31.821  1.00  0.00     0.167 HD
ATOM     52  C   UNL A   1      37.842  30.282  29.990  1.00  0.00     0.031 A 
ATOM     53  C   UNL A   1      43.261  28.269  33.902  1.00  0.00     0.031 A 
ATOM     54  C   UNL A   1      37.845  30.808  31.327  1.00  0.00     0.049 A 
ATOM     55  C   UNL A   1      42.220  29.234  34.414  1.00  0.00     0.074 A 
ATOM     56  C   UNL A   1      36.910  31.630  31.934  1.00  0.00     0.029 A 
ATOM     57  N   UNL A   1      38.836  30.567  32.264  1.00  0.00    -0.354 N 
ATOM     58  N   UNL A   1      41.134  29.672  33.826  1.00  0.00    -0.248 NA
ATOM     59  C   UNL A   1      42.422  29.766  35.771  1.00  0.00     0.031 C 
ATOM     60  C   UNL A   1      37.357  31.921  33.226  1.00  0.00     0.029 A 
ATOM     61  C   UNL A   1      38.543  31.236  33.441  1.00  0.00     0.049 A 
ATOM     62  H   UNL A   1      39.630  30.004  32.117  1.00  0.00     0.167 HD
ATOM     63  C   UNL A   1      40.506  30.498  34.753  1.00  0.00     0.074 A 
ATOM     64  C   UNL A   1      41.324  30.488  35.947  1.00  0.00     0.031 C 
ATOM     65  C   UNL A   1      39.354  31.201  34.628  1.00  0.00     0.031 A 
BRANCH  52  66
ATOM     66  C   UNL A   1      36.687  30.629  29.095  1.00  0.00    -0.014 A 
ATOM     67  C   UNL A   1      36.493  31.944  28.645  1.00  0.00     0.009 A 
ATOM     68  C   UNL A   1      35.813  29.623  28.658  1.00  0.00     0.009 A 
ATOM     69  C   UNL A   1      35.430  32.248  27.791  1.00  0.00     0.001 A 
ATOM     70  C   UNL A   1      34.767  29.925  27.783  1.00  0.00     0.001 A 
ATOM     71  C   UNL A   1      34.574  31.237  27.356  1.00  0.00     0.000 A 
ENDBRANCH  52  66
BRANCH  53  72
ATOM     72  C   UNL A   1      44.407  27.889  34.772  1.00  0.00    -0.014 A 
ATOM     73  C   UNL A   1      45.612  28.610  34.728  1.00  0.00     0.009 A 
ATOM     74  C   UNL A   1      44.330  26.753  35.592  1.00  0.00     0.009 A 
ATOM     75  C   UNL A   1      46.725  28.176  35.453  1.00  0.00     0.001 A 
ATOM     76  C   UNL A   1      45.435  26.340  36.341  1.00  0.00     0.001 A 
ATOM     77  C   UNL A   1      46.635  27.043  36.259  1.00  0.00     0.000 A 
ENDBRANCH  53  72
BRANCH  65  78
ATOM     78  C   UNL A   1      38.874  31.967  35.829  1.00  0.00    -0.014 A 
ATOM     79  C   UNL A   1      38.115  31.352  36.837  1.00  0.00     0.009 A 
ATOM     80  C   UNL A   1      39.227  33.318  35.972  1.00  0.00     0.009 A 
ATOM     81  C   UNL A   1      37.692  32.086  37.946  1.00  0.00     0.001 A 
ATOM     82  C   UNL A   1      38.828  34.041  37.097  1.00  0.00     0.001 A 
ATOM     83  C   UNL A   1      38.052  33.427  38.079  1.00  0.00     0.000 A 
ENDBRANCH  65  78
ENDBRANCH  39  40
ENDBRANCH  32  34
ENDBRANCH  31  32
ENDBRANCH  30  31
ENDBRANCH  29  30
ENDBRANCH  28  29
ENDBRANCH   1  28
TORSDOF 18
ENDMDL
MODEL 2
REMARK VINA RESULT:     -10.4      1.251      5.880
REMARK SMILES Cc1ccc(-c2cc(C(=O)OCCOCCOCCOC(=O)c3ccc(-c4c5nc(c(-c6ccccc6)c6ccc([nH]6)c(-c6ccccc6)c6nc(c(-c7ccccc7)c7ccc4[nH]7)C=C6)C=C5)cc3)c3cc(C)ccc3n2)c(C)c1
REMARK SMILES IDX 16 1 15 2 14 3 13 4 12 5 11 6 9 7 10 8 8 9 6 10 7 11 78 12
REMARK SMILES IDX 77 13 71 14 76 15 72 16 75 17 73 18 74 19 5 20 1 21 2 22
REMARK SMILES IDX 3 23 81 24 4 25 79 26 80 27 17 28 18 29 19 30 20 31 21 32
REMARK SMILES IDX 22 33 23 34 24 35 70 36 25 37 69 38 26 39 27 40 28 41 63 42
REMARK SMILES IDX 29 43 68 44 62 45 64 46 30 47 67 48 61 49 60 50 31 52 53 53
REMARK SMILES IDX 38 54 52 55 39 56 42 57 51 58 65 59 40 60 41 61 50 63 66 64
REMARK SMILES IDX 43 65 32 66 33 67 37 68 34 69 36 70 35 71 54 72 55 73 59 74
REMARK SMILES IDX 56 75 58 76 57 77 44 78 45 79 49 80 46 81 48 82 47 83
REMARK H PARENT 64 51 42 62
REMARK Flexibility Score: inf
ROOT
ATOM      1  C   UNL A   1      41.337  19.499  26.099  1.00  0.00     0.188 C 
ENDROOT
BRANCH   1   2
ATOM      2  C   UNL A   1      39.862  19.955  26.123  1.00  0.00     0.188 C 
BRANCH   2   3
ATOM      3  O   UNL A   1      39.562  21.344  26.012  1.00  0.00    -0.376 OA
BRANCH   3   4
ATOM      4  C   UNL A   1      38.251  21.740  25.612  1.00  0.00     0.202 C 
BRANCH   4   5
ATOM      5  C   UNL A   1      37.864  23.216  25.757  1.00  0.00     0.261 C 
BRANCH   5   6
ATOM      6  O   UNL A   1      36.542  23.499  25.267  1.00  0.00    -0.460 OA
BRANCH   6   7
ATOM      7  C   UNL A   1      35.516  22.977  25.982  1.00  0.00     0.338 C 
ATOM      8  O   UNL A   1      35.479  22.826  27.192  1.00  0.00    -0.246 OA
BRANCH   7   9
ATOM      9  C   UNL A   1      34.318  22.800  25.128  1.00  0.00     0.071 A 
ATOM     10  C   UNL A   1      32.476  23.894  24.069  1.00  0.00     0.072 A 
ATOM     11  C   UNL A   1      33.620  23.977  24.839  1.00  0.00     0.045 A 
ATOM     12  N   UNL A   1      32.009  22.718  23.599  1.00  0.00    -0.248 NA
ATOM     13  C   UNL A   1      32.675  21.587  23.879  1.00  0.00     0.072 A 
ATOM     14  C   UNL A   1      33.867  21.554  24.633  1.00  0.00     0.015 A 
ATOM     15  C   UNL A   1      32.147  20.399  23.400  1.00  0.00     0.029 A 
ATOM     16  C   UNL A   1      34.505  20.302  24.835  1.00  0.00     0.014 A 
ATOM     17  C   UNL A   1      32.776  19.171  23.607  1.00  0.00     0.005 A 
ATOM     18  C   UNL A   1      33.970  19.113  24.320  1.00  0.00    -0.050 A 
ATOM     19  C   UNL A   1      34.709  17.819  24.479  1.00  0.00     0.044 C 
BRANCH  10  20
ATOM     20  C   UNL A   1      31.664  25.077  23.764  1.00  0.00     0.003 A 
ATOM     21  C   UNL A   1      29.134  28.484  22.885  1.00  0.00     0.044 C 
ATOM     22  C   UNL A   1      30.004  27.306  23.205  1.00  0.00    -0.051 A 
ATOM     23  C   UNL A   1      29.803  26.550  24.362  1.00  0.00     0.004 A 
ATOM     24  C   UNL A   1      31.047  26.954  22.339  1.00  0.00     0.007 A 
ATOM     25  C   UNL A   1      30.626  25.453  24.636  1.00  0.00     0.011 A 
ATOM     26  C   UNL A   1      31.877  25.848  22.602  1.00  0.00    -0.041 A 
ATOM     27  C   UNL A   1      32.990  25.562  21.628  1.00  0.00     0.045 C 
ENDBRANCH  10  20
ENDBRANCH   7   9
ENDBRANCH   6   7
ENDBRANCH   5   6
ENDBRANCH   4   5
ENDBRANCH   3   4
ENDBRANCH   2   3
ENDBRANCH   1   2
BRANCH   1  28
ATOM     28  O   UNL A   1      42.252  20.528  26.389  1.00  0.00    -0.376 OA
BRANCH  28  29
ATOM     29  C   UNL A   1      43.533  20.516  25.786  1.00  0.00     0.202 C 
BRANCH  29  30
ATOM     30  C   UNL A   1      44.111  21.691  24.970  1.00  0.00     0.261 C 
BRANCH  30  31
ATOM     31  O   UNL A   1      43.451  22.958  25.048  1.00  0.00    -0.460 OA
BRANCH  31  32
ATOM     32  C   UNL A   1      44.241  24.056  25.091  1.00  0.00     0.338 C 
ATOM     33  O   UNL A   1      45.034  24.429  24.249  1.00  0.00    -0.246 OA
BRANCH  32  34
ATOM     34  C   UNL A   1      43.859  24.847  26.279  1.00  0.00     0.060 A 
ATOM     35  C   UNL A   1      42.868  24.345  27.132  1.00  0.00     0.016 A 
ATOM     36  C   UNL A   1      44.458  26.082  26.537  1.00  0.00     0.016 A 
ATOM     37  C   UNL A   1      42.458  25.093  28.237  1.00  0.00     0.010 A 
ATOM     38  C   UNL A   1      44.031  26.838  27.634  1.00  0.00     0.010 A 
ATOM     39  C   UNL A   1      43.013  26.358  28.476  1.00  0.00    -0.014 A 
BRANCH  39  40
ATOM     40  C   UNL A   1      42.402  27.249  29.493  1.00  0.00     0.031 A 
ATOM     41  C   UNL A   1      43.072  27.369  30.836  1.00  0.00     0.074 A 
ATOM     42  C   UNL A   1      41.297  27.969  29.226  1.00  0.00     0.049 A 
ATOM     43  N   UNL A   1      42.693  28.037  31.895  1.00  0.00    -0.248 NA
ATOM     44  C   UNL A   1      44.342  26.643  31.000  1.00  0.00     0.031 C 
ATOM     45  C   UNL A   1      40.591  28.004  27.946  1.00  0.00     0.029 A 
ATOM     46  N   UNL A   1      40.573  28.814  30.033  1.00  0.00    -0.354 N 
ATOM     47  C   UNL A   1      43.680  27.817  32.848  1.00  0.00     0.074 A 
ATOM     48  C   UNL A   1      44.657  26.931  32.254  1.00  0.00     0.031 C 
ATOM     49  C   UNL A   1      39.526  28.819  28.059  1.00  0.00     0.029 A 
ATOM     50  C   UNL A   1      39.456  29.332  29.426  1.00  0.00     0.049 A 
ATOM     51  H   UNL A   1      40.832  29.028  30.959  1.00  0.00     0.167 HD
ATOM     52  C   UNL A   1      43.772  28.314  34.103  1.00  0.00     0.031 A 
ATOM     53  C   UNL A   1      38.474  30.108  29.928  1.00  0.00     0.031 A 
ATOM     54  C   UNL A   1      42.793  29.174  34.710  1.00  0.00     0.049 A 
ATOM     55  C   UNL A   1      38.537  30.542  31.371  1.00  0.00     0.074 A 
ATOM     56  C   UNL A   1      42.785  29.702  35.990  1.00  0.00     0.029 A 
ATOM     57  N   UNL A   1      41.647  29.628  34.081  1.00  0.00    -0.354 N 
ATOM     58  N   UNL A   1      39.473  30.327  32.263  1.00  0.00    -0.248 NA
ATOM     59  C   UNL A   1      37.403  31.335  31.873  1.00  0.00     0.031 C 
ATOM     60  C   UNL A   1      41.609  30.442  36.149  1.00  0.00     0.029 A 
ATOM     61  C   UNL A   1      40.915  30.419  34.950  1.00  0.00     0.049 A 
ATOM     62  H   UNL A   1      41.390  29.420  33.153  1.00  0.00     0.167 HD
ATOM     63  C   UNL A   1      39.059  30.988  33.415  1.00  0.00     0.074 A 
ATOM     64  C   UNL A   1      37.797  31.623  33.106  1.00  0.00     0.031 C 
ATOM     65  C   UNL A   1      39.671  31.062  34.622  1.00  0.00     0.031 A 
BRANCH  52  66
ATOM     66  C   UNL A   1      44.969  27.916  34.919  1.00  0.00    -0.014 A 
ATOM     67  C   UNL A   1      44.953  26.751  35.702  1.00  0.00     0.009 A 
ATOM     68  C   UNL A   1      46.139  28.686  34.865  1.00  0.00     0.009 A 
ATOM     69  C   UNL A   1      46.083  26.379  36.434  1.00  0.00     0.001 A 
ATOM     70  C   UNL A   1      47.276  28.298  35.577  1.00  0.00     0.001 A 
ATOM     71  C   UNL A   1      47.244  27.148  36.365  1.00  0.00     0.000 A 
ENDBRANCH  52  66
BRANCH  53  72
ATOM     72  C   UNL A   1      37.310  30.502  29.087  1.00  0.00    -0.014 A 
ATOM     73  C   UNL A   1      37.139  31.834  28.677  1.00  0.00     0.009 A 
ATOM     74  C   UNL A   1      36.321  29.562  28.760  1.00  0.00     0.009 A 
ATOM     75  C   UNL A   1      35.983  32.223  27.995  1.00  0.00     0.001 A 
ATOM     76  C   UNL A   1      35.182  29.946  28.049  1.00  0.00     0.001 A 
ATOM     77  C   UNL A   1      35.006  31.279  27.681  1.00  0.00     0.000 A 
ENDBRANCH  53  72
BRANCH  65  78
ATOM     78  C   UNL A   1      39.019  31.909  35.680  1.00  0.00    -0.014 A 
ATOM     79  C   UNL A   1      39.170  33.305  35.699  1.00  0.00     0.009 A 
ATOM     80  C   UNL A   1      38.205  31.300  36.647  1.00  0.00     0.009 A 
ATOM     81  C   UNL A   1      38.545  34.067  36.687  1.00  0.00     0.001 A 
ATOM     82  C   UNL A   1      37.557  32.068  37.616  1.00  0.00     0.001 A 
ATOM     83  C   UNL A   1      37.735  33.449  37.641  1.00  0.00     0.000 A 
ENDBRANCH  65  78
ENDBRANCH  39  40
ENDBRANCH  32  34
ENDBRANCH  31  32
ENDBRANCH  30  31
ENDBRANCH  29  30
ENDBRANCH  28  29
ENDBRANCH   1  28
TORSDOF 18
ENDMDL
MODEL 3
REMARK VINA RESULT:     -10.2      4.599      9.766
REMARK SMILES Cc1ccc(-c2cc(C(=O)OCCOCCOCCOC(=O)c3ccc(-c4c5nc(c(-c6ccccc6)c6ccc([nH]6)c(-c6ccccc6)c6nc(c(-c7ccccc7)c7ccc4[nH]7)C=C6)C=C5)cc3)c3cc(C)ccc3n2)c(C)c1
REMARK SMILES IDX 16 1 15 2 14 3 13 4 12 5 11 6 9 7 10 8 8 9 6 10 7 11 78 12
REMARK SMILES IDX 77 13 71 14 76 15 72 16 75 17 73 18 74 19 5 20 1 21 2 22
REMARK SMILES IDX 3 23 81 24 4 25 79 26 80 27 17 28 18 29 19 30 20 31 21 32
REMARK SMILES IDX 22 33 23 34 24 35 70 36 25 37 69 38 26 39 27 40 28 41 63 42
REMARK SMILES IDX 29 43 68 44 62 45 64 46 30 47 67 48 61 49 60 50 31 52 53 53
REMARK SMILES IDX 38 54 52 55 39 56 42 57 51 58 65 59 40 60 41 61 50 63 66 64
REMARK SMILES IDX 43 65 32 66 33 67 37 68 34 69 36 70 35 71 54 72 55 73 59 74
REMARK SMILES IDX 56 75 58 76 57 77 44 78 45 79 49 80 46 81 48 82 47 83
REMARK H PARENT 64 51 42 62
REMARK Flexibility Score: inf
ROOT
ATOM      1  C   UNL A   1      33.498  34.827  29.538  1.00  0.00     0.188 C 
ENDROOT
BRANCH   1   2
ATOM      2  C   UNL A   1      34.581  34.681  28.446  1.00  0.00     0.188 C 
BRANCH   2   3
ATOM      3  O   UNL A   1      34.631  33.485  27.672  1.00  0.00    -0.376 OA
BRANCH   3   4
ATOM      4  C   UNL A   1      33.877  32.351  28.098  1.00  0.00     0.202 C 
BRANCH   4   5
ATOM      5  C   UNL A   1      34.272  30.973  27.556  1.00  0.00     0.261 C 
BRANCH   5   6
ATOM      6  O   UNL A   1      33.171  30.049  27.518  1.00  0.00    -0.460 OA
BRANCH   6   7
ATOM      7  C   UNL A   1      32.166  30.352  26.661  1.00  0.00     0.338 C 
ATOM      8  O   UNL A   1      31.684  31.456  26.470  1.00  0.00    -0.246 OA
BRANCH   7   9
ATOM      9  C   UNL A   1      31.847  29.193  25.796  1.00  0.00     0.071 A 
ATOM     10  C   UNL A   1      32.308  26.893  25.338  1.00  0.00     0.072 A 
ATOM     11  C   UNL A   1      32.530  28.014  26.113  1.00  0.00     0.045 A 
ATOM     12  N   UNL A   1      31.465  26.903  24.284  1.00  0.00    -0.248 NA
ATOM     13  C   UNL A   1      30.811  28.034  23.975  1.00  0.00     0.072 A 
ATOM     14  C   UNL A   1      30.940  29.231  24.711  1.00  0.00     0.015 A 
ATOM     15  C   UNL A   1      29.976  28.008  22.869  1.00  0.00     0.029 A 
ATOM     16  C   UNL A   1      30.171  30.355  24.313  1.00  0.00     0.014 A 
ATOM     17  C   UNL A   1      29.227  29.119  22.480  1.00  0.00     0.005 A 
ATOM     18  C   UNL A   1      29.311  30.303  23.208  1.00  0.00    -0.050 A 
ATOM     19  C   UNL A   1      28.450  31.481  22.862  1.00  0.00     0.044 C 
BRANCH  10  20
ATOM     20  C   UNL A   1      33.023  25.634  25.578  1.00  0.00     0.003 A 
ATOM     21  C   UNL A   1      35.188  21.922  26.138  1.00  0.00     0.044 C 
ATOM     22  C   UNL A   1      34.454  23.215  25.944  1.00  0.00    -0.051 A 
ATOM     23  C   UNL A   1      35.095  24.340  25.422  1.00  0.00     0.004 A 
ATOM     24  C   UNL A   1      33.103  23.309  26.297  1.00  0.00     0.007 A 
ATOM     25  C   UNL A   1      34.386  25.534  25.245  1.00  0.00     0.011 A 
ATOM     26  C   UNL A   1      32.378  24.502  26.119  1.00  0.00    -0.041 A 
ATOM     27  C   UNL A   1      30.936  24.517  26.553  1.00  0.00     0.045 C 
ENDBRANCH  10  20
ENDBRANCH   7   9
ENDBRANCH   6   7
ENDBRANCH   5   6
ENDBRANCH   4   5
ENDBRANCH   3   4
ENDBRANCH   2   3
ENDBRANCH   1   2
BRANCH   1  28
ATOM     28  O   UNL A   1      33.847  35.727  30.562  1.00  0.00    -0.376 OA
BRANCH  28  29
ATOM     29  C   UNL A   1      34.169  35.231  31.849  1.00  0.00     0.202 C 
BRANCH  29  30
ATOM     30  C   UNL A   1      35.604  34.902  32.311  1.00  0.00     0.261 C 
BRANCH  30  31
ATOM     31  O   UNL A   1      35.876  33.578  32.779  1.00  0.00    -0.460 OA
BRANCH  31  32
ATOM     32  C   UNL A   1      35.384  32.556  32.041  1.00  0.00     0.338 C 
ATOM     33  O   UNL A   1      34.218  32.311  31.802  1.00  0.00    -0.246 OA
BRANCH  32  34
ATOM     34  C   UNL A   1      36.524  31.858  31.411  1.00  0.00     0.060 A 
ATOM     35  C   UNL A   1      37.372  31.089  32.217  1.00  0.00     0.016 A 
ATOM     36  C   UNL A   1      36.767  31.980  30.041  1.00  0.00     0.016 A 
ATOM     37  C   UNL A   1      38.481  30.455  31.655  1.00  0.00     0.010 A 
ATOM     38  C   UNL A   1      37.890  31.359  29.483  1.00  0.00     0.010 A 
ATOM     39  C   UNL A   1      38.765  30.613  30.292  1.00  0.00    -0.014 A 
BRANCH  39  40
ATOM     40  C   UNL A   1      40.070  30.153  29.754  1.00  0.00     0.031 A 
ATOM     41  C   UNL A   1      40.152  28.771  29.162  1.00  0.00     0.074 A 
ATOM     42  C   UNL A   1      41.153  30.950  29.754  1.00  0.00     0.049 A 
ATOM     43  N   UNL A   1      41.191  28.134  28.685  1.00  0.00    -0.248 NA
ATOM     44  C   UNL A   1      38.892  28.013  29.090  1.00  0.00     0.031 C 
ATOM     45  C   UNL A   1      41.193  32.332  30.229  1.00  0.00     0.029 A 
ATOM     46  N   UNL A   1      42.438  30.700  29.337  1.00  0.00    -0.354 N 
ATOM     47  C   UNL A   1      40.709  26.904  28.254  1.00  0.00     0.074 A 
ATOM     48  C   UNL A   1      39.294  26.872  28.550  1.00  0.00     0.031 C 
ATOM     49  C   UNL A   1      42.446  32.805  30.089  1.00  0.00     0.029 A 
ATOM     50  C   UNL A   1      43.300  31.747  29.550  1.00  0.00     0.049 A 
ATOM     51  H   UNL A   1      42.714  29.850  28.924  1.00  0.00     0.167 HD
ATOM     52  C   UNL A   1      41.381  25.893  27.655  1.00  0.00     0.031 A 
ATOM     53  C   UNL A   1      44.632  31.831  29.359  1.00  0.00     0.031 A 
ATOM     54  C   UNL A   1      42.792  25.906  27.380  1.00  0.00     0.049 A 
ATOM     55  C   UNL A   1      45.378  30.641  28.809  1.00  0.00     0.074 A 
ATOM     56  C   UNL A   1      43.567  24.914  26.805  1.00  0.00     0.029 A 
ATOM     57  N   UNL A   1      43.639  26.964  27.664  1.00  0.00    -0.354 N 
ATOM     58  N   UNL A   1      44.913  29.483  28.405  1.00  0.00    -0.248 NA
ATOM     59  C   UNL A   1      46.838  30.775  28.683  1.00  0.00     0.031 C 
ATOM     60  C   UNL A   1      44.894  25.355  26.781  1.00  0.00     0.029 A 
ATOM     61  C   UNL A   1      44.933  26.643  27.290  1.00  0.00     0.049 A 
ATOM     62  H   UNL A   1      43.363  27.817  28.071  1.00  0.00     0.167 HD
ATOM     63  C   UNL A   1      46.015  28.770  27.945  1.00  0.00     0.074 A 
ATOM     64  C   UNL A   1      47.168  29.629  28.104  1.00  0.00     0.031 C 
ATOM     65  C   UNL A   1      46.067  27.516  27.435  1.00  0.00     0.031 A 
BRANCH  52  66
ATOM     66  C   UNL A   1      40.596  24.670  27.277  1.00  0.00    -0.014 A 
ATOM     67  C   UNL A   1      40.999  23.394  27.702  1.00  0.00     0.009 A 
ATOM     68  C   UNL A   1      39.417  24.799  26.530  1.00  0.00     0.009 A 
ATOM     69  C   UNL A   1      40.245  22.268  27.366  1.00  0.00     0.001 A 
ATOM     70  C   UNL A   1      38.651  23.674  26.217  1.00  0.00     0.001 A 
ATOM     71  C   UNL A   1      39.069  22.410  26.630  1.00  0.00     0.000 A 
ENDBRANCH  52  66
BRANCH  53  72
ATOM     72  C   UNL A   1      45.378  33.066  29.725  1.00  0.00    -0.014 A 
ATOM     73  C   UNL A   1      45.693  34.030  28.753  1.00  0.00     0.009 A 
ATOM     74  C   UNL A   1      45.850  33.247  31.034  1.00  0.00     0.009 A 
ATOM     75  C   UNL A   1      46.499  35.125  29.076  1.00  0.00     0.001 A 
ATOM     76  C   UNL A   1      46.629  34.360  31.361  1.00  0.00     0.001 A 
ATOM     77  C   UNL A   1      46.965  35.289  30.379  1.00  0.00     0.000 A 
ENDBRANCH  53  72
BRANCH  65  78
ATOM     78  C   UNL A   1      47.401  27.018  26.952  1.00  0.00    -0.014 A 
ATOM     79  C   UNL A   1      48.176  26.133  27.718  1.00  0.00     0.009 A 
ATOM     80  C   UNL A   1      47.867  27.409  25.687  1.00  0.00     0.009 A 
ATOM     81  C   UNL A   1      49.406  25.678  27.239  1.00  0.00     0.001 A 
ATOM     82  C   UNL A   1      49.084  26.930  25.199  1.00  0.00     0.001 A 
ATOM     83  C   UNL A   1      49.857  26.072  25.979  1.00  0.00     0.000 A 
ENDBRANCH  65  78
ENDBRANCH  39  40
ENDBRANCH  32  34
ENDBRANCH  31  32
ENDBRANCH  30  31
ENDBRANCH  29  30
ENDBRANCH  28  29
ENDBRANCH   1  28
TORSDOF 18
ENDMDL
