MODEL 1
REMARK VINA RESULT:     -10.5      0.000      0.000
REMARK SMILES CC[C@@H](C)c1ccccc1NC(=O)[C@@H]1[C@@H](C(=O)OCCOCCOCCOC(=O)c2ccc(-c3c4nc(c(-c5ccccc5)c5ccc([nH]5)c(-c5ccccc5)c5nc(c(-c6ccccc6)c6ccc3[nH]6)C=C5)C=C4)cc2)[C@@H]2C=C[C@H]1C2
REMARK SMILES IDX 22 1 21 2 20 3 19 4 18 5 16 6 17 7 15 8 14 9 81 10 78 11
REMARK SMILES IDX 80 12 82 13 79 14 12 15 11 16 13 18 10 19 5 20 6 21 7 22
REMARK SMILES IDX 9 23 8 24 3 25 4 26 2 27 1 28 23 29 24 30 25 31 26 32 27 33
REMARK SMILES IDX 28 34 29 35 30 36 31 37 77 38 32 39 76 40 33 41 34 42 35 43
REMARK SMILES IDX 70 44 36 45 75 46 69 47 71 48 37 49 74 50 68 51 67 52 38 54
REMARK SMILES IDX 60 55 45 56 59 57 46 58 49 59 58 60 72 61 47 62 48 63 57 65
REMARK SMILES IDX 73 66 50 67 39 68 40 69 44 70 41 71 43 72 42 73 61 74 62 75
REMARK SMILES IDX 66 76 63 77 65 78 64 79 51 80 52 81 56 82 53 83 55 84 54 85
REMARK H PARENT 11 17 71 53 49 64
REMARK Flexibility Score: inf
ROOT
ATOM      1  C   UNL A   1      35.065  33.004  28.231  1.00  0.00     0.188 C 
ENDROOT
BRANCH   1   2
ATOM      2  O   UNL A   1      34.712  31.993  27.317  1.00  0.00    -0.376 OA
BRANCH   2   3
ATOM      3  C   UNL A   1      33.814  30.965  27.698  1.00  0.00     0.202 C 
BRANCH   3   4
ATOM      4  C   UNL A   1      32.638  30.452  26.841  1.00  0.00     0.261 C 
BRANCH   4   5
ATOM      5  O   UNL A   1      32.840  29.302  26.011  1.00  0.00    -0.463 OA
BRANCH   5   6
ATOM      6  C   UNL A   1      32.354  28.136  26.496  1.00  0.00     0.310 C 
ATOM      7  O   UNL A   1      32.536  27.765  27.649  1.00  0.00    -0.252 OA
BRANCH   6   8
ATOM      8  C   UNL A   1      31.411  27.453  25.515  1.00  0.00     0.119 C 
ATOM      9  C   UNL A   1      31.886  26.001  25.293  1.00  0.00     0.100 C 
ATOM     10  C   UNL A   1      31.869  25.836  23.763  1.00  0.00     0.025 C 
ATOM     11  C   UNL A   1      31.469  28.022  24.067  1.00  0.00     0.027 C 
ATOM     12  C   UNL A   1      30.508  26.132  23.180  1.00  0.00    -0.027 C 
ATOM     13  C   UNL A   1      32.559  27.164  23.401  1.00  0.00     0.017 C 
ATOM     14  C   UNL A   1      30.281  27.446  23.331  1.00  0.00    -0.027 C 
BRANCH   9  15
ATOM     15  C   UNL A   1      31.197  24.899  26.095  1.00  0.00     0.228 C 
ATOM     16  N   UNL A   1      31.802  23.647  26.126  1.00  0.00    -0.326 N 
ATOM     17  H   UNL A   1      31.278  22.900  26.493  1.00  0.00     0.169 HD
ATOM     18  O   UNL A   1      30.096  25.063  26.618  1.00  0.00    -0.274 OA
BRANCH  16  19
ATOM     19  C   UNL A   1      33.108  23.361  25.670  1.00  0.00     0.044 A 
ATOM     20  C   UNL A   1      33.343  22.395  24.686  1.00  0.00    -0.022 A 
ATOM     21  C   UNL A   1      34.501  22.556  23.899  1.00  0.00     0.006 A 
ATOM     22  C   UNL A   1      35.445  23.547  24.180  1.00  0.00     0.000 A 
ATOM     23  C   UNL A   1      34.172  24.154  26.108  1.00  0.00     0.026 A 
ATOM     24  C   UNL A   1      35.318  24.298  25.336  1.00  0.00     0.002 A 
BRANCH  20  25
ATOM     25  C   UNL A   1      32.501  21.128  24.608  1.00  0.00     0.018 C 
ATOM     26  C   UNL A   1      33.038  20.200  25.715  1.00  0.00     0.013 C 
BRANCH  25  27
ATOM     27  C   UNL A   1      32.502  20.437  23.230  1.00  0.00     0.005 C 
ATOM     28  C   UNL A   1      31.822  21.255  22.139  1.00  0.00     0.004 C 
ENDBRANCH  25  27
ENDBRANCH  20  25
ENDBRANCH  16  19
ENDBRANCH   9  15
ENDBRANCH   6   8
ENDBRANCH   5   6
ENDBRANCH   4   5
ENDBRANCH   3   4
ENDBRANCH   2   3
ENDBRANCH   1   2
BRANCH   1  29
ATOM     29  C   UNL A   1      33.966  34.065  28.453  1.00  0.00     0.188 C 
BRANCH  29  30
ATOM     30  O   UNL A   1      33.480  34.299  29.764  1.00  0.00    -0.376 OA
BRANCH  30  31
ATOM     31  C   UNL A   1      34.400  34.449  30.835  1.00  0.00     0.202 C 
BRANCH  31  32
ATOM     32  C   UNL A   1      34.154  33.820  32.220  1.00  0.00     0.261 C 
BRANCH  32  33
ATOM     33  O   UNL A   1      34.605  32.469  32.410  1.00  0.00    -0.460 OA
BRANCH  33  34
ATOM     34  C   UNL A   1      35.782  32.330  33.059  1.00  0.00     0.338 C 
ATOM     35  O   UNL A   1      36.063  32.744  34.183  1.00  0.00    -0.246 OA
BRANCH  34  36
ATOM     36  C   UNL A   1      36.678  31.430  32.310  1.00  0.00     0.060 A 
ATOM     37  C   UNL A   1      37.762  30.845  32.983  1.00  0.00     0.016 A 
ATOM     38  C   UNL A   1      36.505  31.231  30.941  1.00  0.00     0.016 A 
ATOM     39  C   UNL A   1      38.708  30.102  32.280  1.00  0.00     0.010 A 
ATOM     40  C   UNL A   1      37.471  30.508  30.232  1.00  0.00     0.010 A 
ATOM     41  C   UNL A   1      38.601  29.986  30.890  1.00  0.00    -0.014 A 
BRANCH  41  42
ATOM     42  C   UNL A   1      39.781  29.545  30.108  1.00  0.00     0.031 A 
ATOM     43  C   UNL A   1      40.903  30.527  29.897  1.00  0.00     0.074 A 
ATOM     44  C   UNL A   1      39.880  28.300  29.615  1.00  0.00     0.049 A 
ATOM     45  N   UNL A   1      42.019  30.387  29.227  1.00  0.00    -0.248 NA
ATOM     46  C   UNL A   1      40.735  31.849  30.520  1.00  0.00     0.031 C 
ATOM     47  C   UNL A   1      38.890  27.240  29.783  1.00  0.00     0.029 A 
ATOM     48  N   UNL A   1      40.870  27.727  28.856  1.00  0.00    -0.354 N 
ATOM     49  C   UNL A   1      42.676  31.608  29.336  1.00  0.00     0.074 A 
ATOM     50  C   UNL A   1      41.816  32.485  30.100  1.00  0.00     0.031 C 
ATOM     51  C   UNL A   1      39.313  26.146  29.125  1.00  0.00     0.029 A 
ATOM     52  C   UNL A   1      40.589  26.440  28.472  1.00  0.00     0.049 A 
ATOM     53  H   UNL A   1      41.701  28.194  28.611  1.00  0.00     0.167 HD
ATOM     54  C   UNL A   1      43.887  31.969  28.848  1.00  0.00     0.031 A 
ATOM     55  C   UNL A   1      41.271  25.602  27.667  1.00  0.00     0.031 A 
ATOM     56  C   UNL A   1      44.734  31.105  28.070  1.00  0.00     0.049 A 
ATOM     57  C   UNL A   1      42.588  26.038  27.082  1.00  0.00     0.074 A 
ATOM     58  C   UNL A   1      45.990  31.368  27.550  1.00  0.00     0.029 A 
ATOM     59  N   UNL A   1      44.403  29.815  27.685  1.00  0.00    -0.354 N 
ATOM     60  N   UNL A   1      43.220  27.180  27.221  1.00  0.00    -0.248 NA
ATOM     61  C   UNL A   1      43.297  25.060  26.245  1.00  0.00     0.031 C 
ATOM     62  C   UNL A   1      46.388  30.260  26.794  1.00  0.00     0.029 A 
ATOM     63  C   UNL A   1      45.416  29.279  26.905  1.00  0.00     0.049 A 
ATOM     64  H   UNL A   1      43.572  29.348  27.931  1.00  0.00     0.167 HD
ATOM     65  C   UNL A   1      44.409  27.048  26.513  1.00  0.00     0.074 A 
ATOM     66  C   UNL A   1      44.417  25.709  25.959  1.00  0.00     0.031 C 
ATOM     67  C   UNL A   1      45.408  27.950  26.346  1.00  0.00     0.031 A 
BRANCH  54  68
ATOM     68  C   UNL A   1      44.328  33.386  29.101  1.00  0.00    -0.014 A 
ATOM     69  C   UNL A   1      44.270  34.367  28.098  1.00  0.00     0.009 A 
ATOM     70  C   UNL A   1      44.829  33.739  30.364  1.00  0.00     0.009 A 
ATOM     71  C   UNL A   1      44.759  35.655  28.337  1.00  0.00     0.001 A 
ATOM     72  C   UNL A   1      45.283  35.035  30.611  1.00  0.00     0.001 A 
ATOM     73  C   UNL A   1      45.263  35.988  29.594  1.00  0.00     0.000 A 
ENDBRANCH  54  68
BRANCH  55  74
ATOM     74  C   UNL A   1      40.703  24.264  27.356  1.00  0.00    -0.014 A 
ATOM     75  C   UNL A   1      39.604  24.129  26.495  1.00  0.00     0.009 A 
ATOM     76  C   UNL A   1      41.276  23.109  27.912  1.00  0.00     0.009 A 
ATOM     77  C   UNL A   1      39.083  22.864  26.209  1.00  0.00     0.001 A 
ATOM     78  C   UNL A   1      40.772  21.845  27.601  1.00  0.00     0.001 A 
ATOM     79  C   UNL A   1      39.671  21.724  26.754  1.00  0.00     0.000 A 
ENDBRANCH  55  74
BRANCH  67  80
ATOM     80  C   UNL A   1      46.615  27.511  25.559  1.00  0.00    -0.014 A 
ATOM     81  C   UNL A   1      47.642  26.753  26.145  1.00  0.00     0.009 A 
ATOM     82  C   UNL A   1      46.705  27.831  24.195  1.00  0.00     0.009 A 
ATOM     83  C   UNL A   1      48.752  26.364  25.390  1.00  0.00     0.001 A 
ATOM     84  C   UNL A   1      47.798  27.411  23.435  1.00  0.00     0.001 A 
ATOM     85  C   UNL A   1      48.827  26.689  24.036  1.00  0.00     0.000 A 
ENDBRANCH  67  80
ENDBRANCH  41  42
ENDBRANCH  34  36
ENDBRANCH  33  34
ENDBRANCH  32  33
ENDBRANCH  31  32
ENDBRANCH  30  31
ENDBRANCH  29  30
ENDBRANCH   1  29
TORSDOF 21
ENDMDL
MODEL 2
REMARK VINA RESULT:     -10.5      4.139      9.610
REMARK SMILES CC[C@@H](C)c1ccccc1NC(=O)[C@@H]1[C@@H](C(=O)OCCOCCOCCOC(=O)c2ccc(-c3c4nc(c(-c5ccccc5)c5ccc([nH]5)c(-c5ccccc5)c5nc(c(-c6ccccc6)c6ccc3[nH]6)C=C5)C=C4)cc2)[C@@H]2C=C[C@H]1C2
REMARK SMILES IDX 22 1 21 2 20 3 19 4 18 5 16 6 17 7 15 8 14 9 81 10 78 11
REMARK SMILES IDX 80 12 82 13 79 14 12 15 11 16 13 18 10 19 5 20 6 21 7 22
REMARK SMILES IDX 9 23 8 24 3 25 4 26 2 27 1 28 23 29 24 30 25 31 26 32 27 33
REMARK SMILES IDX 28 34 29 35 30 36 31 37 77 38 32 39 76 40 33 41 34 42 35 43
REMARK SMILES IDX 70 44 36 45 75 46 69 47 71 48 37 49 74 50 68 51 67 52 38 54
REMARK SMILES IDX 60 55 45 56 59 57 46 58 49 59 58 60 72 61 47 62 48 63 57 65
REMARK SMILES IDX 73 66 50 67 39 68 40 69 44 70 41 71 43 72 42 73 61 74 62 75
REMARK SMILES IDX 66 76 63 77 65 78 64 79 51 80 52 81 56 82 53 83 55 84 54 85
REMARK H PARENT 11 17 71 53 49 64
REMARK Flexibility Score: inf
ROOT
ATOM      1  C   UNL A   1      39.447  21.832  26.265  1.00  0.00     0.188 C 
ENDROOT
BRANCH   1   2
ATOM      2  O   UNL A   1      38.673  21.252  25.241  1.00  0.00    -0.376 OA
BRANCH   2   3
ATOM      3  C   UNL A   1      37.271  21.121  25.390  1.00  0.00     0.202 C 
BRANCH   3   4
ATOM      4  C   UNL A   1      36.316  22.252  25.827  1.00  0.00     0.261 C 
BRANCH   4   5
ATOM      5  O   UNL A   1      35.284  21.956  26.776  1.00  0.00    -0.463 OA
BRANCH   5   6
ATOM      6  C   UNL A   1      34.063  22.464  26.492  1.00  0.00     0.310 C 
ATOM      7  O   UNL A   1      33.430  23.157  27.278  1.00  0.00    -0.252 OA
BRANCH   6   8
ATOM      8  C   UNL A   1      33.668  22.235  25.040  1.00  0.00     0.119 C 
ATOM      9  C   UNL A   1      33.233  23.582  24.423  1.00  0.00     0.100 C 
ATOM     10  C   UNL A   1      31.907  23.253  23.712  1.00  0.00     0.025 C 
ATOM     11  C   UNL A   1      32.381  21.379  24.852  1.00  0.00     0.027 C 
ATOM     12  C   UNL A   1      32.070  22.140  22.704  1.00  0.00    -0.027 C 
ATOM     13  C   UNL A   1      31.261  22.434  24.844  1.00  0.00     0.017 C 
ATOM     14  C   UNL A   1      32.320  21.011  23.386  1.00  0.00    -0.027 C 
BRANCH   9  15
ATOM     15  C   UNL A   1      34.263  24.350  23.597  1.00  0.00     0.228 C 
ATOM     16  N   UNL A   1      34.153  25.735  23.551  1.00  0.00    -0.326 N 
ATOM     17  H   UNL A   1      34.704  26.212  22.890  1.00  0.00     0.169 HD
ATOM     18  O   UNL A   1      35.107  23.777  22.909  1.00  0.00    -0.274 OA
BRANCH  16  19
ATOM     19  C   UNL A   1      33.312  26.514  24.377  1.00  0.00     0.044 A 
ATOM     20  C   UNL A   1      32.053  26.941  23.941  1.00  0.00    -0.022 A 
ATOM     21  C   UNL A   1      31.084  27.185  24.935  1.00  0.00     0.006 A 
ATOM     22  C   UNL A   1      31.404  27.142  26.295  1.00  0.00     0.000 A 
ATOM     23  C   UNL A   1      33.683  26.744  25.705  1.00  0.00     0.026 A 
ATOM     24  C   UNL A   1      32.725  26.999  26.678  1.00  0.00     0.002 A 
BRANCH  20  25
ATOM     25  C   UNL A   1      31.810  27.320  22.486  1.00  0.00     0.018 C 
ATOM     26  C   UNL A   1      30.750  28.438  22.516  1.00  0.00     0.013 C 
BRANCH  25  27
ATOM     27  C   UNL A   1      31.383  26.150  21.578  1.00  0.00     0.005 C 
ATOM     28  C   UNL A   1      32.478  25.691  20.623  1.00  0.00     0.004 C 
ENDBRANCH  25  27
ENDBRANCH  20  25
ENDBRANCH  16  19
ENDBRANCH   9  15
ENDBRANCH   6   8
ENDBRANCH   5   6
ENDBRANCH   4   5
ENDBRANCH   3   4
ENDBRANCH   2   3
ENDBRANCH   1   2
BRANCH   1  29
ATOM     29  C   UNL A   1      40.652  20.974  26.706  1.00  0.00     0.188 C 
BRANCH  29  30
ATOM     30  O   UNL A   1      41.590  20.540  25.735  1.00  0.00    -0.376 OA
BRANCH  30  31
ATOM     31  C   UNL A   1      42.979  20.635  26.014  1.00  0.00     0.202 C 
BRANCH  31  32
ATOM     32  C   UNL A   1      43.866  21.730  25.392  1.00  0.00     0.261 C 
BRANCH  32  33
ATOM     33  O   UNL A   1      43.204  22.917  24.928  1.00  0.00    -0.460 OA
BRANCH  33  34
ATOM     34  C   UNL A   1      43.866  24.077  25.133  1.00  0.00     0.338 C 
ATOM     35  O   UNL A   1      44.905  24.445  24.585  1.00  0.00    -0.246 OA
BRANCH  34  36
ATOM     36  C   UNL A   1      43.077  24.973  25.997  1.00  0.00     0.060 A 
ATOM     37  C   UNL A   1      43.454  26.322  26.092  1.00  0.00     0.016 A 
ATOM     38  C   UNL A   1      42.029  24.477  26.771  1.00  0.00     0.016 A 
ATOM     39  C   UNL A   1      42.821  27.167  27.001  1.00  0.00     0.010 A 
ATOM     40  C   UNL A   1      41.413  25.319  27.703  1.00  0.00     0.010 A 
ATOM     41  C   UNL A   1      41.842  26.651  27.857  1.00  0.00    -0.014 A 
BRANCH  41  42
ATOM     42  C   UNL A   1      41.454  27.425  29.061  1.00  0.00     0.031 A 
ATOM     43  C   UNL A   1      40.160  28.194  29.027  1.00  0.00     0.074 A 
ATOM     44  C   UNL A   1      42.207  27.433  30.172  1.00  0.00     0.049 A 
ATOM     45  N   UNL A   1      39.622  28.964  29.938  1.00  0.00    -0.248 NA
ATOM     46  C   UNL A   1      39.371  28.083  27.789  1.00  0.00     0.031 C 
ATOM     47  C   UNL A   1      43.456  26.699  30.356  1.00  0.00     0.029 A 
ATOM     48  N   UNL A   1      42.025  28.100  31.358  1.00  0.00    -0.354 N 
ATOM     49  C   UNL A   1      38.444  29.442  29.377  1.00  0.00     0.074 A 
ATOM     50  C   UNL A   1      38.366  28.907  28.036  1.00  0.00     0.031 C 
ATOM     51  C   UNL A   1      43.943  26.974  31.579  1.00  0.00     0.029 A 
ATOM     52  C   UNL A   1      43.052  27.920  32.251  1.00  0.00     0.049 A 
ATOM     53  H   UNL A   1      41.234  28.654  31.550  1.00  0.00     0.167 HD
ATOM     54  C   UNL A   1      37.505  30.250  29.926  1.00  0.00     0.031 A 
ATOM     55  C   UNL A   1      43.261  28.473  33.461  1.00  0.00     0.031 A 
ATOM     56  C   UNL A   1      37.591  30.801  31.253  1.00  0.00     0.049 A 
ATOM     57  C   UNL A   1      42.238  29.417  34.036  1.00  0.00     0.074 A 
ATOM     58  C   UNL A   1      36.682  31.610  31.912  1.00  0.00     0.029 A 
ATOM     59  N   UNL A   1      38.658  30.610  32.118  1.00  0.00    -0.354 N 
ATOM     60  N   UNL A   1      41.109  29.833  33.514  1.00  0.00    -0.248 NA
ATOM     61  C   UNL A   1      42.512  29.953  35.377  1.00  0.00     0.031 C 
ATOM     62  C   UNL A   1      37.232  31.964  33.149  1.00  0.00     0.029 A 
ATOM     63  C   UNL A   1      38.447  31.315  33.292  1.00  0.00     0.049 A 
ATOM     64  H   UNL A   1      39.449  30.056  31.926  1.00  0.00     0.167 HD
ATOM     65  C   UNL A   1      40.525  30.655  34.472  1.00  0.00     0.074 A 
ATOM     66  C   UNL A   1      41.420  30.665  35.612  1.00  0.00     0.031 C 
ATOM     67  C   UNL A   1      39.350  31.331  34.416  1.00  0.00     0.031 A 
BRANCH  54  68
ATOM     68  C   UNL A   1      36.337  30.627  29.056  1.00  0.00    -0.014 A 
ATOM     69  C   UNL A   1      35.465  29.659  28.531  1.00  0.00     0.009 A 
ATOM     70  C   UNL A   1      36.116  31.977  28.742  1.00  0.00     0.009 A 
ATOM     71  C   UNL A   1      34.434  30.030  27.663  1.00  0.00     0.001 A 
ATOM     72  C   UNL A   1      35.064  32.349  27.903  1.00  0.00     0.001 A 
ATOM     73  C   UNL A   1      34.234  31.374  27.352  1.00  0.00     0.000 A 
ENDBRANCH  54  68
BRANCH  55  74
ATOM     74  C   UNL A   1      44.508  28.152  34.204  1.00  0.00    -0.014 A 
ATOM     75  C   UNL A   1      44.566  27.057  35.077  1.00  0.00     0.009 A 
ATOM     76  C   UNL A   1      45.656  28.939  34.026  1.00  0.00     0.009 A 
ATOM     77  C   UNL A   1      45.746  26.765  35.767  1.00  0.00     0.001 A 
ATOM     78  C   UNL A   1      46.843  28.629  34.693  1.00  0.00     0.001 A 
ATOM     79  C   UNL A   1      46.885  27.545  35.568  1.00  0.00     0.000 A 
ENDBRANCH  55  74
BRANCH  67  80
ATOM     80  C   UNL A   1      38.942  32.115  35.636  1.00  0.00    -0.014 A 
ATOM     81  C   UNL A   1      38.172  31.539  36.659  1.00  0.00     0.009 A 
ATOM     82  C   UNL A   1      39.370  33.445  35.779  1.00  0.00     0.009 A 
ATOM     83  C   UNL A   1      37.805  32.293  37.778  1.00  0.00     0.001 A 
ATOM     84  C   UNL A   1      39.032  34.184  36.913  1.00  0.00     0.001 A 
ATOM     85  C   UNL A   1      38.239  33.612  37.905  1.00  0.00     0.000 A 
ENDBRANCH  67  80
ENDBRANCH  41  42
ENDBRANCH  34  36
ENDBRANCH  33  34
ENDBRANCH  32  33
ENDBRANCH  31  32
ENDBRANCH  30  31
ENDBRANCH  29  30
ENDBRANCH   1  29
TORSDOF 21
ENDMDL
MODEL 3
REMARK VINA RESULT:     -10.5      0.586      5.662
REMARK SMILES CC[C@@H](C)c1ccccc1NC(=O)[C@@H]1[C@@H](C(=O)OCCOCCOCCOC(=O)c2ccc(-c3c4nc(c(-c5ccccc5)c5ccc([nH]5)c(-c5ccccc5)c5nc(c(-c6ccccc6)c6ccc3[nH]6)C=C5)C=C4)cc2)[C@@H]2C=C[C@H]1C2
REMARK SMILES IDX 22 1 21 2 20 3 19 4 18 5 16 6 17 7 15 8 14 9 81 10 78 11
REMARK SMILES IDX 80 12 82 13 79 14 12 15 11 16 13 18 10 19 5 20 6 21 7 22
REMARK SMILES IDX 9 23 8 24 3 25 4 26 2 27 1 28 23 29 24 30 25 31 26 32 27 33
REMARK SMILES IDX 28 34 29 35 30 36 31 37 77 38 32 39 76 40 33 41 34 42 35 43
REMARK SMILES IDX 70 44 36 45 75 46 69 47 71 48 37 49 74 50 68 51 67 52 38 54
REMARK SMILES IDX 60 55 45 56 59 57 46 58 49 59 58 60 72 61 47 62 48 63 57 65
REMARK SMILES IDX 73 66 50 67 39 68 40 69 44 70 41 71 43 72 42 73 61 74 62 75
REMARK SMILES IDX 66 76 63 77 65 78 64 79 51 80 52 81 56 82 53 83 55 84 54 85
REMARK H PARENT 11 17 71 53 49 64
REMARK Flexibility Score: inf
ROOT
ATOM      1  C   UNL A   1      35.115  32.873  28.370  1.00  0.00     0.188 C 
ENDROOT
BRANCH   1   2
ATOM      2  O   UNL A   1      34.668  31.976  27.381  1.00  0.00    -0.376 OA
BRANCH   2   3
ATOM      3  C   UNL A   1      33.677  31.011  27.685  1.00  0.00     0.202 C 
BRANCH   3   4
ATOM      4  C   UNL A   1      32.571  30.541  26.717  1.00  0.00     0.261 C 
BRANCH   4   5
ATOM      5  O   UNL A   1      32.834  29.424  25.860  1.00  0.00    -0.463 OA
BRANCH   5   6
ATOM      6  C   UNL A   1      32.418  28.221  26.319  1.00  0.00     0.310 C 
ATOM      7  O   UNL A   1      32.554  27.869  27.484  1.00  0.00    -0.252 OA
BRANCH   6   8
ATOM      8  C   UNL A   1      31.607  27.458  25.282  1.00  0.00     0.119 C 
ATOM      9  C   UNL A   1      32.134  26.009  25.203  1.00  0.00     0.100 C 
ATOM     10  C   UNL A   1      32.294  25.754  23.693  1.00  0.00     0.025 C 
ATOM     11  C   UNL A   1      31.818  27.943  23.817  1.00  0.00     0.027 C 
ATOM     12  C   UNL A   1      31.002  25.979  22.944  1.00  0.00    -0.027 C 
ATOM     13  C   UNL A   1      32.993  27.077  23.331  1.00  0.00     0.017 C 
ATOM     14  C   UNL A   1      30.733  27.293  22.988  1.00  0.00    -0.027 C 
BRANCH   9  15
ATOM     15  C   UNL A   1      31.381  24.936  25.987  1.00  0.00     0.228 C 
ATOM     16  N   UNL A   1      31.944  23.666  26.052  1.00  0.00    -0.326 N 
ATOM     17  H   UNL A   1      31.383  22.940  26.406  1.00  0.00     0.169 HD
ATOM     18  O   UNL A   1      30.266  25.140  26.467  1.00  0.00    -0.274 OA
BRANCH  16  19
ATOM     19  C   UNL A   1      33.257  23.335  25.648  1.00  0.00     0.044 A 
ATOM     20  C   UNL A   1      33.502  22.642  24.458  1.00  0.00    -0.022 A 
ATOM     21  C   UNL A   1      34.757  22.845  23.849  1.00  0.00     0.006 A 
ATOM     22  C   UNL A   1      35.762  23.588  24.474  1.00  0.00     0.000 A 
ATOM     23  C   UNL A   1      34.341  23.831  26.378  1.00  0.00     0.026 A 
ATOM     24  C   UNL A   1      35.580  24.016  25.777  1.00  0.00     0.002 A 
BRANCH  20  25
ATOM     25  C   UNL A   1      32.543  21.568  23.961  1.00  0.00     0.018 C 
ATOM     26  C   UNL A   1      33.257  20.224  24.201  1.00  0.00     0.013 C 
BRANCH  25  27
ATOM     27  C   UNL A   1      32.102  21.727  22.491  1.00  0.00     0.005 C 
ATOM     28  C   UNL A   1      31.848  20.401  21.786  1.00  0.00     0.004 C 
ENDBRANCH  25  27
ENDBRANCH  20  25
ENDBRANCH  16  19
ENDBRANCH   9  15
ENDBRANCH   6   8
ENDBRANCH   5   6
ENDBRANCH   4   5
ENDBRANCH   3   4
ENDBRANCH   2   3
ENDBRANCH   1   2
BRANCH   1  29
ATOM     29  C   UNL A   1      34.106  33.992  28.708  1.00  0.00     0.188 C 
BRANCH  29  30
ATOM     30  O   UNL A   1      33.686  34.167  30.051  1.00  0.00    -0.376 OA
BRANCH  30  31
ATOM     31  C   UNL A   1      34.655  34.213  31.086  1.00  0.00     0.202 C 
BRANCH  31  32
ATOM     32  C   UNL A   1      34.468  33.459  32.417  1.00  0.00     0.261 C 
BRANCH  32  33
ATOM     33  O   UNL A   1      35.014  32.132  32.493  1.00  0.00    -0.460 OA
BRANCH  33  34
ATOM     34  C   UNL A   1      36.211  32.025  33.112  1.00  0.00     0.338 C 
ATOM     35  O   UNL A   1      36.487  32.371  34.260  1.00  0.00    -0.246 OA
BRANCH  34  36
ATOM     36  C   UNL A   1      37.150  31.249  32.282  1.00  0.00     0.060 A 
ATOM     37  C   UNL A   1      38.261  30.653  32.898  1.00  0.00     0.016 A 
ATOM     38  C   UNL A   1      36.987  31.177  30.898  1.00  0.00     0.016 A 
ATOM     39  C   UNL A   1      39.242  30.031  32.129  1.00  0.00     0.010 A 
ATOM     40  C   UNL A   1      37.986  30.576  30.125  1.00  0.00     0.010 A 
ATOM     41  C   UNL A   1      39.141  30.048  30.734  1.00  0.00    -0.014 A 
BRANCH  41  42
ATOM     42  C   UNL A   1      40.341  29.744  29.918  1.00  0.00     0.031 A 
ATOM     43  C   UNL A   1      40.432  28.392  29.260  1.00  0.00     0.074 A 
ATOM     44  C   UNL A   1      41.320  30.643  29.735  1.00  0.00     0.049 A 
ATOM     45  N   UNL A   1      41.389  27.884  28.526  1.00  0.00    -0.248 NA
ATOM     46  C   UNL A   1      39.287  27.491  29.469  1.00  0.00     0.031 C 
ATOM     47  C   UNL A   1      41.338  32.000  30.276  1.00  0.00     0.029 A 
ATOM     48  N   UNL A   1      42.502  30.535  29.043  1.00  0.00    -0.354 N 
ATOM     49  C   UNL A   1      40.969  26.599  28.201  1.00  0.00     0.074 A 
ATOM     50  C   UNL A   1      39.692  26.394  28.849  1.00  0.00     0.031 C 
ATOM     51  C   UNL A   1      42.489  32.594  29.914  1.00  0.00     0.029 A 
ATOM     52  C   UNL A   1      43.295  31.651  29.138  1.00  0.00     0.049 A 
ATOM     53  H   UNL A   1      42.755  29.735  28.530  1.00  0.00     0.167 HD
ATOM     54  C   UNL A   1      41.585  25.671  27.430  1.00  0.00     0.031 A 
ATOM     55  C   UNL A   1      44.538  31.878  28.671  1.00  0.00     0.031 A 
ATOM     56  C   UNL A   1      42.865  25.866  26.801  1.00  0.00     0.049 A 
ATOM     57  C   UNL A   1      45.237  30.815  27.865  1.00  0.00     0.074 A 
ATOM     58  C   UNL A   1      43.564  24.998  25.980  1.00  0.00     0.029 A 
ATOM     59  N   UNL A   1      43.645  27.003  26.938  1.00  0.00    -0.354 N 
ATOM     60  N   UNL A   1      44.817  29.618  27.531  1.00  0.00    -0.248 NA
ATOM     61  C   UNL A   1      46.576  31.145  27.355  1.00  0.00     0.031 C 
ATOM     62  C   UNL A   1      44.797  25.584  25.677  1.00  0.00     0.029 A 
ATOM     63  C   UNL A   1      44.835  26.847  26.245  1.00  0.00     0.049 A 
ATOM     64  H   UNL A   1      43.392  27.805  27.452  1.00  0.00     0.167 HD
ATOM     65  C   UNL A   1      45.826  29.063  26.750  1.00  0.00     0.074 A 
ATOM     66  C   UNL A   1      46.870  30.063  26.649  1.00  0.00     0.031 C 
ATOM     67  C   UNL A   1      45.876  27.842  26.162  1.00  0.00     0.031 A 
BRANCH  54  68
ATOM     68  C   UNL A   1      40.896  24.342  27.281  1.00  0.00    -0.014 A 
ATOM     69  C   UNL A   1      41.383  23.184  27.910  1.00  0.00     0.009 A 
ATOM     70  C   UNL A   1      39.747  24.244  26.481  1.00  0.00     0.009 A 
ATOM     71  C   UNL A   1      40.768  21.947  27.691  1.00  0.00     0.001 A 
ATOM     72  C   UNL A   1      39.113  23.015  26.294  1.00  0.00     0.001 A 
ATOM     73  C   UNL A   1      39.633  21.865  26.886  1.00  0.00     0.000 A 
ENDBRANCH  54  68
BRANCH  55  74
ATOM     74  C   UNL A   1      45.207  33.171  28.974  1.00  0.00    -0.014 A 
ATOM     75  C   UNL A   1      45.117  34.255  28.089  1.00  0.00     0.009 A 
ATOM     76  C   UNL A   1      45.928  33.328  30.168  1.00  0.00     0.009 A 
ATOM     77  C   UNL A   1      45.747  35.465  28.388  1.00  0.00     0.001 A 
ATOM     78  C   UNL A   1      46.532  34.548  30.479  1.00  0.00     0.001 A 
ATOM     79  C   UNL A   1      46.447  35.614  29.585  1.00  0.00     0.000 A 
ENDBRANCH  55  74
BRANCH  67  80
ATOM     80  C   UNL A   1      47.087  27.525  25.325  1.00  0.00    -0.014 A 
ATOM     81  C   UNL A   1      48.225  26.912  25.876  1.00  0.00     0.009 A 
ATOM     82  C   UNL A   1      47.073  27.813  23.951  1.00  0.00     0.009 A 
ATOM     83  C   UNL A   1      49.336  26.633  25.075  1.00  0.00     0.001 A 
ATOM     84  C   UNL A   1      48.171  27.503  23.146  1.00  0.00     0.001 A 
ATOM     85  C   UNL A   1      49.306  26.925  23.711  1.00  0.00     0.000 A 
ENDBRANCH  67  80
ENDBRANCH  41  42
ENDBRANCH  34  36
ENDBRANCH  33  34
ENDBRANCH  32  33
ENDBRANCH  31  32
ENDBRANCH  30  31
ENDBRANCH  29  30
ENDBRANCH   1  29
TORSDOF 21
ENDMDL
