MODEL 1
REMARK VINA RESULT:     -10.7      0.000      0.000
REMARK SMILES COc1ccc(C(=O)N[C@H](C(=O)OCCOCCOCCOC(=O)c2ccc(-c3c4nc(c(-c5ccccc5)c5ccc([nH]5)c(-c5ccccc5)c5nc(c(-c6ccccc6)c6ccc3[nH]6)C=C5)C=C4)cc2)C2=C(C)N=N[C@H]2C)c(F)c1F
REMARK SMILES IDX 17 1 16 2 15 3 14 4 13 5 11 6 12 7 10 8 9 9 7 10 8 11 6 13
REMARK SMILES IDX 3 14 4 15 82 16 5 17 80 18 83 19 81 20 2 21 1 22 73 23 74 24
REMARK SMILES IDX 78 25 75 26 76 27 77 28 79 29 18 30 19 31 20 32 21 33 22 34
REMARK SMILES IDX 23 35 24 36 25 37 26 38 72 39 27 40 71 41 28 42 29 43 30 44
REMARK SMILES IDX 65 45 31 46 70 47 64 48 66 49 32 50 69 51 63 52 62 53 33 55
REMARK SMILES IDX 55 56 40 57 54 58 41 59 44 60 53 61 67 62 42 63 43 64 52 66
REMARK SMILES IDX 68 67 45 68 34 69 35 70 39 71 36 72 38 73 37 74 56 75 57 76
REMARK SMILES IDX 61 77 58 78 60 79 59 80 46 81 47 82 51 83 48 84 50 85 49 86
REMARK H PARENT 9 12 66 54 44 65
REMARK Flexibility Score: inf
ROOT
ATOM      1  C   UNL A   1      34.656  32.153  27.941  1.00  0.00     0.188 C 
ENDROOT
BRANCH   1   2
ATOM      2  O   UNL A   1      33.686  31.194  27.576  1.00  0.00    -0.376 OA
BRANCH   2   3
ATOM      3  C   UNL A   1      34.063  29.833  27.392  1.00  0.00     0.202 C 
BRANCH   3   4
ATOM      4  C   UNL A   1      33.004  28.799  26.984  1.00  0.00     0.261 C 
BRANCH   4   5
ATOM      5  O   UNL A   1      33.573  27.509  26.691  1.00  0.00    -0.461 OA
BRANCH   5   6
ATOM      6  C   UNL A   1      33.655  27.146  25.388  1.00  0.00     0.333 C 
ATOM      7  O   UNL A   1      34.075  27.884  24.501  1.00  0.00    -0.249 OA
BRANCH   6   8
ATOM      8  C   UNL A   1      33.377  25.635  25.142  1.00  0.00     0.223 C 
BRANCH   8   9
ATOM      9  N   UNL A   1      32.238  25.215  25.985  1.00  0.00    -0.335 N 
ATOM     10  C   UNL A   1      31.762  24.017  26.439  1.00  0.00     0.255 C 
ATOM     11  O   UNL A   1      30.752  24.012  27.142  1.00  0.00    -0.269 OA
ATOM     12  H   UNL A   1      31.696  25.977  26.291  1.00  0.00     0.165 HD
BRANCH  10  13
ATOM     13  C   UNL A   1      32.366  22.737  26.058  1.00  0.00     0.078 A 
ATOM     14  C   UNL A   1      33.535  20.390  25.080  1.00  0.00     0.157 A 
ATOM     15  C   UNL A   1      32.208  20.691  24.764  1.00  0.00     0.050 A 
ATOM     16  C   UNL A   1      34.224  21.214  25.975  1.00  0.00     0.201 A 
ATOM     17  C   UNL A   1      31.623  21.866  25.250  1.00  0.00     0.021 A 
ATOM     18  C   UNL A   1      33.635  22.366  26.481  1.00  0.00     0.175 A 
ATOM     19  F   UNL A   1      35.494  20.936  26.304  1.00  0.00    -0.200 F 
ATOM     20  F   UNL A   1      34.324  23.128  27.343  1.00  0.00    -0.203 F 
BRANCH  14  21
ATOM     21  O   UNL A   1      34.234  19.323  24.587  1.00  0.00    -0.494 OA
ATOM     22  C   UNL A   1      33.747  18.033  24.945  1.00  0.00     0.278 C 
ENDBRANCH  14  21
ENDBRANCH  10  13
ENDBRANCH   8   9
BRANCH   8  23
ATOM     23  C   UNL A   1      33.275  25.089  23.744  1.00  0.00     0.012 C 
ATOM     24  C   UNL A   1      32.757  25.460  22.559  1.00  0.00     0.064 C 
ATOM     25  C   UNL A   1      34.011  23.817  23.422  1.00  0.00     0.156 C 
ATOM     26  C   UNL A   1      31.991  26.651  22.100  1.00  0.00     0.069 C 
ATOM     27  N   UNL A   1      33.028  24.554  21.558  1.00  0.00    -0.160 NA
ATOM     28  N   UNL A   1      33.734  23.611  21.984  1.00  0.00    -0.181 NA
ATOM     29  C   UNL A   1      35.520  23.902  23.609  1.00  0.00     0.040 C 
ENDBRANCH   8  23
ENDBRANCH   6   8
ENDBRANCH   5   6
ENDBRANCH   4   5
ENDBRANCH   3   4
ENDBRANCH   2   3
ENDBRANCH   1   2
BRANCH   1  30
ATOM     30  C   UNL A   1      34.257  33.556  28.454  1.00  0.00     0.188 C 
BRANCH  30  31
ATOM     31  O   UNL A   1      33.615  33.730  29.702  1.00  0.00    -0.376 OA
BRANCH  31  32
ATOM     32  C   UNL A   1      34.072  34.747  30.577  1.00  0.00     0.202 C 
BRANCH  32  33
ATOM     33  C   UNL A   1      34.576  34.357  31.969  1.00  0.00     0.261 C 
BRANCH  33  34
ATOM     34  O   UNL A   1      34.708  32.940  32.154  1.00  0.00    -0.460 OA
BRANCH  34  35
ATOM     35  C   UNL A   1      35.715  32.557  32.978  1.00  0.00     0.338 C 
ATOM     36  O   UNL A   1      35.818  32.764  34.173  1.00  0.00    -0.246 OA
BRANCH  35  37
ATOM     37  C   UNL A   1      36.647  31.688  32.240  1.00  0.00     0.060 A 
ATOM     38  C   UNL A   1      37.592  30.944  32.961  1.00  0.00     0.016 A 
ATOM     39  C   UNL A   1      36.651  31.686  30.845  1.00  0.00     0.016 A 
ATOM     40  C   UNL A   1      38.572  30.220  32.285  1.00  0.00     0.010 A 
ATOM     41  C   UNL A   1      37.652  30.986  30.170  1.00  0.00     0.010 A 
ATOM     42  C   UNL A   1      38.638  30.284  30.889  1.00  0.00    -0.014 A 
BRANCH  42  43
ATOM     43  C   UNL A   1      39.855  29.814  30.189  1.00  0.00     0.031 A 
ATOM     44  C   UNL A   1      40.991  30.785  30.012  1.00  0.00     0.074 A 
ATOM     45  C   UNL A   1      39.957  28.557  29.727  1.00  0.00     0.049 A 
ATOM     46  N   UNL A   1      42.112  30.641  29.353  1.00  0.00    -0.248 NA
ATOM     47  C   UNL A   1      40.837  32.096  30.663  1.00  0.00     0.031 C 
ATOM     48  C   UNL A   1      38.956  27.506  29.896  1.00  0.00     0.029 A 
ATOM     49  N   UNL A   1      40.960  27.958  29.008  1.00  0.00    -0.354 N 
ATOM     50  C   UNL A   1      42.788  31.847  29.499  1.00  0.00     0.074 A 
ATOM     51  C   UNL A   1      41.944  32.718  30.286  1.00  0.00     0.031 C 
ATOM     52  C   UNL A   1      39.392  26.391  29.283  1.00  0.00     0.029 A 
ATOM     53  C   UNL A   1      40.678  26.665  28.647  1.00  0.00     0.049 A 
ATOM     54  H   UNL A   1      41.801  28.414  28.773  1.00  0.00     0.167 HD
ATOM     55  C   UNL A   1      44.006  32.197  29.022  1.00  0.00     0.031 A 
ATOM     56  C   UNL A   1      41.371  25.812  27.868  1.00  0.00     0.031 A 
ATOM     57  C   UNL A   1      44.838  31.334  28.227  1.00  0.00     0.049 A 
ATOM     58  C   UNL A   1      42.680  26.258  27.269  1.00  0.00     0.074 A 
ATOM     59  C   UNL A   1      46.087  31.594  27.692  1.00  0.00     0.029 A 
ATOM     60  N   UNL A   1      44.499  30.044  27.849  1.00  0.00    -0.354 N 
ATOM     61  N   UNL A   1      43.314  27.397  27.413  1.00  0.00    -0.248 NA
ATOM     62  C   UNL A   1      43.373  25.293  26.403  1.00  0.00     0.031 C 
ATOM     63  C   UNL A   1      46.478  30.481  26.943  1.00  0.00     0.029 A 
ATOM     64  C   UNL A   1      45.504  29.504  27.067  1.00  0.00     0.049 A 
ATOM     65  H   UNL A   1      43.666  29.582  28.101  1.00  0.00     0.167 HD
ATOM     66  C   UNL A   1      44.492  27.273  26.686  1.00  0.00     0.074 A 
ATOM     67  C   UNL A   1      44.492  25.943  26.113  1.00  0.00     0.031 C 
ATOM     68  C   UNL A   1      45.488  28.176  26.509  1.00  0.00     0.031 A 
BRANCH  55  69
ATOM     69  C   UNL A   1      44.486  33.591  29.313  1.00  0.00    -0.014 A 
ATOM     70  C   UNL A   1      43.991  34.699  28.606  1.00  0.00     0.009 A 
ATOM     71  C   UNL A   1      45.436  33.800  30.325  1.00  0.00     0.009 A 
ATOM     72  C   UNL A   1      44.463  35.983  28.887  1.00  0.00     0.001 A 
ATOM     73  C   UNL A   1      45.884  35.088  30.622  1.00  0.00     0.001 A 
ATOM     74  C   UNL A   1      45.404  36.177  29.897  1.00  0.00     0.000 A 
ENDBRANCH  55  69
BRANCH  56  75
ATOM     75  C   UNL A   1      40.834  24.456  27.576  1.00  0.00    -0.014 A 
ATOM     76  C   UNL A   1      41.446  23.312  28.109  1.00  0.00     0.009 A 
ATOM     77  C   UNL A   1      39.725  24.297  26.729  1.00  0.00     0.009 A 
ATOM     78  C   UNL A   1      40.980  22.038  27.776  1.00  0.00     0.001 A 
ATOM     79  C   UNL A   1      39.241  23.024  26.424  1.00  0.00     0.001 A 
ATOM     80  C   UNL A   1      39.876  21.895  26.937  1.00  0.00     0.000 A 
ENDBRANCH  56  75
BRANCH  68  81
ATOM     81  C   UNL A   1      46.682  27.740  25.705  1.00  0.00    -0.014 A 
ATOM     82  C   UNL A   1      47.786  27.118  26.309  1.00  0.00     0.009 A 
ATOM     83  C   UNL A   1      46.683  27.921  24.313  1.00  0.00     0.009 A 
ATOM     84  C   UNL A   1      48.881  26.720  25.539  1.00  0.00     0.001 A 
ATOM     85  C   UNL A   1      47.764  27.494  23.542  1.00  0.00     0.001 A 
ATOM     86  C   UNL A   1      48.867  26.904  24.156  1.00  0.00     0.000 A 
ENDBRANCH  68  81
ENDBRANCH  42  43
ENDBRANCH  35  37
ENDBRANCH  34  35
ENDBRANCH  33  34
ENDBRANCH  32  33
ENDBRANCH  31  32
ENDBRANCH  30  31
ENDBRANCH   1  30
TORSDOF 21
ENDMDL
MODEL 2
REMARK VINA RESULT:     -10.6      1.931      2.945
REMARK SMILES COc1ccc(C(=O)N[C@H](C(=O)OCCOCCOCCOC(=O)c2ccc(-c3c4nc(c(-c5ccccc5)c5ccc([nH]5)c(-c5ccccc5)c5nc(c(-c6ccccc6)c6ccc3[nH]6)C=C5)C=C4)cc2)C2=C(C)N=N[C@H]2C)c(F)c1F
REMARK SMILES IDX 17 1 16 2 15 3 14 4 13 5 11 6 12 7 10 8 9 9 7 10 8 11 6 13
REMARK SMILES IDX 3 14 4 15 82 16 5 17 80 18 83 19 81 20 2 21 1 22 73 23 74 24
REMARK SMILES IDX 78 25 75 26 76 27 77 28 79 29 18 30 19 31 20 32 21 33 22 34
REMARK SMILES IDX 23 35 24 36 25 37 26 38 72 39 27 40 71 41 28 42 29 43 30 44
REMARK SMILES IDX 65 45 31 46 70 47 64 48 66 49 32 50 69 51 63 52 62 53 33 55
REMARK SMILES IDX 55 56 40 57 54 58 41 59 44 60 53 61 67 62 42 63 43 64 52 66
REMARK SMILES IDX 68 67 45 68 34 69 35 70 39 71 36 72 38 73 37 74 56 75 57 76
REMARK SMILES IDX 61 77 58 78 60 79 59 80 46 81 47 82 51 83 48 84 50 85 49 86
REMARK H PARENT 9 12 66 54 44 65
REMARK Flexibility Score: inf
ROOT
ATOM      1  C   UNL A   1      35.168  33.257  28.010  1.00  0.00     0.188 C 
ENDROOT
BRANCH   1   2
ATOM      2  O   UNL A   1      35.093  31.950  27.482  1.00  0.00    -0.376 OA
BRANCH   2   3
ATOM      3  C   UNL A   1      33.957  31.135  27.751  1.00  0.00     0.202 C 
BRANCH   3   4
ATOM      4  C   UNL A   1      33.826  29.764  27.074  1.00  0.00     0.261 C 
BRANCH   4   5
ATOM      5  O   UNL A   1      33.299  29.853  25.737  1.00  0.00    -0.461 OA
BRANCH   5   6
ATOM      6  C   UNL A   1      32.249  29.055  25.427  1.00  0.00     0.333 C 
ATOM      7  O   UNL A   1      31.716  28.290  26.226  1.00  0.00    -0.249 OA
BRANCH   6   8
ATOM      8  C   UNL A   1      31.632  29.349  24.029  1.00  0.00     0.223 C 
BRANCH   8   9
ATOM      9  N   UNL A   1      32.658  29.106  22.994  1.00  0.00    -0.335 N 
ATOM     10  C   UNL A   1      33.362  28.014  22.569  1.00  0.00     0.255 C 
ATOM     11  O   UNL A   1      34.174  28.155  21.657  1.00  0.00    -0.269 OA
ATOM     12  H   UNL A   1      32.888  29.921  22.493  1.00  0.00     0.165 HD
BRANCH  10  13
ATOM     13  C   UNL A   1      33.238  26.702  23.212  1.00  0.00     0.078 A 
ATOM     14  C   UNL A   1      32.864  24.320  24.632  1.00  0.00     0.157 A 
ATOM     15  C   UNL A   1      33.759  25.281  25.108  1.00  0.00     0.050 A 
ATOM     16  C   UNL A   1      32.252  24.517  23.391  1.00  0.00     0.201 A 
ATOM     17  C   UNL A   1      33.945  26.474  24.400  1.00  0.00     0.021 A 
ATOM     18  C   UNL A   1      32.457  25.689  22.672  1.00  0.00     0.175 A 
ATOM     19  F   UNL A   1      31.400  23.601  22.907  1.00  0.00    -0.200 F 
ATOM     20  F   UNL A   1      31.859  25.839  21.482  1.00  0.00    -0.203 F 
BRANCH  14  21
ATOM     21  O   UNL A   1      32.535  23.166  25.288  1.00  0.00    -0.494 OA
ATOM     22  C   UNL A   1      33.393  22.050  25.064  1.00  0.00     0.278 C 
ENDBRANCH  14  21
ENDBRANCH  10  13
ENDBRANCH   8   9
BRANCH   8  23
ATOM     23  C   UNL A   1      30.294  28.779  23.642  1.00  0.00     0.012 C 
ATOM     24  C   UNL A   1      29.568  27.673  23.886  1.00  0.00     0.064 C 
ATOM     25  C   UNL A   1      29.359  29.641  22.838  1.00  0.00     0.156 C 
ATOM     26  C   UNL A   1      29.809  26.441  24.688  1.00  0.00     0.069 C 
ATOM     27  N   UNL A   1      28.328  27.713  23.289  1.00  0.00    -0.160 NA
ATOM     28  N   UNL A   1      28.153  28.799  22.690  1.00  0.00    -0.181 NA
ATOM     29  C   UNL A   1      28.954  30.937  23.528  1.00  0.00     0.040 C 
ENDBRANCH   8  23
ENDBRANCH   6   8
ENDBRANCH   5   6
ENDBRANCH   4   5
ENDBRANCH   3   4
ENDBRANCH   2   3
ENDBRANCH   1   2
BRANCH   1  30
ATOM     30  C   UNL A   1      33.904  34.022  28.465  1.00  0.00     0.188 C 
BRANCH  30  31
ATOM     31  O   UNL A   1      33.987  35.118  29.355  1.00  0.00    -0.376 OA
BRANCH  31  32
ATOM     32  C   UNL A   1      33.654  34.926  30.720  1.00  0.00     0.202 C 
BRANCH  32  33
ATOM     33  C   UNL A   1      34.722  34.386  31.674  1.00  0.00     0.261 C 
BRANCH  33  34
ATOM     34  O   UNL A   1      34.769  32.952  31.731  1.00  0.00    -0.460 OA
BRANCH  34  35
ATOM     35  C   UNL A   1      35.607  32.439  32.665  1.00  0.00     0.338 C 
ATOM     36  O   UNL A   1      35.538  32.560  33.874  1.00  0.00    -0.246 OA
BRANCH  35  37
ATOM     37  C   UNL A   1      36.580  31.547  32.012  1.00  0.00     0.060 A 
ATOM     38  C   UNL A   1      37.614  30.995  32.782  1.00  0.00     0.016 A 
ATOM     39  C   UNL A   1      36.527  31.339  30.634  1.00  0.00     0.016 A 
ATOM     40  C   UNL A   1      38.625  30.261  32.167  1.00  0.00     0.010 A 
ATOM     41  C   UNL A   1      37.557  30.629  30.015  1.00  0.00     0.010 A 
ATOM     42  C   UNL A   1      38.629  30.122  30.775  1.00  0.00    -0.014 A 
BRANCH  42  43
ATOM     43  C   UNL A   1      39.852  29.652  30.086  1.00  0.00     0.031 A 
ATOM     44  C   UNL A   1      40.978  30.631  29.892  1.00  0.00     0.074 A 
ATOM     45  C   UNL A   1      39.969  28.388  29.649  1.00  0.00     0.049 A 
ATOM     46  N   UNL A   1      42.103  30.487  29.239  1.00  0.00    -0.248 NA
ATOM     47  C   UNL A   1      40.808  31.954  30.518  1.00  0.00     0.031 C 
ATOM     48  C   UNL A   1      38.980  27.329  29.836  1.00  0.00     0.029 A 
ATOM     49  N   UNL A   1      40.981  27.786  28.944  1.00  0.00    -0.354 N 
ATOM     50  C   UNL A   1      42.765  31.703  29.363  1.00  0.00     0.074 A 
ATOM     51  C   UNL A   1      41.909  32.580  30.131  1.00  0.00     0.031 C 
ATOM     52  C   UNL A   1      39.429  26.207  29.245  1.00  0.00     0.029 A 
ATOM     53  C   UNL A   1      40.714  26.483  28.607  1.00  0.00     0.049 A 
ATOM     54  H   UNL A   1      41.817  28.246  28.702  1.00  0.00     0.167 HD
ATOM     55  C   UNL A   1      43.979  32.057  28.882  1.00  0.00     0.031 A 
ATOM     56  C   UNL A   1      41.418  25.623  27.846  1.00  0.00     0.031 A 
ATOM     57  C   UNL A   1      44.823  31.189  28.106  1.00  0.00     0.049 A 
ATOM     58  C   UNL A   1      42.723  26.072  27.241  1.00  0.00     0.074 A 
ATOM     59  C   UNL A   1      46.070  31.452  27.568  1.00  0.00     0.029 A 
ATOM     60  N   UNL A   1      44.499  29.889  27.752  1.00  0.00    -0.354 N 
ATOM     61  N   UNL A   1      43.344  27.221  27.364  1.00  0.00    -0.248 NA
ATOM     62  C   UNL A   1      43.429  25.098  26.395  1.00  0.00     0.031 C 
ATOM     63  C   UNL A   1      46.476  30.329  26.841  1.00  0.00     0.029 A 
ATOM     64  C   UNL A   1      45.511  29.344  26.982  1.00  0.00     0.049 A 
ATOM     65  H   UNL A   1      43.671  29.422  28.010  1.00  0.00     0.167 HD
ATOM     66  C   UNL A   1      44.525  27.095  26.642  1.00  0.00     0.074 A 
ATOM     67  C   UNL A   1      44.541  25.754  26.095  1.00  0.00     0.031 C 
ATOM     68  C   UNL A   1      45.511  28.005  26.450  1.00  0.00     0.031 A 
BRANCH  55  69
ATOM     69  C   UNL A   1      44.443  33.462  29.147  1.00  0.00    -0.014 A 
ATOM     70  C   UNL A   1      44.127  34.516  28.274  1.00  0.00     0.009 A 
ATOM     71  C   UNL A   1      45.194  33.739  30.301  1.00  0.00     0.009 A 
ATOM     72  C   UNL A   1      44.582  35.810  28.536  1.00  0.00     0.001 A 
ATOM     73  C   UNL A   1      45.622  35.038  30.574  1.00  0.00     0.001 A 
ATOM     74  C   UNL A   1      45.324  36.071  29.687  1.00  0.00     0.000 A 
ENDBRANCH  55  69
BRANCH  56  75
ATOM     75  C   UNL A   1      40.896  24.256  27.578  1.00  0.00    -0.014 A 
ATOM     76  C   UNL A   1      41.458  23.137  28.212  1.00  0.00     0.009 A 
ATOM     77  C   UNL A   1      39.855  24.059  26.657  1.00  0.00     0.009 A 
ATOM     78  C   UNL A   1      41.011  21.850  27.906  1.00  0.00     0.001 A 
ATOM     79  C   UNL A   1      39.388  22.773  26.376  1.00  0.00     0.001 A 
ATOM     80  C   UNL A   1      39.975  21.669  26.991  1.00  0.00     0.000 A 
ENDBRANCH  56  75
BRANCH  68  81
ATOM     81  C   UNL A   1      46.713  27.567  25.657  1.00  0.00    -0.014 A 
ATOM     82  C   UNL A   1      47.747  26.821  26.244  1.00  0.00     0.009 A 
ATOM     83  C   UNL A   1      46.788  27.875  24.289  1.00  0.00     0.009 A 
ATOM     84  C   UNL A   1      48.849  26.425  25.484  1.00  0.00     0.001 A 
ATOM     85  C   UNL A   1      47.876  27.451  23.525  1.00  0.00     0.001 A 
ATOM     86  C   UNL A   1      48.911  26.735  24.125  1.00  0.00     0.000 A 
ENDBRANCH  68  81
ENDBRANCH  42  43
ENDBRANCH  35  37
ENDBRANCH  34  35
ENDBRANCH  33  34
ENDBRANCH  32  33
ENDBRANCH  31  32
ENDBRANCH  30  31
ENDBRANCH   1  30
TORSDOF 21
ENDMDL
MODEL 3
REMARK VINA RESULT:     -10.5      4.466      7.212
REMARK SMILES COc1ccc(C(=O)N[C@H](C(=O)OCCOCCOCCOC(=O)c2ccc(-c3c4nc(c(-c5ccccc5)c5ccc([nH]5)c(-c5ccccc5)c5nc(c(-c6ccccc6)c6ccc3[nH]6)C=C5)C=C4)cc2)C2=C(C)N=N[C@H]2C)c(F)c1F
REMARK SMILES IDX 17 1 16 2 15 3 14 4 13 5 11 6 12 7 10 8 9 9 7 10 8 11 6 13
REMARK SMILES IDX 3 14 4 15 82 16 5 17 80 18 83 19 81 20 2 21 1 22 73 23 74 24
REMARK SMILES IDX 78 25 75 26 76 27 77 28 79 29 18 30 19 31 20 32 21 33 22 34
REMARK SMILES IDX 23 35 24 36 25 37 26 38 72 39 27 40 71 41 28 42 29 43 30 44
REMARK SMILES IDX 65 45 31 46 70 47 64 48 66 49 32 50 69 51 63 52 62 53 33 55
REMARK SMILES IDX 55 56 40 57 54 58 41 59 44 60 53 61 67 62 42 63 43 64 52 66
REMARK SMILES IDX 68 67 45 68 34 69 35 70 39 71 36 72 38 73 37 74 56 75 57 76
REMARK SMILES IDX 61 77 58 78 60 79 59 80 46 81 47 82 51 83 48 84 50 85 49 86
REMARK H PARENT 9 12 66 54 44 65
REMARK Flexibility Score: inf
ROOT
ATOM      1  C   UNL A   1      34.878  32.163  28.178  1.00  0.00     0.188 C 
ENDROOT
BRANCH   1   2
ATOM      2  O   UNL A   1      34.028  31.038  28.246  1.00  0.00    -0.376 OA
BRANCH   2   3
ATOM      3  C   UNL A   1      33.784  30.256  27.082  1.00  0.00     0.202 C 
BRANCH   3   4
ATOM      4  C   UNL A   1      33.917  28.728  27.149  1.00  0.00     0.261 C 
BRANCH   4   5
ATOM      5  O   UNL A   1      32.810  28.047  26.529  1.00  0.00    -0.461 OA
BRANCH   5   6
ATOM      6  C   UNL A   1      33.036  27.458  25.329  1.00  0.00     0.333 C 
ATOM      7  O   UNL A   1      33.931  27.798  24.561  1.00  0.00    -0.249 OA
BRANCH   6   8
ATOM      8  C   UNL A   1      32.198  26.165  25.101  1.00  0.00     0.223 C 
BRANCH   8   9
ATOM      9  N   UNL A   1      32.118  25.898  23.651  1.00  0.00    -0.335 N 
ATOM     10  C   UNL A   1      31.397  26.417  22.611  1.00  0.00     0.255 C 
ATOM     11  O   UNL A   1      31.566  25.951  21.486  1.00  0.00    -0.269 OA
ATOM     12  H   UNL A   1      32.724  25.178  23.366  1.00  0.00     0.165 HD
BRANCH  10  13
ATOM     13  C   UNL A   1      30.379  27.454  22.803  1.00  0.00     0.078 A 
ATOM     14  C   UNL A   1      28.407  29.437  22.904  1.00  0.00     0.157 A 
ATOM     15  C   UNL A   1      29.688  29.752  22.445  1.00  0.00     0.050 A 
ATOM     16  C   UNL A   1      28.163  28.158  23.411  1.00  0.00     0.201 A 
ATOM     17  C   UNL A   1      30.675  28.761  22.392  1.00  0.00     0.021 A 
ATOM     18  C   UNL A   1      29.149  27.180  23.386  1.00  0.00     0.175 A 
ATOM     19  F   UNL A   1      26.943  27.837  23.871  1.00  0.00    -0.200 F 
ATOM     20  F   UNL A   1      28.880  25.966  23.888  1.00  0.00    -0.203 F 
BRANCH  14  21
ATOM     21  O   UNL A   1      27.345  30.299  22.910  1.00  0.00    -0.494 OA
ATOM     22  C   UNL A   1      27.653  31.674  23.123  1.00  0.00     0.278 C 
ENDBRANCH  14  21
ENDBRANCH  10  13
ENDBRANCH   8   9
BRANCH   8  23
ATOM     23  C   UNL A   1      32.482  24.916  25.890  1.00  0.00     0.012 C 
ATOM     24  C   UNL A   1      31.794  23.891  26.426  1.00  0.00     0.064 C 
ATOM     25  C   UNL A   1      33.918  24.533  26.124  1.00  0.00     0.156 C 
ATOM     26  C   UNL A   1      30.348  23.545  26.487  1.00  0.00     0.069 C 
ATOM     27  N   UNL A   1      32.615  22.954  27.012  1.00  0.00    -0.160 NA
ATOM     28  N   UNL A   1      33.821  23.260  26.868  1.00  0.00    -0.181 NA
ATOM     29  C   UNL A   1      34.714  24.281  24.850  1.00  0.00     0.040 C 
ENDBRANCH   8  23
ENDBRANCH   6   8
ENDBRANCH   5   6
ENDBRANCH   4   5
ENDBRANCH   3   4
ENDBRANCH   2   3
ENDBRANCH   1   2
BRANCH   1  30
ATOM     30  C   UNL A   1      34.321  33.592  27.988  1.00  0.00     0.188 C 
BRANCH  30  31
ATOM     31  O   UNL A   1      34.875  34.697  28.674  1.00  0.00    -0.376 OA
BRANCH  31  32
ATOM     32  C   UNL A   1      34.216  35.951  28.610  1.00  0.00     0.202 C 
BRANCH  32  33
ATOM     33  C   UNL A   1      32.851  36.107  29.285  1.00  0.00     0.261 C 
BRANCH  33  34
ATOM     34  O   UNL A   1      32.623  35.164  30.343  1.00  0.00    -0.460 OA
BRANCH  34  35
ATOM     35  C   UNL A   1      32.732  35.667  31.598  1.00  0.00     0.338 C 
ATOM     36  O   UNL A   1      31.980  36.444  32.155  1.00  0.00    -0.246 OA
BRANCH  35  37
ATOM     37  C   UNL A   1      33.851  35.010  32.293  1.00  0.00     0.060 A 
ATOM     38  C   UNL A   1      35.115  35.616  32.263  1.00  0.00     0.016 A 
ATOM     39  C   UNL A   1      33.674  33.758  32.883  1.00  0.00     0.016 A 
ATOM     40  C   UNL A   1      36.219  34.954  32.793  1.00  0.00     0.010 A 
ATOM     41  C   UNL A   1      34.787  33.082  33.386  1.00  0.00     0.010 A 
ATOM     42  C   UNL A   1      36.068  33.661  33.306  1.00  0.00    -0.014 A 
BRANCH  42  43
ATOM     43  C   UNL A   1      37.263  32.822  33.551  1.00  0.00     0.031 A 
ATOM     44  C   UNL A   1      38.032  33.037  34.826  1.00  0.00     0.074 A 
ATOM     45  C   UNL A   1      37.655  31.886  32.671  1.00  0.00     0.049 A 
ATOM     46  N   UNL A   1      39.158  32.499  35.219  1.00  0.00    -0.248 NA
ATOM     47  C   UNL A   1      37.453  33.994  35.784  1.00  0.00     0.031 C 
ATOM     48  C   UNL A   1      36.957  31.535  31.437  1.00  0.00     0.029 A 
ATOM     49  N   UNL A   1      38.752  31.062  32.687  1.00  0.00    -0.354 N 
ATOM     50  C   UNL A   1      39.428  33.062  36.461  1.00  0.00     0.074 A 
ATOM     51  C   UNL A   1      38.364  33.999  36.746  1.00  0.00     0.031 C 
ATOM     52  C   UNL A   1      37.654  30.575  30.803  1.00  0.00     0.029 A 
ATOM     53  C   UNL A   1      38.862  30.276  31.567  1.00  0.00     0.049 A 
ATOM     54  H   UNL A   1      39.399  31.040  33.429  1.00  0.00     0.167 HD
ATOM     55  C   UNL A   1      40.468  32.818  37.292  1.00  0.00     0.031 A 
ATOM     56  C   UNL A   1      39.843  29.432  31.194  1.00  0.00     0.031 A 
ATOM     57  C   UNL A   1      41.533  31.896  37.001  1.00  0.00     0.049 A 
ATOM     58  C   UNL A   1      41.040  29.249  32.093  1.00  0.00     0.074 A 
ATOM     59  C   UNL A   1      42.635  31.579  37.775  1.00  0.00     0.029 A 
ATOM     60  N   UNL A   1      41.629  31.148  35.839  1.00  0.00    -0.354 N 
ATOM     61  N   UNL A   1      41.287  29.783  33.266  1.00  0.00    -0.248 NA
ATOM     62  C   UNL A   1      42.091  28.340  31.616  1.00  0.00     0.031 C 
ATOM     63  C   UNL A   1      43.427  30.680  37.054  1.00  0.00     0.029 A 
ATOM     64  C   UNL A   1      42.784  30.388  35.863  1.00  0.00     0.049 A 
ATOM     65  H   UNL A   1      40.972  31.156  35.105  1.00  0.00     0.167 HD
ATOM     66  C   UNL A   1      42.501  29.247  33.679  1.00  0.00     0.074 A 
ATOM     67  C   UNL A   1      42.934  28.338  32.639  1.00  0.00     0.031 C 
ATOM     68  C   UNL A   1      43.197  29.484  34.819  1.00  0.00     0.031 A 
BRANCH  55  69
ATOM     69  C   UNL A   1      40.523  33.598  38.576  1.00  0.00    -0.014 A 
ATOM     70  C   UNL A   1      41.170  34.842  38.651  1.00  0.00     0.009 A 
ATOM     71  C   UNL A   1      39.899  33.087  39.725  1.00  0.00     0.009 A 
ATOM     72  C   UNL A   1      41.218  35.541  39.859  1.00  0.00     0.001 A 
ATOM     73  C   UNL A   1      39.924  33.802  40.923  1.00  0.00     0.001 A 
ATOM     74  C   UNL A   1      40.592  35.023  40.992  1.00  0.00     0.000 A 
ENDBRANCH  55  69
BRANCH  56  75
ATOM     75  C   UNL A   1      39.763  28.714  29.894  1.00  0.00    -0.014 A 
ATOM     76  C   UNL A   1      39.282  27.398  29.831  1.00  0.00     0.009 A 
ATOM     77  C   UNL A   1      40.202  29.331  28.712  1.00  0.00     0.009 A 
ATOM     78  C   UNL A   1      39.274  26.703  28.619  1.00  0.00     0.001 A 
ATOM     79  C   UNL A   1      40.162  28.647  27.496  1.00  0.00     0.001 A 
ATOM     80  C   UNL A   1      39.710  27.330  27.452  1.00  0.00     0.000 A 
ENDBRANCH  56  75
BRANCH  68  81
ATOM     81  C   UNL A   1      44.471  28.711  35.025  1.00  0.00    -0.014 A 
ATOM     82  C   UNL A   1      45.712  29.216  34.607  1.00  0.00     0.009 A 
ATOM     83  C   UNL A   1      44.429  27.473  35.686  1.00  0.00     0.009 A 
ATOM     84  C   UNL A   1      46.880  28.479  34.813  1.00  0.00     0.001 A 
ATOM     85  C   UNL A   1      45.601  26.753  35.920  1.00  0.00     0.001 A 
ATOM     86  C   UNL A   1      46.824  27.251  35.474  1.00  0.00     0.000 A 
ENDBRANCH  68  81
ENDBRANCH  42  43
ENDBRANCH  35  37
ENDBRANCH  34  35
ENDBRANCH  33  34
ENDBRANCH  32  33
ENDBRANCH  31  32
ENDBRANCH  30  31
ENDBRANCH   1  30
TORSDOF 21
ENDMDL
