MODEL 1
REMARK VINA RESULT:      -7.6      0.000      0.000
REMARK SMILES COc1ccc([C@H]2CC(c3ccc(S(C)(=O)=O)cc3)=NN2c2ccc(C(=O)OCCOCCOCCOC(=O)c3ccc(-c4c5nc(c(-c6ccccc6)c6ccc([nH]6)c(-c6ccccc6)c6nc(c(-c7ccccc7)c7ccc4[nH]7)C=C6)C=C5)cc3)cc2)cc1OC
REMARK SMILES IDX 32 1 31 2 30 3 29 4 28 5 26 6 27 7 25 8 22 9 23 10 89 11
REMARK SMILES IDX 24 12 88 13 21 14 7 15 8 16 9 17 20 18 6 19 3 20 4 21 91 22
REMARK SMILES IDX 5 23 90 24 2 25 1 26 92 27 93 28 10 29 11 30 19 31 12 32
REMARK SMILES IDX 18 33 13 34 14 35 15 36 16 37 17 38 33 39 34 40 35 41 36 42
REMARK SMILES IDX 37 43 38 44 39 45 40 46 41 47 87 48 42 49 86 50 43 51 44 52
REMARK SMILES IDX 45 53 80 54 46 55 85 56 79 57 81 58 47 59 84 60 78 61 77 62
REMARK SMILES IDX 48 64 70 65 55 66 69 67 56 68 59 69 68 70 82 71 57 72 58 73
REMARK SMILES IDX 67 75 83 76 60 77 49 78 50 79 54 80 51 81 53 82 52 83 71 84
REMARK SMILES IDX 72 85 76 86 73 87 75 88 74 89 61 90 62 91 66 92 63 93 65 94
REMARK SMILES IDX 64 95
REMARK H PARENT 81 63 59 74
REMARK Flexibility Score: inf
ROOT
ATOM      1  C   UNL A   1      36.083  33.473  34.559  1.00  0.00     0.188 C 
ENDROOT
BRANCH   1   2
ATOM      2  O   UNL A   1      37.382  33.838  34.962  1.00  0.00    -0.376 OA
BRANCH   2   3
ATOM      3  C   UNL A   1      38.444  33.859  34.024  1.00  0.00     0.202 C 
BRANCH   3   4
ATOM      4  C   UNL A   1      39.369  32.678  33.645  1.00  0.00     0.261 C 
BRANCH   4   5
ATOM      5  O   UNL A   1      39.925  31.868  34.684  1.00  0.00    -0.460 OA
BRANCH   5   6
ATOM      6  C   UNL A   1      39.466  30.595  34.765  1.00  0.00     0.338 C 
ATOM      7  O   UNL A   1      38.299  30.247  34.821  1.00  0.00    -0.246 OA
BRANCH   6   8
ATOM      8  C   UNL A   1      40.596  29.653  34.578  1.00  0.00     0.060 A 
ATOM      9  C   UNL A   1      42.663  27.789  34.135  1.00  0.00     0.060 A 
ATOM     10  C   UNL A   1      41.977  28.366  33.058  1.00  0.00     0.029 A 
ATOM     11  C   UNL A   1      42.346  28.225  35.432  1.00  0.00     0.029 A 
ATOM     12  C   UNL A   1      40.929  29.267  33.276  1.00  0.00     0.018 A 
ATOM     13  C   UNL A   1      41.335  29.166  35.658  1.00  0.00     0.018 A 
BRANCH   9  14
ATOM     14  N   UNL A   1      43.573  26.756  33.928  1.00  0.00    -0.257 N 
ATOM     15  C   UNL A   1      44.650  26.844  32.936  1.00  0.00     0.144 C 
ATOM     16  C   UNL A   1      45.464  25.575  33.210  1.00  0.00     0.091 C 
ATOM     17  C   UNL A   1      44.721  25.028  34.398  1.00  0.00     0.071 C 
ATOM     18  N   UNL A   1      43.689  25.708  34.793  1.00  0.00    -0.176 NA
BRANCH  15  19
ATOM     19  C   UNL A   1      45.490  28.110  33.075  1.00  0.00    -0.019 A 
ATOM     20  C   UNL A   1      47.039  30.458  33.333  1.00  0.00     0.160 A 
ATOM     21  C   UNL A   1      46.544  30.063  32.083  1.00  0.00     0.051 A 
ATOM     22  C   UNL A   1      46.745  29.700  34.471  1.00  0.00     0.161 A 
ATOM     23  C   UNL A   1      45.782  28.896  31.953  1.00  0.00     0.010 A 
ATOM     24  C   UNL A   1      45.973  28.537  34.325  1.00  0.00     0.056 A 
BRANCH  20  25
ATOM     25  O   UNL A   1      47.690  31.661  33.409  1.00  0.00    -0.493 OA
ATOM     26  C   UNL A   1      48.735  31.769  32.441  1.00  0.00     0.278 C 
ENDBRANCH  20  25
BRANCH  22  27
ATOM     27  O   UNL A   1      47.089  29.941  35.773  1.00  0.00    -0.493 OA
ATOM     28  C   UNL A   1      48.371  29.536  36.225  1.00  0.00     0.278 C 
ENDBRANCH  22  27
ENDBRANCH  15  19
BRANCH  17  29
ATOM     29  C   UNL A   1      45.146  23.757  35.005  1.00  0.00    -0.002 A 
ATOM     30  C   UNL A   1      45.376  23.707  36.384  1.00  0.00     0.011 A 
ATOM     31  C   UNL A   1      45.260  22.606  34.221  1.00  0.00     0.011 A 
ATOM     32  C   UNL A   1      45.703  22.491  36.990  1.00  0.00     0.021 A 
ATOM     33  C   UNL A   1      45.612  21.393  34.822  1.00  0.00     0.021 A 
ATOM     34  C   UNL A   1      45.830  21.341  36.203  1.00  0.00     0.067 A 
BRANCH  34  35
ATOM     35  S   UNL A   1      46.213  19.787  36.982  1.00  0.00     0.175 S 
ATOM     36  C   UNL A   1      45.295  18.583  36.060  1.00  0.00     0.163 C 
ATOM     37  O   UNL A   1      47.627  19.550  36.765  1.00  0.00    -0.224 OA
ATOM     38  O   UNL A   1      45.661  19.823  38.324  1.00  0.00    -0.224 OA
ENDBRANCH  34  35
ENDBRANCH  17  29
ENDBRANCH   9  14
ENDBRANCH   6   8
ENDBRANCH   5   6
ENDBRANCH   4   5
ENDBRANCH   3   4
ENDBRANCH   2   3
ENDBRANCH   1   2
BRANCH   1  39
ATOM     39  C   UNL A   1      35.121  34.655  34.341  1.00  0.00     0.188 C 
BRANCH  39  40
ATOM     40  O   UNL A   1      35.301  35.438  33.181  1.00  0.00    -0.376 OA
BRANCH  40  41
ATOM     41  C   UNL A   1      34.630  35.106  31.975  1.00  0.00     0.202 C 
BRANCH  41  42
ATOM     42  C   UNL A   1      35.285  34.574  30.679  1.00  0.00     0.261 C 
BRANCH  42  43
ATOM     43  O   UNL A   1      34.960  33.257  30.230  1.00  0.00    -0.460 OA
BRANCH  43  44
ATOM     44  C   UNL A   1      35.148  32.257  31.120  1.00  0.00     0.338 C 
ATOM     45  O   UNL A   1      34.433  31.955  32.064  1.00  0.00    -0.246 OA
BRANCH  44  46
ATOM     46  C   UNL A   1      36.303  31.451  30.680  1.00  0.00     0.060 A 
ATOM     47  C   UNL A   1      37.045  30.742  31.635  1.00  0.00     0.016 A 
ATOM     48  C   UNL A   1      36.661  31.412  29.332  1.00  0.00     0.016 A 
ATOM     49  C   UNL A   1      38.161  30.003  31.244  1.00  0.00     0.010 A 
ATOM     50  C   UNL A   1      37.795  30.689  28.946  1.00  0.00     0.010 A 
ATOM     51  C   UNL A   1      38.566  30.002  29.902  1.00  0.00    -0.014 A 
BRANCH  51  52
ATOM     52  C   UNL A   1      39.881  29.431  29.521  1.00  0.00     0.031 A 
ATOM     53  C   UNL A   1      41.088  30.332  29.533  1.00  0.00     0.074 A 
ATOM     54  C   UNL A   1      40.014  28.133  29.190  1.00  0.00     0.049 A 
ATOM     55  N   UNL A   1      42.320  30.075  29.177  1.00  0.00    -0.248 NA
ATOM     56  C   UNL A   1      40.874  31.709  30.012  1.00  0.00     0.031 C 
ATOM     57  C   UNL A   1      38.943  27.139  29.193  1.00  0.00     0.029 A 
ATOM     58  N   UNL A   1      41.122  27.433  28.776  1.00  0.00    -0.354 N 
ATOM     59  C   UNL A   1      43.027  31.252  29.388  1.00  0.00     0.074 A 
ATOM     60  C   UNL A   1      42.081  32.235  29.870  1.00  0.00     0.031 C 
ATOM     61  C   UNL A   1      39.443  25.957  28.790  1.00  0.00     0.029 A 
ATOM     62  C   UNL A   1      40.859  26.121  28.463  1.00  0.00     0.049 A 
ATOM     63  H   UNL A   1      42.018  27.833  28.711  1.00  0.00     0.167 HD
ATOM     64  C   UNL A   1      44.347  31.492  29.213  1.00  0.00     0.031 A 
ATOM     65  C   UNL A   1      41.663  25.171  27.944  1.00  0.00     0.031 A 
ATOM     66  C   UNL A   1      45.290  30.526  28.716  1.00  0.00     0.049 A 
ATOM     67  C   UNL A   1      43.105  25.504  27.647  1.00  0.00     0.074 A 
ATOM     68  C   UNL A   1      46.646  30.684  28.489  1.00  0.00     0.029 A 
ATOM     69  N   UNL A   1      44.972  29.224  28.365  1.00  0.00    -0.354 N 
ATOM     70  N   UNL A   1      43.765  26.615  27.868  1.00  0.00    -0.248 NA
ATOM     71  C   UNL A   1      43.917  24.441  27.032  1.00  0.00     0.031 C 
ATOM     72  C   UNL A   1      47.140  29.491  27.950  1.00  0.00     0.029 A 
ATOM     73  C   UNL A   1      46.104  28.573  27.907  1.00  0.00     0.049 A 
ATOM     74  H   UNL A   1      44.076  28.822  28.433  1.00  0.00     0.167 HD
ATOM     75  C   UNL A   1      45.072  26.368  27.461  1.00  0.00     0.074 A 
ATOM     76  C   UNL A   1      45.117  24.999  26.997  1.00  0.00     0.031 C 
ATOM     77  C   UNL A   1      46.142  27.202  27.468  1.00  0.00     0.031 A 
BRANCH  64  78
ATOM     78  C   UNL A   1      44.856  32.866  29.548  1.00  0.00    -0.014 A 
ATOM     79  C   UNL A   1      45.375  33.154  30.820  1.00  0.00     0.009 A 
ATOM     80  C   UNL A   1      44.878  33.864  28.563  1.00  0.00     0.009 A 
ATOM     81  C   UNL A   1      45.886  34.422  31.104  1.00  0.00     0.001 A 
ATOM     82  C   UNL A   1      45.416  35.122  28.841  1.00  0.00     0.001 A 
ATOM     83  C   UNL A   1      45.915  35.401  30.111  1.00  0.00     0.000 A 
ENDBRANCH  64  78
BRANCH  65  84
ATOM     84  C   UNL A   1      41.137  23.815  27.625  1.00  0.00    -0.014 A 
ATOM     85  C   UNL A   1      41.542  22.694  28.370  1.00  0.00     0.009 A 
ATOM     86  C   UNL A   1      40.293  23.621  26.521  1.00  0.00     0.009 A 
ATOM     87  C   UNL A   1      41.156  21.408  27.982  1.00  0.00     0.001 A 
ATOM     88  C   UNL A   1      39.878  22.338  26.159  1.00  0.00     0.001 A 
ATOM     89  C   UNL A   1      40.324  21.231  26.879  1.00  0.00     0.000 A 
ENDBRANCH  65  84
BRANCH  77  90
ATOM     90  C   UNL A   1      47.466  26.640  27.024  1.00  0.00    -0.014 A 
ATOM     91  C   UNL A   1      48.277  25.895  27.893  1.00  0.00     0.009 A 
ATOM     92  C   UNL A   1      47.887  26.830  25.699  1.00  0.00     0.009 A 
ATOM     93  C   UNL A   1      49.501  25.384  27.454  1.00  0.00     0.001 A 
ATOM     94  C   UNL A   1      49.093  26.290  25.251  1.00  0.00     0.001 A 
ATOM     95  C   UNL A   1      49.905  25.578  26.132  1.00  0.00     0.000 A 
ENDBRANCH  77  90
ENDBRANCH  51  52
ENDBRANCH  44  46
ENDBRANCH  43  44
ENDBRANCH  42  43
ENDBRANCH  41  42
ENDBRANCH  40  41
ENDBRANCH  39  40
ENDBRANCH   1  39
TORSDOF 23
ENDMDL
MODEL 2
REMARK VINA RESULT:      -7.5      4.186     11.128
REMARK SMILES COc1ccc([C@H]2CC(c3ccc(S(C)(=O)=O)cc3)=NN2c2ccc(C(=O)OCCOCCOCCOC(=O)c3ccc(-c4c5nc(c(-c6ccccc6)c6ccc([nH]6)c(-c6ccccc6)c6nc(c(-c7ccccc7)c7ccc4[nH]7)C=C6)C=C5)cc3)cc2)cc1OC
REMARK SMILES IDX 32 1 31 2 30 3 29 4 28 5 26 6 27 7 25 8 22 9 23 10 89 11
REMARK SMILES IDX 24 12 88 13 21 14 7 15 8 16 9 17 20 18 6 19 3 20 4 21 91 22
REMARK SMILES IDX 5 23 90 24 2 25 1 26 92 27 93 28 10 29 11 30 19 31 12 32
REMARK SMILES IDX 18 33 13 34 14 35 15 36 16 37 17 38 33 39 34 40 35 41 36 42
REMARK SMILES IDX 37 43 38 44 39 45 40 46 41 47 87 48 42 49 86 50 43 51 44 52
REMARK SMILES IDX 45 53 80 54 46 55 85 56 79 57 81 58 47 59 84 60 78 61 77 62
REMARK SMILES IDX 48 64 70 65 55 66 69 67 56 68 59 69 68 70 82 71 57 72 58 73
REMARK SMILES IDX 67 75 83 76 60 77 49 78 50 79 54 80 51 81 53 82 52 83 71 84
REMARK SMILES IDX 72 85 76 86 73 87 75 88 74 89 61 90 62 91 66 92 63 93 65 94
REMARK SMILES IDX 64 95
REMARK H PARENT 81 63 59 74
REMARK Flexibility Score: inf
ROOT
ATOM      1  C   UNL A   1      46.525  23.521  24.454  1.00  0.00     0.188 C 
ENDROOT
BRANCH   1   2
ATOM      2  O   UNL A   1      45.310  23.089  23.890  1.00  0.00    -0.376 OA
BRANCH   2   3
ATOM      3  C   UNL A   1      44.275  22.587  24.718  1.00  0.00     0.202 C 
BRANCH   3   4
ATOM      4  C   UNL A   1      43.017  23.351  25.195  1.00  0.00     0.261 C 
BRANCH   4   5
ATOM      5  O   UNL A   1      42.858  23.628  26.589  1.00  0.00    -0.460 OA
BRANCH   5   6
ATOM      6  C   UNL A   1      43.279  24.845  27.012  1.00  0.00     0.338 C 
ATOM      7  O   UNL A   1      43.097  25.911  26.450  1.00  0.00    -0.246 OA
BRANCH   6   8
ATOM      8  C   UNL A   1      43.838  24.723  28.380  1.00  0.00     0.060 A 
ATOM      9  C   UNL A   1      44.774  24.517  31.030  1.00  0.00     0.060 A 
ATOM     10  C   UNL A   1      43.625  23.828  30.622  1.00  0.00     0.029 A 
ATOM     11  C   UNL A   1      45.488  25.246  30.065  1.00  0.00     0.029 A 
ATOM     12  C   UNL A   1      43.139  23.954  29.316  1.00  0.00     0.018 A 
ATOM     13  C   UNL A   1      45.041  25.335  28.742  1.00  0.00     0.018 A 
BRANCH   9  14
ATOM     14  N   UNL A   1      45.149  24.544  32.371  1.00  0.00    -0.257 N 
ATOM     15  C   UNL A   1      45.246  25.792  33.136  1.00  0.00     0.144 C 
ATOM     16  C   UNL A   1      45.506  25.293  34.561  1.00  0.00     0.091 C 
ATOM     17  C   UNL A   1      45.425  23.806  34.347  1.00  0.00     0.071 C 
ATOM     18  N   UNL A   1      45.205  23.412  33.130  1.00  0.00    -0.176 NA
BRANCH  15  19
ATOM     19  C   UNL A   1      43.987  26.649  33.046  1.00  0.00    -0.019 A 
ATOM     20  C   UNL A   1      41.652  28.229  32.875  1.00  0.00     0.160 A 
ATOM     21  C   UNL A   1      42.542  28.153  31.796  1.00  0.00     0.051 A 
ATOM     22  C   UNL A   1      41.903  27.499  34.041  1.00  0.00     0.161 A 
ATOM     23  C   UNL A   1      43.703  27.375  31.882  1.00  0.00     0.010 A 
ATOM     24  C   UNL A   1      43.067  26.718  34.108  1.00  0.00     0.056 A 
BRANCH  20  25
ATOM     25  O   UNL A   1      40.486  28.924  32.691  1.00  0.00    -0.493 OA
ATOM     26  C   UNL A   1      39.808  28.530  31.497  1.00  0.00     0.278 C 
ENDBRANCH  20  25
BRANCH  22  27
ATOM     27  O   UNL A   1      41.140  27.402  35.173  1.00  0.00    -0.493 OA
ATOM     28  C   UNL A   1      41.771  27.032  36.388  1.00  0.00     0.278 C 
ENDBRANCH  22  27
ENDBRANCH  15  19
BRANCH  17  29
ATOM     29  C   UNL A   1      45.647  22.891  35.477  1.00  0.00    -0.002 A 
ATOM     30  C   UNL A   1      46.058  21.579  35.217  1.00  0.00     0.011 A 
ATOM     31  C   UNL A   1      45.506  23.347  36.790  1.00  0.00     0.011 A 
ATOM     32  C   UNL A   1      46.351  20.719  36.279  1.00  0.00     0.021 A 
ATOM     33  C   UNL A   1      45.774  22.480  37.855  1.00  0.00     0.021 A 
ATOM     34  C   UNL A   1      46.197  21.172  37.595  1.00  0.00     0.067 A 
BRANCH  34  35
ATOM     35  S   UNL A   1      46.603  20.087  38.946  1.00  0.00     0.175 S 
ATOM     36  C   UNL A   1      46.103  18.477  38.395  1.00  0.00     0.163 C 
ATOM     37  O   UNL A   1      48.048  20.101  39.070  1.00  0.00    -0.224 OA
ATOM     38  O   UNL A   1      45.756  20.446  40.067  1.00  0.00    -0.224 OA
ENDBRANCH  34  35
ENDBRANCH  17  29
ENDBRANCH   9  14
ENDBRANCH   6   8
ENDBRANCH   5   6
ENDBRANCH   4   5
ENDBRANCH   3   4
ENDBRANCH   2   3
ENDBRANCH   1   2
BRANCH   1  39
ATOM     39  C   UNL A   1      46.447  24.866  25.199  1.00  0.00     0.188 C 
BRANCH  39  40
ATOM     40  O   UNL A   1      46.502  26.045  24.425  1.00  0.00    -0.376 OA
BRANCH  40  41
ATOM     41  C   UNL A   1      47.432  27.070  24.739  1.00  0.00     0.202 C 
BRANCH  41  42
ATOM     42  C   UNL A   1      48.930  27.097  24.354  1.00  0.00     0.261 C 
BRANCH  42  43
ATOM     43  O   UNL A   1      49.897  27.403  25.362  1.00  0.00    -0.460 OA
BRANCH  43  44
ATOM     44  C   UNL A   1      50.552  26.351  25.903  1.00  0.00     0.338 C 
ATOM     45  O   UNL A   1      51.365  25.620  25.359  1.00  0.00    -0.246 OA
BRANCH  44  46
ATOM     46  C   UNL A   1      50.252  26.306  27.347  1.00  0.00     0.060 A 
ATOM     47  C   UNL A   1      49.047  25.735  27.777  1.00  0.00     0.016 A 
ATOM     48  C   UNL A   1      51.150  26.845  28.269  1.00  0.00     0.016 A 
ATOM     49  C   UNL A   1      48.729  25.715  29.135  1.00  0.00     0.010 A 
ATOM     50  C   UNL A   1      50.818  26.845  29.628  1.00  0.00     0.010 A 
ATOM     51  C   UNL A   1      49.595  26.304  30.066  1.00  0.00    -0.014 A 
BRANCH  51  52
ATOM     52  C   UNL A   1      49.153  26.510  31.467  1.00  0.00     0.031 A 
ATOM     53  C   UNL A   1      49.530  25.482  32.500  1.00  0.00     0.074 A 
ATOM     54  C   UNL A   1      48.445  27.597  31.828  1.00  0.00     0.049 A 
ATOM     55  N   UNL A   1      49.202  25.415  33.765  1.00  0.00    -0.248 NA
ATOM     56  C   UNL A   1      50.396  24.380  32.043  1.00  0.00     0.031 C 
ATOM     57  C   UNL A   1      48.062  28.695  30.943  1.00  0.00     0.029 A 
ATOM     58  N   UNL A   1      47.916  27.946  33.047  1.00  0.00    -0.354 N 
ATOM     59  C   UNL A   1      49.819  24.270  34.254  1.00  0.00     0.074 A 
ATOM     60  C   UNL A   1      50.512  23.654  33.144  1.00  0.00     0.031 C 
ATOM     61  C   UNL A   1      47.349  29.594  31.647  1.00  0.00     0.029 A 
ATOM     62  C   UNL A   1      47.192  29.114  33.020  1.00  0.00     0.049 A 
ATOM     63  H   UNL A   1      48.043  27.410  33.863  1.00  0.00     0.167 HD
ATOM     64  C   UNL A   1      49.823  23.782  35.516  1.00  0.00     0.031 A 
ATOM     65  C   UNL A   1      46.465  29.711  33.985  1.00  0.00     0.031 A 
ATOM     66  C   UNL A   1      49.120  24.379  36.621  1.00  0.00     0.049 A 
ATOM     67  C   UNL A   1      46.391  29.077  35.354  1.00  0.00     0.074 A 
ATOM     68  C   UNL A   1      49.053  23.946  37.933  1.00  0.00     0.029 A 
ATOM     69  N   UNL A   1      48.361  25.535  36.539  1.00  0.00    -0.354 N 
ATOM     70  N   UNL A   1      46.992  28.006  35.808  1.00  0.00    -0.248 NA
ATOM     71  C   UNL A   1      45.536  29.749  36.348  1.00  0.00     0.031 C 
ATOM     72  C   UNL A   1      48.208  24.812  38.635  1.00  0.00     0.029 A 
ATOM     73  C   UNL A   1      47.807  25.820  37.775  1.00  0.00     0.049 A 
ATOM     74  H   UNL A   1      48.235  26.073  35.724  1.00  0.00     0.167 HD
ATOM     75  C   UNL A   1      46.625  27.901  37.146  1.00  0.00     0.074 A 
ATOM     76  C   UNL A   1      45.763  29.027  37.435  1.00  0.00     0.031 C 
ATOM     77  C   UNL A   1      46.968  26.956  38.056  1.00  0.00     0.031 A 
BRANCH  64  78
ATOM     78  C   UNL A   1      50.604  22.524  35.775  1.00  0.00    -0.014 A 
ATOM     79  C   UNL A   1      51.922  22.578  36.254  1.00  0.00     0.009 A 
ATOM     80  C   UNL A   1      49.994  21.273  35.601  1.00  0.00     0.009 A 
ATOM     81  C   UNL A   1      52.621  21.401  36.532  1.00  0.00     0.001 A 
ATOM     82  C   UNL A   1      50.685  20.099  35.908  1.00  0.00     0.001 A 
ATOM     83  C   UNL A   1      51.998  20.165  36.368  1.00  0.00     0.000 A 
ENDBRANCH  64  78
BRANCH  65  84
ATOM     84  C   UNL A   1      45.703  30.960  33.707  1.00  0.00    -0.014 A 
ATOM     85  C   UNL A   1      44.447  30.910  33.080  1.00  0.00     0.009 A 
ATOM     86  C   UNL A   1      46.266  32.214  33.989  1.00  0.00     0.009 A 
ATOM     87  C   UNL A   1      43.798  32.087  32.696  1.00  0.00     0.001 A 
ATOM     88  C   UNL A   1      45.599  33.389  33.638  1.00  0.00     0.001 A 
ATOM     89  C   UNL A   1      44.374  33.325  32.977  1.00  0.00     0.000 A 
ENDBRANCH  65  84
BRANCH  77  90
ATOM     90  C   UNL A   1      46.469  27.131  39.465  1.00  0.00    -0.014 A 
ATOM     91  C   UNL A   1      47.250  27.758  40.449  1.00  0.00     0.009 A 
ATOM     92  C   UNL A   1      45.177  26.696  39.799  1.00  0.00     0.009 A 
ATOM     93  C   UNL A   1      46.760  27.908  41.749  1.00  0.00     0.001 A 
ATOM     94  C   UNL A   1      44.677  26.878  41.089  1.00  0.00     0.001 A 
ATOM     95  C   UNL A   1      45.472  27.473  42.066  1.00  0.00     0.000 A 
ENDBRANCH  77  90
ENDBRANCH  51  52
ENDBRANCH  44  46
ENDBRANCH  43  44
ENDBRANCH  42  43
ENDBRANCH  41  42
ENDBRANCH  40  41
ENDBRANCH  39  40
ENDBRANCH   1  39
TORSDOF 23
ENDMDL
MODEL 3
REMARK VINA RESULT:      -7.5      4.113     10.383
REMARK SMILES COc1ccc([C@H]2CC(c3ccc(S(C)(=O)=O)cc3)=NN2c2ccc(C(=O)OCCOCCOCCOC(=O)c3ccc(-c4c5nc(c(-c6ccccc6)c6ccc([nH]6)c(-c6ccccc6)c6nc(c(-c7ccccc7)c7ccc4[nH]7)C=C6)C=C5)cc3)cc2)cc1OC
REMARK SMILES IDX 32 1 31 2 30 3 29 4 28 5 26 6 27 7 25 8 22 9 23 10 89 11
REMARK SMILES IDX 24 12 88 13 21 14 7 15 8 16 9 17 20 18 6 19 3 20 4 21 91 22
REMARK SMILES IDX 5 23 90 24 2 25 1 26 92 27 93 28 10 29 11 30 19 31 12 32
REMARK SMILES IDX 18 33 13 34 14 35 15 36 16 37 17 38 33 39 34 40 35 41 36 42
REMARK SMILES IDX 37 43 38 44 39 45 40 46 41 47 87 48 42 49 86 50 43 51 44 52
REMARK SMILES IDX 45 53 80 54 46 55 85 56 79 57 81 58 47 59 84 60 78 61 77 62
REMARK SMILES IDX 48 64 70 65 55 66 69 67 56 68 59 69 68 70 82 71 57 72 58 73
REMARK SMILES IDX 67 75 83 76 60 77 49 78 50 79 54 80 51 81 53 82 52 83 71 84
REMARK SMILES IDX 72 85 76 86 73 87 75 88 74 89 61 90 62 91 66 92 63 93 65 94
REMARK SMILES IDX 64 95
REMARK H PARENT 81 63 59 74
REMARK Flexibility Score: inf
ROOT
ATOM      1  C   UNL A   1      46.849  23.748  24.370  1.00  0.00     0.188 C 
ENDROOT
BRANCH   1   2
ATOM      2  O   UNL A   1      45.673  23.268  23.763  1.00  0.00    -0.376 OA
BRANCH   2   3
ATOM      3  C   UNL A   1      44.570  22.866  24.557  1.00  0.00     0.202 C 
BRANCH   3   4
ATOM      4  C   UNL A   1      43.311  23.703  24.886  1.00  0.00     0.261 C 
BRANCH   4   5
ATOM      5  O   UNL A   1      42.964  23.933  26.254  1.00  0.00    -0.460 OA
BRANCH   5   6
ATOM      6  C   UNL A   1      43.369  25.112  26.786  1.00  0.00     0.338 C 
ATOM      7  O   UNL A   1      43.182  26.222  26.317  1.00  0.00    -0.246 OA
BRANCH   6   8
ATOM      8  C   UNL A   1      43.915  24.876  28.144  1.00  0.00     0.060 A 
ATOM      9  C   UNL A   1      44.830  24.465  30.778  1.00  0.00     0.060 A 
ATOM     10  C   UNL A   1      43.614  23.918  30.349  1.00  0.00     0.029 A 
ATOM     11  C   UNL A   1      45.615  25.152  29.838  1.00  0.00     0.029 A 
ATOM     12  C   UNL A   1      43.141  24.148  29.053  1.00  0.00     0.018 A 
ATOM     13  C   UNL A   1      45.177  25.342  28.522  1.00  0.00     0.018 A 
BRANCH   9  14
ATOM     14  N   UNL A   1      45.210  24.397  32.116  1.00  0.00    -0.257 N 
ATOM     15  C   UNL A   1      45.350  25.592  32.955  1.00  0.00     0.144 C 
ATOM     16  C   UNL A   1      45.597  24.998  34.346  1.00  0.00     0.091 C 
ATOM     17  C   UNL A   1      45.465  23.531  34.042  1.00  0.00     0.071 C 
ATOM     18  N   UNL A   1      45.229  23.220  32.804  1.00  0.00    -0.176 NA
BRANCH  15  19
ATOM     19  C   UNL A   1      44.121  26.495  32.923  1.00  0.00    -0.019 A 
ATOM     20  C   UNL A   1      41.839  28.159  32.860  1.00  0.00     0.160 A 
ATOM     21  C   UNL A   1      42.724  28.119  31.773  1.00  0.00     0.051 A 
ATOM     22  C   UNL A   1      42.069  27.351  33.977  1.00  0.00     0.161 A 
ATOM     23  C   UNL A   1      43.858  27.299  31.807  1.00  0.00     0.010 A 
ATOM     24  C   UNL A   1      43.206  26.529  33.991  1.00  0.00     0.056 A 
BRANCH  20  25
ATOM     25  O   UNL A   1      40.697  28.903  32.723  1.00  0.00    -0.493 OA
ATOM     26  C   UNL A   1      40.599  29.504  31.431  1.00  0.00     0.278 C 
ENDBRANCH  20  25
BRANCH  22  27
ATOM     27  O   UNL A   1      41.306  27.210  35.104  1.00  0.00    -0.493 OA
ATOM     28  C   UNL A   1      41.504  28.116  36.178  1.00  0.00     0.278 C 
ENDBRANCH  22  27
ENDBRANCH  15  19
BRANCH  17  29
ATOM     29  C   UNL A   1      45.660  22.542  35.113  1.00  0.00    -0.002 A 
ATOM     30  C   UNL A   1      45.971  21.222  34.769  1.00  0.00     0.011 A 
ATOM     31  C   UNL A   1      45.592  22.932  36.453  1.00  0.00     0.011 A 
ATOM     32  C   UNL A   1      46.238  20.287  35.773  1.00  0.00     0.021 A 
ATOM     33  C   UNL A   1      45.832  21.992  37.460  1.00  0.00     0.021 A 
ATOM     34  C   UNL A   1      46.156  20.675  37.116  1.00  0.00     0.067 A 
BRANCH  34  35
ATOM     35  S   UNL A   1      46.530  19.491  38.391  1.00  0.00     0.175 S 
ATOM     36  C   UNL A   1      46.417  20.409  39.904  1.00  0.00     0.163 C 
ATOM     37  O   UNL A   1      45.464  18.508  38.371  1.00  0.00    -0.224 OA
ATOM     38  O   UNL A   1      47.915  19.092  38.226  1.00  0.00    -0.224 OA
ENDBRANCH  34  35
ENDBRANCH  17  29
ENDBRANCH   9  14
ENDBRANCH   6   8
ENDBRANCH   5   6
ENDBRANCH   4   5
ENDBRANCH   3   4
ENDBRANCH   2   3
ENDBRANCH   1   2
BRANCH   1  39
ATOM     39  C   UNL A   1      46.756  25.190  24.902  1.00  0.00     0.188 C 
BRANCH  39  40
ATOM     40  O   UNL A   1      47.129  26.234  24.029  1.00  0.00    -0.376 OA
BRANCH  40  41
ATOM     41  C   UNL A   1      47.891  27.333  24.504  1.00  0.00     0.202 C 
BRANCH  41  42
ATOM     42  C   UNL A   1      49.402  27.570  24.266  1.00  0.00     0.261 C 
BRANCH  42  43
ATOM     43  O   UNL A   1      50.226  27.939  25.375  1.00  0.00    -0.460 OA
BRANCH  43  44
ATOM     44  C   UNL A   1      51.002  26.961  25.894  1.00  0.00     0.338 C 
ATOM     45  O   UNL A   1      51.952  26.403  25.365  1.00  0.00    -0.246 OA
BRANCH  44  46
ATOM     46  C   UNL A   1      50.626  26.767  27.308  1.00  0.00     0.060 A 
ATOM     47  C   UNL A   1      49.529  25.952  27.617  1.00  0.00     0.016 A 
ATOM     48  C   UNL A   1      51.344  27.404  28.321  1.00  0.00     0.016 A 
ATOM     49  C   UNL A   1      49.135  25.784  28.944  1.00  0.00     0.010 A 
ATOM     50  C   UNL A   1      50.932  27.254  29.650  1.00  0.00     0.010 A 
ATOM     51  C   UNL A   1      49.811  26.464  29.967  1.00  0.00    -0.014 A 
BRANCH  51  52
ATOM     52  C   UNL A   1      49.249  26.492  31.340  1.00  0.00     0.031 A 
ATOM     53  C   UNL A   1      48.352  27.637  31.728  1.00  0.00     0.074 A 
ATOM     54  C   UNL A   1      49.510  25.512  32.225  1.00  0.00     0.049 A 
ATOM     55  N   UNL A   1      47.803  27.907  32.885  1.00  0.00    -0.248 NA
ATOM     56  C   UNL A   1      48.031  28.608  30.667  1.00  0.00     0.031 C 
ATOM     57  C   UNL A   1      50.314  24.319  31.963  1.00  0.00     0.029 A 
ATOM     58  N   UNL A   1      49.125  25.376  33.537  1.00  0.00    -0.354 N 
ATOM     59  C   UNL A   1      47.073  29.073  32.692  1.00  0.00     0.074 A 
ATOM     60  C   UNL A   1      47.277  29.480  31.319  1.00  0.00     0.031 C 
ATOM     61  C   UNL A   1      50.370  23.577  33.083  1.00  0.00     0.029 A 
ATOM     62  C   UNL A   1      49.641  24.260  34.150  1.00  0.00     0.049 A 
ATOM     63  H   UNL A   1      48.535  26.018  33.993  1.00  0.00     0.167 HD
ATOM     64  C   UNL A   1      46.291  29.741  33.572  1.00  0.00     0.031 A 
ATOM     65  C   UNL A   1      49.557  23.855  35.433  1.00  0.00     0.031 A 
ATOM     66  C   UNL A   1      46.100  29.353  34.945  1.00  0.00     0.049 A 
ATOM     67  C   UNL A   1      48.775  24.685  36.422  1.00  0.00     0.074 A 
ATOM     68  C   UNL A   1      45.338  29.977  35.917  1.00  0.00     0.029 A 
ATOM     69  N   UNL A   1      46.679  28.243  35.538  1.00  0.00    -0.354 N 
ATOM     70  N   UNL A   1      48.075  25.775  36.224  1.00  0.00    -0.248 NA
ATOM     71  C   UNL A   1      48.767  24.217  37.818  1.00  0.00     0.031 C 
ATOM     72  C   UNL A   1      45.499  29.273  37.115  1.00  0.00     0.029 A 
ATOM     73  C   UNL A   1      46.306  28.175  36.869  1.00  0.00     0.049 A 
ATOM     74  H   UNL A   1      47.268  27.600  35.081  1.00  0.00     0.167 HD
ATOM     75  C   UNL A   1      47.512  26.095  37.455  1.00  0.00     0.074 A 
ATOM     76  C   UNL A   1      47.936  25.075  38.390  1.00  0.00     0.031 C 
ATOM     77  C   UNL A   1      46.716  27.142  37.785  1.00  0.00     0.031 A 
BRANCH  64  78
ATOM     78  C   UNL A   1      45.588  30.975  33.084  1.00  0.00    -0.014 A 
ATOM     79  C   UNL A   1      44.254  30.924  32.650  1.00  0.00     0.009 A 
ATOM     80  C   UNL A   1      46.244  32.215  33.119  1.00  0.00     0.009 A 
ATOM     81  C   UNL A   1      43.599  32.086  32.241  1.00  0.00     0.001 A 
ATOM     82  C   UNL A   1      45.577  33.381  32.738  1.00  0.00     0.001 A 
ATOM     83  C   UNL A   1      44.257  33.314  32.295  1.00  0.00     0.000 A 
ENDBRANCH  64  78
BRANCH  65  84
ATOM     84  C   UNL A   1      50.259  22.624  35.893  1.00  0.00    -0.014 A 
ATOM     85  C   UNL A   1      51.588  22.682  36.345  1.00  0.00     0.009 A 
ATOM     86  C   UNL A   1      49.631  21.372  35.803  1.00  0.00     0.009 A 
ATOM     87  C   UNL A   1      52.287  21.509  36.644  1.00  0.00     0.001 A 
ATOM     88  C   UNL A   1      50.320  20.205  36.139  1.00  0.00     0.001 A 
ATOM     89  C   UNL A   1      51.653  20.273  36.542  1.00  0.00     0.000 A 
ENDBRANCH  65  84
BRANCH  77  90
ATOM     90  C   UNL A   1      46.195  27.204  39.195  1.00  0.00    -0.014 A 
ATOM     91  C   UNL A   1      46.865  27.923  40.197  1.00  0.00     0.009 A 
ATOM     92  C   UNL A   1      44.987  26.563  39.513  1.00  0.00     0.009 A 
ATOM     93  C   UNL A   1      46.357  27.964  41.497  1.00  0.00     0.001 A 
ATOM     94  C   UNL A   1      44.462  26.634  40.804  1.00  0.00     0.001 A 
ATOM     95  C   UNL A   1      45.153  27.325  41.798  1.00  0.00     0.000 A 
ENDBRANCH  77  90
ENDBRANCH  51  52
ENDBRANCH  44  46
ENDBRANCH  43  44
ENDBRANCH  42  43
ENDBRANCH  41  42
ENDBRANCH  40  41
ENDBRANCH  39  40
ENDBRANCH   1  39
TORSDOF 23
ENDMDL
