MODEL 1
REMARK VINA RESULT:     -10.8      0.000      0.000
REMARK SMILES Cc1c(CC(=O)OCCOCCOCCOC(=O)c2ccc(-c3c4nc(c(-c5ccccc5)c5ccc([nH]5)c(-c5ccccc5)c5nc(c(-c6ccccc6)c6ccc3[nH]6)C=C5)C=C4)cc2)cc(-c2ccc(S(C)(=O)=O)cc2)n1-c1ccccc1
REMARK SMILES IDX 11 1 10 2 9 3 8 4 7 5 5 6 6 7 4 8 3 9 1 10 2 11 79 12 67 13
REMARK SMILES IDX 68 14 80 15 81 16 85 17 82 18 84 19 83 20 69 21 70 22 78 23
REMARK SMILES IDX 71 24 77 25 72 26 73 27 74 28 75 29 76 30 12 31 13 32 14 33
REMARK SMILES IDX 15 34 16 35 17 36 18 37 19 38 20 39 66 40 21 41 65 42 22 43
REMARK SMILES IDX 23 44 24 45 59 46 25 47 64 48 58 49 60 50 26 51 63 52 57 53
REMARK SMILES IDX 56 54 27 56 49 57 34 58 48 59 35 60 38 61 47 62 61 63 36 64
REMARK SMILES IDX 37 65 46 67 62 68 39 69 28 70 29 71 33 72 30 73 32 74 31 75
REMARK SMILES IDX 50 76 51 77 55 78 52 79 54 80 53 81 40 82 41 83 45 84 42 85
REMARK SMILES IDX 44 86 43 87
REMARK H PARENT 60 55 38 66
REMARK Flexibility Score: inf
ROOT
ATOM      1  C   UNL A   1      32.802  25.347  23.672  1.00  0.00     0.188 C 
ENDROOT
BRANCH   1   2
ATOM      2  O   UNL A   1      33.630  24.271  24.094  1.00  0.00    -0.376 OA
BRANCH   2   3
ATOM      3  C   UNL A   1      34.470  23.622  23.143  1.00  0.00     0.202 C 
BRANCH   3   4
ATOM      4  C   UNL A   1      35.915  23.345  23.573  1.00  0.00     0.261 C 
BRANCH   4   5
ATOM      5  O   UNL A   1      36.003  22.137  24.355  1.00  0.00    -0.463 OA
BRANCH   5   6
ATOM      6  C   UNL A   1      36.065  22.293  25.701  1.00  0.00     0.310 C 
ATOM      7  O   UNL A   1      35.498  21.553  26.503  1.00  0.00    -0.252 OA
BRANCH   6   8
ATOM      8  C   UNL A   1      36.959  23.421  26.179  1.00  0.00     0.160 C 
BRANCH   8   9
ATOM      9  C   UNL A   1      38.407  23.130  26.472  1.00  0.00    -0.015 A 
ATOM     10  C   UNL A   1      39.332  25.456  27.265  1.00  0.00     0.065 C 
ATOM     11  C   UNL A   1      39.378  23.994  26.974  1.00  0.00     0.024 A 
ATOM     12  N   UNL A   1      40.556  23.275  27.113  1.00  0.00    -0.314 N 
ATOM     13  C   UNL A   1      39.110  21.956  26.068  1.00  0.00     0.033 A 
ATOM     14  C   UNL A   1      40.456  22.127  26.346  1.00  0.00     0.053 A 
BRANCH  12  15
ATOM     15  C   UNL A   1      41.670  23.650  27.898  1.00  0.00     0.046 A 
ATOM     16  C   UNL A   1      42.397  24.802  27.594  1.00  0.00     0.026 A 
ATOM     17  C   UNL A   1      42.075  22.788  28.923  1.00  0.00     0.026 A 
ATOM     18  C   UNL A   1      43.540  25.097  28.337  1.00  0.00     0.002 A 
ATOM     19  C   UNL A   1      43.232  23.081  29.644  1.00  0.00     0.002 A 
ATOM     20  C   UNL A   1      43.961  24.236  29.353  1.00  0.00     0.000 A 
ENDBRANCH  12  15
BRANCH  14  21
ATOM     21  C   UNL A   1      41.600  21.327  25.920  1.00  0.00    -0.001 A 
ATOM     22  C   UNL A   1      41.625  19.936  26.078  1.00  0.00     0.011 A 
ATOM     23  C   UNL A   1      42.723  21.984  25.397  1.00  0.00     0.011 A 
ATOM     24  C   UNL A   1      42.764  19.209  25.724  1.00  0.00     0.021 A 
ATOM     25  C   UNL A   1      43.866  21.266  25.048  1.00  0.00     0.021 A 
ATOM     26  C   UNL A   1      43.883  19.882  25.221  1.00  0.00     0.067 A 
BRANCH  26  27
ATOM     27  S   UNL A   1      45.322  18.949  24.760  1.00  0.00     0.175 S 
ATOM     28  C   UNL A   1      46.663  20.091  24.953  1.00  0.00     0.163 C 
ATOM     29  O   UNL A   1      45.474  17.891  25.734  1.00  0.00    -0.224 OA
ATOM     30  O   UNL A   1      45.213  18.647  23.339  1.00  0.00    -0.224 OA
ENDBRANCH  26  27
ENDBRANCH  14  21
ENDBRANCH   8   9
ENDBRANCH   6   8
ENDBRANCH   5   6
ENDBRANCH   4   5
ENDBRANCH   3   4
ENDBRANCH   2   3
ENDBRANCH   1   2
BRANCH   1  31
ATOM     31  C   UNL A   1      33.436  26.569  22.994  1.00  0.00     0.188 C 
BRANCH  31  32
ATOM     32  O   UNL A   1      32.588  27.558  22.445  1.00  0.00    -0.376 OA
BRANCH  32  33
ATOM     33  C   UNL A   1      32.732  28.872  22.972  1.00  0.00     0.202 C 
BRANCH  33  34
ATOM     34  C   UNL A   1      32.508  29.064  24.518  1.00  0.00     0.261 C 
BRANCH  34  35
ATOM     35  O   UNL A   1      33.574  29.604  25.408  1.00  0.00    -0.460 OA
BRANCH  35  36
ATOM     36  C   UNL A   1      33.337  29.666  26.789  1.00  0.00     0.338 C 
ATOM     37  O   UNL A   1      32.290  29.292  27.296  1.00  0.00    -0.246 OA
BRANCH  36  38
ATOM     38  C   UNL A   1      34.445  30.337  27.668  1.00  0.00     0.060 A 
ATOM     39  C   UNL A   1      35.672  29.817  28.190  1.00  0.00     0.016 A 
ATOM     40  C   UNL A   1      34.237  31.592  28.124  1.00  0.00     0.016 A 
ATOM     41  C   UNL A   1      36.676  30.564  29.132  1.00  0.00     0.010 A 
ATOM     42  C   UNL A   1      35.226  32.233  28.978  1.00  0.00     0.010 A 
ATOM     43  C   UNL A   1      36.483  31.869  29.628  1.00  0.00    -0.014 A 
BRANCH  43  44
ATOM     44  C   UNL A   1      37.611  33.087  30.384  1.00  0.00     0.031 A 
ATOM     45  C   UNL A   1      36.931  33.611  31.652  1.00  0.00     0.074 A 
ATOM     46  C   UNL A   1      39.013  33.459  30.654  1.00  0.00     0.049 A 
ATOM     47  N   UNL A   1      37.443  33.286  32.820  1.00  0.00    -0.248 NA
ATOM     48  C   UNL A   1      35.485  33.457  31.680  1.00  0.00     0.031 C 
ATOM     49  C   UNL A   1      40.276  32.831  30.198  1.00  0.00     0.029 A 
ATOM     50  N   UNL A   1      39.649  34.433  31.659  1.00  0.00    -0.354 N 
ATOM     51  C   UNL A   1      36.834  32.034  32.983  1.00  0.00     0.074 A 
ATOM     52  C   UNL A   1      35.486  32.366  32.465  1.00  0.00     0.031 C 
ATOM     53  C   UNL A   1      41.340  33.165  30.983  1.00  0.00     0.029 A 
ATOM     54  C   UNL A   1      41.032  34.195  32.018  1.00  0.00     0.049 A 
ATOM     55  H   UNL A   1      39.141  35.184  32.040  1.00  0.00     0.167 HD
ATOM     56  C   UNL A   1      37.730  30.975  32.841  1.00  0.00     0.031 A 
ATOM     57  C   UNL A   1      42.102  34.596  32.872  1.00  0.00     0.031 A 
ATOM     58  C   UNL A   1      38.487  30.902  34.014  1.00  0.00     0.049 A 
ATOM     59  C   UNL A   1      42.080  33.380  33.773  1.00  0.00     0.074 A 
ATOM     60  C   UNL A   1      38.305  30.898  35.368  1.00  0.00     0.029 A 
ATOM     61  N   UNL A   1      39.803  30.938  33.783  1.00  0.00    -0.354 N 
ATOM     62  N   UNL A   1      42.919  32.386  33.816  1.00  0.00    -0.248 NA
ATOM     63  C   UNL A   1      41.141  33.476  34.928  1.00  0.00     0.031 C 
ATOM     64  C   UNL A   1      39.569  30.516  35.902  1.00  0.00     0.029 A 
ATOM     65  C   UNL A   1      40.473  30.410  34.842  1.00  0.00     0.049 A 
ATOM     66  H   UNL A   1      40.225  31.293  32.967  1.00  0.00     0.167 HD
ATOM     67  C   UNL A   1      42.434  31.626  34.872  1.00  0.00     0.074 A 
ATOM     68  C   UNL A   1      41.698  32.556  35.717  1.00  0.00     0.031 C 
ATOM     69  C   UNL A   1      41.893  30.397  34.591  1.00  0.00     0.031 A 
BRANCH  56  70
ATOM     70  C   UNL A   1      38.220  29.850  31.742  1.00  0.00    -0.014 A 
ATOM     71  C   UNL A   1      38.948  30.073  30.539  1.00  0.00     0.009 A 
ATOM     72  C   UNL A   1      37.978  28.493  31.972  1.00  0.00     0.009 A 
ATOM     73  C   UNL A   1      39.267  29.103  29.567  1.00  0.00     0.001 A 
ATOM     74  C   UNL A   1      38.328  27.491  31.029  1.00  0.00     0.001 A 
ATOM     75  C   UNL A   1      38.938  27.794  29.813  1.00  0.00     0.000 A 
ENDBRANCH  56  70
BRANCH  57  76
ATOM     76  C   UNL A   1      42.984  35.620  33.856  1.00  0.00    -0.014 A 
ATOM     77  C   UNL A   1      42.485  36.898  34.191  1.00  0.00     0.009 A 
ATOM     78  C   UNL A   1      44.424  35.600  34.014  1.00  0.00     0.009 A 
ATOM     79  C   UNL A   1      43.327  37.991  34.624  1.00  0.00     0.001 A 
ATOM     80  C   UNL A   1      45.269  36.680  34.383  1.00  0.00     0.001 A 
ATOM     81  C   UNL A   1      44.715  37.892  34.702  1.00  0.00     0.000 A 
ENDBRANCH  57  76
BRANCH  69  82
ATOM     82  C   UNL A   1      42.540  29.707  33.404  1.00  0.00    -0.014 A 
ATOM     83  C   UNL A   1      41.865  29.721  32.183  1.00  0.00     0.009 A 
ATOM     84  C   UNL A   1      43.696  28.901  33.486  1.00  0.00     0.009 A 
ATOM     85  C   UNL A   1      42.300  28.928  31.114  1.00  0.00     0.001 A 
ATOM     86  C   UNL A   1      44.123  28.092  32.433  1.00  0.00     0.001 A 
ATOM     87  C   UNL A   1      43.416  28.102  31.244  1.00  0.00     0.000 A 
ENDBRANCH  69  82
ENDBRANCH  43  44
ENDBRANCH  36  38
ENDBRANCH  35  36
ENDBRANCH  34  35
ENDBRANCH  33  34
ENDBRANCH  32  33
ENDBRANCH  31  32
ENDBRANCH   1  31
TORSDOF 21
ENDMDL
MODEL 2
REMARK VINA RESULT:     -10.7      4.786     10.344
REMARK SMILES Cc1c(CC(=O)OCCOCCOCCOC(=O)c2ccc(-c3c4nc(c(-c5ccccc5)c5ccc([nH]5)c(-c5ccccc5)c5nc(c(-c6ccccc6)c6ccc3[nH]6)C=C5)C=C4)cc2)cc(-c2ccc(S(C)(=O)=O)cc2)n1-c1ccccc1
REMARK SMILES IDX 11 1 10 2 9 3 8 4 7 5 5 6 6 7 4 8 3 9 1 10 2 11 79 12 67 13
REMARK SMILES IDX 68 14 80 15 81 16 85 17 82 18 84 19 83 20 69 21 70 22 78 23
REMARK SMILES IDX 71 24 77 25 72 26 73 27 74 28 75 29 76 30 12 31 13 32 14 33
REMARK SMILES IDX 15 34 16 35 17 36 18 37 19 38 20 39 66 40 21 41 65 42 22 43
REMARK SMILES IDX 23 44 24 45 59 46 25 47 64 48 58 49 60 50 26 51 63 52 57 53
REMARK SMILES IDX 56 54 27 56 49 57 34 58 48 59 35 60 38 61 47 62 61 63 36 64
REMARK SMILES IDX 37 65 46 67 62 68 39 69 28 70 29 71 33 72 30 73 32 74 31 75
REMARK SMILES IDX 50 76 51 77 55 78 52 79 54 80 53 81 40 82 41 83 45 84 42 85
REMARK SMILES IDX 44 86 43 87
REMARK H PARENT 60 55 38 66
REMARK Flexibility Score: inf
ROOT
ATOM      1  C   UNL A   1      36.272  22.507  25.785  1.00  0.00     0.188 C 
ENDROOT
BRANCH   1   2
ATOM      2  O   UNL A   1      35.579  21.488  26.494  1.00  0.00    -0.376 OA
BRANCH   2   3
ATOM      3  C   UNL A   1      34.281  21.094  26.060  1.00  0.00     0.202 C 
BRANCH   3   4
ATOM      4  C   UNL A   1      34.199  20.304  24.749  1.00  0.00     0.261 C 
BRANCH   4   5
ATOM      5  O   UNL A   1      33.069  20.724  23.958  1.00  0.00    -0.463 OA
BRANCH   5   6
ATOM      6  C   UNL A   1      33.139  21.966  23.418  1.00  0.00     0.310 C 
ATOM      7  O   UNL A   1      34.187  22.490  23.043  1.00  0.00    -0.252 OA
BRANCH   6   8
ATOM      8  C   UNL A   1      31.807  22.665  23.230  1.00  0.00     0.160 C 
BRANCH   8   9
ATOM      9  C   UNL A   1      31.690  24.122  23.591  1.00  0.00    -0.015 A 
ATOM     10  C   UNL A   1      32.118  24.129  26.182  1.00  0.00     0.065 C 
ATOM     11  C   UNL A   1      31.870  24.722  24.836  1.00  0.00     0.024 A 
ATOM     12  N   UNL A   1      31.694  26.089  24.679  1.00  0.00    -0.314 N 
ATOM     13  C   UNL A   1      31.140  25.137  22.752  1.00  0.00     0.033 A 
ATOM     14  C   UNL A   1      31.023  26.305  23.489  1.00  0.00     0.053 A 
BRANCH  12  15
ATOM     15  C   UNL A   1      32.122  27.090  25.580  1.00  0.00     0.046 A 
ATOM     16  C   UNL A   1      31.288  27.516  26.615  1.00  0.00     0.026 A 
ATOM     17  C   UNL A   1      33.359  27.702  25.349  1.00  0.00     0.026 A 
ATOM     18  C   UNL A   1      31.708  28.564  27.434  1.00  0.00     0.002 A 
ATOM     19  C   UNL A   1      33.757  28.764  26.160  1.00  0.00     0.002 A 
ATOM     20  C   UNL A   1      32.934  29.191  27.203  1.00  0.00     0.000 A 
ENDBRANCH  12  15
BRANCH  14  21
ATOM     21  C   UNL A   1      30.317  27.540  23.161  1.00  0.00    -0.001 A 
ATOM     22  C   UNL A   1      30.978  28.638  22.597  1.00  0.00     0.011 A 
ATOM     23  C   UNL A   1      28.955  27.641  23.479  1.00  0.00     0.011 A 
ATOM     24  C   UNL A   1      30.286  29.829  22.361  1.00  0.00     0.021 A 
ATOM     25  C   UNL A   1      28.259  28.827  23.253  1.00  0.00     0.021 A 
ATOM     26  C   UNL A   1      28.932  29.919  22.703  1.00  0.00     0.067 A 
BRANCH  26  27
ATOM     27  S   UNL A   1      28.056  31.431  22.386  1.00  0.00     0.175 S 
ATOM     28  C   UNL A   1      29.222  32.703  22.792  1.00  0.00     0.163 C 
ATOM     29  O   UNL A   1      27.796  31.482  20.964  1.00  0.00    -0.224 OA
ATOM     30  O   UNL A   1      26.967  31.520  23.350  1.00  0.00    -0.224 OA
ENDBRANCH  26  27
ENDBRANCH  14  21
ENDBRANCH   8   9
ENDBRANCH   6   8
ENDBRANCH   5   6
ENDBRANCH   4   5
ENDBRANCH   3   4
ENDBRANCH   2   3
ENDBRANCH   1   2
BRANCH   1  31
ATOM     31  C   UNL A   1      37.570  22.164  25.042  1.00  0.00     0.188 C 
BRANCH  31  32
ATOM     32  O   UNL A   1      38.528  21.350  25.690  1.00  0.00    -0.376 OA
BRANCH  32  33
ATOM     33  C   UNL A   1      39.583  22.032  26.358  1.00  0.00     0.202 C 
BRANCH  33  34
ATOM     34  C   UNL A   1      40.872  21.203  26.715  1.00  0.00     0.261 C 
BRANCH  34  35
ATOM     35  O   UNL A   1      41.728  20.584  25.663  1.00  0.00    -0.460 OA
BRANCH  35  36
ATOM     36  C   UNL A   1      43.111  20.818  25.690  1.00  0.00     0.338 C 
ATOM     37  O   UNL A   1      43.933  19.914  25.656  1.00  0.00    -0.246 OA
BRANCH  36  38
ATOM     38  C   UNL A   1      43.575  22.301  25.868  1.00  0.00     0.060 A 
ATOM     39  C   UNL A   1      44.241  22.953  26.955  1.00  0.00     0.016 A 
ATOM     40  C   UNL A   1      43.249  23.200  24.913  1.00  0.00     0.016 A 
ATOM     41  C   UNL A   1      44.590  24.477  27.056  1.00  0.00     0.010 A 
ATOM     42  C   UNL A   1      43.627  24.597  25.064  1.00  0.00     0.010 A 
ATOM     43  C   UNL A   1      44.257  25.437  26.080  1.00  0.00    -0.014 A 
BRANCH  43  44
ATOM     44  C   UNL A   1      44.852  27.131  25.754  1.00  0.00     0.031 A 
ATOM     45  C   UNL A   1      43.629  27.983  25.404  1.00  0.00     0.074 A 
ATOM     46  C   UNL A   1      45.821  28.182  26.118  1.00  0.00     0.049 A 
ATOM     47  N   UNL A   1      43.245  28.911  26.255  1.00  0.00    -0.248 NA
ATOM     48  C   UNL A   1      42.477  27.235  24.927  1.00  0.00     0.031 C 
ATOM     49  C   UNL A   1      46.971  28.144  27.053  1.00  0.00     0.029 A 
ATOM     50  N   UNL A   1      45.845  29.699  25.866  1.00  0.00    -0.354 N 
ATOM     51  C   UNL A   1      42.473  28.113  27.111  1.00  0.00     0.074 A 
ATOM     52  C   UNL A   1      41.814  27.258  26.095  1.00  0.00     0.031 C 
ATOM     53  C   UNL A   1      47.355  29.387  27.462  1.00  0.00     0.029 A 
ATOM     54  C   UNL A   1      46.645  30.502  26.768  1.00  0.00     0.049 A 
ATOM     55  H   UNL A   1      45.341  30.105  25.125  1.00  0.00     0.167 HD
ATOM     56  C   UNL A   1      43.076  27.911  28.352  1.00  0.00     0.031 A 
ATOM     57  C   UNL A   1      47.001  31.831  27.143  1.00  0.00     0.031 A 
ATOM     58  C   UNL A   1      42.918  29.086  29.094  1.00  0.00     0.049 A 
ATOM     59  C   UNL A   1      46.227  31.866  28.444  1.00  0.00     0.074 A 
ATOM     60  C   UNL A   1      41.938  29.975  29.432  1.00  0.00     0.029 A 
ATOM     61  N   UNL A   1      44.077  29.566  29.555  1.00  0.00    -0.354 N 
ATOM     62  N   UNL A   1      46.684  31.803  29.661  1.00  0.00    -0.248 NA
ATOM     63  C   UNL A   1      44.807  32.299  28.313  1.00  0.00     0.031 C 
ATOM     64  C   UNL A   1      42.514  30.776  30.460  1.00  0.00     0.029 A 
ATOM     65  C   UNL A   1      43.848  30.390  30.613  1.00  0.00     0.049 A 
ATOM     66  H   UNL A   1      44.964  29.355  29.184  1.00  0.00     0.167 HD
ATOM     67  C   UNL A   1      45.532  31.955  30.423  1.00  0.00     0.074 A 
ATOM     68  C   UNL A   1      44.595  32.678  29.574  1.00  0.00     0.031 C 
ATOM     69  C   UNL A   1      45.092  30.881  31.153  1.00  0.00     0.031 A 
BRANCH  56  70
ATOM     70  C   UNL A   1      43.951  26.791  29.185  1.00  0.00    -0.014 A 
ATOM     71  C   UNL A   1      45.356  26.786  29.416  1.00  0.00     0.009 A 
ATOM     72  C   UNL A   1      43.305  25.721  29.810  1.00  0.00     0.009 A 
ATOM     73  C   UNL A   1      46.091  25.761  30.047  1.00  0.00     0.001 A 
ATOM     74  C   UNL A   1      44.020  24.698  30.489  1.00  0.00     0.001 A 
ATOM     75  C   UNL A   1      45.411  24.696  30.578  1.00  0.00     0.000 A 
ENDBRANCH  56  70
BRANCH  57  76
ATOM     76  C   UNL A   1      47.234  33.475  26.947  1.00  0.00    -0.014 A 
ATOM     77  C   UNL A   1      46.446  34.206  26.032  1.00  0.00     0.009 A 
ATOM     78  C   UNL A   1      48.471  34.185  27.204  1.00  0.00     0.009 A 
ATOM     79  C   UNL A   1      46.855  35.473  25.466  1.00  0.00     0.001 A 
ATOM     80  C   UNL A   1      48.910  35.399  26.614  1.00  0.00     0.001 A 
ATOM     81  C   UNL A   1      48.089  36.059  25.738  1.00  0.00     0.000 A 
ENDBRANCH  57  76
BRANCH  69  82
ATOM     82  C   UNL A   1      46.212  29.989  31.655  1.00  0.00    -0.014 A 
ATOM     83  C   UNL A   1      45.871  28.785  32.274  1.00  0.00     0.009 A 
ATOM     84  C   UNL A   1      47.572  30.367  31.698  1.00  0.00     0.009 A 
ATOM     85  C   UNL A   1      46.838  28.025  32.944  1.00  0.00     0.001 A 
ATOM     86  C   UNL A   1      48.535  29.625  32.381  1.00  0.00     0.001 A 
ATOM     87  C   UNL A   1      48.163  28.452  33.013  1.00  0.00     0.000 A 
ENDBRANCH  69  82
ENDBRANCH  43  44
ENDBRANCH  36  38
ENDBRANCH  35  36
ENDBRANCH  34  35
ENDBRANCH  33  34
ENDBRANCH  32  33
ENDBRANCH  31  32
ENDBRANCH   1  31
TORSDOF 21
ENDMDL
MODEL 3
REMARK VINA RESULT:     -10.2      5.419     10.701
REMARK SMILES Cc1c(CC(=O)OCCOCCOCCOC(=O)c2ccc(-c3c4nc(c(-c5ccccc5)c5ccc([nH]5)c(-c5ccccc5)c5nc(c(-c6ccccc6)c6ccc3[nH]6)C=C5)C=C4)cc2)cc(-c2ccc(S(C)(=O)=O)cc2)n1-c1ccccc1
REMARK SMILES IDX 11 1 10 2 9 3 8 4 7 5 5 6 6 7 4 8 3 9 1 10 2 11 79 12 67 13
REMARK SMILES IDX 68 14 80 15 81 16 85 17 82 18 84 19 83 20 69 21 70 22 78 23
REMARK SMILES IDX 71 24 77 25 72 26 73 27 74 28 75 29 76 30 12 31 13 32 14 33
REMARK SMILES IDX 15 34 16 35 17 36 18 37 19 38 20 39 66 40 21 41 65 42 22 43
REMARK SMILES IDX 23 44 24 45 59 46 25 47 64 48 58 49 60 50 26 51 63 52 57 53
REMARK SMILES IDX 56 54 27 56 49 57 34 58 48 59 35 60 38 61 47 62 61 63 36 64
REMARK SMILES IDX 37 65 46 67 62 68 39 69 28 70 29 71 33 72 30 73 32 74 31 75
REMARK SMILES IDX 50 76 51 77 55 78 52 79 54 80 53 81 40 82 41 83 45 84 42 85
REMARK SMILES IDX 44 86 43 87
REMARK H PARENT 60 55 38 66
REMARK Flexibility Score: inf
ROOT
ATOM      1  C   UNL A   1      34.796  20.208  25.377  1.00  0.00     0.188 C 
ENDROOT
BRANCH   1   2
ATOM      2  O   UNL A   1      34.140  19.187  24.637  1.00  0.00    -0.376 OA
BRANCH   2   3
ATOM      3  C   UNL A   1      32.870  19.456  24.050  1.00  0.00     0.202 C 
BRANCH   3   4
ATOM      4  C   UNL A   1      32.340  20.889  24.172  1.00  0.00     0.261 C 
BRANCH   4   5
ATOM      5  O   UNL A   1      31.461  21.023  25.308  1.00  0.00    -0.463 OA
BRANCH   5   6
ATOM      6  C   UNL A   1      31.371  22.259  25.858  1.00  0.00     0.310 C 
ATOM      7  O   UNL A   1      30.399  22.653  26.500  1.00  0.00    -0.252 OA
BRANCH   6   8
ATOM      8  C   UNL A   1      32.602  23.129  25.696  1.00  0.00     0.160 C 
BRANCH   8   9
ATOM      9  C   UNL A   1      32.427  24.610  25.491  1.00  0.00    -0.015 A 
ATOM     10  C   UNL A   1      32.113  24.818  22.892  1.00  0.00     0.065 C 
ATOM     11  C   UNL A   1      32.176  25.295  24.305  1.00  0.00     0.024 A 
ATOM     12  N   UNL A   1      32.057  26.643  24.609  1.00  0.00    -0.314 N 
ATOM     13  C   UNL A   1      32.718  25.616  26.461  1.00  0.00     0.033 A 
ATOM     14  C   UNL A   1      32.619  26.858  25.854  1.00  0.00     0.053 A 
BRANCH  12  15
ATOM     15  C   UNL A   1      31.466  27.631  23.787  1.00  0.00     0.046 A 
ATOM     16  C   UNL A   1      32.261  28.477  23.014  1.00  0.00     0.026 A 
ATOM     17  C   UNL A   1      30.078  27.794  23.845  1.00  0.00     0.026 A 
ATOM     18  C   UNL A   1      31.651  29.495  22.280  1.00  0.00     0.002 A 
ATOM     19  C   UNL A   1      29.481  28.828  23.126  1.00  0.00     0.002 A 
ATOM     20  C   UNL A   1      30.267  29.675  22.342  1.00  0.00     0.000 A 
ENDBRANCH  12  15
BRANCH  14  21
ATOM     21  C   UNL A   1      33.038  28.166  26.348  1.00  0.00    -0.001 A 
ATOM     22  C   UNL A   1      34.378  28.449  26.638  1.00  0.00     0.011 A 
ATOM     23  C   UNL A   1      32.056  29.137  26.593  1.00  0.00     0.011 A 
ATOM     24  C   UNL A   1      34.733  29.688  27.176  1.00  0.00     0.021 A 
ATOM     25  C   UNL A   1      32.402  30.374  27.135  1.00  0.00     0.021 A 
ATOM     26  C   UNL A   1      33.739  30.640  27.433  1.00  0.00     0.067 A 
BRANCH  26  27
ATOM     27  S   UNL A   1      34.201  32.218  28.102  1.00  0.00     0.175 S 
ATOM     28  C   UNL A   1      32.847  33.283  27.682  1.00  0.00     0.163 C 
ATOM     29  O   UNL A   1      34.245  32.075  29.540  1.00  0.00    -0.224 OA
ATOM     30  O   UNL A   1      35.364  32.688  27.361  1.00  0.00    -0.224 OA
ENDBRANCH  26  27
ENDBRANCH  14  21
ENDBRANCH   8   9
ENDBRANCH   6   8
ENDBRANCH   5   6
ENDBRANCH   4   5
ENDBRANCH   3   4
ENDBRANCH   2   3
ENDBRANCH   1   2
BRANCH   1  31
ATOM     31  C   UNL A   1      36.082  20.837  24.824  1.00  0.00     0.188 C 
BRANCH  31  32
ATOM     32  O   UNL A   1      36.154  22.245  24.710  1.00  0.00    -0.376 OA
BRANCH  32  33
ATOM     33  C   UNL A   1      37.430  22.829  24.946  1.00  0.00     0.202 C 
BRANCH  33  34
ATOM     34  C   UNL A   1      38.509  21.947  25.676  1.00  0.00     0.261 C 
BRANCH  34  35
ATOM     35  O   UNL A   1      39.314  22.469  26.817  1.00  0.00    -0.460 OA
BRANCH  35  36
ATOM     36  C   UNL A   1      40.712  22.361  26.766  1.00  0.00     0.338 C 
ATOM     37  O   UNL A   1      41.281  21.342  26.406  1.00  0.00    -0.246 OA
BRANCH  36  38
ATOM     38  C   UNL A   1      41.536  23.583  27.291  1.00  0.00     0.060 A 
ATOM     39  C   UNL A   1      42.436  23.704  28.398  1.00  0.00     0.016 A 
ATOM     40  C   UNL A   1      41.351  24.787  26.705  1.00  0.00     0.016 A 
ATOM     41  C   UNL A   1      43.151  25.011  28.881  1.00  0.00     0.010 A 
ATOM     42  C   UNL A   1      42.068  25.955  27.194  1.00  0.00     0.010 A 
ATOM     43  C   UNL A   1      42.973  26.280  28.294  1.00  0.00    -0.014 A 
BRANCH  43  44
ATOM     44  C   UNL A   1      43.929  27.831  28.384  1.00  0.00     0.031 A 
ATOM     45  C   UNL A   1      44.454  27.960  29.817  1.00  0.00     0.074 A 
ATOM     46  C   UNL A   1      44.837  28.756  27.678  1.00  0.00     0.049 A 
ATOM     47  N   UNL A   1      45.747  27.837  30.027  1.00  0.00    -0.248 NA
ATOM     48  C   UNL A   1      43.712  27.200  30.811  1.00  0.00     0.031 C 
ATOM     49  C   UNL A   1      45.310  28.749  26.273  1.00  0.00     0.029 A 
ATOM     50  N   UNL A   1      45.775  29.866  28.178  1.00  0.00    -0.354 N 
ATOM     51  C   UNL A   1      45.823  26.439  30.099  1.00  0.00     0.074 A 
ATOM     52  C   UNL A   1      44.588  26.183  30.877  1.00  0.00     0.031 C 
ATOM     53  C   UNL A   1      46.452  29.474  26.102  1.00  0.00     0.029 A 
ATOM     54  C   UNL A   1      46.881  30.229  27.316  1.00  0.00     0.049 A 
ATOM     55  H   UNL A   1      45.632  30.311  29.044  1.00  0.00     0.167 HD
ATOM     56  C   UNL A   1      46.443  25.873  28.986  1.00  0.00     0.031 A 
ATOM     57  C   UNL A   1      48.068  31.013  27.206  1.00  0.00     0.031 A 
ATOM     58  C   UNL A   1      47.819  26.083  29.115  1.00  0.00     0.049 A 
ATOM     59  C   UNL A   1      49.052  29.868  27.311  1.00  0.00     0.074 A 
ATOM     60  C   UNL A   1      48.806  25.944  30.049  1.00  0.00     0.029 A 
ATOM     61  N   UNL A   1      48.352  26.688  28.050  1.00  0.00    -0.354 N 
ATOM     62  N   UNL A   1      49.773  29.330  26.371  1.00  0.00    -0.248 NA
ATOM     63  C   UNL A   1      49.439  29.506  28.705  1.00  0.00     0.031 C 
ATOM     64  C   UNL A   1      50.019  26.119  29.323  1.00  0.00     0.029 A 
ATOM     65  C   UNL A   1      49.691  26.455  28.007  1.00  0.00     0.049 A 
ATOM     66  H   UNL A   1      47.850  27.224  27.393  1.00  0.00     0.167 HD
ATOM     67  C   UNL A   1      50.524  28.391  27.068  1.00  0.00     0.074 A 
ATOM     68  C   UNL A   1      50.587  28.881  28.438  1.00  0.00     0.031 C 
ATOM     69  C   UNL A   1      50.277  27.062  26.837  1.00  0.00     0.031 A 
BRANCH  56  70
ATOM     70  C   UNL A   1      46.084  25.113  27.568  1.00  0.00    -0.014 A 
ATOM     71  C   UNL A   1      45.648  25.710  26.351  1.00  0.00     0.009 A 
ATOM     72  C   UNL A   1      46.254  23.731  27.451  1.00  0.00     0.009 A 
ATOM     73  C   UNL A   1      45.252  25.025  25.184  1.00  0.00     0.001 A 
ATOM     74  C   UNL A   1      45.903  23.023  26.271  1.00  0.00     0.001 A 
ATOM     75  C   UNL A   1      45.371  23.659  25.152  1.00  0.00     0.000 A 
ENDBRANCH  56  70
BRANCH  57  76
ATOM     76  C   UNL A   1      49.114  32.274  27.536  1.00  0.00    -0.014 A 
ATOM     77  C   UNL A   1      50.273  32.468  26.752  1.00  0.00     0.009 A 
ATOM     78  C   UNL A   1      49.286  32.907  28.829  1.00  0.00     0.009 A 
ATOM     79  C   UNL A   1      51.431  33.201  27.215  1.00  0.00     0.001 A 
ATOM     80  C   UNL A   1      50.437  33.579  29.317  1.00  0.00     0.001 A 
ATOM     81  C   UNL A   1      51.524  33.737  28.498  1.00  0.00     0.000 A 
ENDBRANCH  57  76
BRANCH  69  82
ATOM     82  C   UNL A   1      49.836  26.766  25.415  1.00  0.00    -0.014 A 
ATOM     83  C   UNL A   1      50.611  27.261  24.366  1.00  0.00     0.009 A 
ATOM     84  C   UNL A   1      48.602  26.170  25.073  1.00  0.00     0.009 A 
ATOM     85  C   UNL A   1      50.149  27.206  23.045  1.00  0.00     0.001 A 
ATOM     86  C   UNL A   1      48.126  26.131  23.762  1.00  0.00     0.001 A 
ATOM     87  C   UNL A   1      48.902  26.659  22.745  1.00  0.00     0.000 A 
ENDBRANCH  69  82
ENDBRANCH  43  44
ENDBRANCH  36  38
ENDBRANCH  35  36
ENDBRANCH  34  35
ENDBRANCH  33  34
ENDBRANCH  32  33
ENDBRANCH  31  32
ENDBRANCH   1  31
TORSDOF 21
ENDMDL
