MODEL 1
REMARK VINA RESULT:      -8.6      0.000      0.000
REMARK SMILES O=C(CC1(CC(=O)OCCOCCOCCOC(=O)c2ccc(-c3c4nc(c(-c5ccccc5)c5ccc([nH]5)c(-c5ccccc5)c5nc(c(-c6ccccc6)c6ccc3[nH]6)C=C5)C=C4)cc2)CCCCC1)Nc1ccc2ccccc2n1
REMARK SMILES IDX 12 1 11 2 10 3 9 4 8 5 6 6 7 7 5 8 4 9 68 10 72 11 69 12
REMARK SMILES IDX 71 13 70 14 3 15 2 16 1 17 73 18 74 20 75 21 83 22 76 23
REMARK SMILES IDX 82 24 77 25 81 26 78 27 80 28 79 29 13 30 14 31 15 32 16 33
REMARK SMILES IDX 17 34 18 35 19 36 20 37 21 38 67 39 22 40 66 41 23 42 24 43
REMARK SMILES IDX 25 44 60 45 26 46 65 47 59 48 61 49 27 50 64 51 58 52 57 53
REMARK SMILES IDX 28 55 50 56 35 57 49 58 36 59 39 60 48 61 62 62 37 63 38 64
REMARK SMILES IDX 47 66 63 67 40 68 29 69 30 70 34 71 31 72 33 73 32 74 51 75
REMARK SMILES IDX 52 76 56 77 53 78 55 79 54 80 41 81 42 82 46 83 43 84 45 85
REMARK SMILES IDX 44 86
REMARK H PARENT 73 19 61 54 39 65
REMARK Flexibility Score: inf
ROOT
ATOM      1  C   UNL A   1      44.169  18.914  24.429  1.00  0.00     0.188 C 
ENDROOT
BRANCH   1   2
ATOM      2  O   UNL A   1      45.555  18.658  24.602  1.00  0.00    -0.376 OA
BRANCH   2   3
ATOM      3  C   UNL A   1      46.371  19.684  25.158  1.00  0.00     0.202 C 
BRANCH   3   4
ATOM      4  C   UNL A   1      45.744  21.081  25.253  1.00  0.00     0.261 C 
BRANCH   4   5
ATOM      5  O   UNL A   1      46.691  22.177  25.132  1.00  0.00    -0.463 OA
BRANCH   5   6
ATOM      6  C   UNL A   1      46.172  23.353  24.708  1.00  0.00     0.306 C 
ATOM      7  O   UNL A   1      46.730  24.074  23.882  1.00  0.00    -0.252 OA
BRANCH   6   8
ATOM      8  C   UNL A   1      44.762  23.708  25.186  1.00  0.00     0.130 C 
BRANCH   8   9
ATOM      9  C   UNL A   1      44.329  24.721  26.312  1.00  0.00    -0.010 C 
ATOM     10  C   UNL A   1      45.576  24.962  27.231  1.00  0.00     0.008 C 
ATOM     11  C   UNL A   1      43.161  24.234  27.196  1.00  0.00     0.008 C 
ATOM     12  C   UNL A   1      45.926  23.797  28.150  1.00  0.00     0.001 C 
ATOM     13  C   UNL A   1      43.523  23.054  28.090  1.00  0.00     0.001 C 
ATOM     14  C   UNL A   1      44.720  23.380  28.977  1.00  0.00     0.000 C 
BRANCH   9  15
ATOM     15  C   UNL A   1      43.901  26.080  25.672  1.00  0.00     0.108 C 
BRANCH  15  16
ATOM     16  C   UNL A   1      44.968  27.165  25.562  1.00  0.00     0.226 C 
ATOM     17  O   UNL A   1      45.722  27.152  24.592  1.00  0.00    -0.275 OA
ATOM     18  N   UNL A   1      44.879  28.148  26.545  1.00  0.00    -0.311 N 
ATOM     19  H   UNL A   1      44.558  27.938  27.451  1.00  0.00     0.171 HD
BRANCH  18  20
ATOM     20  C   UNL A   1      45.266  29.459  26.190  1.00  0.00     0.133 A 
ATOM     21  C   UNL A   1      46.640  29.606  26.159  1.00  0.00     0.048 A 
ATOM     22  N   UNL A   1      44.428  30.482  26.437  1.00  0.00    -0.231 NA
ATOM     23  C   UNL A   1      47.152  30.660  26.899  1.00  0.00     0.014 A 
ATOM     24  C   UNL A   1      44.932  31.561  27.057  1.00  0.00     0.073 A 
ATOM     25  C   UNL A   1      46.282  31.610  27.445  1.00  0.00     0.000 A 
ATOM     26  C   UNL A   1      44.114  32.628  27.408  1.00  0.00     0.029 A 
ATOM     27  C   UNL A   1      46.716  32.571  28.370  1.00  0.00     0.010 A 
ATOM     28  C   UNL A   1      44.565  33.639  28.262  1.00  0.00     0.002 A 
ATOM     29  C   UNL A   1      45.847  33.571  28.797  1.00  0.00     0.001 A 
ENDBRANCH  18  20
ENDBRANCH  15  16
ENDBRANCH   9  15
ENDBRANCH   8   9
ENDBRANCH   6   8
ENDBRANCH   5   6
ENDBRANCH   4   5
ENDBRANCH   3   4
ENDBRANCH   2   3
ENDBRANCH   1   2
BRANCH   1  30
ATOM     30  C   UNL A   1      43.240  18.769  25.637  1.00  0.00     0.188 C 
BRANCH  30  31
ATOM     31  O   UNL A   1      42.490  19.939  25.910  1.00  0.00    -0.376 OA
BRANCH  31  32
ATOM     32  C   UNL A   1      41.127  19.711  26.239  1.00  0.00     0.202 C 
BRANCH  32  33
ATOM     33  C   UNL A   1      40.599  20.948  26.968  1.00  0.00     0.261 C 
BRANCH  33  34
ATOM     34  O   UNL A   1      40.505  22.112  26.121  1.00  0.00    -0.460 OA
BRANCH  34  35
ATOM     35  C   UNL A   1      39.327  22.779  26.142  1.00  0.00     0.338 C 
ATOM     36  O   UNL A   1      38.229  22.333  25.846  1.00  0.00    -0.246 OA
BRANCH  35  37
ATOM     37  C   UNL A   1      39.542  24.076  26.825  1.00  0.00     0.060 A 
ATOM     38  C   UNL A   1      40.144  25.115  26.102  1.00  0.00     0.016 A 
ATOM     39  C   UNL A   1      39.124  24.291  28.141  1.00  0.00     0.016 A 
ATOM     40  C   UNL A   1      40.362  26.358  26.698  1.00  0.00     0.010 A 
ATOM     41  C   UNL A   1      39.359  25.529  28.746  1.00  0.00     0.010 A 
ATOM     42  C   UNL A   1      40.006  26.558  28.037  1.00  0.00    -0.014 A 
BRANCH  42  43
ATOM     43  C   UNL A   1      40.493  27.758  28.760  1.00  0.00     0.031 A 
ATOM     44  C   UNL A   1      39.546  28.912  28.940  1.00  0.00     0.074 A 
ATOM     45  C   UNL A   1      41.738  27.830  29.260  1.00  0.00     0.049 A 
ATOM     46  N   UNL A   1      39.753  30.085  29.481  1.00  0.00    -0.248 NA
ATOM     47  C   UNL A   1      38.177  28.714  28.436  1.00  0.00     0.031 C 
ATOM     48  C   UNL A   1      42.738  26.765  29.211  1.00  0.00     0.029 A 
ATOM     49  N   UNL A   1      42.374  28.862  29.907  1.00  0.00    -0.354 N 
ATOM     50  C   UNL A   1      38.548  30.765  29.374  1.00  0.00     0.074 A 
ATOM     51  C   UNL A   1      37.623  29.888  28.690  1.00  0.00     0.031 C 
ATOM     52  C   UNL A   1      43.867  27.202  29.797  1.00  0.00     0.029 A 
ATOM     53  C   UNL A   1      43.682  28.589  30.225  1.00  0.00     0.049 A 
ATOM     54  H   UNL A   1      41.933  29.715  30.123  1.00  0.00     0.167 HD
ATOM     55  C   UNL A   1      38.234  32.009  29.805  1.00  0.00     0.031 A 
ATOM     56  C   UNL A   1      44.628  29.377  30.774  1.00  0.00     0.031 A 
ATOM     57  C   UNL A   1      39.158  32.897  30.459  1.00  0.00     0.049 A 
ATOM     58  C   UNL A   1      44.287  30.795  31.154  1.00  0.00     0.074 A 
ATOM     59  C   UNL A   1      38.933  34.175  30.936  1.00  0.00     0.029 A 
ATOM     60  N   UNL A   1      40.488  32.600  30.715  1.00  0.00    -0.354 N 
ATOM     61  N   UNL A   1      43.140  31.425  31.064  1.00  0.00    -0.248 NA
ATOM     62  C   UNL A   1      45.375  31.611  31.715  1.00  0.00     0.031 C 
ATOM     63  C   UNL A   1      40.145  34.680  31.419  1.00  0.00     0.029 A 
ATOM     64  C   UNL A   1      41.107  33.688  31.308  1.00  0.00     0.049 A 
ATOM     65  H   UNL A   1      40.927  31.745  30.505  1.00  0.00     0.167 HD
ATOM     66  C   UNL A   1      43.361  32.696  31.583  1.00  0.00     0.074 A 
ATOM     67  C   UNL A   1      44.748  32.745  31.996  1.00  0.00     0.031 C 
ATOM     68  C   UNL A   1      42.491  33.729  31.709  1.00  0.00     0.031 A 
BRANCH  55  69
ATOM     69  C   UNL A   1      36.843  32.500  29.523  1.00  0.00    -0.014 A 
ATOM     70  C   UNL A   1      35.808  32.349  30.460  1.00  0.00     0.009 A 
ATOM     71  C   UNL A   1      36.564  33.124  28.297  1.00  0.00     0.009 A 
ATOM     72  C   UNL A   1      34.513  32.777  30.157  1.00  0.00     0.001 A 
ATOM     73  C   UNL A   1      35.277  33.578  28.009  1.00  0.00     0.001 A 
ATOM     74  C   UNL A   1      34.250  33.394  28.933  1.00  0.00     0.000 A 
ENDBRANCH  55  69
BRANCH  56  75
ATOM     75  C   UNL A   1      46.008  28.856  30.970  1.00  0.00    -0.014 A 
ATOM     76  C   UNL A   1      46.372  28.220  32.166  1.00  0.00     0.009 A 
ATOM     77  C   UNL A   1      46.974  29.009  29.963  1.00  0.00     0.009 A 
ATOM     78  C   UNL A   1      47.681  27.765  32.355  1.00  0.00     0.001 A 
ATOM     79  C   UNL A   1      48.272  28.528  30.144  1.00  0.00     0.001 A 
ATOM     80  C   UNL A   1      48.626  27.914  31.343  1.00  0.00     0.000 A 
ENDBRANCH  56  75
BRANCH  68  81
ATOM     81  C   UNL A   1      42.997  34.991  32.354  1.00  0.00    -0.014 A 
ATOM     82  C   UNL A   1      42.964  35.168  33.746  1.00  0.00     0.009 A 
ATOM     83  C   UNL A   1      43.565  35.997  31.555  1.00  0.00     0.009 A 
ATOM     84  C   UNL A   1      43.459  36.343  34.320  1.00  0.00     0.001 A 
ATOM     85  C   UNL A   1      44.087  37.154  32.135  1.00  0.00     0.001 A 
ATOM     86  C   UNL A   1      44.025  37.331  33.516  1.00  0.00     0.000 A 
ENDBRANCH  68  81
ENDBRANCH  42  43
ENDBRANCH  35  37
ENDBRANCH  34  35
ENDBRANCH  33  34
ENDBRANCH  32  33
ENDBRANCH  31  32
ENDBRANCH  30  31
ENDBRANCH   1  30
TORSDOF 21
ENDMDL
MODEL 2
REMARK VINA RESULT:      -8.6      5.202     11.602
REMARK SMILES O=C(CC1(CC(=O)OCCOCCOCCOC(=O)c2ccc(-c3c4nc(c(-c5ccccc5)c5ccc([nH]5)c(-c5ccccc5)c5nc(c(-c6ccccc6)c6ccc3[nH]6)C=C5)C=C4)cc2)CCCCC1)Nc1ccc2ccccc2n1
REMARK SMILES IDX 12 1 11 2 10 3 9 4 8 5 6 6 7 7 5 8 4 9 68 10 72 11 69 12
REMARK SMILES IDX 71 13 70 14 3 15 2 16 1 17 73 18 74 20 75 21 83 22 76 23
REMARK SMILES IDX 82 24 77 25 81 26 78 27 80 28 79 29 13 30 14 31 15 32 16 33
REMARK SMILES IDX 17 34 18 35 19 36 20 37 21 38 67 39 22 40 66 41 23 42 24 43
REMARK SMILES IDX 25 44 60 45 26 46 65 47 59 48 61 49 27 50 64 51 58 52 57 53
REMARK SMILES IDX 28 55 50 56 35 57 49 58 36 59 39 60 48 61 62 62 37 63 38 64
REMARK SMILES IDX 47 66 63 67 40 68 29 69 30 70 34 71 31 72 33 73 32 74 51 75
REMARK SMILES IDX 52 76 56 77 53 78 55 79 54 80 41 81 42 82 46 83 43 84 45 85
REMARK SMILES IDX 44 86
REMARK H PARENT 73 19 61 54 39 65
REMARK Flexibility Score: inf
ROOT
ATOM      1  C   UNL A   1      35.018  32.983  28.648  1.00  0.00     0.188 C 
ENDROOT
BRANCH   1   2
ATOM      2  O   UNL A   1      34.413  31.698  28.652  1.00  0.00    -0.376 OA
BRANCH   2   3
ATOM      3  C   UNL A   1      33.866  31.200  27.436  1.00  0.00     0.202 C 
BRANCH   3   4
ATOM      4  C   UNL A   1      34.041  29.699  27.170  1.00  0.00     0.261 C 
BRANCH   4   5
ATOM      5  O   UNL A   1      33.351  29.212  25.987  1.00  0.00    -0.463 OA
BRANCH   5   6
ATOM      6  C   UNL A   1      32.164  28.600  26.213  1.00  0.00     0.306 C 
ATOM      7  O   UNL A   1      31.605  28.604  27.308  1.00  0.00    -0.252 OA
BRANCH   6   8
ATOM      8  C   UNL A   1      31.441  28.007  25.001  1.00  0.00     0.130 C 
BRANCH   8   9
ATOM      9  C   UNL A   1      31.622  26.587  24.343  1.00  0.00    -0.010 C 
ATOM     10  C   UNL A   1      30.320  25.765  24.636  1.00  0.00     0.008 C 
ATOM     11  C   UNL A   1      32.831  25.786  24.874  1.00  0.00     0.008 C 
ATOM     12  C   UNL A   1      30.176  25.289  26.078  1.00  0.00     0.001 C 
ATOM     13  C   UNL A   1      32.680  25.340  26.323  1.00  0.00     0.001 C 
ATOM     14  C   UNL A   1      31.411  24.518  26.518  1.00  0.00     0.000 C 
BRANCH   9  15
ATOM     15  C   UNL A   1      31.793  26.732  22.797  1.00  0.00     0.108 C 
BRANCH  15  16
ATOM     16  C   UNL A   1      32.562  25.629  22.076  1.00  0.00     0.226 C 
ATOM     17  O   UNL A   1      33.652  25.901  21.578  1.00  0.00    -0.275 OA
ATOM     18  N   UNL A   1      31.974  24.370  22.177  1.00  0.00    -0.311 N 
ATOM     19  H   UNL A   1      30.997  24.264  22.227  1.00  0.00     0.171 HD
BRANCH  18  20
ATOM     20  C   UNL A   1      32.835  23.251  22.208  1.00  0.00     0.133 A 
ATOM     21  C   UNL A   1      32.217  22.133  22.737  1.00  0.00     0.048 A 
ATOM     22  N   UNL A   1      34.165  23.445  22.264  1.00  0.00    -0.231 NA
ATOM     23  C   UNL A   1      32.890  21.503  23.771  1.00  0.00     0.014 A 
ATOM     24  C   UNL A   1      34.854  22.758  23.189  1.00  0.00     0.073 A 
ATOM     25  C   UNL A   1      34.203  21.880  24.075  1.00  0.00     0.000 A 
ATOM     26  C   UNL A   1      36.219  22.956  23.354  1.00  0.00     0.029 A 
ATOM     27  C   UNL A   1      34.858  21.433  25.232  1.00  0.00     0.010 A 
ATOM     28  C   UNL A   1      36.899  22.440  24.461  1.00  0.00     0.002 A 
ATOM     29  C   UNL A   1      36.201  21.736  25.435  1.00  0.00     0.001 A 
ENDBRANCH  18  20
ENDBRANCH  15  16
ENDBRANCH   9  15
ENDBRANCH   8   9
ENDBRANCH   6   8
ENDBRANCH   5   6
ENDBRANCH   4   5
ENDBRANCH   3   4
ENDBRANCH   2   3
ENDBRANCH   1   2
BRANCH   1  30
ATOM     30  C   UNL A   1      34.578  34.004  29.700  1.00  0.00     0.188 C 
BRANCH  30  31
ATOM     31  O   UNL A   1      34.126  33.409  30.904  1.00  0.00    -0.376 OA
BRANCH  31  32
ATOM     32  C   UNL A   1      34.385  34.165  32.077  1.00  0.00     0.202 C 
BRANCH  32  33
ATOM     33  C   UNL A   1      34.791  33.196  33.190  1.00  0.00     0.261 C 
BRANCH  33  34
ATOM     34  O   UNL A   1      35.622  32.112  32.727  1.00  0.00    -0.460 OA
BRANCH  34  35
ATOM     35  C   UNL A   1      36.792  31.927  33.382  1.00  0.00     0.338 C 
ATOM     36  O   UNL A   1      36.973  32.000  34.588  1.00  0.00    -0.246 OA
BRANCH  35  37
ATOM     37  C   UNL A   1      37.776  31.371  32.425  1.00  0.00     0.060 A 
ATOM     38  C   UNL A   1      38.882  30.679  32.937  1.00  0.00     0.016 A 
ATOM     39  C   UNL A   1      37.605  31.489  31.043  1.00  0.00     0.016 A 
ATOM     40  C   UNL A   1      39.834  30.130  32.077  1.00  0.00     0.010 A 
ATOM     41  C   UNL A   1      38.567  30.957  30.181  1.00  0.00     0.010 A 
ATOM     42  C   UNL A   1      39.702  30.302  30.694  1.00  0.00    -0.014 A 
BRANCH  42  43
ATOM     43  C   UNL A   1      40.841  29.988  29.798  1.00  0.00     0.031 A 
ATOM     44  C   UNL A   1      40.909  28.612  29.192  1.00  0.00     0.074 A 
ATOM     45  C   UNL A   1      41.791  30.894  29.510  1.00  0.00     0.049 A 
ATOM     46  N   UNL A   1      41.830  28.082  28.430  1.00  0.00    -0.248 NA
ATOM     47  C   UNL A   1      39.784  27.714  29.493  1.00  0.00     0.031 C 
ATOM     48  C   UNL A   1      41.815  32.278  29.978  1.00  0.00     0.029 A 
ATOM     49  N   UNL A   1      42.930  30.772  28.751  1.00  0.00    -0.354 N 
ATOM     50  C   UNL A   1      41.401  26.788  28.169  1.00  0.00     0.074 A 
ATOM     51  C   UNL A   1      40.154  26.602  28.878  1.00  0.00     0.031 C 
ATOM     52  C   UNL A   1      42.922  32.877  29.502  1.00  0.00     0.029 A 
ATOM     53  C   UNL A   1      43.701  31.908  28.730  1.00  0.00     0.049 A 
ATOM     54  H   UNL A   1      43.169  29.948  28.268  1.00  0.00     0.167 HD
ATOM     55  C   UNL A   1      41.989  25.836  27.408  1.00  0.00     0.031 A 
ATOM     56  C   UNL A   1      44.909  32.131  28.176  1.00  0.00     0.031 A 
ATOM     57  C   UNL A   1      43.243  26.005  26.725  1.00  0.00     0.049 A 
ATOM     58  C   UNL A   1      45.595  31.024  27.417  1.00  0.00     0.074 A 
ATOM     59  C   UNL A   1      43.918  25.100  25.926  1.00  0.00     0.029 A 
ATOM     60  N   UNL A   1      44.017  27.154  26.773  1.00  0.00    -0.354 N 
ATOM     61  N   UNL A   1      45.175  29.808  27.161  1.00  0.00    -0.248 NA
ATOM     62  C   UNL A   1      46.926  31.324  26.868  1.00  0.00     0.031 C 
ATOM     63  C   UNL A   1      45.135  25.676  25.546  1.00  0.00     0.029 A 
ATOM     64  C   UNL A   1      45.184  26.966  26.049  1.00  0.00     0.049 A 
ATOM     65  H   UNL A   1      43.775  27.980  27.251  1.00  0.00     0.167 HD
ATOM     66  C   UNL A   1      46.172  29.211  26.399  1.00  0.00     0.074 A 
ATOM     67  C   UNL A   1      47.214  30.201  26.224  1.00  0.00     0.031 C 
ATOM     68  C   UNL A   1      46.218  27.956  25.887  1.00  0.00     0.031 A 
BRANCH  55  69
ATOM     69  C   UNL A   1      41.300  24.503  27.328  1.00  0.00    -0.014 A 
ATOM     70  C   UNL A   1      40.168  24.308  26.520  1.00  0.00     0.009 A 
ATOM     71  C   UNL A   1      41.795  23.423  28.075  1.00  0.00     0.009 A 
ATOM     72  C   UNL A   1      39.522  23.070  26.496  1.00  0.00     0.001 A 
ATOM     73  C   UNL A   1      41.167  22.179  28.025  1.00  0.00     0.001 A 
ATOM     74  C   UNL A   1      40.024  22.007  27.246  1.00  0.00     0.000 A 
ENDBRANCH  55  69
BRANCH  56  75
ATOM     75  C   UNL A   1      45.571  33.452  28.343  1.00  0.00    -0.014 A 
ATOM     76  C   UNL A   1      45.370  34.480  27.409  1.00  0.00     0.009 A 
ATOM     77  C   UNL A   1      46.424  33.686  29.433  1.00  0.00     0.009 A 
ATOM     78  C   UNL A   1      46.024  35.707  27.554  1.00  0.00     0.001 A 
ATOM     79  C   UNL A   1      47.054  34.923  29.591  1.00  0.00     0.001 A 
ATOM     80  C   UNL A   1      46.860  35.929  28.648  1.00  0.00     0.000 A 
ENDBRANCH  56  75
BRANCH  68  81
ATOM     81  C   UNL A   1      47.416  27.588  25.054  1.00  0.00    -0.014 A 
ATOM     82  C   UNL A   1      47.434  27.789  23.665  1.00  0.00     0.009 A 
ATOM     83  C   UNL A   1      48.565  27.079  25.680  1.00  0.00     0.009 A 
ATOM     84  C   UNL A   1      48.567  27.456  22.917  1.00  0.00     0.001 A 
ATOM     85  C   UNL A   1      49.707  26.778  24.935  1.00  0.00     0.001 A 
ATOM     86  C   UNL A   1      49.704  26.957  23.553  1.00  0.00     0.000 A 
ENDBRANCH  68  81
ENDBRANCH  42  43
ENDBRANCH  35  37
ENDBRANCH  34  35
ENDBRANCH  33  34
ENDBRANCH  32  33
ENDBRANCH  31  32
ENDBRANCH  30  31
ENDBRANCH   1  30
TORSDOF 21
ENDMDL
MODEL 3
REMARK VINA RESULT:      -8.4      1.664      6.232
REMARK SMILES O=C(CC1(CC(=O)OCCOCCOCCOC(=O)c2ccc(-c3c4nc(c(-c5ccccc5)c5ccc([nH]5)c(-c5ccccc5)c5nc(c(-c6ccccc6)c6ccc3[nH]6)C=C5)C=C4)cc2)CCCCC1)Nc1ccc2ccccc2n1
REMARK SMILES IDX 12 1 11 2 10 3 9 4 8 5 6 6 7 7 5 8 4 9 68 10 72 11 69 12
REMARK SMILES IDX 71 13 70 14 3 15 2 16 1 17 73 18 74 20 75 21 83 22 76 23
REMARK SMILES IDX 82 24 77 25 81 26 78 27 80 28 79 29 13 30 14 31 15 32 16 33
REMARK SMILES IDX 17 34 18 35 19 36 20 37 21 38 67 39 22 40 66 41 23 42 24 43
REMARK SMILES IDX 25 44 60 45 26 46 65 47 59 48 61 49 27 50 64 51 58 52 57 53
REMARK SMILES IDX 28 55 50 56 35 57 49 58 36 59 39 60 48 61 62 62 37 63 38 64
REMARK SMILES IDX 47 66 63 67 40 68 29 69 30 70 34 71 31 72 33 73 32 74 51 75
REMARK SMILES IDX 52 76 56 77 53 78 55 79 54 80 41 81 42 82 46 83 43 84 45 85
REMARK SMILES IDX 44 86
REMARK H PARENT 73 19 61 54 39 65
REMARK Flexibility Score: inf
ROOT
ATOM      1  C   UNL A   1      43.759  18.864  24.901  1.00  0.00     0.188 C 
ENDROOT
BRANCH   1   2
ATOM      2  O   UNL A   1      44.974  18.201  25.220  1.00  0.00    -0.376 OA
BRANCH   2   3
ATOM      3  C   UNL A   1      46.181  18.955  25.212  1.00  0.00     0.202 C 
BRANCH   3   4
ATOM      4  C   UNL A   1      46.089  20.401  25.715  1.00  0.00     0.261 C 
BRANCH   4   5
ATOM      5  O   UNL A   1      46.461  21.407  24.733  1.00  0.00    -0.463 OA
BRANCH   5   6
ATOM      6  C   UNL A   1      45.579  22.422  24.574  1.00  0.00     0.306 C 
ATOM      7  O   UNL A   1      45.559  23.144  23.579  1.00  0.00    -0.252 OA
BRANCH   6   8
ATOM      8  C   UNL A   1      44.479  22.564  25.630  1.00  0.00     0.130 C 
BRANCH   8   9
ATOM      9  C   UNL A   1      43.988  23.864  26.372  1.00  0.00    -0.010 C 
ATOM     10  C   UNL A   1      45.154  24.340  27.305  1.00  0.00     0.008 C 
ATOM     11  C   UNL A   1      42.723  23.668  27.235  1.00  0.00     0.008 C 
ATOM     12  C   UNL A   1      45.366  23.482  28.548  1.00  0.00     0.001 C 
ATOM     13  C   UNL A   1      42.950  22.789  28.459  1.00  0.00     0.001 C 
ATOM     14  C   UNL A   1      44.072  23.338  29.333  1.00  0.00     0.000 C 
BRANCH   9  15
ATOM     15  C   UNL A   1      43.680  24.989  25.332  1.00  0.00     0.108 C 
BRANCH  15  16
ATOM     16  C   UNL A   1      44.646  26.168  25.275  1.00  0.00     0.226 C 
ATOM     17  O   UNL A   1      44.263  27.263  25.681  1.00  0.00    -0.275 OA
ATOM     18  N   UNL A   1      45.934  25.825  24.871  1.00  0.00    -0.311 N 
ATOM     19  H   UNL A   1      46.092  25.097  24.228  1.00  0.00     0.171 HD
BRANCH  18  20
ATOM     20  C   UNL A   1      47.006  26.562  25.420  1.00  0.00     0.133 A 
ATOM     21  C   UNL A   1      47.530  27.470  24.519  1.00  0.00     0.048 A 
ATOM     22  N   UNL A   1      47.730  26.026  26.420  1.00  0.00    -0.231 NA
ATOM     23  C   UNL A   1      48.901  27.407  24.325  1.00  0.00     0.014 A 
ATOM     24  C   UNL A   1      49.067  26.054  26.302  1.00  0.00     0.073 A 
ATOM     25  C   UNL A   1      49.684  26.611  25.168  1.00  0.00     0.000 A 
ATOM     26  C   UNL A   1      49.879  25.459  27.260  1.00  0.00     0.029 A 
ATOM     27  C   UNL A   1      51.034  26.343  24.896  1.00  0.00     0.010 A 
ATOM     28  C   UNL A   1      51.245  25.265  27.034  1.00  0.00     0.002 A 
ATOM     29  C   UNL A   1      51.807  25.646  25.821  1.00  0.00     0.001 A 
ENDBRANCH  18  20
ENDBRANCH  15  16
ENDBRANCH   9  15
ENDBRANCH   8   9
ENDBRANCH   6   8
ENDBRANCH   5   6
ENDBRANCH   4   5
ENDBRANCH   3   4
ENDBRANCH   2   3
ENDBRANCH   1   2
BRANCH   1  30
ATOM     30  C   UNL A   1      42.698  19.016  25.995  1.00  0.00     0.188 C 
BRANCH  30  31
ATOM     31  O   UNL A   1      41.854  20.137  25.804  1.00  0.00    -0.376 OA
BRANCH  31  32
ATOM     32  C   UNL A   1      40.516  19.959  26.243  1.00  0.00     0.202 C 
BRANCH  32  33
ATOM     33  C   UNL A   1      40.006  21.299  26.779  1.00  0.00     0.261 C 
BRANCH  33  34
ATOM     34  O   UNL A   1      39.559  22.194  25.741  1.00  0.00    -0.460 OA
BRANCH  34  35
ATOM     35  C   UNL A   1      38.569  23.056  26.073  1.00  0.00     0.338 C 
ATOM     36  O   UNL A   1      37.369  22.826  26.069  1.00  0.00    -0.246 OA
BRANCH  35  37
ATOM     37  C   UNL A   1      39.184  24.255  26.688  1.00  0.00     0.060 A 
ATOM     38  C   UNL A   1      39.009  24.458  28.063  1.00  0.00     0.016 A 
ATOM     39  C   UNL A   1      39.954  25.149  25.941  1.00  0.00     0.016 A 
ATOM     40  C   UNL A   1      39.574  25.568  28.692  1.00  0.00     0.010 A 
ATOM     41  C   UNL A   1      40.505  26.272  26.565  1.00  0.00     0.010 A 
ATOM     42  C   UNL A   1      40.292  26.503  27.937  1.00  0.00    -0.014 A 
BRANCH  42  43
ATOM     43  C   UNL A   1      40.640  27.819  28.526  1.00  0.00     0.031 A 
ATOM     44  C   UNL A   1      42.059  28.045  28.972  1.00  0.00     0.074 A 
ATOM     45  C   UNL A   1      39.733  28.802  28.656  1.00  0.00     0.049 A 
ATOM     46  N   UNL A   1      42.591  29.081  29.566  1.00  0.00    -0.248 NA
ATOM     47  C   UNL A   1      43.003  26.945  28.714  1.00  0.00     0.031 C 
ATOM     48  C   UNL A   1      38.343  28.741  28.212  1.00  0.00     0.029 A 
ATOM     49  N   UNL A   1      39.856  30.052  29.214  1.00  0.00    -0.354 N 
ATOM     50  C   UNL A   1      43.927  28.756  29.761  1.00  0.00     0.074 A 
ATOM     51  C   UNL A   1      44.118  27.415  29.251  1.00  0.00     0.031 C 
ATOM     52  C   UNL A   1      37.737  29.901  28.522  1.00  0.00     0.029 A 
ATOM     53  C   UNL A   1      38.685  30.769  29.222  1.00  0.00     0.049 A 
ATOM     54  H   UNL A   1      40.704  30.400  29.573  1.00  0.00     0.167 HD
ATOM     55  C   UNL A   1      44.910  29.502  30.315  1.00  0.00     0.031 A 
ATOM     56  C   UNL A   1      38.405  31.974  29.755  1.00  0.00     0.031 A 
ATOM     57  C   UNL A   1      44.720  30.823  30.851  1.00  0.00     0.049 A 
ATOM     58  C   UNL A   1      39.490  32.747  30.459  1.00  0.00     0.074 A 
ATOM     59  C   UNL A   1      45.656  31.662  31.429  1.00  0.00     0.029 A 
ATOM     60  N   UNL A   1      43.506  31.492  30.885  1.00  0.00    -0.354 N 
ATOM     61  N   UNL A   1      40.755  32.439  30.624  1.00  0.00    -0.248 NA
ATOM     62  C   UNL A   1      39.108  34.039  31.049  1.00  0.00     0.031 C 
ATOM     63  C   UNL A   1      44.995  32.810  31.877  1.00  0.00     0.029 A 
ATOM     64  C   UNL A   1      43.661  32.718  31.512  1.00  0.00     0.049 A 
ATOM     65  H   UNL A   1      42.659  31.147  30.521  1.00  0.00     0.167 HD
ATOM     66  C   UNL A   1      41.322  33.509  31.308  1.00  0.00     0.074 A 
ATOM     67  C   UNL A   1      40.267  34.479  31.518  1.00  0.00     0.031 C 
ATOM     68  C   UNL A   1      42.603  33.673  31.721  1.00  0.00     0.031 A 
BRANCH  55  69
ATOM     69  C   UNL A   1      46.270  28.873  30.419  1.00  0.00    -0.014 A 
ATOM     70  C   UNL A   1      47.205  28.968  29.376  1.00  0.00     0.009 A 
ATOM     71  C   UNL A   1      46.621  28.173  31.584  1.00  0.00     0.009 A 
ATOM     72  C   UNL A   1      48.448  28.338  29.481  1.00  0.00     0.001 A 
ATOM     73  C   UNL A   1      47.875  27.572  31.700  1.00  0.00     0.001 A 
ATOM     74  C   UNL A   1      48.782  27.644  30.644  1.00  0.00     0.000 A 
ENDBRANCH  55  69
BRANCH  56  75
ATOM     75  C   UNL A   1      37.022  32.518  29.677  1.00  0.00    -0.014 A 
ATOM     76  C   UNL A   1      36.640  33.361  28.623  1.00  0.00     0.009 A 
ATOM     77  C   UNL A   1      36.080  32.209  30.671  1.00  0.00     0.009 A 
ATOM     78  C   UNL A   1      35.350  33.897  28.576  1.00  0.00     0.001 A 
ATOM     79  C   UNL A   1      34.783  32.722  30.606  1.00  0.00     0.001 A 
ATOM     80  C   UNL A   1      34.422  33.572  29.563  1.00  0.00     0.000 A 
ENDBRANCH  56  75
BRANCH  68  81
ATOM     81  C   UNL A   1      42.951  34.965  32.410  1.00  0.00    -0.014 A 
ATOM     82  C   UNL A   1      42.845  35.106  33.803  1.00  0.00     0.009 A 
ATOM     83  C   UNL A   1      43.443  36.042  31.656  1.00  0.00     0.009 A 
ATOM     84  C   UNL A   1      43.194  36.311  34.420  1.00  0.00     0.001 A 
ATOM     85  C   UNL A   1      43.821  37.233  32.278  1.00  0.00     0.001 A 
ATOM     86  C   UNL A   1      43.687  37.371  33.658  1.00  0.00     0.000 A 
ENDBRANCH  68  81
ENDBRANCH  42  43
ENDBRANCH  35  37
ENDBRANCH  34  35
ENDBRANCH  33  34
ENDBRANCH  32  33
ENDBRANCH  31  32
ENDBRANCH  30  31
ENDBRANCH   1  30
TORSDOF 21
ENDMDL
