MODEL 1
REMARK VINA RESULT:      -8.8      0.000      0.000
REMARK SMILES NC(=O)CC[C@H](NC(=O)CC1CC1)C(=O)OCCOCCOCCOC(=O)c1ccc(-c2c3nc(c(-c4ccccc4)c4ccc([nH]4)c(-c4ccccc4)c4nc(c(-c5ccccc5)c5ccc2[nH]5)C=C4)C=C3)cc1
REMARK SMILES IDX 20 1 19 2 18 3 17 4 16 5 14 6 15 7 6 8 5 9 4 10 2 11 1 12
REMARK SMILES IDX 3 15 7 16 8 17 9 19 10 20 11 21 12 22 13 23 21 24 22 25
REMARK SMILES IDX 23 26 24 27 25 28 26 29 27 30 28 31 29 32 75 33 30 34 74 35
REMARK SMILES IDX 31 36 32 37 33 38 68 39 34 40 73 41 67 42 69 43 35 44 72 45
REMARK SMILES IDX 66 46 65 47 36 49 58 50 43 51 57 52 44 53 47 54 56 55 70 56
REMARK SMILES IDX 45 57 46 58 55 60 71 61 48 62 37 63 38 64 42 65 39 66 41 67
REMARK SMILES IDX 40 68 59 69 60 70 64 71 61 72 63 73 62 74 49 75 50 76 54 77
REMARK SMILES IDX 51 78 53 79 52 80
REMARK H PARENT 1 13 1 14 7 18 69 48 47 59
REMARK Flexibility Score: inf
ROOT
ATOM      1  C   UNL A   1      41.250  21.629  26.308  1.00  0.00     0.188 C 
ENDROOT
BRANCH   1   2
ATOM      2  O   UNL A   1      39.962  21.045  26.303  1.00  0.00    -0.376 OA
BRANCH   2   3
ATOM      3  C   UNL A   1      38.861  21.921  26.145  1.00  0.00     0.202 C 
BRANCH   3   4
ATOM      4  C   UNL A   1      37.844  21.645  25.023  1.00  0.00     0.261 C 
BRANCH   4   5
ATOM      5  O   UNL A   1      36.442  21.639  25.347  1.00  0.00    -0.462 OA
BRANCH   5   6
ATOM      6  C   UNL A   1      35.627  22.262  24.466  1.00  0.00     0.328 C 
ATOM      7  O   UNL A   1      35.981  23.182  23.737  1.00  0.00    -0.250 OA
BRANCH   6   8
ATOM      8  C   UNL A   1      34.164  21.801  24.563  1.00  0.00     0.192 C 
BRANCH   8   9
ATOM      9  C   UNL A   1      34.087  20.265  24.659  1.00  0.00     0.047 C 
BRANCH   9  10
ATOM     10  C   UNL A   1      33.051  19.631  25.587  1.00  0.00     0.102 C 
BRANCH  10  11
ATOM     11  C   UNL A   1      32.703  18.159  25.431  1.00  0.00     0.217 C 
ATOM     12  N   UNL A   1      33.418  17.232  26.117  1.00  0.00    -0.370 N 
ATOM     13  H   UNL A   1      33.202  16.276  26.024  1.00  0.00     0.159 HD
ATOM     14  H   UNL A   1      34.152  17.515  26.708  1.00  0.00     0.159 HD
ATOM     15  O   UNL A   1      31.782  17.800  24.701  1.00  0.00    -0.275 OA
ENDBRANCH  10  11
ENDBRANCH   9  10
ENDBRANCH   8   9
BRANCH   8  16
ATOM     16  N   UNL A   1      33.306  22.321  23.484  1.00  0.00    -0.343 N 
ATOM     17  C   UNL A   1      32.383  23.334  23.526  1.00  0.00     0.220 C 
ATOM     18  H   UNL A   1      33.409  21.879  22.611  1.00  0.00     0.164 HD
ATOM     19  O   UNL A   1      31.970  23.803  22.464  1.00  0.00    -0.275 OA
BRANCH  17  20
ATOM     20  C   UNL A   1      31.901  23.884  24.861  1.00  0.00     0.103 C 
BRANCH  20  21
ATOM     21  C   UNL A   1      31.156  22.872  25.688  1.00  0.00    -0.002 C 
ATOM     22  C   UNL A   1      31.532  22.707  27.142  1.00  0.00     0.004 C 
ATOM     23  C   UNL A   1      30.188  23.258  26.779  1.00  0.00     0.004 C 
ENDBRANCH  20  21
ENDBRANCH  17  20
ENDBRANCH   8  16
ENDBRANCH   6   8
ENDBRANCH   5   6
ENDBRANCH   4   5
ENDBRANCH   3   4
ENDBRANCH   2   3
ENDBRANCH   1   2
BRANCH   1  24
ATOM     24  C   UNL A   1      42.385  20.592  26.192  1.00  0.00     0.188 C 
BRANCH  24  25
ATOM     25  O   UNL A   1      43.207  20.595  25.037  1.00  0.00    -0.376 OA
BRANCH  25  26
ATOM     26  C   UNL A   1      44.597  20.848  25.216  1.00  0.00     0.202 C 
BRANCH  26  27
ATOM     27  C   UNL A   1      45.112  22.285  25.473  1.00  0.00     0.261 C 
BRANCH  27  28
ATOM     28  O   UNL A   1      44.233  23.370  25.101  1.00  0.00    -0.460 OA
BRANCH  28  29
ATOM     29  C   UNL A   1      44.729  24.624  25.241  1.00  0.00     0.338 C 
ATOM     30  O   UNL A   1      45.633  25.134  24.588  1.00  0.00    -0.246 OA
BRANCH  29  31
ATOM     31  C   UNL A   1      43.884  25.424  26.162  1.00  0.00     0.060 A 
ATOM     32  C   UNL A   1      44.232  26.765  26.404  1.00  0.00     0.016 A 
ATOM     33  C   UNL A   1      42.807  24.854  26.843  1.00  0.00     0.016 A 
ATOM     34  C   UNL A   1      43.536  27.527  27.342  1.00  0.00     0.010 A 
ATOM     35  C   UNL A   1      42.135  25.608  27.819  1.00  0.00     0.010 A 
ATOM     36  C   UNL A   1      42.525  26.932  28.104  1.00  0.00    -0.014 A 
BRANCH  36  37
ATOM     37  C   UNL A   1      42.079  27.593  29.360  1.00  0.00     0.031 A 
ATOM     38  C   UNL A   1      40.821  28.424  29.310  1.00  0.00     0.074 A 
ATOM     39  C   UNL A   1      42.726  27.436  30.529  1.00  0.00     0.049 A 
ATOM     40  N   UNL A   1      40.260  29.146  30.247  1.00  0.00    -0.248 NA
ATOM     41  C   UNL A   1      40.103  28.442  28.025  1.00  0.00     0.031 C 
ATOM     42  C   UNL A   1      43.906  26.602  30.744  1.00  0.00     0.029 A 
ATOM     43  N   UNL A   1      42.474  27.988  31.762  1.00  0.00    -0.354 N 
ATOM     44  C   UNL A   1      39.135  29.713  29.659  1.00  0.00     0.074 A 
ATOM     45  C   UNL A   1      39.109  29.277  28.281  1.00  0.00     0.031 C 
ATOM     46  C   UNL A   1      44.285  26.708  32.031  1.00  0.00     0.029 A 
ATOM     47  C   UNL A   1      43.397  27.645  32.720  1.00  0.00     0.049 A 
ATOM     48  H   UNL A   1      41.704  28.574  31.942  1.00  0.00     0.167 HD
ATOM     49  C   UNL A   1      38.201  30.523  30.213  1.00  0.00     0.031 A 
ATOM     50  C   UNL A   1      43.526  28.060  33.996  1.00  0.00     0.031 A 
ATOM     51  C   UNL A   1      38.228  30.976  31.578  1.00  0.00     0.049 A 
ATOM     52  C   UNL A   1      42.531  29.044  34.563  1.00  0.00     0.074 A 
ATOM     53  C   UNL A   1      37.331  31.803  32.230  1.00  0.00     0.029 A 
ATOM     54  N   UNL A   1      39.209  30.644  32.498  1.00  0.00    -0.354 N 
ATOM     55  N   UNL A   1      41.471  29.572  34.000  1.00  0.00    -0.248 NA
ATOM     56  C   UNL A   1      42.750  29.481  35.951  1.00  0.00     0.031 C 
ATOM     57  C   UNL A   1      37.802  32.020  33.529  1.00  0.00     0.029 A 
ATOM     58  C   UNL A   1      38.951  31.268  33.708  1.00  0.00     0.049 A 
ATOM     59  H   UNL A   1      39.976  30.053  32.320  1.00  0.00     0.167 HD
ATOM     60  C   UNL A   1      40.877  30.367  34.974  1.00  0.00     0.074 A 
ATOM     61  C   UNL A   1      41.687  30.241  36.168  1.00  0.00     0.031 C 
ATOM     62  C   UNL A   1      39.758  31.130  34.891  1.00  0.00     0.031 A 
BRANCH  49  63
ATOM     63  C   UNL A   1      37.090  31.006  29.322  1.00  0.00    -0.014 A 
ATOM     64  C   UNL A   1      37.073  32.315  28.813  1.00  0.00     0.009 A 
ATOM     65  C   UNL A   1      36.055  30.126  28.964  1.00  0.00     0.009 A 
ATOM     66  C   UNL A   1      36.025  32.742  27.997  1.00  0.00     0.001 A 
ATOM     67  C   UNL A   1      35.026  30.547  28.120  1.00  0.00     0.001 A 
ATOM     68  C   UNL A   1      35.006  31.857  27.646  1.00  0.00     0.000 A 
ENDBRANCH  49  63
BRANCH  50  69
ATOM     69  C   UNL A   1      44.652  27.572  34.839  1.00  0.00    -0.014 A 
ATOM     70  C   UNL A   1      44.511  26.422  35.632  1.00  0.00     0.009 A 
ATOM     71  C   UNL A   1      45.860  28.286  34.895  1.00  0.00     0.009 A 
ATOM     72  C   UNL A   1      45.540  26.016  36.485  1.00  0.00     0.001 A 
ATOM     73  C   UNL A   1      46.901  27.858  35.723  1.00  0.00     0.001 A 
ATOM     74  C   UNL A   1      46.736  26.731  36.526  1.00  0.00     0.000 A 
ENDBRANCH  50  69
BRANCH  62  75
ATOM     75  C   UNL A   1      39.304  31.837  36.141  1.00  0.00    -0.014 A 
ATOM     76  C   UNL A   1      40.015  32.923  36.677  1.00  0.00     0.009 A 
ATOM     77  C   UNL A   1      38.119  31.426  36.774  1.00  0.00     0.009 A 
ATOM     78  C   UNL A   1      39.572  33.550  37.845  1.00  0.00     0.001 A 
ATOM     79  C   UNL A   1      37.659  32.077  37.919  1.00  0.00     0.001 A 
ATOM     80  C   UNL A   1      38.394  33.130  38.462  1.00  0.00     0.000 A 
ENDBRANCH  62  75
ENDBRANCH  36  37
ENDBRANCH  29  31
ENDBRANCH  28  29
ENDBRANCH  27  28
ENDBRANCH  26  27
ENDBRANCH  25  26
ENDBRANCH  24  25
ENDBRANCH   1  24
TORSDOF 23
ENDMDL
MODEL 2
REMARK VINA RESULT:      -8.4      3.514      8.049
REMARK SMILES NC(=O)CC[C@H](NC(=O)CC1CC1)C(=O)OCCOCCOCCOC(=O)c1ccc(-c2c3nc(c(-c4ccccc4)c4ccc([nH]4)c(-c4ccccc4)c4nc(c(-c5ccccc5)c5ccc2[nH]5)C=C4)C=C3)cc1
REMARK SMILES IDX 20 1 19 2 18 3 17 4 16 5 14 6 15 7 6 8 5 9 4 10 2 11 1 12
REMARK SMILES IDX 3 15 7 16 8 17 9 19 10 20 11 21 12 22 13 23 21 24 22 25
REMARK SMILES IDX 23 26 24 27 25 28 26 29 27 30 28 31 29 32 75 33 30 34 74 35
REMARK SMILES IDX 31 36 32 37 33 38 68 39 34 40 73 41 67 42 69 43 35 44 72 45
REMARK SMILES IDX 66 46 65 47 36 49 58 50 43 51 57 52 44 53 47 54 56 55 70 56
REMARK SMILES IDX 45 57 46 58 55 60 71 61 48 62 37 63 38 64 42 65 39 66 41 67
REMARK SMILES IDX 40 68 59 69 60 70 64 71 61 72 63 73 62 74 49 75 50 76 54 77
REMARK SMILES IDX 51 78 53 79 52 80
REMARK H PARENT 1 13 1 14 7 18 69 48 47 59
REMARK Flexibility Score: inf
ROOT
ATOM      1  C   UNL A   1      32.749  27.632  26.504  1.00  0.00     0.188 C 
ENDROOT
BRANCH   1   2
ATOM      2  O   UNL A   1      33.935  26.957  26.129  1.00  0.00    -0.376 OA
BRANCH   2   3
ATOM      3  C   UNL A   1      33.878  25.544  26.069  1.00  0.00     0.202 C 
BRANCH   3   4
ATOM      4  C   UNL A   1      34.444  24.828  24.831  1.00  0.00     0.261 C 
BRANCH   4   5
ATOM      5  O   UNL A   1      34.283  23.402  24.724  1.00  0.00    -0.462 OA
BRANCH   5   6
ATOM      6  C   UNL A   1      33.344  22.975  23.848  1.00  0.00     0.328 C 
ATOM      7  O   UNL A   1      33.254  21.820  23.449  1.00  0.00    -0.250 OA
BRANCH   6   8
ATOM      8  C   UNL A   1      32.477  24.113  23.286  1.00  0.00     0.192 C 
BRANCH   8   9
ATOM      9  C   UNL A   1      31.003  23.920  23.691  1.00  0.00     0.047 C 
BRANCH   9  10
ATOM     10  C   UNL A   1      30.309  25.012  24.507  1.00  0.00     0.102 C 
BRANCH  10  11
ATOM     11  C   UNL A   1      30.182  24.857  26.014  1.00  0.00     0.217 C 
ATOM     12  N   UNL A   1      30.817  23.829  26.631  1.00  0.00    -0.370 N 
ATOM     13  H   UNL A   1      30.742  23.719  27.606  1.00  0.00     0.159 HD
ATOM     14  H   UNL A   1      31.353  23.194  26.104  1.00  0.00     0.159 HD
ATOM     15  O   UNL A   1      29.522  25.652  26.679  1.00  0.00    -0.275 OA
ENDBRANCH  10  11
ENDBRANCH   9  10
ENDBRANCH   8   9
BRANCH   8  16
ATOM     16  N   UNL A   1      32.620  24.305  21.832  1.00  0.00    -0.343 N 
ATOM     17  C   UNL A   1      32.610  25.469  21.108  1.00  0.00     0.220 C 
ATOM     18  H   UNL A   1      32.739  23.481  21.306  1.00  0.00     0.164 HD
ATOM     19  O   UNL A   1      33.019  25.447  19.946  1.00  0.00    -0.275 OA
BRANCH  17  20
ATOM     20  C   UNL A   1      32.128  26.767  21.742  1.00  0.00     0.103 C 
BRANCH  20  21
ATOM     21  C   UNL A   1      33.135  27.385  22.673  1.00  0.00    -0.002 C 
ATOM     22  C   UNL A   1      34.146  28.354  22.106  1.00  0.00     0.004 C 
ATOM     23  C   UNL A   1      33.102  28.842  23.063  1.00  0.00     0.004 C 
ENDBRANCH  20  21
ENDBRANCH  17  20
ENDBRANCH   8  16
ENDBRANCH   6   8
ENDBRANCH   5   6
ENDBRANCH   4   5
ENDBRANCH   3   4
ENDBRANCH   2   3
ENDBRANCH   1   2
BRANCH   1  24
ATOM     24  C   UNL A   1      32.988  29.105  26.890  1.00  0.00     0.188 C 
BRANCH  24  25
ATOM     25  O   UNL A   1      34.293  29.646  26.778  1.00  0.00    -0.376 OA
BRANCH  25  26
ATOM     26  C   UNL A   1      34.583  30.831  27.513  1.00  0.00     0.202 C 
BRANCH  26  27
ATOM     27  C   UNL A   1      33.441  31.728  28.049  1.00  0.00     0.261 C 
BRANCH  27  28
ATOM     28  O   UNL A   1      33.430  33.105  27.609  1.00  0.00    -0.460 OA
BRANCH  28  29
ATOM     29  C   UNL A   1      33.492  34.050  28.580  1.00  0.00     0.338 C 
ATOM     30  O   UNL A   1      32.598  34.818  28.914  1.00  0.00    -0.246 OA
BRANCH  29  31
ATOM     31  C   UNL A   1      34.737  33.905  29.375  1.00  0.00     0.060 A 
ATOM     32  C   UNL A   1      35.972  34.136  28.742  1.00  0.00     0.016 A 
ATOM     33  C   UNL A   1      34.708  33.475  30.702  1.00  0.00     0.016 A 
ATOM     34  C   UNL A   1      37.173  33.909  29.414  1.00  0.00     0.010 A 
ATOM     35  C   UNL A   1      35.917  33.205  31.363  1.00  0.00     0.010 A 
ATOM     36  C   UNL A   1      37.153  33.377  30.708  1.00  0.00    -0.014 A 
BRANCH  36  37
ATOM     37  C   UNL A   1      38.388  32.753  31.255  1.00  0.00     0.031 A 
ATOM     38  C   UNL A   1      38.894  31.495  30.593  1.00  0.00     0.074 A 
ATOM     39  C   UNL A   1      39.080  33.293  32.274  1.00  0.00     0.049 A 
ATOM     40  N   UNL A   1      39.906  30.732  30.917  1.00  0.00    -0.248 NA
ATOM     41  C   UNL A   1      38.151  31.040  29.406  1.00  0.00     0.031 C 
ATOM     42  C   UNL A   1      38.755  34.543  32.957  1.00  0.00     0.029 A 
ATOM     43  N   UNL A   1      40.209  32.842  32.915  1.00  0.00    -0.354 N 
ATOM     44  C   UNL A   1      39.911  29.701  29.983  1.00  0.00     0.074 A 
ATOM     45  C   UNL A   1      38.786  29.920  29.101  1.00  0.00     0.031 C 
ATOM     46  C   UNL A   1      39.659  34.752  33.933  1.00  0.00     0.029 A 
ATOM     47  C   UNL A   1      40.600  33.633  33.967  1.00  0.00     0.049 A 
ATOM     48  H   UNL A   1      40.692  32.027  32.646  1.00  0.00     0.167 HD
ATOM     49  C   UNL A   1      40.774  28.664  29.864  1.00  0.00     0.031 A 
ATOM     50  C   UNL A   1      41.588  33.461  34.868  1.00  0.00     0.031 A 
ATOM     51  C   UNL A   1      41.885  28.428  30.747  1.00  0.00     0.049 A 
ATOM     52  C   UNL A   1      42.475  32.243  34.778  1.00  0.00     0.074 A 
ATOM     53  C   UNL A   1      42.812  27.402  30.711  1.00  0.00     0.029 A 
ATOM     54  N   UNL A   1      42.214  29.228  31.828  1.00  0.00    -0.354 N 
ATOM     55  N   UNL A   1      42.472  31.277  33.892  1.00  0.00    -0.248 NA
ATOM     56  C   UNL A   1      43.511  32.100  35.814  1.00  0.00     0.031 C 
ATOM     57  C   UNL A   1      43.666  27.547  31.808  1.00  0.00     0.029 A 
ATOM     58  C   UNL A   1      43.318  28.706  32.482  1.00  0.00     0.049 A 
ATOM     59  H   UNL A   1      41.735  30.046  32.094  1.00  0.00     0.167 HD
ATOM     60  C   UNL A   1      43.526  30.438  34.238  1.00  0.00     0.074 A 
ATOM     61  C   UNL A   1      44.155  31.016  35.407  1.00  0.00     0.031 C 
ATOM     62  C   UNL A   1      43.940  29.293  33.639  1.00  0.00     0.031 A 
BRANCH  49  63
ATOM     63  C   UNL A   1      40.519  27.679  28.756  1.00  0.00    -0.014 A 
ATOM     64  C   UNL A   1      41.105  27.832  27.489  1.00  0.00     0.009 A 
ATOM     65  C   UNL A   1      39.699  26.564  28.994  1.00  0.00     0.009 A 
ATOM     66  C   UNL A   1      40.845  26.910  26.473  1.00  0.00     0.001 A 
ATOM     67  C   UNL A   1      39.468  25.626  27.986  1.00  0.00     0.001 A 
ATOM     68  C   UNL A   1      40.032  25.805  26.725  1.00  0.00     0.000 A 
ENDBRANCH  49  63
BRANCH  50  69
ATOM     69  C   UNL A   1      41.794  34.451  35.962  1.00  0.00    -0.014 A 
ATOM     70  C   UNL A   1      42.749  35.472  35.837  1.00  0.00     0.009 A 
ATOM     71  C   UNL A   1      41.070  34.348  37.161  1.00  0.00     0.009 A 
ATOM     72  C   UNL A   1      42.997  36.347  36.897  1.00  0.00     0.001 A 
ATOM     73  C   UNL A   1      41.296  35.245  38.208  1.00  0.00     0.001 A 
ATOM     74  C   UNL A   1      42.268  36.236  38.080  1.00  0.00     0.000 A 
ENDBRANCH  50  69
BRANCH  62  75
ATOM     75  C   UNL A   1      45.169  28.623  34.195  1.00  0.00    -0.014 A 
ATOM     76  C   UNL A   1      46.459  28.952  33.748  1.00  0.00     0.009 A 
ATOM     77  C   UNL A   1      45.031  27.664  35.213  1.00  0.00     0.009 A 
ATOM     78  C   UNL A   1      47.578  28.303  34.277  1.00  0.00     0.001 A 
ATOM     79  C   UNL A   1      46.152  27.043  35.765  1.00  0.00     0.001 A 
ATOM     80  C   UNL A   1      47.424  27.353  35.287  1.00  0.00     0.000 A 
ENDBRANCH  62  75
ENDBRANCH  36  37
ENDBRANCH  29  31
ENDBRANCH  28  29
ENDBRANCH  27  28
ENDBRANCH  26  27
ENDBRANCH  25  26
ENDBRANCH  24  25
ENDBRANCH   1  24
TORSDOF 23
ENDMDL
MODEL 3
REMARK VINA RESULT:      -8.4      1.154      6.045
REMARK SMILES NC(=O)CC[C@H](NC(=O)CC1CC1)C(=O)OCCOCCOCCOC(=O)c1ccc(-c2c3nc(c(-c4ccccc4)c4ccc([nH]4)c(-c4ccccc4)c4nc(c(-c5ccccc5)c5ccc2[nH]5)C=C4)C=C3)cc1
REMARK SMILES IDX 20 1 19 2 18 3 17 4 16 5 14 6 15 7 6 8 5 9 4 10 2 11 1 12
REMARK SMILES IDX 3 15 7 16 8 17 9 19 10 20 11 21 12 22 13 23 21 24 22 25
REMARK SMILES IDX 23 26 24 27 25 28 26 29 27 30 28 31 29 32 75 33 30 34 74 35
REMARK SMILES IDX 31 36 32 37 33 38 68 39 34 40 73 41 67 42 69 43 35 44 72 45
REMARK SMILES IDX 66 46 65 47 36 49 58 50 43 51 57 52 44 53 47 54 56 55 70 56
REMARK SMILES IDX 45 57 46 58 55 60 71 61 48 62 37 63 38 64 42 65 39 66 41 67
REMARK SMILES IDX 40 68 59 69 60 70 64 71 61 72 63 73 62 74 49 75 50 76 54 77
REMARK SMILES IDX 51 78 53 79 52 80
REMARK H PARENT 1 13 1 14 7 18 69 48 47 59
REMARK Flexibility Score: inf
ROOT
ATOM      1  C   UNL A   1      39.555  22.209  26.754  1.00  0.00     0.188 C 
ENDROOT
BRANCH   1   2
ATOM      2  O   UNL A   1      39.108  21.905  25.447  1.00  0.00    -0.376 OA
BRANCH   2   3
ATOM      3  C   UNL A   1      37.709  21.820  25.251  1.00  0.00     0.202 C 
BRANCH   3   4
ATOM      4  C   UNL A   1      37.056  22.676  24.151  1.00  0.00     0.261 C 
BRANCH   4   5
ATOM      5  O   UNL A   1      35.621  22.758  24.100  1.00  0.00    -0.462 OA
BRANCH   5   6
ATOM      6  C   UNL A   1      35.024  23.371  25.148  1.00  0.00     0.328 C 
ATOM      7  O   UNL A   1      35.466  24.374  25.697  1.00  0.00    -0.250 OA
BRANCH   6   8
ATOM      8  C   UNL A   1      33.802  22.608  25.681  1.00  0.00     0.192 C 
BRANCH   8   9
ATOM      9  C   UNL A   1      34.155  21.128  25.928  1.00  0.00     0.047 C 
BRANCH   9  10
ATOM     10  C   UNL A   1      33.794  20.091  24.864  1.00  0.00     0.102 C 
BRANCH  10  11
ATOM     11  C   UNL A   1      32.895  18.922  25.230  1.00  0.00     0.217 C 
ATOM     12  N   UNL A   1      32.899  18.454  26.503  1.00  0.00    -0.370 N 
ATOM     13  H   UNL A   1      32.320  17.697  26.752  1.00  0.00     0.159 HD
ATOM     14  H   UNL A   1      33.480  18.871  27.179  1.00  0.00     0.159 HD
ATOM     15  O   UNL A   1      32.159  18.402  24.393  1.00  0.00    -0.275 OA
ENDBRANCH  10  11
ENDBRANCH   9  10
ENDBRANCH   8   9
BRANCH   8  16
ATOM     16  N   UNL A   1      32.602  22.745  24.838  1.00  0.00    -0.343 N 
ATOM     17  C   UNL A   1      31.617  23.699  24.884  1.00  0.00     0.220 C 
ATOM     18  H   UNL A   1      32.491  22.057  24.143  1.00  0.00     0.164 HD
ATOM     19  O   UNL A   1      30.850  23.804  23.926  1.00  0.00    -0.275 OA
BRANCH  17  20
ATOM     20  C   UNL A   1      31.496  24.624  26.087  1.00  0.00     0.103 C 
BRANCH  20  21
ATOM     21  C   UNL A   1      31.713  26.074  25.747  1.00  0.00    -0.002 C 
ATOM     22  C   UNL A   1      31.756  27.082  26.871  1.00  0.00     0.004 C 
ATOM     23  C   UNL A   1      32.990  26.808  26.070  1.00  0.00     0.004 C 
ENDBRANCH  20  21
ENDBRANCH  17  20
ENDBRANCH   8  16
ENDBRANCH   6   8
ENDBRANCH   5   6
ENDBRANCH   4   5
ENDBRANCH   3   4
ENDBRANCH   2   3
ENDBRANCH   1   2
BRANCH   1  24
ATOM     24  C   UNL A   1      41.091  22.264  26.870  1.00  0.00     0.188 C 
BRANCH  24  25
ATOM     25  O   UNL A   1      41.880  21.522  25.956  1.00  0.00    -0.376 OA
BRANCH  25  26
ATOM     26  C   UNL A   1      42.697  22.251  25.045  1.00  0.00     0.202 C 
BRANCH  26  27
ATOM     27  C   UNL A   1      44.236  22.089  25.059  1.00  0.00     0.261 C 
BRANCH  27  28
ATOM     28  O   UNL A   1      44.904  22.309  26.322  1.00  0.00    -0.460 OA
BRANCH  28  29
ATOM     29  C   UNL A   1      45.418  23.547  26.527  1.00  0.00     0.338 C 
ATOM     30  O   UNL A   1      46.473  23.986  26.085  1.00  0.00    -0.246 OA
BRANCH  29  31
ATOM     31  C   UNL A   1      44.423  24.425  27.192  1.00  0.00     0.060 A 
ATOM     32  C   UNL A   1      44.474  25.809  26.947  1.00  0.00     0.016 A 
ATOM     33  C   UNL A   1      43.497  23.917  28.105  1.00  0.00     0.016 A 
ATOM     34  C   UNL A   1      43.633  26.688  27.629  1.00  0.00     0.010 A 
ATOM     35  C   UNL A   1      42.682  24.806  28.823  1.00  0.00     0.010 A 
ATOM     36  C   UNL A   1      42.777  26.197  28.621  1.00  0.00    -0.014 A 
BRANCH  36  37
ATOM     37  C   UNL A   1      42.204  27.143  29.617  1.00  0.00     0.031 A 
ATOM     38  C   UNL A   1      42.889  27.255  30.957  1.00  0.00     0.074 A 
ATOM     39  C   UNL A   1      41.140  27.920  29.347  1.00  0.00     0.049 A 
ATOM     40  N   UNL A   1      42.553  27.956  32.009  1.00  0.00    -0.248 NA
ATOM     41  C   UNL A   1      44.120  26.465  31.127  1.00  0.00     0.031 C 
ATOM     42  C   UNL A   1      40.428  27.976  28.073  1.00  0.00     0.029 A 
ATOM     43  N   UNL A   1      40.471  28.815  30.147  1.00  0.00    -0.354 N 
ATOM     44  C   UNL A   1      43.521  27.679  32.968  1.00  0.00     0.074 A 
ATOM     45  C   UNL A   1      44.438  26.726  32.385  1.00  0.00     0.031 C 
ATOM     46  C   UNL A   1      39.409  28.850  28.183  1.00  0.00     0.029 A 
ATOM     47  C   UNL A   1      39.377  29.386  29.543  1.00  0.00     0.049 A 
ATOM     48  H   UNL A   1      40.749  29.027  31.068  1.00  0.00     0.167 HD
ATOM     49  C   UNL A   1      43.643  28.173  34.224  1.00  0.00     0.031 A 
ATOM     50  C   UNL A   1      38.445  30.223  30.040  1.00  0.00     0.031 A 
ATOM     51  C   UNL A   1      42.725  29.108  34.819  1.00  0.00     0.049 A 
ATOM     52  C   UNL A   1      38.542  30.681  31.474  1.00  0.00     0.074 A 
ATOM     53  C   UNL A   1      42.760  29.662  36.086  1.00  0.00     0.029 A 
ATOM     54  N   UNL A   1      41.604  29.621  34.188  1.00  0.00    -0.354 N 
ATOM     55  N   UNL A   1      39.461  30.415  32.371  1.00  0.00    -0.248 NA
ATOM     56  C   UNL A   1      37.472  31.567  31.961  1.00  0.00     0.031 C 
ATOM     57  C   UNL A   1      41.626  30.465  36.243  1.00  0.00     0.029 A 
ATOM     58  C   UNL A   1      40.926  30.469  35.048  1.00  0.00     0.049 A 
ATOM     59  H   UNL A   1      41.329  29.414  33.266  1.00  0.00     0.167 HD
ATOM     60  C   UNL A   1      39.104  31.130  33.509  1.00  0.00     0.074 A 
ATOM     61  C   UNL A   1      37.891  31.852  33.185  1.00  0.00     0.031 C 
ATOM     62  C   UNL A   1      39.725  31.189  34.713  1.00  0.00     0.031 A 
BRANCH  49  63
ATOM     63  C   UNL A   1      44.793  27.674  35.054  1.00  0.00    -0.014 A 
ATOM     64  C   UNL A   1      46.031  28.336  35.066  1.00  0.00     0.009 A 
ATOM     65  C   UNL A   1      44.626  26.534  35.857  1.00  0.00     0.009 A 
ATOM     66  C   UNL A   1      47.088  27.846  35.836  1.00  0.00     0.001 A 
ATOM     67  C   UNL A   1      45.674  26.067  36.652  1.00  0.00     0.001 A 
ATOM     68  C   UNL A   1      46.906  26.716  36.633  1.00  0.00     0.000 A 
ENDBRANCH  49  63
BRANCH  50  69
ATOM     69  C   UNL A   1      37.310  30.679  29.190  1.00  0.00    -0.014 A 
ATOM     70  C   UNL A   1      37.257  31.996  28.707  1.00  0.00     0.009 A 
ATOM     71  C   UNL A   1      36.245  29.811  28.899  1.00  0.00     0.009 A 
ATOM     72  C   UNL A   1      36.151  32.443  27.981  1.00  0.00     0.001 A 
ATOM     73  C   UNL A   1      35.155  30.250  28.143  1.00  0.00     0.001 A 
ATOM     74  C   UNL A   1      35.103  31.569  27.695  1.00  0.00     0.000 A 
ENDBRANCH  50  69
BRANCH  62  75
ATOM     75  C   UNL A   1      39.145  32.113  35.751  1.00  0.00    -0.014 A 
ATOM     76  C   UNL A   1      39.477  33.477  35.798  1.00  0.00     0.009 A 
ATOM     77  C   UNL A   1      38.219  31.611  36.682  1.00  0.00     0.009 A 
ATOM     78  C   UNL A   1      38.930  34.305  36.781  1.00  0.00     0.001 A 
ATOM     79  C   UNL A   1      37.647  32.448  37.640  1.00  0.00     0.001 A 
ATOM     80  C   UNL A   1      38.013  33.792  37.698  1.00  0.00     0.000 A 
ENDBRANCH  62  75
ENDBRANCH  36  37
ENDBRANCH  29  31
ENDBRANCH  28  29
ENDBRANCH  27  28
ENDBRANCH  26  27
ENDBRANCH  25  26
ENDBRANCH  24  25
ENDBRANCH   1  24
TORSDOF 23
ENDMDL
