MODEL 1
REMARK VINA RESULT:     -13.4      0.000      0.000
REMARK SMILES Cc1ccccc1-c1c(Cl)ccc2c1C=C(C(=O)OCCOCCOCCOC(=O)c1ccc(-c3c4nc(c(-c5ccccc5)c5ccc([nH]5)c(-c5ccccc5)c5nc(c(-c6ccccc6)c6ccc3[nH]6)C=C5)C=C4)cc1)[C@@H](C(F)(F)F)O2
REMARK SMILES IDX 24 1 23 2 22 3 21 4 20 5 19 6 17 7 18 8 16 9 8 10 9 11 14 12
REMARK SMILES IDX 10 13 11 14 13 15 15 16 12 17 84 18 79 19 7 20 1 21 2 22
REMARK SMILES IDX 3 23 4 24 6 25 5 26 80 27 81 28 82 29 83 30 25 31 26 32
REMARK SMILES IDX 27 33 28 34 29 35 30 36 31 37 32 38 78 39 33 40 77 41 34 42
REMARK SMILES IDX 35 43 36 44 71 45 37 46 76 47 70 48 72 49 38 50 75 51 69 52
REMARK SMILES IDX 68 53 39 55 61 56 46 57 60 58 47 59 50 60 59 61 73 62 48 63
REMARK SMILES IDX 49 64 58 66 74 67 51 68 40 69 41 70 45 71 42 72 44 73 43 74
REMARK SMILES IDX 62 75 63 76 67 77 64 78 66 79 65 80 52 81 53 82 57 83 54 84
REMARK SMILES IDX 56 85 55 86
REMARK H PARENT 72 54 50 65
REMARK Flexibility Score: inf
ROOT
ATOM      1  C   UNL A   1      33.516  34.745  28.769  1.00  0.00     0.188 C 
ENDROOT
BRANCH   1   2
ATOM      2  C   UNL A   1      34.791  34.186  28.170  1.00  0.00     0.188 C 
BRANCH   2   3
ATOM      3  O   UNL A   1      34.919  32.892  27.573  1.00  0.00    -0.376 OA
BRANCH   3   4
ATOM      4  C   UNL A   1      34.211  31.671  27.806  1.00  0.00     0.202 C 
BRANCH   4   5
ATOM      5  C   UNL A   1      32.843  30.869  27.093  1.00  0.00     0.261 C 
BRANCH   5   6
ATOM      6  O   UNL A   1      32.596  29.517  26.011  1.00  0.00    -0.460 OA
BRANCH   6   7
ATOM      7  C   UNL A   1      33.142  28.267  25.626  1.00  0.00     0.338 C 
ATOM      8  O   UNL A   1      34.078  27.684  26.163  1.00  0.00    -0.246 OA
BRANCH   7   9
ATOM      9  C   UNL A   1      32.608  27.529  24.416  1.00  0.00     0.087 C 
ATOM     10  C   UNL A   1      33.164  23.926  25.411  1.00  0.00     0.012 A 
ATOM     11  C   UNL A   1      32.521  22.983  26.257  1.00  0.00     0.049 A 
ATOM     12  C   UNL A   1      32.506  25.160  25.137  1.00  0.00     0.027 A 
ATOM     13  Cl  UNL A   1      33.283  21.499  26.739  1.00  0.00    -0.084 Cl
ATOM     14  C   UNL A   1      31.250  23.227  26.778  1.00  0.00     0.025 A 
ATOM     15  C   UNL A   1      31.226  25.379  25.678  1.00  0.00     0.128 A 
ATOM     16  C   UNL A   1      33.162  26.287  24.384  1.00  0.00     0.028 C 
ATOM     17  C   UNL A   1      30.601  24.422  26.485  1.00  0.00     0.049 A 
ATOM     18  O   UNL A   1      30.539  26.553  25.507  1.00  0.00    -0.475 OA
ATOM     19  C   UNL A   1      31.061  27.452  24.492  1.00  0.00     0.316 C 
BRANCH  10  20
ATOM     20  C   UNL A   1      34.503  23.644  24.858  1.00  0.00    -0.013 A 
ATOM     21  C   UNL A   1      33.555  22.884  22.614  1.00  0.00     0.045 C 
ATOM     22  C   UNL A   1      34.691  23.107  23.569  1.00  0.00    -0.043 A 
ATOM     23  C   UNL A   1      35.985  22.777  23.135  1.00  0.00     0.004 A 
ATOM     24  C   UNL A   1      37.093  23.026  23.941  1.00  0.00     0.000 A 
ATOM     25  C   UNL A   1      35.639  23.909  25.647  1.00  0.00     0.009 A 
ATOM     26  C   UNL A   1      36.922  23.613  25.190  1.00  0.00     0.001 A 
ENDBRANCH  10  20
BRANCH  19  27
ATOM     27  C   UNL A   1      30.427  27.087  23.136  1.00  0.00     0.430 C 
ATOM     28  F   UNL A   1      30.850  27.917  22.151  1.00  0.00    -0.167 F 
ATOM     29  F   UNL A   1      30.772  25.830  22.764  1.00  0.00    -0.167 F 
ATOM     30  F   UNL A   1      29.074  27.141  23.146  1.00  0.00    -0.167 F 
ENDBRANCH  19  27
ENDBRANCH   7   9
ENDBRANCH   6   7
ENDBRANCH   5   6
ENDBRANCH   4   5
ENDBRANCH   3   4
ENDBRANCH   2   3
ENDBRANCH   1   2
BRANCH   1  31
ATOM     31  O   UNL A   1      33.369  34.315  30.104  1.00  0.00    -0.376 OA
BRANCH  31  32
ATOM     32  C   UNL A   1      34.606  34.151  30.780  1.00  0.00     0.202 C 
BRANCH  32  33
ATOM     33  C   UNL A   1      34.584  33.006  31.809  1.00  0.00     0.261 C 
BRANCH  33  34
ATOM     34  O   UNL A   1      35.128  31.801  31.225  1.00  0.00    -0.460 OA
BRANCH  34  35
ATOM     35  C   UNL A   1      36.470  31.577  31.404  1.00  0.00     0.338 C 
ATOM     36  O   UNL A   1      37.295  32.431  31.688  1.00  0.00    -0.246 OA
BRANCH  35  37
ATOM     37  C   UNL A   1      36.807  30.202  30.916  1.00  0.00     0.060 A 
ATOM     38  C   UNL A   1      37.371  29.187  31.683  1.00  0.00     0.016 A 
ATOM     39  C   UNL A   1      36.902  30.020  29.584  1.00  0.00     0.016 A 
ATOM     40  C   UNL A   1      38.255  28.178  31.103  1.00  0.00     0.010 A 
ATOM     41  C   UNL A   1      37.918  29.160  29.128  1.00  0.00     0.010 A 
ATOM     42  C   UNL A   1      38.755  28.217  29.787  1.00  0.00    -0.014 A 
BRANCH  42  43
ATOM     43  C   UNL A   1      40.250  27.456  29.316  1.00  0.00     0.031 A 
ATOM     44  C   UNL A   1      40.702  25.992  28.525  1.00  0.00     0.074 A 
ATOM     45  C   UNL A   1      41.370  28.234  29.465  1.00  0.00     0.049 A 
ATOM     46  N   UNL A   1      41.944  25.651  28.236  1.00  0.00    -0.248 NA
ATOM     47  C   UNL A   1      39.914  24.822  28.003  1.00  0.00     0.031 C 
ATOM     48  C   UNL A   1      42.779  27.994  29.107  1.00  0.00     0.029 A 
ATOM     49  N   UNL A   1      41.463  29.476  30.104  1.00  0.00    -0.354 N 
ATOM     50  C   UNL A   1      41.966  24.388  27.669  1.00  0.00     0.074 A 
ATOM     51  C   UNL A   1      40.679  24.164  27.141  1.00  0.00     0.031 C 
ATOM     52  C   UNL A   1      43.575  28.794  29.829  1.00  0.00     0.029 A 
ATOM     53  C   UNL A   1      42.724  29.566  30.698  1.00  0.00     0.049 A 
ATOM     54  H   UNL A   1      40.761  30.165  30.132  1.00  0.00     0.167 HD
ATOM     55  C   UNL A   1      42.845  23.398  27.982  1.00  0.00     0.031 A 
ATOM     56  C   UNL A   1      42.824  29.648  32.048  1.00  0.00     0.031 A 
ATOM     57  C   UNL A   1      43.825  23.854  28.928  1.00  0.00     0.049 A 
ATOM     58  C   UNL A   1      43.430  28.386  32.601  1.00  0.00     0.074 A 
ATOM     59  C   UNL A   1      45.042  24.477  28.750  1.00  0.00     0.029 A 
ATOM     60  N   UNL A   1      43.445  24.060  30.257  1.00  0.00    -0.354 N 
ATOM     61  N   UNL A   1      43.379  27.215  32.020  1.00  0.00    -0.248 NA
ATOM     62  C   UNL A   1      44.204  28.380  33.834  1.00  0.00     0.031 C 
ATOM     63  C   UNL A   1      45.378  25.108  29.971  1.00  0.00     0.029 A 
ATOM     64  C   UNL A   1      44.402  24.811  30.911  1.00  0.00     0.049 A 
ATOM     65  H   UNL A   1      42.617  23.720  30.667  1.00  0.00     0.167 HD
ATOM     66  C   UNL A   1      44.127  26.329  32.746  1.00  0.00     0.074 A 
ATOM     67  C   UNL A   1      44.607  27.100  33.880  1.00  0.00     0.031 C 
ATOM     68  C   UNL A   1      44.381  25.047  32.349  1.00  0.00     0.031 A 
BRANCH  55  69
ATOM     69  C   UNL A   1      42.758  22.014  27.363  1.00  0.00    -0.014 A 
ATOM     70  C   UNL A   1      43.515  21.716  26.225  1.00  0.00     0.009 A 
ATOM     71  C   UNL A   1      41.867  21.003  27.795  1.00  0.00     0.009 A 
ATOM     72  C   UNL A   1      43.319  20.522  25.504  1.00  0.00     0.001 A 
ATOM     73  C   UNL A   1      41.640  19.827  27.064  1.00  0.00     0.001 A 
ATOM     74  C   UNL A   1      42.359  19.593  25.904  1.00  0.00     0.000 A 
ENDBRANCH  55  69
BRANCH  56  75
ATOM     75  C   UNL A   1      41.776  30.505  32.680  1.00  0.00    -0.014 A 
ATOM     76  C   UNL A   1      40.688  29.840  33.303  1.00  0.00     0.009 A 
ATOM     77  C   UNL A   1      41.951  31.866  32.949  1.00  0.00     0.009 A 
ATOM     78  C   UNL A   1      39.878  30.480  34.244  1.00  0.00     0.001 A 
ATOM     79  C   UNL A   1      41.116  32.517  33.874  1.00  0.00     0.001 A 
ATOM     80  C   UNL A   1      40.097  31.821  34.534  1.00  0.00     0.000 A 
ENDBRANCH  56  75
BRANCH  68  81
ATOM     81  C   UNL A   1      44.906  23.958  33.259  1.00  0.00    -0.014 A 
ATOM     82  C   UNL A   1      46.232  23.873  33.702  1.00  0.00     0.009 A 
ATOM     83  C   UNL A   1      44.008  23.007  33.788  1.00  0.00     0.009 A 
ATOM     84  C   UNL A   1      46.664  22.834  34.536  1.00  0.00     0.001 A 
ATOM     85  C   UNL A   1      44.421  21.996  34.658  1.00  0.00     0.001 A 
ATOM     86  C   UNL A   1      45.758  21.895  35.011  1.00  0.00     0.000 A 
ENDBRANCH  68  81
ENDBRANCH  42  43
ENDBRANCH  35  37
ENDBRANCH  34  35
ENDBRANCH  33  34
ENDBRANCH  32  33
ENDBRANCH  31  32
ENDBRANCH   1  31
TORSDOF 19
ENDMDL
MODEL 2
REMARK VINA RESULT:     -12.4      2.012      3.302
REMARK SMILES Cc1ccccc1-c1c(Cl)ccc2c1C=C(C(=O)OCCOCCOCCOC(=O)c1ccc(-c3c4nc(c(-c5ccccc5)c5ccc([nH]5)c(-c5ccccc5)c5nc(c(-c6ccccc6)c6ccc3[nH]6)C=C5)C=C4)cc1)[C@@H](C(F)(F)F)O2
REMARK SMILES IDX 24 1 23 2 22 3 21 4 20 5 19 6 17 7 18 8 16 9 8 10 9 11 14 12
REMARK SMILES IDX 10 13 11 14 13 15 15 16 12 17 84 18 79 19 7 20 1 21 2 22
REMARK SMILES IDX 3 23 4 24 6 25 5 26 80 27 81 28 82 29 83 30 25 31 26 32
REMARK SMILES IDX 27 33 28 34 29 35 30 36 31 37 32 38 78 39 33 40 77 41 34 42
REMARK SMILES IDX 35 43 36 44 71 45 37 46 76 47 70 48 72 49 38 50 75 51 69 52
REMARK SMILES IDX 68 53 39 55 61 56 46 57 60 58 47 59 50 60 59 61 73 62 48 63
REMARK SMILES IDX 49 64 58 66 74 67 51 68 40 69 41 70 45 71 42 72 44 73 43 74
REMARK SMILES IDX 62 75 63 76 67 77 64 78 66 79 65 80 52 81 53 82 57 83 54 84
REMARK SMILES IDX 56 85 55 86
REMARK H PARENT 72 54 50 65
REMARK Flexibility Score: inf
ROOT
ATOM      1  C   UNL A   1      32.859  36.256  29.486  1.00  0.00     0.188 C 
ENDROOT
BRANCH   1   2
ATOM      2  C   UNL A   1      33.301  34.822  29.277  1.00  0.00     0.188 C 
BRANCH   2   3
ATOM      3  O   UNL A   1      33.300  34.138  28.020  1.00  0.00    -0.376 OA
BRANCH   3   4
ATOM      4  C   UNL A   1      32.822  32.841  27.652  1.00  0.00     0.202 C 
BRANCH   4   5
ATOM      5  C   UNL A   1      33.535  31.274  27.410  1.00  0.00     0.261 C 
BRANCH   5   6
ATOM      6  O   UNL A   1      33.631  30.121  26.099  1.00  0.00    -0.460 OA
BRANCH   6   7
ATOM      7  C   UNL A   1      33.661  28.731  25.819  1.00  0.00     0.338 C 
ATOM      8  O   UNL A   1      34.080  27.847  26.559  1.00  0.00    -0.246 OA
BRANCH   7   9
ATOM      9  C   UNL A   1      33.193  28.202  24.479  1.00  0.00     0.087 C 
ATOM     10  C   UNL A   1      33.010  24.486  25.149  1.00  0.00     0.012 A 
ATOM     11  C   UNL A   1      32.110  23.604  25.802  1.00  0.00     0.049 A 
ATOM     12  C   UNL A   1      32.607  25.835  24.926  1.00  0.00     0.027 A 
ATOM     13  Cl  UNL A   1      32.545  21.975  26.216  1.00  0.00    -0.084 Cl
ATOM     14  C   UNL A   1      30.834  24.022  26.181  1.00  0.00     0.025 A 
ATOM     15  C   UNL A   1      31.316  26.229  25.321  1.00  0.00     0.128 A 
ATOM     16  C   UNL A   1      33.538  26.889  24.387  1.00  0.00     0.028 C 
ATOM     17  C   UNL A   1      30.436  25.332  25.937  1.00  0.00     0.049 A 
ATOM     18  O   UNL A   1      30.860  27.515  25.191  1.00  0.00    -0.475 OA
ATOM     19  C   UNL A   1      31.659  28.390  24.351  1.00  0.00     0.316 C 
BRANCH  10  20
ATOM     20  C   UNL A   1      34.352  24.022  24.743  1.00  0.00    -0.013 A 
ATOM     21  C   UNL A   1      33.538  23.291  22.437  1.00  0.00     0.045 C 
ATOM     22  C   UNL A   1      34.595  23.414  23.495  1.00  0.00    -0.043 A 
ATOM     23  C   UNL A   1      35.874  22.912  23.204  1.00  0.00     0.004 A 
ATOM     24  C   UNL A   1      36.921  23.058  24.111  1.00  0.00     0.000 A 
ATOM     25  C   UNL A   1      35.429  24.179  25.635  1.00  0.00     0.009 A 
ATOM     26  C   UNL A   1      36.704  23.711  25.318  1.00  0.00     0.001 A 
ENDBRANCH  10  20
BRANCH  19  27
ATOM     27  C   UNL A   1      31.174  28.255  22.895  1.00  0.00     0.430 C 
ATOM     28  F   UNL A   1      29.832  28.066  22.835  1.00  0.00    -0.167 F 
ATOM     29  F   UNL A   1      31.442  29.382  22.190  1.00  0.00    -0.167 F 
ATOM     30  F   UNL A   1      31.749  27.225  22.232  1.00  0.00    -0.167 F 
ENDBRANCH  19  27
ENDBRANCH   7   9
ENDBRANCH   6   7
ENDBRANCH   5   6
ENDBRANCH   4   5
ENDBRANCH   3   4
ENDBRANCH   2   3
ENDBRANCH   1   2
BRANCH   1  31
ATOM     31  O   UNL A   1      32.487  36.466  30.830  1.00  0.00    -0.376 OA
BRANCH  31  32
ATOM     32  C   UNL A   1      33.567  36.323  31.740  1.00  0.00     0.202 C 
BRANCH  32  33
ATOM     33  C   UNL A   1      33.240  35.395  32.924  1.00  0.00     0.261 C 
BRANCH  33  34
ATOM     34  O   UNL A   1      33.353  34.013  32.521  1.00  0.00    -0.460 OA
BRANCH  34  35
ATOM     35  C   UNL A   1      34.476  33.338  32.927  1.00  0.00     0.338 C 
ATOM     36  O   UNL A   1      34.814  33.168  34.088  1.00  0.00    -0.246 OA
BRANCH  35  37
ATOM     37  C   UNL A   1      35.360  33.098  31.743  1.00  0.00     0.060 A 
ATOM     38  C   UNL A   1      35.493  31.891  31.062  1.00  0.00     0.016 A 
ATOM     39  C   UNL A   1      36.351  33.984  31.517  1.00  0.00     0.016 A 
ATOM     40  C   UNL A   1      36.743  31.502  30.412  1.00  0.00     0.010 A 
ATOM     41  C   UNL A   1      37.579  33.465  31.063  1.00  0.00     0.010 A 
ATOM     42  C   UNL A   1      37.960  32.198  30.543  1.00  0.00    -0.014 A 
BRANCH  42  43
ATOM     43  C   UNL A   1      39.515  31.435  30.355  1.00  0.00     0.031 A 
ATOM     44  C   UNL A   1      40.186  30.219  29.334  1.00  0.00     0.074 A 
ATOM     45  C   UNL A   1      40.531  32.000  31.085  1.00  0.00     0.049 A 
ATOM     46  N   UNL A   1      41.448  29.833  29.360  1.00  0.00    -0.248 NA
ATOM     47  C   UNL A   1      39.603  29.350  28.254  1.00  0.00     0.031 C 
ATOM     48  C   UNL A   1      41.975  31.709  31.133  1.00  0.00     0.029 A 
ATOM     49  N   UNL A   1      40.421  32.985  32.073  1.00  0.00    -0.354 N 
ATOM     50  C   UNL A   1      41.641  28.793  28.467  1.00  0.00     0.074 A 
ATOM     51  C   UNL A   1      40.603  28.883  27.517  1.00  0.00     0.031 C 
ATOM     52  C   UNL A   1      42.494  32.169  32.280  1.00  0.00     0.029 A 
ATOM     53  C   UNL A   1      41.411  32.752  33.031  1.00  0.00     0.049 A 
ATOM     54  H   UNL A   1      39.761  33.714  32.090  1.00  0.00     0.167 HD
ATOM     55  C   UNL A   1      42.349  27.659  28.717  1.00  0.00     0.031 A 
ATOM     56  C   UNL A   1      41.052  32.429  34.298  1.00  0.00     0.031 A 
ATOM     57  C   UNL A   1      42.961  27.704  30.016  1.00  0.00     0.049 A 
ATOM     58  C   UNL A   1      41.419  30.999  34.593  1.00  0.00     0.074 A 
ATOM     59  C   UNL A   1      44.175  28.206  30.433  1.00  0.00     0.029 A 
ATOM     60  N   UNL A   1      42.159  27.562  31.151  1.00  0.00    -0.354 N 
ATOM     61  N   UNL A   1      41.549  30.060  33.692  1.00  0.00    -0.248 NA
ATOM     62  C   UNL A   1      41.733  30.547  35.941  1.00  0.00     0.031 C 
ATOM     63  C   UNL A   1      44.090  28.413  31.830  1.00  0.00     0.029 A 
ATOM     64  C   UNL A   1      42.851  27.975  32.273  1.00  0.00     0.049 A 
ATOM     65  H   UNL A   1      41.236  27.218  31.152  1.00  0.00     0.167 HD
ATOM     66  C   UNL A   1      41.998  28.920  34.303  1.00  0.00     0.074 A 
ATOM     67  C   UNL A   1      42.078  29.270  35.711  1.00  0.00     0.031 C 
ATOM     68  C   UNL A   1      42.351  27.787  33.629  1.00  0.00     0.031 A 
BRANCH  55  69
ATOM     69  C   UNL A   1      42.456  26.532  27.704  1.00  0.00    -0.014 A 
ATOM     70  C   UNL A   1      42.855  26.815  26.393  1.00  0.00     0.009 A 
ATOM     71  C   UNL A   1      42.072  25.194  27.957  1.00  0.00     0.009 A 
ATOM     72  C   UNL A   1      42.777  25.844  25.376  1.00  0.00     0.001 A 
ATOM     73  C   UNL A   1      41.958  24.231  26.944  1.00  0.00     0.001 A 
ATOM     74  C   UNL A   1      42.298  24.563  25.643  1.00  0.00     0.000 A 
ENDBRANCH  55  69
BRANCH  56  75
ATOM     75  C   UNL A   1      39.865  33.184  34.801  1.00  0.00    -0.014 A 
ATOM     76  C   UNL A   1      38.621  32.501  34.807  1.00  0.00     0.009 A 
ATOM     77  C   UNL A   1      39.959  34.379  35.522  1.00  0.00     0.009 A 
ATOM     78  C   UNL A   1      37.551  32.932  35.594  1.00  0.00     0.001 A 
ATOM     79  C   UNL A   1      38.870  34.827  36.290  1.00  0.00     0.001 A 
ATOM     80  C   UNL A   1      37.679  34.096  36.342  1.00  0.00     0.000 A 
ENDBRANCH  56  75
BRANCH  68  81
ATOM     81  C   UNL A   1      42.524  26.429  34.272  1.00  0.00    -0.014 A 
ATOM     82  C   UNL A   1      43.687  25.654  34.175  1.00  0.00     0.009 A 
ATOM     83  C   UNL A   1      41.504  25.923  35.106  1.00  0.00     0.009 A 
ATOM     84  C   UNL A   1      43.786  24.396  34.783  1.00  0.00     0.001 A 
ATOM     85  C   UNL A   1      41.614  24.691  35.754  1.00  0.00     0.001 A 
ATOM     86  C   UNL A   1      42.747  23.915  35.570  1.00  0.00     0.000 A 
ENDBRANCH  68  81
ENDBRANCH  42  43
ENDBRANCH  35  37
ENDBRANCH  34  35
ENDBRANCH  33  34
ENDBRANCH  32  33
ENDBRANCH  31  32
ENDBRANCH   1  31
TORSDOF 19
ENDMDL
MODEL 3
REMARK VINA RESULT:     -12.2      2.142      3.554
REMARK SMILES Cc1ccccc1-c1c(Cl)ccc2c1C=C(C(=O)OCCOCCOCCOC(=O)c1ccc(-c3c4nc(c(-c5ccccc5)c5ccc([nH]5)c(-c5ccccc5)c5nc(c(-c6ccccc6)c6ccc3[nH]6)C=C5)C=C4)cc1)[C@@H](C(F)(F)F)O2
REMARK SMILES IDX 24 1 23 2 22 3 21 4 20 5 19 6 17 7 18 8 16 9 8 10 9 11 14 12
REMARK SMILES IDX 10 13 11 14 13 15 15 16 12 17 84 18 79 19 7 20 1 21 2 22
REMARK SMILES IDX 3 23 4 24 6 25 5 26 80 27 81 28 82 29 83 30 25 31 26 32
REMARK SMILES IDX 27 33 28 34 29 35 30 36 31 37 32 38 78 39 33 40 77 41 34 42
REMARK SMILES IDX 35 43 36 44 71 45 37 46 76 47 70 48 72 49 38 50 75 51 69 52
REMARK SMILES IDX 68 53 39 55 61 56 46 57 60 58 47 59 50 60 59 61 73 62 48 63
REMARK SMILES IDX 49 64 58 66 74 67 51 68 40 69 41 70 45 71 42 72 44 73 43 74
REMARK SMILES IDX 62 75 63 76 67 77 64 78 66 79 65 80 52 81 53 82 57 83 54 84
REMARK SMILES IDX 56 85 55 86
REMARK H PARENT 72 54 50 65
REMARK Flexibility Score: inf
ROOT
ATOM      1  C   UNL A   1      30.620  30.729  25.089  1.00  0.00     0.188 C 
ENDROOT
BRANCH   1   2
ATOM      2  C   UNL A   1      30.554  29.843  23.861  1.00  0.00     0.188 C 
BRANCH   2   3
ATOM      3  O   UNL A   1      29.349  29.357  23.263  1.00  0.00    -0.376 OA
BRANCH   3   4
ATOM      4  C   UNL A   1      28.840  28.029  23.112  1.00  0.00     0.202 C 
BRANCH   4   5
ATOM      5  C   UNL A   1      28.879  26.566  24.051  1.00  0.00     0.261 C 
BRANCH   5   6
ATOM      6  O   UNL A   1      29.473  26.093  25.626  1.00  0.00    -0.460 OA
BRANCH   6   7
ATOM      7  C   UNL A   1      30.316  25.160  26.280  1.00  0.00     0.338 C 
ATOM      8  O   UNL A   1      29.961  24.144  26.868  1.00  0.00    -0.246 OA
BRANCH   7   9
ATOM      9  C   UNL A   1      31.813  25.386  26.350  1.00  0.00     0.087 C 
ATOM     10  C   UNL A   1      32.997  23.616  23.227  1.00  0.00     0.012 A 
ATOM     11  C   UNL A   1      33.030  23.899  21.836  1.00  0.00     0.049 A 
ATOM     12  C   UNL A   1      32.646  24.661  24.131  1.00  0.00     0.027 A 
ATOM     13  Cl  UNL A   1      33.339  22.673  20.647  1.00  0.00    -0.084 Cl
ATOM     14  C   UNL A   1      32.770  25.182  21.353  1.00  0.00     0.025 A 
ATOM     15  C   UNL A   1      32.388  25.943  23.614  1.00  0.00     0.128 A 
ATOM     16  C   UNL A   1      32.431  24.431  25.604  1.00  0.00     0.028 C 
ATOM     17  C   UNL A   1      32.455  26.204  22.241  1.00  0.00     0.049 A 
ATOM     18  O   UNL A   1      31.997  26.996  24.402  1.00  0.00    -0.475 OA
ATOM     19  C   UNL A   1      32.150  26.808  25.834  1.00  0.00     0.316 C 
BRANCH  10  20
ATOM     20  C   UNL A   1      33.288  22.256  23.721  1.00  0.00    -0.013 A 
ATOM     21  C   UNL A   1      35.673  22.870  24.386  1.00  0.00     0.045 C 
ATOM     22  C   UNL A   1      34.554  21.886  24.217  1.00  0.00    -0.043 A 
ATOM     23  C   UNL A   1      34.793  20.552  24.587  1.00  0.00     0.004 A 
ATOM     24  C   UNL A   1      33.777  19.602  24.525  1.00  0.00     0.000 A 
ATOM     25  C   UNL A   1      32.269  21.284  23.689  1.00  0.00     0.009 A 
ATOM     26  C   UNL A   1      32.508  19.973  24.096  1.00  0.00     0.001 A 
ENDBRANCH  10  20
BRANCH  19  27
ATOM     27  C   UNL A   1      33.568  27.256  26.242  1.00  0.00     0.430 C 
ATOM     28  F   UNL A   1      34.415  26.201  26.331  1.00  0.00    -0.167 F 
ATOM     29  F   UNL A   1      34.091  28.102  25.320  1.00  0.00    -0.167 F 
ATOM     30  F   UNL A   1      33.604  27.896  27.434  1.00  0.00    -0.167 F 
ENDBRANCH  19  27
ENDBRANCH   7   9
ENDBRANCH   6   7
ENDBRANCH   5   6
ENDBRANCH   4   5
ENDBRANCH   3   4
ENDBRANCH   2   3
ENDBRANCH   1   2
BRANCH   1  31
ATOM     31  O   UNL A   1      31.476  30.165  26.057  1.00  0.00    -0.376 OA
BRANCH  31  32
ATOM     32  C   UNL A   1      32.739  30.808  26.133  1.00  0.00     0.202 C 
BRANCH  32  33
ATOM     33  C   UNL A   1      33.110  31.243  27.562  1.00  0.00     0.261 C 
BRANCH  33  34
ATOM     34  O   UNL A   1      34.485  31.683  27.609  1.00  0.00    -0.460 OA
BRANCH  34  35
ATOM     35  C   UNL A   1      35.153  31.505  28.794  1.00  0.00     0.338 C 
ATOM     36  O   UNL A   1      35.276  32.351  29.666  1.00  0.00    -0.246 OA
BRANCH  35  37
ATOM     37  C   UNL A   1      35.943  30.234  28.728  1.00  0.00     0.060 A 
ATOM     38  C   UNL A   1      36.655  29.668  29.780  1.00  0.00     0.016 A 
ATOM     39  C   UNL A   1      36.284  29.777  27.506  1.00  0.00     0.016 A 
ATOM     40  C   UNL A   1      37.870  28.885  29.560  1.00  0.00     0.010 A 
ATOM     41  C   UNL A   1      37.562  29.204  27.374  1.00  0.00     0.010 A 
ATOM     42  C   UNL A   1      38.528  28.764  28.321  1.00  0.00    -0.014 A 
BRANCH  42  43
ATOM     43  C   UNL A   1      40.232  28.430  28.179  1.00  0.00     0.031 A 
ATOM     44  C   UNL A   1      41.206  27.289  27.331  1.00  0.00     0.074 A 
ATOM     45  C   UNL A   1      41.057  29.361  28.758  1.00  0.00     0.049 A 
ATOM     46  N   UNL A   1      42.526  27.267  27.355  1.00  0.00    -0.248 NA
ATOM     47  C   UNL A   1      40.879  26.128  26.432  1.00  0.00     0.031 C 
ATOM     48  C   UNL A   1      42.525  29.484  28.780  1.00  0.00     0.029 A 
ATOM     49  N   UNL A   1      40.685  30.429  29.582  1.00  0.00    -0.354 N 
ATOM     50  C   UNL A   1      42.993  26.186  26.628  1.00  0.00     0.074 A 
ATOM     51  C   UNL A   1      41.966  25.833  25.729  1.00  0.00     0.031 C 
ATOM     52  C   UNL A   1      42.903  30.249  29.813  1.00  0.00     0.029 A 
ATOM     53  C   UNL A   1      41.705  30.634  30.515  1.00  0.00     0.049 A 
ATOM     54  H   UNL A   1      39.850  30.945  29.518  1.00  0.00     0.167 HD
ATOM     55  C   UNL A   1      43.987  25.343  27.018  1.00  0.00     0.031 A 
ATOM     56  C   UNL A   1      41.454  30.441  31.834  1.00  0.00     0.031 A 
ATOM     57  C   UNL A   1      44.568  25.766  28.262  1.00  0.00     0.049 A 
ATOM     58  C   UNL A   1      42.202  29.233  32.332  1.00  0.00     0.074 A 
ATOM     59  C   UNL A   1      45.600  26.639  28.534  1.00  0.00     0.029 A 
ATOM     60  N   UNL A   1      43.841  25.603  29.444  1.00  0.00    -0.354 N 
ATOM     61  N   UNL A   1      42.581  28.228  31.586  1.00  0.00    -0.248 NA
ATOM     62  C   UNL A   1      42.634  29.112  33.717  1.00  0.00     0.031 C 
ATOM     63  C   UNL A   1      45.468  27.044  29.883  1.00  0.00     0.029 A 
ATOM     64  C   UNL A   1      44.399  26.367  30.450  1.00  0.00     0.049 A 
ATOM     65  H   UNL A   1      43.049  25.027  29.545  1.00  0.00     0.167 HD
ATOM     66  C   UNL A   1      43.328  27.369  32.346  1.00  0.00     0.074 A 
ATOM     67  C   UNL A   1      43.316  27.956  33.675  1.00  0.00     0.031 C 
ATOM     68  C   UNL A   1      43.976  26.278  31.843  1.00  0.00     0.031 A 
BRANCH  55  69
ATOM     69  C   UNL A   1      44.394  24.135  26.192  1.00  0.00    -0.014 A 
ATOM     70  C   UNL A   1      45.245  24.302  25.094  1.00  0.00     0.009 A 
ATOM     71  C   UNL A   1      43.884  22.829  26.385  1.00  0.00     0.009 A 
ATOM     72  C   UNL A   1      45.489  23.253  24.187  1.00  0.00     0.001 A 
ATOM     73  C   UNL A   1      44.093  21.788  25.468  1.00  0.00     0.001 A 
ATOM     74  C   UNL A   1      44.887  22.007  24.355  1.00  0.00     0.000 A 
ENDBRANCH  55  69
BRANCH  56  75
ATOM     75  C   UNL A   1      40.108  30.919  32.269  1.00  0.00    -0.014 A 
ATOM     76  C   UNL A   1      39.198  29.940  32.746  1.00  0.00     0.009 A 
ATOM     77  C   UNL A   1      39.808  32.264  32.511  1.00  0.00     0.009 A 
ATOM     78  C   UNL A   1      38.095  30.283  33.530  1.00  0.00     0.001 A 
ATOM     79  C   UNL A   1      38.680  32.609  33.276  1.00  0.00     0.001 A 
ATOM     80  C   UNL A   1      37.839  31.622  33.800  1.00  0.00     0.000 A 
ENDBRANCH  56  75
BRANCH  68  81
ATOM     81  C   UNL A   1      44.518  25.143  32.682  1.00  0.00    -0.014 A 
ATOM     82  C   UNL A   1      43.839  23.940  32.914  1.00  0.00     0.009 A 
ATOM     83  C   UNL A   1      45.829  25.230  33.200  1.00  0.00     0.009 A 
ATOM     84  C   UNL A   1      44.387  22.927  33.711  1.00  0.00     0.001 A 
ATOM     85  C   UNL A   1      46.401  24.205  33.956  1.00  0.00     0.001 A 
ATOM     86  C   UNL A   1      45.667  23.062  34.233  1.00  0.00     0.000 A 
ENDBRANCH  68  81
ENDBRANCH  42  43
ENDBRANCH  35  37
ENDBRANCH  34  35
ENDBRANCH  33  34
ENDBRANCH  32  33
ENDBRANCH  31  32
ENDBRANCH   1  31
TORSDOF 19
ENDMDL
