MODEL 1
REMARK VINA RESULT:      -9.8      0.000      0.000
REMARK SMILES O=C(OCCOCCOCCOC(=O)[C@H]1C[C@H](O)CN1C(=O)c1ccccc1O)c1ccc(-c2c3nc(c(-c4ccccc4)c4ccc([nH]4)c(-c4ccccc4)c4nc(c(-c5ccccc5)c5ccc2[nH]5)C=C4)C=C3)cc1
REMARK SMILES IDX 8 1 7 2 6 3 5 4 4 5 3 6 2 7 1 8 30 9 31 10 77 11 32 12 76 13
REMARK SMILES IDX 33 14 34 15 35 16 70 17 36 18 75 19 69 20 71 21 37 22 74 23
REMARK SMILES IDX 68 24 67 25 38 27 60 28 45 29 59 30 46 31 49 32 58 33 72 34
REMARK SMILES IDX 47 35 48 36 57 38 73 39 50 40 39 41 40 42 44 43 41 44 43 45
REMARK SMILES IDX 42 46 61 47 62 48 66 49 63 50 65 51 64 52 51 53 52 54 56 55
REMARK SMILES IDX 53 56 55 57 54 58 9 59 10 60 11 61 12 62 13 63 14 64 15 65
REMARK SMILES IDX 16 66 20 67 17 68 19 69 21 70 22 71 23 72 24 73 28 74 25 75
REMARK SMILES IDX 27 76 26 77 29 78 18 80
REMARK H PARENT 71 26 49 37 29 79 18 81
REMARK Flexibility Score: inf
ROOT
ATOM      1  C   UNL A   1      34.425  21.949  26.876  1.00  0.00     0.188 C 
ENDROOT
BRANCH   1   2
ATOM      2  C   UNL A   1      34.186  21.012  25.692  1.00  0.00     0.188 C 
BRANCH   2   3
ATOM      3  O   UNL A   1      35.146  21.182  24.642  1.00  0.00    -0.376 OA
BRANCH   3   4
ATOM      4  C   UNL A   1      36.480  20.798  24.994  1.00  0.00     0.202 C 
BRANCH   4   5
ATOM      5  C   UNL A   1      37.567  21.875  24.819  1.00  0.00     0.261 C 
BRANCH   5   6
ATOM      6  O   UNL A   1      38.061  22.422  26.055  1.00  0.00    -0.460 OA
BRANCH   6   7
ATOM      7  C   UNL A   1      39.344  22.526  26.481  1.00  0.00     0.338 C 
ATOM      8  O   UNL A   1      40.045  21.516  26.493  1.00  0.00    -0.246 OA
BRANCH   7   9
ATOM      9  C   UNL A   1      39.961  23.807  26.948  1.00  0.00     0.060 A 
ATOM     10  C   UNL A   1      40.664  23.964  28.140  1.00  0.00     0.016 A 
ATOM     11  C   UNL A   1      39.871  24.920  26.095  1.00  0.00     0.016 A 
ATOM     12  C   UNL A   1      41.158  25.192  28.543  1.00  0.00     0.010 A 
ATOM     13  C   UNL A   1      40.411  26.157  26.465  1.00  0.00     0.010 A 
ATOM     14  C   UNL A   1      41.017  26.299  27.718  1.00  0.00    -0.014 A 
BRANCH  14  15
ATOM     15  C   UNL A   1      41.358  27.614  28.290  1.00  0.00     0.031 A 
ATOM     16  C   UNL A   1      42.790  28.035  28.258  1.00  0.00     0.074 A 
ATOM     17  C   UNL A   1      40.383  28.464  28.656  1.00  0.00     0.049 A 
ATOM     18  N   UNL A   1      43.331  29.146  28.676  1.00  0.00    -0.248 NA
ATOM     19  C   UNL A   1      43.738  27.086  27.652  1.00  0.00     0.031 C 
ATOM     20  C   UNL A   1      38.956  28.175  28.551  1.00  0.00     0.029 A 
ATOM     21  N   UNL A   1      40.427  29.742  29.136  1.00  0.00    -0.354 N 
ATOM     22  C   UNL A   1      44.687  29.013  28.415  1.00  0.00     0.074 A 
ATOM     23  C   UNL A   1      44.889  27.714  27.816  1.00  0.00     0.031 C 
ATOM     24  C   UNL A   1      38.252  29.254  28.928  1.00  0.00     0.029 A 
ATOM     25  C   UNL A   1      39.184  30.282  29.368  1.00  0.00     0.049 A 
ATOM     26  H   UNL A   1      41.267  30.229  29.301  1.00  0.00     0.167 HD
ATOM     27  C   UNL A   1      45.672  29.902  28.671  1.00  0.00     0.031 A 
ATOM     28  C   UNL A   1      38.847  31.469  29.902  1.00  0.00     0.031 A 
ATOM     29  C   UNL A   1      45.432  31.172  29.296  1.00  0.00     0.049 A 
ATOM     30  C   UNL A   1      39.968  32.384  30.303  1.00  0.00     0.074 A 
ATOM     31  C   UNL A   1      46.342  32.136  29.680  1.00  0.00     0.029 A 
ATOM     32  N   UNL A   1      44.169  31.648  29.633  1.00  0.00    -0.354 N 
ATOM     33  N   UNL A   1      41.260  32.225  30.127  1.00  0.00    -0.248 NA
ATOM     34  C   UNL A   1      39.596  33.630  30.979  1.00  0.00     0.031 C 
ATOM     35  C   UNL A   1      45.634  33.167  30.309  1.00  0.00     0.029 A 
ATOM     36  C   UNL A   1      44.277  32.881  30.249  1.00  0.00     0.049 A 
ATOM     37  H   UNL A   1      43.323  31.176  29.459  1.00  0.00     0.167 HD
ATOM     38  C   UNL A   1      41.857  33.362  30.648  1.00  0.00     0.074 A 
ATOM     39  C   UNL A   1      40.780  34.207  31.131  1.00  0.00     0.031 C 
ATOM     40  C   UNL A   1      43.174  33.684  30.718  1.00  0.00     0.031 A 
BRANCH  27  41
ATOM     41  C   UNL A   1      47.075  29.447  28.379  1.00  0.00    -0.014 A 
ATOM     42  C   UNL A   1      47.673  29.641  27.123  1.00  0.00     0.009 A 
ATOM     43  C   UNL A   1      47.773  28.721  29.356  1.00  0.00     0.009 A 
ATOM     44  C   UNL A   1      48.913  29.064  26.834  1.00  0.00     0.001 A 
ATOM     45  C   UNL A   1      49.025  28.175  29.075  1.00  0.00     0.001 A 
ATOM     46  C   UNL A   1      49.587  28.331  27.809  1.00  0.00     0.000 A 
ENDBRANCH  27  41
BRANCH  28  47
ATOM     47  C   UNL A   1      37.419  31.827  30.122  1.00  0.00    -0.014 A 
ATOM     48  C   UNL A   1      36.795  31.590  31.355  1.00  0.00     0.009 A 
ATOM     49  C   UNL A   1      36.667  32.420  29.093  1.00  0.00     0.009 A 
ATOM     50  C   UNL A   1      35.449  31.922  31.547  1.00  0.00     0.001 A 
ATOM     51  C   UNL A   1      35.333  32.781  29.297  1.00  0.00     0.001 A 
ATOM     52  C   UNL A   1      34.722  32.522  30.521  1.00  0.00     0.000 A 
ENDBRANCH  28  47
BRANCH  40  53
ATOM     53  C   UNL A   1      43.504  35.027  31.299  1.00  0.00    -0.014 A 
ATOM     54  C   UNL A   1      43.662  35.210  32.681  1.00  0.00     0.009 A 
ATOM     55  C   UNL A   1      43.702  36.115  30.435  1.00  0.00     0.009 A 
ATOM     56  C   UNL A   1      43.981  36.470  33.189  1.00  0.00     0.001 A 
ATOM     57  C   UNL A   1      44.056  37.363  30.943  1.00  0.00     0.001 A 
ATOM     58  C   UNL A   1      44.185  37.541  32.319  1.00  0.00     0.000 A 
ENDBRANCH  40  53
ENDBRANCH  14  15
ENDBRANCH   7   9
ENDBRANCH   6   7
ENDBRANCH   5   6
ENDBRANCH   4   5
ENDBRANCH   3   4
ENDBRANCH   2   3
ENDBRANCH   1   2
BRANCH   1  59
ATOM     59  O   UNL A   1      33.616  23.123  26.938  1.00  0.00    -0.376 OA
BRANCH  59  60
ATOM     60  C   UNL A   1      32.232  22.938  27.219  1.00  0.00     0.202 C 
BRANCH  60  61
ATOM     61  C   UNL A   1      31.225  23.855  26.501  1.00  0.00     0.261 C 
BRANCH  61  62
ATOM     62  O   UNL A   1      31.523  25.255  26.626  1.00  0.00    -0.462 OA
BRANCH  62  63
ATOM     63  C   UNL A   1      32.021  25.860  25.505  1.00  0.00     0.329 C 
ATOM     64  O   UNL A   1      32.726  25.304  24.678  1.00  0.00    -0.250 OA
BRANCH  63  65
ATOM     65  C   UNL A   1      31.608  27.346  25.456  1.00  0.00     0.198 C 
ATOM     66  C   UNL A   1      32.435  28.151  26.445  1.00  0.00     0.071 C 
ATOM     67  N   UNL A   1      31.945  27.940  24.160  1.00  0.00    -0.322 N 
ATOM     68  C   UNL A   1      33.668  28.566  25.645  1.00  0.00     0.136 C 
ATOM     69  C   UNL A   1      33.082  28.843  24.261  1.00  0.00     0.152 C 
BRANCH  67  70
ATOM     70  C   UNL A   1      31.168  27.713  23.044  1.00  0.00     0.258 C 
ATOM     71  O   UNL A   1      31.508  26.919  22.168  1.00  0.00    -0.269 OA
BRANCH  70  72
ATOM     72  C   UNL A   1      29.905  28.473  22.858  1.00  0.00     0.081 A 
ATOM     73  C   UNL A   1      28.736  27.946  23.423  1.00  0.00     0.018 A 
ATOM     74  C   UNL A   1      29.809  29.583  22.007  1.00  0.00     0.128 A 
ATOM     75  C   UNL A   1      27.502  28.555  23.184  1.00  0.00     0.001 A 
ATOM     76  C   UNL A   1      28.581  30.205  21.786  1.00  0.00     0.047 A 
ATOM     77  C   UNL A   1      27.428  29.690  22.376  1.00  0.00     0.004 A 
BRANCH  74  78
ATOM     78  O   UNL A   1      30.909  30.059  21.352  1.00  0.00    -0.507 OA
ATOM     79  H   UNL A   1      31.734  29.627  21.448  1.00  0.00     0.293 HD
ENDBRANCH  74  78
ENDBRANCH  70  72
ENDBRANCH  67  70
BRANCH  68  80
ATOM     80  O   UNL A   1      34.290  29.702  26.225  1.00  0.00    -0.391 OA
ATOM     81  H   UNL A   1      34.889  30.108  25.580  1.00  0.00     0.211 HD
ENDBRANCH  68  80
ENDBRANCH  63  65
ENDBRANCH  62  63
ENDBRANCH  61  62
ENDBRANCH  60  61
ENDBRANCH  59  60
ENDBRANCH   1  59
TORSDOF 21
ENDMDL
MODEL 2
REMARK VINA RESULT:      -9.7      1.895      6.414
REMARK SMILES O=C(OCCOCCOCCOC(=O)[C@H]1C[C@H](O)CN1C(=O)c1ccccc1O)c1ccc(-c2c3nc(c(-c4ccccc4)c4ccc([nH]4)c(-c4ccccc4)c4nc(c(-c5ccccc5)c5ccc2[nH]5)C=C4)C=C3)cc1
REMARK SMILES IDX 8 1 7 2 6 3 5 4 4 5 3 6 2 7 1 8 30 9 31 10 77 11 32 12 76 13
REMARK SMILES IDX 33 14 34 15 35 16 70 17 36 18 75 19 69 20 71 21 37 22 74 23
REMARK SMILES IDX 68 24 67 25 38 27 60 28 45 29 59 30 46 31 49 32 58 33 72 34
REMARK SMILES IDX 47 35 48 36 57 38 73 39 50 40 39 41 40 42 44 43 41 44 43 45
REMARK SMILES IDX 42 46 61 47 62 48 66 49 63 50 65 51 64 52 51 53 52 54 56 55
REMARK SMILES IDX 53 56 55 57 54 58 9 59 10 60 11 61 12 62 13 63 14 64 15 65
REMARK SMILES IDX 16 66 20 67 17 68 19 69 21 70 22 71 23 72 24 73 28 74 25 75
REMARK SMILES IDX 27 76 26 77 29 78 18 80
REMARK H PARENT 71 26 49 37 29 79 18 81
REMARK Flexibility Score: inf
ROOT
ATOM      1  C   UNL A   1      34.517  22.069  25.043  1.00  0.00     0.188 C 
ENDROOT
BRANCH   1   2
ATOM      2  C   UNL A   1      35.394  22.601  23.908  1.00  0.00     0.188 C 
BRANCH   2   3
ATOM      3  O   UNL A   1      36.753  22.156  23.997  1.00  0.00    -0.376 OA
BRANCH   3   4
ATOM      4  C   UNL A   1      37.005  21.235  25.065  1.00  0.00     0.202 C 
BRANCH   4   5
ATOM      5  C   UNL A   1      38.111  20.192  24.818  1.00  0.00     0.261 C 
BRANCH   5   6
ATOM      6  O   UNL A   1      38.955  19.947  25.956  1.00  0.00    -0.460 OA
BRANCH   6   7
ATOM      7  C   UNL A   1      40.304  20.055  26.049  1.00  0.00     0.338 C 
ATOM      8  O   UNL A   1      40.999  19.121  25.654  1.00  0.00    -0.246 OA
BRANCH   7   9
ATOM      9  C   UNL A   1      41.002  21.252  26.613  1.00  0.00     0.060 A 
ATOM     10  C   UNL A   1      41.034  21.592  27.963  1.00  0.00     0.016 A 
ATOM     11  C   UNL A   1      41.725  22.063  25.722  1.00  0.00     0.016 A 
ATOM     12  C   UNL A   1      41.646  22.747  28.415  1.00  0.00     0.010 A 
ATOM     13  C   UNL A   1      42.395  23.207  26.171  1.00  0.00     0.010 A 
ATOM     14  C   UNL A   1      42.313  23.572  27.518  1.00  0.00    -0.014 A 
BRANCH  14  15
ATOM     15  C   UNL A   1      42.749  24.891  28.011  1.00  0.00     0.031 A 
ATOM     16  C   UNL A   1      41.696  25.913  28.288  1.00  0.00     0.074 A 
ATOM     17  C   UNL A   1      44.030  25.088  28.365  1.00  0.00     0.049 A 
ATOM     18  N   UNL A   1      41.827  27.127  28.744  1.00  0.00    -0.248 NA
ATOM     19  C   UNL A   1      40.304  25.503  28.037  1.00  0.00     0.031 C 
ATOM     20  C   UNL A   1      45.075  24.072  28.279  1.00  0.00     0.029 A 
ATOM     21  N   UNL A   1      44.666  26.170  28.907  1.00  0.00    -0.354 N 
ATOM     22  C   UNL A   1      40.538  27.637  28.802  1.00  0.00     0.074 A 
ATOM     23  C   UNL A   1      39.642  26.610  28.325  1.00  0.00     0.031 C 
ATOM     24  C   UNL A   1      46.220  24.564  28.777  1.00  0.00     0.029 A 
ATOM     25  C   UNL A   1      46.001  25.954  29.150  1.00  0.00     0.049 A 
ATOM     26  H   UNL A   1      44.211  27.021  29.104  1.00  0.00     0.167 HD
ATOM     27  C   UNL A   1      40.149  28.866  29.209  1.00  0.00     0.031 A 
ATOM     28  C   UNL A   1      46.942  26.802  29.601  1.00  0.00     0.031 A 
ATOM     29  C   UNL A   1      41.076  29.870  29.649  1.00  0.00     0.049 A 
ATOM     30  C   UNL A   1      46.507  28.204  29.917  1.00  0.00     0.074 A 
ATOM     31  C   UNL A   1      40.831  31.177  30.018  1.00  0.00     0.029 A 
ATOM     32  N   UNL A   1      42.447  29.665  29.772  1.00  0.00    -0.354 N 
ATOM     33  N   UNL A   1      45.296  28.711  29.897  1.00  0.00    -0.248 NA
ATOM     34  C   UNL A   1      47.556  29.151  30.307  1.00  0.00     0.031 C 
ATOM     35  C   UNL A   1      42.061  31.781  30.301  1.00  0.00     0.029 A 
ATOM     36  C   UNL A   1      43.065  30.831  30.184  1.00  0.00     0.049 A 
ATOM     37  H   UNL A   1      42.909  28.814  29.593  1.00  0.00     0.167 HD
ATOM     38  C   UNL A   1      45.431  30.031  30.297  1.00  0.00     0.074 A 
ATOM     39  C   UNL A   1      46.842  30.237  30.566  1.00  0.00     0.031 C 
ATOM     40  C   UNL A   1      44.478  30.988  30.434  1.00  0.00     0.031 A 
BRANCH  27  41
ATOM     41  C   UNL A   1      38.688  29.186  29.065  1.00  0.00    -0.014 A 
ATOM     42  C   UNL A   1      38.162  29.751  27.891  1.00  0.00     0.009 A 
ATOM     43  C   UNL A   1      37.840  29.007  30.168  1.00  0.00     0.009 A 
ATOM     44  C   UNL A   1      36.834  30.185  27.849  1.00  0.00     0.001 A 
ATOM     45  C   UNL A   1      36.506  29.411  30.112  1.00  0.00     0.001 A 
ATOM     46  C   UNL A   1      36.008  30.016  28.959  1.00  0.00     0.000 A 
ENDBRANCH  27  41
BRANCH  28  47
ATOM     47  C   UNL A   1      48.359  26.367  29.730  1.00  0.00    -0.014 A 
ATOM     48  C   UNL A   1      49.260  26.505  28.663  1.00  0.00     0.009 A 
ATOM     49  C   UNL A   1      48.828  25.814  30.935  1.00  0.00     0.009 A 
ATOM     50  C   UNL A   1      50.588  26.083  28.793  1.00  0.00     0.001 A 
ATOM     51  C   UNL A   1      50.162  25.425  31.073  1.00  0.00     0.001 A 
ATOM     52  C   UNL A   1      51.039  25.550  29.999  1.00  0.00     0.000 A 
ENDBRANCH  28  47
BRANCH  40  53
ATOM     53  C   UNL A   1      44.938  32.323  30.942  1.00  0.00    -0.014 A 
ATOM     54  C   UNL A   1      45.317  33.350  30.064  1.00  0.00     0.009 A 
ATOM     55  C   UNL A   1      44.945  32.563  32.324  1.00  0.00     0.009 A 
ATOM     56  C   UNL A   1      45.728  34.585  30.567  1.00  0.00     0.001 A 
ATOM     57  C   UNL A   1      45.322  33.809  32.821  1.00  0.00     0.001 A 
ATOM     58  C   UNL A   1      45.723  34.814  31.943  1.00  0.00     0.000 A 
ENDBRANCH  40  53
ENDBRANCH  14  15
ENDBRANCH   7   9
ENDBRANCH   6   7
ENDBRANCH   5   6
ENDBRANCH   4   5
ENDBRANCH   3   4
ENDBRANCH   2   3
ENDBRANCH   1   2
BRANCH   1  59
ATOM     59  O   UNL A   1      33.228  21.576  24.677  1.00  0.00    -0.376 OA
BRANCH  59  60
ATOM     60  C   UNL A   1      32.131  22.472  24.821  1.00  0.00     0.202 C 
BRANCH  60  61
ATOM     61  C   UNL A   1      32.355  23.756  25.642  1.00  0.00     0.261 C 
BRANCH  61  62
ATOM     62  O   UNL A   1      31.823  24.939  25.025  1.00  0.00    -0.462 OA
BRANCH  62  63
ATOM     63  C   UNL A   1      30.835  25.579  25.722  1.00  0.00     0.329 C 
ATOM     64  O   UNL A   1      29.950  25.010  26.342  1.00  0.00    -0.250 OA
BRANCH  63  65
ATOM     65  C   UNL A   1      30.965  27.110  25.577  1.00  0.00     0.198 C 
ATOM     66  C   UNL A   1      31.940  27.651  26.609  1.00  0.00     0.071 C 
ATOM     67  N   UNL A   1      31.584  27.463  24.297  1.00  0.00    -0.322 N 
ATOM     68  C   UNL A   1      33.299  27.566  25.915  1.00  0.00     0.136 C 
ATOM     69  C   UNL A   1      32.952  27.930  24.473  1.00  0.00     0.152 C 
BRANCH  67  70
ATOM     70  C   UNL A   1      30.866  27.437  23.122  1.00  0.00     0.258 C 
ATOM     71  O   UNL A   1      31.108  26.624  22.231  1.00  0.00    -0.269 OA
BRANCH  70  72
ATOM     72  C   UNL A   1      29.795  28.441  22.891  1.00  0.00     0.081 A 
ATOM     73  C   UNL A   1      28.487  28.100  23.261  1.00  0.00     0.018 A 
ATOM     74  C   UNL A   1      30.011  29.624  22.169  1.00  0.00     0.128 A 
ATOM     75  C   UNL A   1      27.425  28.956  22.963  1.00  0.00     0.001 A 
ATOM     76  C   UNL A   1      28.954  30.490  21.890  1.00  0.00     0.047 A 
ATOM     77  C   UNL A   1      27.661  30.154  22.290  1.00  0.00     0.004 A 
BRANCH  74  78
ATOM     78  O   UNL A   1      31.252  29.938  21.695  1.00  0.00    -0.507 OA
ATOM     79  H   UNL A   1      31.695  30.699  22.013  1.00  0.00     0.293 HD
ENDBRANCH  74  78
ENDBRANCH  70  72
ENDBRANCH  67  70
BRANCH  68  80
ATOM     80  O   UNL A   1      34.227  28.460  26.509  1.00  0.00    -0.391 OA
ATOM     81  H   UNL A   1      34.031  28.549  27.455  1.00  0.00     0.211 HD
ENDBRANCH  68  80
ENDBRANCH  63  65
ENDBRANCH  62  63
ENDBRANCH  61  62
ENDBRANCH  60  61
ENDBRANCH  59  60
ENDBRANCH   1  59
TORSDOF 21
ENDMDL
MODEL 3
REMARK VINA RESULT:      -9.6      3.606      5.445
REMARK SMILES O=C(OCCOCCOCCOC(=O)[C@H]1C[C@H](O)CN1C(=O)c1ccccc1O)c1ccc(-c2c3nc(c(-c4ccccc4)c4ccc([nH]4)c(-c4ccccc4)c4nc(c(-c5ccccc5)c5ccc2[nH]5)C=C4)C=C3)cc1
REMARK SMILES IDX 8 1 7 2 6 3 5 4 4 5 3 6 2 7 1 8 30 9 31 10 77 11 32 12 76 13
REMARK SMILES IDX 33 14 34 15 35 16 70 17 36 18 75 19 69 20 71 21 37 22 74 23
REMARK SMILES IDX 68 24 67 25 38 27 60 28 45 29 59 30 46 31 49 32 58 33 72 34
REMARK SMILES IDX 47 35 48 36 57 38 73 39 50 40 39 41 40 42 44 43 41 44 43 45
REMARK SMILES IDX 42 46 61 47 62 48 66 49 63 50 65 51 64 52 51 53 52 54 56 55
REMARK SMILES IDX 53 56 55 57 54 58 9 59 10 60 11 61 12 62 13 63 14 64 15 65
REMARK SMILES IDX 16 66 20 67 17 68 19 69 21 70 22 71 23 72 24 73 28 74 25 75
REMARK SMILES IDX 27 76 26 77 29 78 18 80
REMARK H PARENT 71 26 49 37 29 79 18 81
REMARK Flexibility Score: inf
ROOT
ATOM      1  C   UNL A   1      40.065  22.152  26.662  1.00  0.00     0.188 C 
ENDROOT
BRANCH   1   2
ATOM      2  C   UNL A   1      40.787  21.095  27.498  1.00  0.00     0.188 C 
BRANCH   2   3
ATOM      3  O   UNL A   1      42.176  20.975  27.168  1.00  0.00    -0.376 OA
BRANCH   3   4
ATOM      4  C   UNL A   1      42.477  21.208  25.787  1.00  0.00     0.202 C 
BRANCH   4   5
ATOM      5  C   UNL A   1      43.780  21.975  25.495  1.00  0.00     0.261 C 
BRANCH   5   6
ATOM      6  O   UNL A   1      43.588  23.227  24.812  1.00  0.00    -0.460 OA
BRANCH   6   7
ATOM      7  C   UNL A   1      44.035  24.459  25.160  1.00  0.00     0.338 C 
ATOM      8  O   UNL A   1      45.077  24.872  24.653  1.00  0.00    -0.246 OA
BRANCH   7   9
ATOM      9  C   UNL A   1      43.334  25.351  26.135  1.00  0.00     0.060 A 
ATOM     10  C   UNL A   1      43.615  26.702  26.323  1.00  0.00     0.016 A 
ATOM     11  C   UNL A   1      42.278  24.797  26.878  1.00  0.00     0.016 A 
ATOM     12  C   UNL A   1      42.970  27.458  27.286  1.00  0.00     0.010 A 
ATOM     13  C   UNL A   1      41.581  25.563  27.820  1.00  0.00     0.010 A 
ATOM     14  C   UNL A   1      41.964  26.887  28.054  1.00  0.00    -0.014 A 
BRANCH  14  15
ATOM     15  C   UNL A   1      41.473  27.664  29.206  1.00  0.00     0.031 A 
ATOM     16  C   UNL A   1      42.297  27.657  30.451  1.00  0.00     0.074 A 
ATOM     17  C   UNL A   1      40.418  28.485  29.065  1.00  0.00     0.049 A 
ATOM     18  N   UNL A   1      42.087  28.276  31.580  1.00  0.00    -0.248 NA
ATOM     19  C   UNL A   1      43.537  26.865  30.411  1.00  0.00     0.031 C 
ATOM     20  C   UNL A   1      39.674  28.665  27.823  1.00  0.00     0.029 A 
ATOM     21  N   UNL A   1      39.819  29.351  29.936  1.00  0.00    -0.354 N 
ATOM     22  C   UNL A   1      43.151  27.918  32.396  1.00  0.00     0.074 A 
ATOM     23  C   UNL A   1      43.996  27.023  31.640  1.00  0.00     0.031 C 
ATOM     24  C   UNL A   1      38.732  29.604  27.996  1.00  0.00     0.029 A 
ATOM     25  C   UNL A   1      38.765  30.039  29.385  1.00  0.00     0.049 A 
ATOM     26  H   UNL A   1      40.115  29.470  30.868  1.00  0.00     0.167 HD
ATOM     27  C   UNL A   1      43.385  28.301  33.670  1.00  0.00     0.031 A 
ATOM     28  C   UNL A   1      37.909  30.904  29.957  1.00  0.00     0.031 A 
ATOM     29  C   UNL A   1      42.503  29.171  34.396  1.00  0.00     0.049 A 
ATOM     30  C   UNL A   1      38.111  31.208  31.413  1.00  0.00     0.074 A 
ATOM     31  C   UNL A   1      42.577  29.581  35.712  1.00  0.00     0.029 A 
ATOM     32  N   UNL A   1      41.369  29.762  33.850  1.00  0.00    -0.354 N 
ATOM     33  N   UNL A   1      39.076  30.807  32.209  1.00  0.00    -0.248 NA
ATOM     34  C   UNL A   1      37.113  32.069  32.055  1.00  0.00     0.031 C 
ATOM     35  C   UNL A   1      41.451  30.368  35.980  1.00  0.00     0.029 A 
ATOM     36  C   UNL A   1      40.716  30.512  34.811  1.00  0.00     0.049 A 
ATOM     37  H   UNL A   1      41.074  29.662  32.916  1.00  0.00     0.167 HD
ATOM     38  C   UNL A   1      38.818  31.388  33.441  1.00  0.00     0.074 A 
ATOM     39  C   UNL A   1      37.613  32.179  33.278  1.00  0.00     0.031 C 
ATOM     40  C   UNL A   1      39.513  31.281  34.602  1.00  0.00     0.031 A 
BRANCH  27  41
ATOM     41  C   UNL A   1      44.567  27.671  34.351  1.00  0.00    -0.014 A 
ATOM     42  C   UNL A   1      44.446  26.506  35.128  1.00  0.00     0.009 A 
ATOM     43  C   UNL A   1      45.812  28.316  34.290  1.00  0.00     0.009 A 
ATOM     44  C   UNL A   1      45.530  26.040  35.877  1.00  0.00     0.001 A 
ATOM     45  C   UNL A   1      46.901  27.829  35.013  1.00  0.00     0.001 A 
ATOM     46  C   UNL A   1      46.755  26.702  35.820  1.00  0.00     0.000 A 
ENDBRANCH  27  41
BRANCH  28  47
ATOM     47  C   UNL A   1      36.786  31.490  29.176  1.00  0.00    -0.014 A 
ATOM     48  C   UNL A   1      36.815  32.828  28.757  1.00  0.00     0.009 A 
ATOM     49  C   UNL A   1      35.670  30.705  28.834  1.00  0.00     0.009 A 
ATOM     50  C   UNL A   1      35.749  33.371  28.032  1.00  0.00     0.001 A 
ATOM     51  C   UNL A   1      34.622  31.239  28.081  1.00  0.00     0.001 A 
ATOM     52  C   UNL A   1      34.657  32.575  27.689  1.00  0.00     0.000 A 
ENDBRANCH  28  47
BRANCH  40  53
ATOM     53  C   UNL A   1      39.002  32.082  35.763  1.00  0.00    -0.014 A 
ATOM     54  C   UNL A   1      38.148  31.519  36.722  1.00  0.00     0.009 A 
ATOM     55  C   UNL A   1      39.426  33.411  35.916  1.00  0.00     0.009 A 
ATOM     56  C   UNL A   1      37.700  32.286  37.798  1.00  0.00     0.001 A 
ATOM     57  C   UNL A   1      39.005  34.163  37.011  1.00  0.00     0.001 A 
ATOM     58  C   UNL A   1      38.135  33.603  37.945  1.00  0.00     0.000 A 
ENDBRANCH  40  53
ENDBRANCH  14  15
ENDBRANCH   7   9
ENDBRANCH   6   7
ENDBRANCH   5   6
ENDBRANCH   4   5
ENDBRANCH   3   4
ENDBRANCH   2   3
ENDBRANCH   1   2
BRANCH   1  59
ATOM     59  O   UNL A   1      38.964  21.702  25.872  1.00  0.00    -0.376 OA
BRANCH  59  60
ATOM     60  C   UNL A   1      37.728  22.387  26.039  1.00  0.00     0.202 C 
BRANCH  60  61
ATOM     61  C   UNL A   1      36.879  22.652  24.782  1.00  0.00     0.261 C 
BRANCH  61  62
ATOM     62  O   UNL A   1      35.903  23.693  24.950  1.00  0.00    -0.462 OA
BRANCH  62  63
ATOM     63  C   UNL A   1      34.770  23.342  25.630  1.00  0.00     0.329 C 
ATOM     64  O   UNL A   1      34.751  22.971  26.793  1.00  0.00    -0.250 OA
BRANCH  63  65
ATOM     65  C   UNL A   1      33.531  23.434  24.714  1.00  0.00     0.198 C 
ATOM     66  C   UNL A   1      33.536  22.291  23.713  1.00  0.00     0.071 C 
ATOM     67  N   UNL A   1      32.299  23.221  25.478  1.00  0.00    -0.322 N 
ATOM     68  C   UNL A   1      32.799  21.164  24.435  1.00  0.00     0.136 C 
ATOM     69  C   UNL A   1      31.711  21.920  25.195  1.00  0.00     0.152 C 
BRANCH  67  70
ATOM     70  C   UNL A   1      31.761  24.217  26.263  1.00  0.00     0.258 C 
ATOM     71  O   UNL A   1      31.314  23.986  27.386  1.00  0.00    -0.269 OA
BRANCH  70  72
ATOM     72  C   UNL A   1      31.671  25.603  25.737  1.00  0.00     0.081 A 
ATOM     73  C   UNL A   1      32.463  26.587  26.345  1.00  0.00     0.018 A 
ATOM     74  C   UNL A   1      30.712  25.991  24.791  1.00  0.00     0.128 A 
ATOM     75  C   UNL A   1      32.335  27.926  25.970  1.00  0.00     0.001 A 
ATOM     76  C   UNL A   1      30.598  27.325  24.399  1.00  0.00     0.047 A 
ATOM     77  C   UNL A   1      31.412  28.291  24.990  1.00  0.00     0.004 A 
BRANCH  74  78
ATOM     78  O   UNL A   1      29.847  25.080  24.256  1.00  0.00    -0.507 OA
ATOM     79  H   UNL A   1      29.133  24.757  24.769  1.00  0.00     0.293 HD
ENDBRANCH  74  78
ENDBRANCH  70  72
ENDBRANCH  67  70
BRANCH  68  80
ATOM     80  O   UNL A   1      32.281  20.222  23.507  1.00  0.00    -0.391 OA
ATOM     81  H   UNL A   1      32.732  20.327  22.655  1.00  0.00     0.211 HD
ENDBRANCH  68  80
ENDBRANCH  63  65
ENDBRANCH  62  63
ENDBRANCH  61  62
ENDBRANCH  60  61
ENDBRANCH  59  60
ENDBRANCH   1  59
TORSDOF 21
ENDMDL
