MODEL 1
REMARK VINA RESULT:     -12.2      0.000      0.000
REMARK SMILES C[C@]12C(=O)N(c3ccc(C(=O)OCCOCCOCCOC(=O)c4ccc(-c5c6nc(c(-c7ccccc7)c7ccc([nH]7)c(-c7ccccc7)c7nc(c(-c8ccccc8)c8ccc5[nH]8)C=C7)C=C6)cc4)cc3)C(=O)[C@H]1[C@H]1c3ccccc3[C@@H]2c2ccccc21
REMARK SMILES IDX 17 1 16 2 15 3 14 4 13 5 12 6 10 7 11 8 9 9 6 10 7 11 73 12
REMARK SMILES IDX 8 13 72 14 5 15 1 16 2 17 3 18 76 19 84 20 4 21 74 22 77 23
REMARK SMILES IDX 83 24 85 25 75 26 78 27 90 28 82 29 86 30 79 31 89 32 81 33
REMARK SMILES IDX 87 34 80 35 88 36 18 37 19 38 20 39 21 40 22 41 23 42 24 43
REMARK SMILES IDX 25 44 71 45 26 46 70 47 27 48 28 49 29 50 64 51 30 52 69 53
REMARK SMILES IDX 63 54 65 55 31 56 68 57 62 58 61 59 32 61 54 62 39 63 53 64
REMARK SMILES IDX 40 65 43 66 52 67 66 68 41 69 42 70 51 72 67 73 44 74 33 75
REMARK SMILES IDX 34 76 38 77 35 78 37 79 36 80 55 81 56 82 60 83 57 84 59 85
REMARK SMILES IDX 58 86 45 87 46 88 50 89 47 90 49 91 48 92
REMARK H PARENT 65 60 43 71
REMARK Flexibility Score: inf
ROOT
ATOM      1  C   UNL A   1      33.221  35.126  28.859  1.00  0.00     0.188 C 
ENDROOT
BRANCH   1   2
ATOM      2  C   UNL A   1      33.346  33.834  28.023  1.00  0.00     0.188 C 
BRANCH   2   3
ATOM      3  O   UNL A   1      34.590  33.149  27.970  1.00  0.00    -0.376 OA
BRANCH   3   4
ATOM      4  C   UNL A   1      34.598  31.734  27.810  1.00  0.00     0.202 C 
BRANCH   4   5
ATOM      5  C   UNL A   1      33.325  31.033  27.313  1.00  0.00     0.261 C 
BRANCH   5   6
ATOM      6  O   UNL A   1      33.574  29.930  26.421  1.00  0.00    -0.460 OA
BRANCH   6   7
ATOM      7  C   UNL A   1      32.479  29.423  25.805  1.00  0.00     0.338 C 
ATOM      8  O   UNL A   1      31.597  30.045  25.238  1.00  0.00    -0.246 OA
BRANCH   7   9
ATOM      9  C   UNL A   1      32.583  27.953  25.701  1.00  0.00     0.060 A 
ATOM     10  C   UNL A   1      32.597  25.130  25.789  1.00  0.00     0.052 A 
ATOM     11  C   UNL A   1      31.408  25.848  25.559  1.00  0.00     0.028 A 
ATOM     12  C   UNL A   1      33.795  25.861  25.841  1.00  0.00     0.028 A 
ATOM     13  C   UNL A   1      31.391  27.241  25.565  1.00  0.00     0.018 A 
ATOM     14  C   UNL A   1      33.794  27.266  25.772  1.00  0.00     0.018 A 
BRANCH  10  15
ATOM     15  N   UNL A   1      32.506  23.760  26.187  1.00  0.00    -0.250 N 
ATOM     16  C   UNL A   1      33.655  20.717  27.534  1.00  0.00     0.024 C 
ATOM     17  C   UNL A   1      33.441  21.617  26.312  1.00  0.00     0.071 C 
ATOM     18  C   UNL A   1      33.568  23.061  26.711  1.00  0.00     0.241 C 
ATOM     19  C   UNL A   1      31.984  21.490  25.783  1.00  0.00     0.107 C 
ATOM     20  C   UNL A   1      34.465  21.378  25.142  1.00  0.00     0.066 C 
ATOM     21  O   UNL A   1      34.510  23.491  27.367  1.00  0.00    -0.273 OA
ATOM     22  C   UNL A   1      31.455  22.916  25.878  1.00  0.00     0.238 C 
ATOM     23  C   UNL A   1      31.997  20.961  24.308  1.00  0.00     0.063 C 
ATOM     24  C   UNL A   1      34.058  22.260  23.945  1.00  0.00    -0.036 A 
ATOM     25  C   UNL A   1      34.227  19.946  24.694  1.00  0.00    -0.036 A 
ATOM     26  O   UNL A   1      30.284  23.196  25.661  1.00  0.00    -0.274 OA
ATOM     27  C   UNL A   1      32.730  22.028  23.496  1.00  0.00    -0.036 A 
ATOM     28  C   UNL A   1      32.892  19.708  24.262  1.00  0.00    -0.036 A 
ATOM     29  C   UNL A   1      34.830  23.250  23.356  1.00  0.00     0.005 A 
ATOM     30  C   UNL A   1      35.201  18.958  24.646  1.00  0.00     0.005 A 
ATOM     31  C   UNL A   1      32.169  22.796  22.484  1.00  0.00     0.004 A 
ATOM     32  C   UNL A   1      32.552  18.462  23.757  1.00  0.00     0.004 A 
ATOM     33  C   UNL A   1      34.258  24.031  22.344  1.00  0.00     0.000 A 
ATOM     34  C   UNL A   1      34.846  17.709  24.147  1.00  0.00     0.000 A 
ATOM     35  C   UNL A   1      32.940  23.808  21.916  1.00  0.00     0.000 A 
ATOM     36  C   UNL A   1      33.536  17.464  23.704  1.00  0.00     0.000 A 
ENDBRANCH  10  15
ENDBRANCH   7   9
ENDBRANCH   6   7
ENDBRANCH   5   6
ENDBRANCH   4   5
ENDBRANCH   3   4
ENDBRANCH   2   3
ENDBRANCH   1   2
BRANCH   1  37
ATOM     37  O   UNL A   1      32.677  34.944  30.141  1.00  0.00    -0.376 OA
BRANCH  37  38
ATOM     38  C   UNL A   1      33.355  35.414  31.288  1.00  0.00     0.202 C 
BRANCH  38  39
ATOM     39  C   UNL A   1      34.176  34.548  32.263  1.00  0.00     0.261 C 
BRANCH  39  40
ATOM     40  O   UNL A   1      35.146  33.646  31.730  1.00  0.00    -0.460 OA
BRANCH  40  41
ATOM     41  C   UNL A   1      35.800  32.859  32.617  1.00  0.00     0.338 C 
ATOM     42  O   UNL A   1      35.472  32.596  33.761  1.00  0.00    -0.246 OA
BRANCH  41  43
ATOM     43  C   UNL A   1      36.917  32.219  31.894  1.00  0.00     0.060 A 
ATOM     44  C   UNL A   1      36.960  32.267  30.501  1.00  0.00     0.016 A 
ATOM     45  C   UNL A   1      37.908  31.540  32.616  1.00  0.00     0.016 A 
ATOM     46  C   UNL A   1      38.010  31.642  29.825  1.00  0.00     0.010 A 
ATOM     47  C   UNL A   1      38.952  30.905  31.936  1.00  0.00     0.010 A 
ATOM     48  C   UNL A   1      39.019  30.966  30.536  1.00  0.00    -0.014 A 
BRANCH  48  49
ATOM     49  C   UNL A   1      40.223  30.488  29.814  1.00  0.00     0.031 A 
ATOM     50  C   UNL A   1      41.446  31.338  29.647  1.00  0.00     0.074 A 
ATOM     51  C   UNL A   1      40.197  29.239  29.310  1.00  0.00     0.049 A 
ATOM     52  N   UNL A   1      42.603  31.006  29.131  1.00  0.00    -0.248 NA
ATOM     53  C   UNL A   1      41.369  32.732  30.109  1.00  0.00     0.031 C 
ATOM     54  C   UNL A   1      39.051  28.331  29.393  1.00  0.00     0.029 A 
ATOM     55  N   UNL A   1      41.153  28.513  28.647  1.00  0.00    -0.354 N 
ATOM     56  C   UNL A   1      43.402  32.137  29.223  1.00  0.00     0.074 A 
ATOM     57  C   UNL A   1      42.584  33.181  29.806  1.00  0.00     0.031 C 
ATOM     58  C   UNL A   1      39.379  27.161  28.825  1.00  0.00     0.029 A 
ATOM     59  C   UNL A   1      40.745  27.244  28.315  1.00  0.00     0.049 A 
ATOM     60  H   UNL A   1      42.046  28.867  28.431  1.00  0.00     0.167 HD
ATOM     61  C   UNL A   1      44.702  32.277  28.869  1.00  0.00     0.031 A 
ATOM     62  C   UNL A   1      41.392  26.250  27.675  1.00  0.00     0.031 A 
ATOM     63  C   UNL A   1      45.504  31.235  28.278  1.00  0.00     0.049 A 
ATOM     64  C   UNL A   1      42.823  26.450  27.262  1.00  0.00     0.074 A 
ATOM     65  C   UNL A   1      46.846  31.281  27.937  1.00  0.00     0.029 A 
ATOM     66  N   UNL A   1      45.047  29.975  27.928  1.00  0.00    -0.354 N 
ATOM     67  N   UNL A   1      43.594  27.494  27.446  1.00  0.00    -0.248 NA
ATOM     68  C   UNL A   1      43.483  25.331  26.573  1.00  0.00     0.031 C 
ATOM     69  C   UNL A   1      47.180  30.079  27.311  1.00  0.00     0.029 A 
ATOM     70  C   UNL A   1      46.071  29.250  27.338  1.00  0.00     0.049 A 
ATOM     71  H   UNL A   1      44.132  29.644  28.075  1.00  0.00     0.167 HD
ATOM     72  C   UNL A   1      44.831  27.151  26.919  1.00  0.00     0.074 A 
ATOM     73  C   UNL A   1      44.717  25.795  26.428  1.00  0.00     0.031 C 
ATOM     74  C   UNL A   1      45.958  27.899  26.849  1.00  0.00     0.031 A 
BRANCH  61  75
ATOM     75  C   UNL A   1      45.382  33.597  29.116  1.00  0.00    -0.014 A 
ATOM     76  C   UNL A   1      45.459  34.548  28.085  1.00  0.00     0.009 A 
ATOM     77  C   UNL A   1      46.098  33.822  30.301  1.00  0.00     0.009 A 
ATOM     78  C   UNL A   1      46.266  35.679  28.221  1.00  0.00     0.001 A 
ATOM     79  C   UNL A   1      46.884  34.968  30.445  1.00  0.00     0.001 A 
ATOM     80  C   UNL A   1      46.979  35.888  29.400  1.00  0.00     0.000 A 
ENDBRANCH  61  75
BRANCH  62  81
ATOM     81  C   UNL A   1      40.684  24.969  27.416  1.00  0.00    -0.014 A 
ATOM     82  C   UNL A   1      41.151  23.771  27.984  1.00  0.00     0.009 A 
ATOM     83  C   UNL A   1      39.566  24.924  26.570  1.00  0.00     0.009 A 
ATOM     84  C   UNL A   1      40.531  22.556  27.692  1.00  0.00     0.001 A 
ATOM     85  C   UNL A   1      38.925  23.710  26.309  1.00  0.00     0.001 A 
ATOM     86  C   UNL A   1      39.414  22.527  26.861  1.00  0.00     0.000 A 
ENDBRANCH  62  81
BRANCH  74  87
ATOM     87  C   UNL A   1      47.184  27.284  26.229  1.00  0.00    -0.014 A 
ATOM     88  C   UNL A   1      47.412  27.422  24.849  1.00  0.00     0.009 A 
ATOM     89  C   UNL A   1      48.047  26.473  26.981  1.00  0.00     0.009 A 
ATOM     90  C   UNL A   1      48.463  26.741  24.232  1.00  0.00     0.001 A 
ATOM     91  C   UNL A   1      49.119  25.821  26.365  1.00  0.00     0.001 A 
ATOM     92  C   UNL A   1      49.318  25.945  24.990  1.00  0.00     0.000 A 
ENDBRANCH  74  87
ENDBRANCH  48  49
ENDBRANCH  41  43
ENDBRANCH  40  41
ENDBRANCH  39  40
ENDBRANCH  38  39
ENDBRANCH  37  38
ENDBRANCH   1  37
TORSDOF 18
ENDMDL
MODEL 2
REMARK VINA RESULT:     -12.0      4.525      6.916
REMARK SMILES C[C@]12C(=O)N(c3ccc(C(=O)OCCOCCOCCOC(=O)c4ccc(-c5c6nc(c(-c7ccccc7)c7ccc([nH]7)c(-c7ccccc7)c7nc(c(-c8ccccc8)c8ccc5[nH]8)C=C7)C=C6)cc4)cc3)C(=O)[C@H]1[C@H]1c3ccccc3[C@@H]2c2ccccc21
REMARK SMILES IDX 17 1 16 2 15 3 14 4 13 5 12 6 10 7 11 8 9 9 6 10 7 11 73 12
REMARK SMILES IDX 8 13 72 14 5 15 1 16 2 17 3 18 76 19 84 20 4 21 74 22 77 23
REMARK SMILES IDX 83 24 85 25 75 26 78 27 90 28 82 29 86 30 79 31 89 32 81 33
REMARK SMILES IDX 87 34 80 35 88 36 18 37 19 38 20 39 21 40 22 41 23 42 24 43
REMARK SMILES IDX 25 44 71 45 26 46 70 47 27 48 28 49 29 50 64 51 30 52 69 53
REMARK SMILES IDX 63 54 65 55 31 56 68 57 62 58 61 59 32 61 54 62 39 63 53 64
REMARK SMILES IDX 40 65 43 66 52 67 66 68 41 69 42 70 51 72 67 73 44 74 33 75
REMARK SMILES IDX 34 76 38 77 35 78 37 79 36 80 55 81 56 82 60 83 57 84 59 85
REMARK SMILES IDX 58 86 45 87 46 88 50 89 47 90 49 91 48 92
REMARK H PARENT 65 60 43 71
REMARK Flexibility Score: inf
ROOT
ATOM      1  C   UNL A   1      34.511  34.049  31.462  1.00  0.00     0.188 C 
ENDROOT
BRANCH   1   2
ATOM      2  C   UNL A   1      34.817  32.957  30.414  1.00  0.00     0.188 C 
BRANCH   2   3
ATOM      3  O   UNL A   1      35.940  33.103  29.555  1.00  0.00    -0.376 OA
BRANCH   3   4
ATOM      4  C   UNL A   1      36.045  32.275  28.401  1.00  0.00     0.202 C 
BRANCH   4   5
ATOM      5  C   UNL A   1      35.088  31.083  28.250  1.00  0.00     0.261 C 
BRANCH   5   6
ATOM      6  O   UNL A   1      35.749  29.803  28.221  1.00  0.00    -0.460 OA
BRANCH   6   7
ATOM      7  C   UNL A   1      36.749  29.645  29.121  1.00  0.00     0.338 C 
ATOM      8  O   UNL A   1      36.667  29.723  30.336  1.00  0.00    -0.246 OA
BRANCH   7   9
ATOM      9  C   UNL A   1      37.963  29.130  28.455  1.00  0.00     0.060 A 
ATOM     10  C   UNL A   1      40.451  28.224  27.473  1.00  0.00     0.052 A 
ATOM     11  C   UNL A   1      39.800  27.564  28.532  1.00  0.00     0.028 A 
ATOM     12  C   UNL A   1      39.758  29.267  26.836  1.00  0.00     0.028 A 
ATOM     13  C   UNL A   1      38.598  28.039  29.051  1.00  0.00     0.018 A 
ATOM     14  C   UNL A   1      38.506  29.704  27.308  1.00  0.00     0.018 A 
BRANCH  10  15
ATOM     15  N   UNL A   1      41.841  27.970  27.256  1.00  0.00    -0.250 N 
ATOM     16  C   UNL A   1      44.778  27.550  25.361  1.00  0.00     0.024 C 
ATOM     17  C   UNL A   1      43.547  26.932  26.033  1.00  0.00     0.071 C 
ATOM     18  C   UNL A   1      42.403  27.907  26.002  1.00  0.00     0.241 C 
ATOM     19  C   UNL A   1      43.809  26.693  27.547  1.00  0.00     0.107 C 
ATOM     20  C   UNL A   1      43.033  25.608  25.356  1.00  0.00     0.066 C 
ATOM     21  O   UNL A   1      42.054  28.493  24.983  1.00  0.00    -0.273 OA
ATOM     22  C   UNL A   1      42.722  27.521  28.222  1.00  0.00     0.238 C 
ATOM     23  C   UNL A   1      43.679  25.166  27.876  1.00  0.00     0.063 C 
ATOM     24  C   UNL A   1      41.876  25.041  26.203  1.00  0.00    -0.036 A 
ATOM     25  C   UNL A   1      44.174  24.618  25.509  1.00  0.00    -0.036 A 
ATOM     26  O   UNL A   1      42.679  27.683  29.434  1.00  0.00    -0.274 OA
ATOM     27  C   UNL A   1      42.230  24.800  27.557  1.00  0.00    -0.036 A 
ATOM     28  C   UNL A   1      44.543  24.389  26.864  1.00  0.00    -0.036 A 
ATOM     29  C   UNL A   1      40.574  24.827  25.774  1.00  0.00     0.005 A 
ATOM     30  C   UNL A   1      44.784  23.943  24.460  1.00  0.00     0.005 A 
ATOM     31  C   UNL A   1      41.287  24.372  28.482  1.00  0.00     0.004 A 
ATOM     32  C   UNL A   1      45.523  23.452  27.155  1.00  0.00     0.004 A 
ATOM     33  C   UNL A   1      39.623  24.407  26.710  1.00  0.00     0.000 A 
ATOM     34  C   UNL A   1      45.773  23.012  24.762  1.00  0.00     0.000 A 
ATOM     35  C   UNL A   1      39.974  24.186  28.051  1.00  0.00     0.000 A 
ATOM     36  C   UNL A   1      46.136  22.767  26.096  1.00  0.00     0.000 A 
ENDBRANCH  10  15
ENDBRANCH   7   9
ENDBRANCH   6   7
ENDBRANCH   5   6
ENDBRANCH   4   5
ENDBRANCH   3   4
ENDBRANCH   2   3
ENDBRANCH   1   2
BRANCH   1  37
ATOM     37  O   UNL A   1      35.450  34.142  32.503  1.00  0.00    -0.376 OA
BRANCH  37  38
ATOM     38  C   UNL A   1      35.281  33.407  33.698  1.00  0.00     0.202 C 
BRANCH  38  39
ATOM     39  C   UNL A   1      35.895  33.764  35.065  1.00  0.00     0.261 C 
BRANCH  39  40
ATOM     40  O   UNL A   1      37.313  33.689  35.220  1.00  0.00    -0.460 OA
BRANCH  40  41
ATOM     41  C   UNL A   1      37.808  32.547  35.754  1.00  0.00     0.338 C 
ATOM     42  O   UNL A   1      37.402  31.947  36.734  1.00  0.00    -0.246 OA
BRANCH  41  43
ATOM     43  C   UNL A   1      38.843  32.043  34.829  1.00  0.00     0.060 A 
ATOM     44  C   UNL A   1      40.176  32.412  35.011  1.00  0.00     0.016 A 
ATOM     45  C   UNL A   1      38.470  31.225  33.754  1.00  0.00     0.016 A 
ATOM     46  C   UNL A   1      41.144  31.947  34.119  1.00  0.00     0.010 A 
ATOM     47  C   UNL A   1      39.440  30.770  32.856  1.00  0.00     0.010 A 
ATOM     48  C   UNL A   1      40.787  31.115  33.043  1.00  0.00    -0.014 A 
BRANCH  48  49
ATOM     49  C   UNL A   1      41.852  30.474  32.234  1.00  0.00     0.031 A 
ATOM     50  C   UNL A   1      42.415  31.115  31.001  1.00  0.00     0.074 A 
ATOM     51  C   UNL A   1      42.322  29.281  32.647  1.00  0.00     0.049 A 
ATOM     52  N   UNL A   1      43.419  30.714  30.262  1.00  0.00    -0.248 NA
ATOM     53  C   UNL A   1      41.778  32.354  30.532  1.00  0.00     0.031 C 
ATOM     54  C   UNL A   1      41.831  28.553  33.819  1.00  0.00     0.029 A 
ATOM     55  N   UNL A   1      43.316  28.481  32.146  1.00  0.00    -0.354 N 
ATOM     56  C   UNL A   1      43.553  31.659  29.254  1.00  0.00     0.074 A 
ATOM     57  C   UNL A   1      42.498  32.632  29.449  1.00  0.00     0.031 C 
ATOM     58  C   UNL A   1      42.543  27.425  33.961  1.00  0.00     0.029 A 
ATOM     59  C   UNL A   1      43.518  27.336  32.879  1.00  0.00     0.049 A 
ATOM     60  H   UNL A   1      43.835  28.704  31.340  1.00  0.00     0.167 HD
ATOM     61  C   UNL A   1      44.483  31.711  28.271  1.00  0.00     0.031 A 
ATOM     62  C   UNL A   1      44.392  26.324  32.707  1.00  0.00     0.031 A 
ATOM     63  C   UNL A   1      45.522  30.729  28.078  1.00  0.00     0.049 A 
ATOM     64  C   UNL A   1      45.388  26.394  31.585  1.00  0.00     0.074 A 
ATOM     65  C   UNL A   1      46.538  30.736  27.136  1.00  0.00     0.029 A 
ATOM     66  N   UNL A   1      45.675  29.569  28.819  1.00  0.00    -0.354 N 
ATOM     67  N   UNL A   1      45.563  27.344  30.699  1.00  0.00    -0.248 NA
ATOM     68  C   UNL A   1      46.322  25.266  31.449  1.00  0.00     0.031 C 
ATOM     69  C   UNL A   1      47.256  29.546  27.256  1.00  0.00     0.029 A 
ATOM     70  C   UNL A   1      46.743  28.834  28.328  1.00  0.00     0.049 A 
ATOM     71  H   UNL A   1      45.109  29.305  29.581  1.00  0.00     0.167 HD
ATOM     72  C   UNL A   1      46.638  26.941  29.917  1.00  0.00     0.074 A 
ATOM     73  C   UNL A   1      47.090  25.672  30.446  1.00  0.00     0.031 C 
ATOM     74  C   UNL A   1      47.194  27.571  28.855  1.00  0.00     0.031 A 
BRANCH  61  75
ATOM     75  C   UNL A   1      44.462  32.872  27.314  1.00  0.00    -0.014 A 
ATOM     76  C   UNL A   1      44.876  34.142  27.746  1.00  0.00     0.009 A 
ATOM     77  C   UNL A   1      43.867  32.746  26.050  1.00  0.00     0.009 A 
ATOM     78  C   UNL A   1      44.662  35.268  26.949  1.00  0.00     0.001 A 
ATOM     79  C   UNL A   1      43.678  33.871  25.242  1.00  0.00     0.001 A 
ATOM     80  C   UNL A   1      44.063  35.132  25.698  1.00  0.00     0.000 A 
ENDBRANCH  61  75
BRANCH  62  81
ATOM     81  C   UNL A   1      44.368  25.175  33.650  1.00  0.00    -0.014 A 
ATOM     82  C   UNL A   1      45.089  25.228  34.855  1.00  0.00     0.009 A 
ATOM     83  C   UNL A   1      43.663  24.003  33.336  1.00  0.00     0.009 A 
ATOM     84  C   UNL A   1      45.124  24.128  35.713  1.00  0.00     0.001 A 
ATOM     85  C   UNL A   1      43.670  22.916  34.215  1.00  0.00     0.001 A 
ATOM     86  C   UNL A   1      44.409  22.976  35.395  1.00  0.00     0.000 A 
ENDBRANCH  62  81
BRANCH  74  87
ATOM     87  C   UNL A   1      48.370  26.920  28.177  1.00  0.00    -0.014 A 
ATOM     88  C   UNL A   1      48.153  25.959  27.174  1.00  0.00     0.009 A 
ATOM     89  C   UNL A   1      49.682  27.166  28.606  1.00  0.00     0.009 A 
ATOM     90  C   UNL A   1      49.223  25.242  26.635  1.00  0.00     0.001 A 
ATOM     91  C   UNL A   1      50.754  26.471  28.040  1.00  0.00     0.001 A 
ATOM     92  C   UNL A   1      50.522  25.501  27.064  1.00  0.00     0.000 A 
ENDBRANCH  74  87
ENDBRANCH  48  49
ENDBRANCH  41  43
ENDBRANCH  40  41
ENDBRANCH  39  40
ENDBRANCH  38  39
ENDBRANCH  37  38
ENDBRANCH   1  37
TORSDOF 18
ENDMDL
MODEL 3
REMARK VINA RESULT:     -11.8      5.327     11.186
REMARK SMILES C[C@]12C(=O)N(c3ccc(C(=O)OCCOCCOCCOC(=O)c4ccc(-c5c6nc(c(-c7ccccc7)c7ccc([nH]7)c(-c7ccccc7)c7nc(c(-c8ccccc8)c8ccc5[nH]8)C=C7)C=C6)cc4)cc3)C(=O)[C@H]1[C@H]1c3ccccc3[C@@H]2c2ccccc21
REMARK SMILES IDX 17 1 16 2 15 3 14 4 13 5 12 6 10 7 11 8 9 9 6 10 7 11 73 12
REMARK SMILES IDX 8 13 72 14 5 15 1 16 2 17 3 18 76 19 84 20 4 21 74 22 77 23
REMARK SMILES IDX 83 24 85 25 75 26 78 27 90 28 82 29 86 30 79 31 89 32 81 33
REMARK SMILES IDX 87 34 80 35 88 36 18 37 19 38 20 39 21 40 22 41 23 42 24 43
REMARK SMILES IDX 25 44 71 45 26 46 70 47 27 48 28 49 29 50 64 51 30 52 69 53
REMARK SMILES IDX 63 54 65 55 31 56 68 57 62 58 61 59 32 61 54 62 39 63 53 64
REMARK SMILES IDX 40 65 43 66 52 67 66 68 41 69 42 70 51 72 67 73 44 74 33 75
REMARK SMILES IDX 34 76 38 77 35 78 37 79 36 80 55 81 56 82 60 83 57 84 59 85
REMARK SMILES IDX 58 86 45 87 46 88 50 89 47 90 49 91 48 92
REMARK H PARENT 65 60 43 71
REMARK Flexibility Score: inf
ROOT
ATOM      1  C   UNL A   1      43.233  21.598  25.806  1.00  0.00     0.188 C 
ENDROOT
BRANCH   1   2
ATOM      2  C   UNL A   1      42.436  22.914  25.674  1.00  0.00     0.188 C 
BRANCH   2   3
ATOM      3  O   UNL A   1      41.194  23.054  26.351  1.00  0.00    -0.376 OA
BRANCH   3   4
ATOM      4  C   UNL A   1      41.164  22.967  27.773  1.00  0.00     0.202 C 
BRANCH   4   5
ATOM      5  C   UNL A   1      41.505  24.214  28.603  1.00  0.00     0.261 C 
BRANCH   5   6
ATOM      6  O   UNL A   1      41.353  25.454  27.885  1.00  0.00    -0.460 OA
BRANCH   6   7
ATOM      7  C   UNL A   1      40.173  26.092  28.074  1.00  0.00     0.338 C 
ATOM      8  O   UNL A   1      39.070  25.732  27.696  1.00  0.00    -0.246 OA
BRANCH   7   9
ATOM      9  C   UNL A   1      40.342  27.216  29.018  1.00  0.00     0.060 A 
ATOM     10  C   UNL A   1      40.322  29.370  30.844  1.00  0.00     0.052 A 
ATOM     11  C   UNL A   1      39.898  28.083  31.228  1.00  0.00     0.028 A 
ATOM     12  C   UNL A   1      40.878  29.514  29.563  1.00  0.00     0.028 A 
ATOM     13  C   UNL A   1      39.860  27.032  30.314  1.00  0.00     0.018 A 
ATOM     14  C   UNL A   1      40.913  28.436  28.659  1.00  0.00     0.018 A 
BRANCH  10  15
ATOM     15  N   UNL A   1      39.957  30.485  31.661  1.00  0.00    -0.250 N 
ATOM     16  C   UNL A   1      38.501  32.110  34.425  1.00  0.00     0.024 C 
ATOM     17  C   UNL A   1      38.380  31.601  32.984  1.00  0.00     0.071 C 
ATOM     18  C   UNL A   1      39.207  30.359  32.808  1.00  0.00     0.241 C 
ATOM     19  C   UNL A   1      38.998  32.621  31.986  1.00  0.00     0.107 C 
ATOM     20  C   UNL A   1      36.913  31.236  32.546  1.00  0.00     0.066 C 
ATOM     21  O   UNL A   1      39.151  29.406  33.577  1.00  0.00    -0.273 OA
ATOM     22  C   UNL A   1      40.086  31.811  31.292  1.00  0.00     0.238 C 
ATOM     23  C   UNL A   1      37.900  33.119  30.984  1.00  0.00     0.063 C 
ATOM     24  C   UNL A   1      36.927  30.857  31.051  1.00  0.00    -0.036 A 
ATOM     25  C   UNL A   1      36.139  32.539  32.630  1.00  0.00    -0.036 A 
ATOM     26  O   UNL A   1      40.883  32.316  30.513  1.00  0.00    -0.274 OA
ATOM     27  C   UNL A   1      37.454  31.876  30.214  1.00  0.00    -0.036 A 
ATOM     28  C   UNL A   1      36.677  33.566  31.806  1.00  0.00    -0.036 A 
ATOM     29  C   UNL A   1      36.545  29.639  30.510  1.00  0.00     0.005 A 
ATOM     30  C   UNL A   1      34.987  32.729  33.381  1.00  0.00     0.005 A 
ATOM     31  C   UNL A   1      37.623  31.672  28.851  1.00  0.00     0.004 A 
ATOM     32  C   UNL A   1      36.026  34.789  31.729  1.00  0.00     0.004 A 
ATOM     33  C   UNL A   1      36.727  29.431  29.138  1.00  0.00     0.000 A 
ATOM     34  C   UNL A   1      34.347  33.963  33.304  1.00  0.00     0.000 A 
ATOM     35  C   UNL A   1      37.263  30.435  28.318  1.00  0.00     0.000 A 
ATOM     36  C   UNL A   1      34.860  34.981  32.485  1.00  0.00     0.000 A 
ENDBRANCH  10  15
ENDBRANCH   7   9
ENDBRANCH   6   7
ENDBRANCH   5   6
ENDBRANCH   4   5
ENDBRANCH   3   4
ENDBRANCH   2   3
ENDBRANCH   1   2
BRANCH   1  37
ATOM     37  O   UNL A   1      44.141  21.356  24.763  1.00  0.00    -0.376 OA
BRANCH  37  38
ATOM     38  C   UNL A   1      45.481  21.798  24.853  1.00  0.00     0.202 C 
BRANCH  38  39
ATOM     39  C   UNL A   1      45.948  23.117  25.498  1.00  0.00     0.261 C 
BRANCH  39  40
ATOM     40  O   UNL A   1      45.438  24.349  24.987  1.00  0.00    -0.460 OA
BRANCH  40  41
ATOM     41  C   UNL A   1      46.272  25.416  25.020  1.00  0.00     0.338 C 
ATOM     42  O   UNL A   1      47.134  25.711  24.211  1.00  0.00    -0.246 OA
BRANCH  41  43
ATOM     43  C   UNL A   1      45.839  26.275  26.140  1.00  0.00     0.060 A 
ATOM     44  C   UNL A   1      46.748  26.624  27.139  1.00  0.00     0.016 A 
ATOM     45  C   UNL A   1      44.507  26.706  26.205  1.00  0.00     0.016 A 
ATOM     46  C   UNL A   1      46.323  27.421  28.204  1.00  0.00     0.010 A 
ATOM     47  C   UNL A   1      44.082  27.494  27.278  1.00  0.00     0.010 A 
ATOM     48  C   UNL A   1      44.993  27.871  28.277  1.00  0.00    -0.014 A 
BRANCH  48  49
ATOM     49  C   UNL A   1      44.619  28.875  29.303  1.00  0.00     0.031 A 
ATOM     50  C   UNL A   1      44.670  30.349  29.034  1.00  0.00     0.074 A 
ATOM     51  C   UNL A   1      44.212  28.424  30.504  1.00  0.00     0.049 A 
ATOM     52  N   UNL A   1      44.271  31.331  29.804  1.00  0.00    -0.248 NA
ATOM     53  C   UNL A   1      45.239  30.784  27.750  1.00  0.00     0.031 C 
ATOM     54  C   UNL A   1      44.147  27.011  30.884  1.00  0.00     0.029 A 
ATOM     55  N   UNL A   1      43.767  29.092  31.616  1.00  0.00    -0.354 N 
ATOM     56  C   UNL A   1      44.518  32.498  29.095  1.00  0.00     0.074 A 
ATOM     57  C   UNL A   1      45.142  32.106  27.848  1.00  0.00     0.031 C 
ATOM     58  C   UNL A   1      43.664  26.917  32.133  1.00  0.00     0.029 A 
ATOM     59  C   UNL A   1      43.413  28.259  32.650  1.00  0.00     0.049 A 
ATOM     60  H   UNL A   1      43.706  30.073  31.668  1.00  0.00     0.167 HD
ATOM     61  C   UNL A   1      44.230  33.773  29.451  1.00  0.00     0.031 A 
ATOM     62  C   UNL A   1      42.936  28.536  33.880  1.00  0.00     0.031 A 
ATOM     63  C   UNL A   1      43.620  34.153  30.701  1.00  0.00     0.049 A 
ATOM     64  C   UNL A   1      42.662  29.964  34.258  1.00  0.00     0.074 A 
ATOM     65  C   UNL A   1      43.247  35.421  31.118  1.00  0.00     0.029 A 
ATOM     66  N   UNL A   1      43.305  33.286  31.735  1.00  0.00    -0.354 N 
ATOM     67  N   UNL A   1      42.809  31.049  33.537  1.00  0.00    -0.248 NA
ATOM     68  C   UNL A   1      42.135  30.209  35.609  1.00  0.00     0.031 C 
ATOM     69  C   UNL A   1      42.781  35.331  32.430  1.00  0.00     0.029 A 
ATOM     70  C   UNL A   1      42.782  33.998  32.803  1.00  0.00     0.049 A 
ATOM     71  H   UNL A   1      43.436  32.310  31.714  1.00  0.00     0.167 HD
ATOM     72  C   UNL A   1      42.374  32.098  34.335  1.00  0.00     0.074 A 
ATOM     73  C   UNL A   1      41.935  31.520  35.587  1.00  0.00     0.031 C 
ATOM     74  C   UNL A   1      42.345  33.422  34.050  1.00  0.00     0.031 A 
BRANCH  61  75
ATOM     75  C   UNL A   1      44.544  34.884  28.486  1.00  0.00    -0.014 A 
ATOM     76  C   UNL A   1      45.775  35.555  28.568  1.00  0.00     0.009 A 
ATOM     77  C   UNL A   1      43.557  35.381  27.622  1.00  0.00     0.009 A 
ATOM     78  C   UNL A   1      45.999  36.720  27.832  1.00  0.00     0.001 A 
ATOM     79  C   UNL A   1      43.793  36.532  26.867  1.00  0.00     0.001 A 
ATOM     80  C   UNL A   1      45.008  37.209  26.983  1.00  0.00     0.000 A 
ENDBRANCH  61  75
BRANCH  62  81
ATOM     81  C   UNL A   1      42.666  27.420  34.824  1.00  0.00    -0.014 A 
ATOM     82  C   UNL A   1      43.670  26.969  35.697  1.00  0.00     0.009 A 
ATOM     83  C   UNL A   1      41.422  26.770  34.830  1.00  0.00     0.009 A 
ATOM     84  C   UNL A   1      43.444  25.879  36.539  1.00  0.00     0.001 A 
ATOM     85  C   UNL A   1      41.188  25.702  35.700  1.00  0.00     0.001 A 
ATOM     86  C   UNL A   1      42.200  25.251  36.545  1.00  0.00     0.000 A 
ENDBRANCH  62  81
BRANCH  74  87
ATOM     87  C   UNL A   1      41.812  34.364  35.096  1.00  0.00    -0.014 A 
ATOM     88  C   UNL A   1      40.489  34.830  35.008  1.00  0.00     0.009 A 
ATOM     89  C   UNL A   1      42.647  34.882  36.097  1.00  0.00     0.009 A 
ATOM     90  C   UNL A   1      40.022  35.812  35.884  1.00  0.00     0.001 A 
ATOM     91  C   UNL A   1      42.165  35.840  36.994  1.00  0.00     0.001 A 
ATOM     92  C   UNL A   1      40.858  36.313  36.878  1.00  0.00     0.000 A 
ENDBRANCH  74  87
ENDBRANCH  48  49
ENDBRANCH  41  43
ENDBRANCH  40  41
ENDBRANCH  39  40
ENDBRANCH  38  39
ENDBRANCH  37  38
ENDBRANCH   1  37
TORSDOF 18
ENDMDL
