MODEL 1
REMARK VINA RESULT:     -11.1      0.000      0.000
REMARK SMILES CCn1c([C@@H]2CCC[N@@H+](Cc3ccc(C(=O)OCCOCCOCCOC(=O)c4ccc(-c5c6nc(c(-c7ccccc7)c7ccc([nH]7)c(-c7ccccc7)c7nc(c(-c8ccccc8)c8ccc5[nH]8)C=C7)C=C6)cc4)cc3)C2)nn(C)c1=O
REMARK SMILES IDX 21 1 20 2 19 3 18 4 17 5 15 6 16 7 14 8 11 9 12 10 78 11
REMARK SMILES IDX 13 12 77 13 10 14 9 15 5 16 6 17 79 18 7 19 8 20 4 22 3 23
REMARK SMILES IDX 83 24 80 25 81 26 84 27 82 28 2 29 1 30 22 31 23 32 24 33
REMARK SMILES IDX 25 34 26 35 27 36 28 37 29 38 30 39 76 40 31 41 75 42 32 43
REMARK SMILES IDX 33 44 34 45 69 46 35 47 74 48 68 49 70 50 36 51 73 52 67 53
REMARK SMILES IDX 66 54 37 56 59 57 44 58 58 59 45 60 48 61 57 62 71 63 46 64
REMARK SMILES IDX 47 65 56 67 72 68 49 69 38 70 39 71 43 72 40 73 42 74 41 75
REMARK SMILES IDX 60 76 61 77 65 78 62 79 64 80 63 81 50 82 51 83 55 84 52 85
REMARK SMILES IDX 54 86 53 87
REMARK H PARENT 9 21 70 55 48 66
REMARK Flexibility Score: inf
ROOT
ATOM      1  C   UNL A   1      37.768  21.469  25.870  1.00  0.00     0.188 C 
ENDROOT
BRANCH   1   2
ATOM      2  O   UNL A   1      37.031  22.262  24.949  1.00  0.00    -0.376 OA
BRANCH   2   3
ATOM      3  C   UNL A   1      35.810  21.673  24.491  1.00  0.00     0.202 C 
BRANCH   3   4
ATOM      4  C   UNL A   1      35.206  20.596  25.409  1.00  0.00     0.261 C 
BRANCH   4   5
ATOM      5  O   UNL A   1      34.405  19.632  24.719  1.00  0.00    -0.460 OA
BRANCH   5   6
ATOM      6  C   UNL A   1      33.101  19.544  25.066  1.00  0.00     0.338 C 
ATOM      7  O   UNL A   1      32.602  18.720  25.809  1.00  0.00    -0.246 OA
BRANCH   6   8
ATOM      8  C   UNL A   1      32.409  20.752  24.552  1.00  0.00     0.060 A 
ATOM      9  C   UNL A   1      31.244  23.133  23.659  1.00  0.00     0.006 A 
ATOM     10  C   UNL A   1      31.283  22.841  25.027  1.00  0.00     0.010 A 
ATOM     11  C   UNL A   1      31.849  22.256  22.750  1.00  0.00     0.010 A 
ATOM     12  C   UNL A   1      31.870  21.657  25.474  1.00  0.00     0.016 A 
ATOM     13  C   UNL A   1      32.392  21.054  23.185  1.00  0.00     0.016 A 
BRANCH   9  14
ATOM     14  C   UNL A   1      30.506  24.346  23.160  1.00  0.00     0.299 C 
BRANCH  14  15
ATOM     15  N   UNL A   1      31.329  25.549  23.007  1.00  0.00    -0.331 N 
ATOM     16  C   UNL A   1      32.066  27.703  23.977  1.00  0.00     0.113 C 
ATOM     17  C   UNL A   1      33.202  27.751  22.951  1.00  0.00     0.023 C 
ATOM     18  C   UNL A   1      31.543  26.295  24.246  1.00  0.00     0.274 C 
ATOM     19  C   UNL A   1      33.112  26.721  21.826  1.00  0.00     0.062 C 
ATOM     20  C   UNL A   1      32.579  25.358  22.279  1.00  0.00     0.262 C 
ATOM     21  H   UNL A   1      30.744  26.131  22.407  1.00  0.00     0.348 HD
BRANCH  16  22
ATOM     22  C   UNL A   1      30.937  28.722  23.849  1.00  0.00     0.142 A 
ATOM     23  N   UNL A   1      30.753  29.847  24.577  1.00  0.00    -0.279 N 
ATOM     24  C   UNL A   1      29.759  30.544  23.923  1.00  0.00     0.345 A 
ATOM     25  N   UNL A   1      30.085  28.573  22.870  1.00  0.00    -0.155 NA
ATOM     26  N   UNL A   1      29.334  29.709  22.898  1.00  0.00    -0.216 N 
ATOM     27  O   UNL A   1      29.371  31.683  24.133  1.00  0.00    -0.246 OA
ATOM     28  C   UNL A   1      28.414  30.047  21.848  1.00  0.00     0.179 C 
BRANCH  23  29
ATOM     29  C   UNL A   1      31.579  30.413  25.630  1.00  0.00     0.125 C 
ATOM     30  C   UNL A   1      31.837  29.567  26.867  1.00  0.00     0.028 C 
ENDBRANCH  23  29
ENDBRANCH  16  22
ENDBRANCH  14  15
ENDBRANCH   9  14
ENDBRANCH   6   8
ENDBRANCH   5   6
ENDBRANCH   4   5
ENDBRANCH   3   4
ENDBRANCH   2   3
ENDBRANCH   1   2
BRANCH   1  31
ATOM     31  C   UNL A   1      39.159  21.020  25.378  1.00  0.00     0.188 C 
BRANCH  31  32
ATOM     32  O   UNL A   1      39.961  20.132  26.147  1.00  0.00    -0.376 OA
BRANCH  32  33
ATOM     33  C   UNL A   1      41.335  20.423  26.380  1.00  0.00     0.202 C 
BRANCH  33  34
ATOM     34  C   UNL A   1      42.402  19.370  26.082  1.00  0.00     0.261 C 
BRANCH  34  35
ATOM     35  O   UNL A   1      42.945  19.455  24.770  1.00  0.00    -0.460 OA
BRANCH  35  36
ATOM     36  C   UNL A   1      44.289  19.584  24.731  1.00  0.00     0.338 C 
ATOM     37  O   UNL A   1      45.112  18.687  24.665  1.00  0.00    -0.246 OA
BRANCH  36  38
ATOM     38  C   UNL A   1      44.651  21.007  24.826  1.00  0.00     0.060 A 
ATOM     39  C   UNL A   1      45.608  21.333  25.790  1.00  0.00     0.016 A 
ATOM     40  C   UNL A   1      43.916  21.998  24.159  1.00  0.00     0.016 A 
ATOM     41  C   UNL A   1      45.649  22.626  26.263  1.00  0.00     0.010 A 
ATOM     42  C   UNL A   1      43.961  23.295  24.631  1.00  0.00     0.010 A 
ATOM     43  C   UNL A   1      44.746  23.563  25.751  1.00  0.00    -0.014 A 
BRANCH  43  44
ATOM     44  C   UNL A   1      44.571  24.773  26.530  1.00  0.00     0.031 A 
ATOM     45  C   UNL A   1      45.698  25.724  26.533  1.00  0.00     0.074 A 
ATOM     46  C   UNL A   1      43.451  25.011  27.237  1.00  0.00     0.049 A 
ATOM     47  N   UNL A   1      46.426  26.085  27.538  1.00  0.00    -0.248 NA
ATOM     48  C   UNL A   1      46.096  26.298  25.243  1.00  0.00     0.031 C 
ATOM     49  C   UNL A   1      42.159  24.325  27.143  1.00  0.00     0.029 A 
ATOM     50  N   UNL A   1      43.217  26.006  28.137  1.00  0.00    -0.354 N 
ATOM     51  C   UNL A   1      47.288  27.054  27.045  1.00  0.00     0.074 A 
ATOM     52  C   UNL A   1      47.114  27.075  25.611  1.00  0.00     0.031 C 
ATOM     53  C   UNL A   1      41.224  25.063  27.781  1.00  0.00     0.029 A 
ATOM     54  C   UNL A   1      41.879  26.186  28.433  1.00  0.00     0.049 A 
ATOM     55  H   UNL A   1      43.935  26.547  28.539  1.00  0.00     0.167 HD
ATOM     56  C   UNL A   1      47.954  27.915  27.858  1.00  0.00     0.031 A 
ATOM     57  C   UNL A   1      41.336  27.229  29.103  1.00  0.00     0.031 A 
ATOM     58  C   UNL A   1      48.012  27.466  29.222  1.00  0.00     0.049 A 
ATOM     59  C   UNL A   1      42.406  27.889  29.883  1.00  0.00     0.074 A 
ATOM     60  C   UNL A   1      48.547  26.369  29.866  1.00  0.00     0.029 A 
ATOM     61  N   UNL A   1      47.173  28.064  30.129  1.00  0.00    -0.354 N 
ATOM     62  N   UNL A   1      42.968  27.368  30.935  1.00  0.00    -0.248 NA
ATOM     63  C   UNL A   1      43.123  29.005  29.286  1.00  0.00     0.031 C 
ATOM     64  C   UNL A   1      47.674  26.114  30.963  1.00  0.00     0.029 A 
ATOM     65  C   UNL A   1      46.661  27.073  30.926  1.00  0.00     0.049 A 
ATOM     66  H   UNL A   1      46.977  29.027  30.194  1.00  0.00     0.167 HD
ATOM     67  C   UNL A   1      44.285  27.799  30.888  1.00  0.00     0.074 A 
ATOM     68  C   UNL A   1      44.284  28.906  29.939  1.00  0.00     0.031 C 
ATOM     69  C   UNL A   1      45.296  27.040  31.405  1.00  0.00     0.031 A 
BRANCH  56  70
ATOM     70  C   UNL A   1      48.254  29.333  27.464  1.00  0.00    -0.014 A 
ATOM     71  C   UNL A   1      49.530  29.863  27.712  1.00  0.00     0.009 A 
ATOM     72  C   UNL A   1      47.244  30.244  27.095  1.00  0.00     0.009 A 
ATOM     73  C   UNL A   1      49.772  31.239  27.628  1.00  0.00     0.001 A 
ATOM     74  C   UNL A   1      47.491  31.611  26.969  1.00  0.00     0.001 A 
ATOM     75  C   UNL A   1      48.752  32.112  27.256  1.00  0.00     0.000 A 
ENDBRANCH  56  70
BRANCH  57  76
ATOM     76  C   UNL A   1      40.001  27.826  28.915  1.00  0.00    -0.014 A 
ATOM     77  C   UNL A   1      39.117  27.968  29.994  1.00  0.00     0.009 A 
ATOM     78  C   UNL A   1      39.684  28.488  27.713  1.00  0.00     0.009 A 
ATOM     79  C   UNL A   1      37.971  28.766  29.879  1.00  0.00     0.001 A 
ATOM     80  C   UNL A   1      38.537  29.276  27.596  1.00  0.00     0.001 A 
ATOM     81  C   UNL A   1      37.688  29.426  28.685  1.00  0.00     0.000 A 
ENDBRANCH  57  76
BRANCH  69  82
ATOM     82  C   UNL A   1      44.918  25.875  32.287  1.00  0.00    -0.014 A 
ATOM     83  C   UNL A   1      44.601  26.030  33.648  1.00  0.00     0.009 A 
ATOM     84  C   UNL A   1      44.738  24.613  31.702  1.00  0.00     0.009 A 
ATOM     85  C   UNL A   1      44.157  24.945  34.409  1.00  0.00     0.001 A 
ATOM     86  C   UNL A   1      44.271  23.534  32.458  1.00  0.00     0.001 A 
ATOM     87  C   UNL A   1      43.988  23.698  33.812  1.00  0.00     0.000 A 
ENDBRANCH  69  82
ENDBRANCH  43  44
ENDBRANCH  36  38
ENDBRANCH  35  36
ENDBRANCH  34  35
ENDBRANCH  33  34
ENDBRANCH  32  33
ENDBRANCH  31  32
ENDBRANCH   1  31
TORSDOF 21
ENDMDL
MODEL 2
REMARK VINA RESULT:     -10.3      3.639      7.856
REMARK SMILES CCn1c([C@@H]2CCC[N@@H+](Cc3ccc(C(=O)OCCOCCOCCOC(=O)c4ccc(-c5c6nc(c(-c7ccccc7)c7ccc([nH]7)c(-c7ccccc7)c7nc(c(-c8ccccc8)c8ccc5[nH]8)C=C7)C=C6)cc4)cc3)C2)nn(C)c1=O
REMARK SMILES IDX 21 1 20 2 19 3 18 4 17 5 15 6 16 7 14 8 11 9 12 10 78 11
REMARK SMILES IDX 13 12 77 13 10 14 9 15 5 16 6 17 79 18 7 19 8 20 4 22 3 23
REMARK SMILES IDX 83 24 80 25 81 26 84 27 82 28 2 29 1 30 22 31 23 32 24 33
REMARK SMILES IDX 25 34 26 35 27 36 28 37 29 38 30 39 76 40 31 41 75 42 32 43
REMARK SMILES IDX 33 44 34 45 69 46 35 47 74 48 68 49 70 50 36 51 73 52 67 53
REMARK SMILES IDX 66 54 37 56 59 57 44 58 58 59 45 60 48 61 57 62 71 63 46 64
REMARK SMILES IDX 47 65 56 67 72 68 49 69 38 70 39 71 43 72 40 73 42 74 41 75
REMARK SMILES IDX 60 76 61 77 65 78 62 79 64 80 63 81 50 82 51 83 55 84 52 85
REMARK SMILES IDX 54 86 53 87
REMARK H PARENT 9 21 70 55 48 66
REMARK Flexibility Score: inf
ROOT
ATOM      1  C   UNL A   1      43.782  20.895  25.742  1.00  0.00     0.188 C 
ENDROOT
BRANCH   1   2
ATOM      2  O   UNL A   1      42.745  20.094  25.190  1.00  0.00    -0.376 OA
BRANCH   2   3
ATOM      3  C   UNL A   1      42.113  19.207  26.118  1.00  0.00     0.202 C 
BRANCH   3   4
ATOM      4  C   UNL A   1      41.929  19.757  27.543  1.00  0.00     0.261 C 
BRANCH   4   5
ATOM      5  O   UNL A   1      40.723  20.507  27.722  1.00  0.00    -0.460 OA
BRANCH   5   6
ATOM      6  C   UNL A   1      40.812  21.854  27.653  1.00  0.00     0.338 C 
ATOM      7  O   UNL A   1      41.734  22.541  28.047  1.00  0.00    -0.246 OA
BRANCH   6   8
ATOM      8  C   UNL A   1      39.683  22.344  26.823  1.00  0.00     0.060 A 
ATOM      9  C   UNL A   1      37.439  23.173  25.373  1.00  0.00     0.006 A 
ATOM     10  C   UNL A   1      37.839  21.832  25.342  1.00  0.00     0.010 A 
ATOM     11  C   UNL A   1      38.133  24.080  26.185  1.00  0.00     0.010 A 
ATOM     12  C   UNL A   1      38.953  21.416  26.071  1.00  0.00     0.016 A 
ATOM     13  C   UNL A   1      39.271  23.682  26.874  1.00  0.00     0.016 A 
BRANCH   9  14
ATOM     14  C   UNL A   1      36.315  23.653  24.496  1.00  0.00     0.299 C 
BRANCH  14  15
ATOM     15  N   UNL A   1      35.009  23.735  25.157  1.00  0.00    -0.331 N 
ATOM     16  C   UNL A   1      32.653  24.482  25.025  1.00  0.00     0.113 C 
ATOM     17  C   UNL A   1      32.329  23.600  26.233  1.00  0.00     0.023 C 
ATOM     18  C   UNL A   1      33.896  24.038  24.258  1.00  0.00     0.274 C 
ATOM     19  C   UNL A   1      33.539  23.027  26.970  1.00  0.00     0.062 C 
ATOM     20  C   UNL A   1      34.689  22.621  26.043  1.00  0.00     0.262 C 
ATOM     21  H   UNL A   1      35.129  24.547  25.764  1.00  0.00     0.348 HD
BRANCH  16  22
ATOM     22  C   UNL A   1      32.598  25.997  25.202  1.00  0.00     0.142 A 
ATOM     23  N   UNL A   1      31.780  26.873  24.577  1.00  0.00    -0.279 N 
ATOM     24  C   UNL A   1      31.936  28.064  25.253  1.00  0.00     0.345 A 
ATOM     25  N   UNL A   1      33.347  26.533  26.130  1.00  0.00    -0.155 NA
ATOM     26  N   UNL A   1      32.946  27.835  26.179  1.00  0.00    -0.216 N 
ATOM     27  O   UNL A   1      31.287  29.092  25.135  1.00  0.00    -0.246 OA
ATOM     28  C   UNL A   1      33.371  28.729  27.218  1.00  0.00     0.179 C 
BRANCH  23  29
ATOM     29  C   UNL A   1      30.720  26.623  23.614  1.00  0.00     0.125 C 
ATOM     30  C   UNL A   1      29.327  26.328  24.147  1.00  0.00     0.028 C 
ENDBRANCH  23  29
ENDBRANCH  16  22
ENDBRANCH  14  15
ENDBRANCH   9  14
ENDBRANCH   6   8
ENDBRANCH   5   6
ENDBRANCH   4   5
ENDBRANCH   3   4
ENDBRANCH   2   3
ENDBRANCH   1   2
BRANCH   1  31
ATOM     31  C   UNL A   1      45.123  20.839  24.985  1.00  0.00     0.188 C 
BRANCH  31  32
ATOM     32  O   UNL A   1      45.763  22.026  24.530  1.00  0.00    -0.376 OA
BRANCH  32  33
ATOM     33  C   UNL A   1      45.624  23.242  25.259  1.00  0.00     0.202 C 
BRANCH  33  34
ATOM     34  C   UNL A   1      44.734  24.360  24.719  1.00  0.00     0.261 C 
BRANCH  34  35
ATOM     35  O   UNL A   1      44.143  25.167  25.731  1.00  0.00    -0.460 OA
BRANCH  35  36
ATOM     36  C   UNL A   1      44.239  26.495  25.511  1.00  0.00     0.338 C 
ATOM     37  O   UNL A   1      45.097  27.074  24.867  1.00  0.00    -0.246 OA
BRANCH  36  38
ATOM     38  C   UNL A   1      43.150  27.192  26.214  1.00  0.00     0.060 A 
ATOM     39  C   UNL A   1      43.377  28.536  26.515  1.00  0.00     0.016 A 
ATOM     40  C   UNL A   1      42.058  26.494  26.752  1.00  0.00     0.016 A 
ATOM     41  C   UNL A   1      42.662  29.108  27.545  1.00  0.00     0.010 A 
ATOM     42  C   UNL A   1      41.340  27.069  27.781  1.00  0.00     0.010 A 
ATOM     43  C   UNL A   1      41.729  28.327  28.236  1.00  0.00    -0.014 A 
BRANCH  43  44
ATOM     44  C   UNL A   1      41.296  28.840  29.521  1.00  0.00     0.031 A 
ATOM     45  C   UNL A   1      40.129  29.741  29.512  1.00  0.00     0.074 A 
ATOM     46  C   UNL A   1      41.936  28.533  30.665  1.00  0.00     0.049 A 
ATOM     47  N   UNL A   1      40.089  30.987  29.852  1.00  0.00    -0.248 NA
ATOM     48  C   UNL A   1      38.864  29.198  29.006  1.00  0.00     0.031 C 
ATOM     49  C   UNL A   1      42.922  27.473  30.892  1.00  0.00     0.029 A 
ATOM     50  N   UNL A   1      41.751  29.066  31.904  1.00  0.00    -0.354 N 
ATOM     51  C   UNL A   1      38.756  31.359  29.750  1.00  0.00     0.074 A 
ATOM     52  C   UNL A   1      38.062  30.254  29.130  1.00  0.00     0.031 C 
ATOM     53  C   UNL A   1      43.075  27.297  32.223  1.00  0.00     0.029 A 
ATOM     54  C   UNL A   1      42.308  28.315  32.923  1.00  0.00     0.049 A 
ATOM     55  H   UNL A   1      41.265  29.908  32.059  1.00  0.00     0.167 HD
ATOM     56  C   UNL A   1      38.265  32.473  30.353  1.00  0.00     0.031 A 
ATOM     57  C   UNL A   1      42.091  28.472  34.248  1.00  0.00     0.031 A 
ATOM     58  C   UNL A   1      39.291  33.408  30.723  1.00  0.00     0.049 A 
ATOM     59  C   UNL A   1      41.571  29.838  34.478  1.00  0.00     0.074 A 
ATOM     60  C   UNL A   1      40.237  34.140  30.036  1.00  0.00     0.029 A 
ATOM     61  N   UNL A   1      39.651  33.473  32.046  1.00  0.00    -0.354 N 
ATOM     62  N   UNL A   1      42.286  30.919  34.359  1.00  0.00    -0.248 NA
ATOM     63  C   UNL A   1      40.131  30.046  34.500  1.00  0.00     0.031 C 
ATOM     64  C   UNL A   1      41.353  34.237  30.918  1.00  0.00     0.029 A 
ATOM     65  C   UNL A   1      41.019  33.562  32.092  1.00  0.00     0.049 A 
ATOM     66  H   UNL A   1      39.040  33.460  32.818  1.00  0.00     0.167 HD
ATOM     67  C   UNL A   1      41.407  31.878  33.878  1.00  0.00     0.074 A 
ATOM     68  C   UNL A   1      40.080  31.325  34.118  1.00  0.00     0.031 C 
ATOM     69  C   UNL A   1      41.842  32.898  33.080  1.00  0.00     0.031 A 
BRANCH  56  70
ATOM     70  C   UNL A   1      36.871  32.544  30.910  1.00  0.00    -0.014 A 
ATOM     71  C   UNL A   1      35.903  33.318  30.250  1.00  0.00     0.009 A 
ATOM     72  C   UNL A   1      36.551  32.087  32.204  1.00  0.00     0.009 A 
ATOM     73  C   UNL A   1      34.692  33.644  30.869  1.00  0.00     0.001 A 
ATOM     74  C   UNL A   1      35.327  32.373  32.808  1.00  0.00     0.001 A 
ATOM     75  C   UNL A   1      34.403  33.172  32.148  1.00  0.00     0.000 A 
ENDBRANCH  56  70
BRANCH  57  76
ATOM     76  C   UNL A   1      42.079  27.428  35.291  1.00  0.00    -0.014 A 
ATOM     77  C   UNL A   1      41.339  26.250  35.121  1.00  0.00     0.009 A 
ATOM     78  C   UNL A   1      42.999  27.480  36.356  1.00  0.00     0.009 A 
ATOM     79  C   UNL A   1      41.533  25.154  35.973  1.00  0.00     0.001 A 
ATOM     80  C   UNL A   1      43.186  26.391  37.209  1.00  0.00     0.001 A 
ATOM     81  C   UNL A   1      42.462  25.222  37.008  1.00  0.00     0.000 A 
ENDBRANCH  57  76
BRANCH  69  82
ATOM     82  C   UNL A   1      43.331  33.125  32.980  1.00  0.00    -0.014 A 
ATOM     83  C   UNL A   1      44.144  32.414  32.081  1.00  0.00     0.009 A 
ATOM     84  C   UNL A   1      43.906  34.178  33.707  1.00  0.00     0.009 A 
ATOM     85  C   UNL A   1      45.501  32.720  31.943  1.00  0.00     0.001 A 
ATOM     86  C   UNL A   1      45.257  34.500  33.551  1.00  0.00     0.001 A 
ATOM     87  C   UNL A   1      46.056  33.766  32.676  1.00  0.00     0.000 A 
ENDBRANCH  69  82
ENDBRANCH  43  44
ENDBRANCH  36  38
ENDBRANCH  35  36
ENDBRANCH  34  35
ENDBRANCH  33  34
ENDBRANCH  32  33
ENDBRANCH  31  32
ENDBRANCH   1  31
TORSDOF 21
ENDMDL
MODEL 3
REMARK VINA RESULT:     -10.3      3.037      5.190
REMARK SMILES CCn1c([C@@H]2CCC[N@@H+](Cc3ccc(C(=O)OCCOCCOCCOC(=O)c4ccc(-c5c6nc(c(-c7ccccc7)c7ccc([nH]7)c(-c7ccccc7)c7nc(c(-c8ccccc8)c8ccc5[nH]8)C=C7)C=C6)cc4)cc3)C2)nn(C)c1=O
REMARK SMILES IDX 21 1 20 2 19 3 18 4 17 5 15 6 16 7 14 8 11 9 12 10 78 11
REMARK SMILES IDX 13 12 77 13 10 14 9 15 5 16 6 17 79 18 7 19 8 20 4 22 3 23
REMARK SMILES IDX 83 24 80 25 81 26 84 27 82 28 2 29 1 30 22 31 23 32 24 33
REMARK SMILES IDX 25 34 26 35 27 36 28 37 29 38 30 39 76 40 31 41 75 42 32 43
REMARK SMILES IDX 33 44 34 45 69 46 35 47 74 48 68 49 70 50 36 51 73 52 67 53
REMARK SMILES IDX 66 54 37 56 59 57 44 58 58 59 45 60 48 61 57 62 71 63 46 64
REMARK SMILES IDX 47 65 56 67 72 68 49 69 38 70 39 71 43 72 40 73 42 74 41 75
REMARK SMILES IDX 60 76 61 77 65 78 62 79 64 80 63 81 50 82 51 83 55 84 52 85
REMARK SMILES IDX 54 86 53 87
REMARK H PARENT 9 21 70 55 48 66
REMARK Flexibility Score: inf
ROOT
ATOM      1  C   UNL A   1      42.553  19.242  25.712  1.00  0.00     0.188 C 
ENDROOT
BRANCH   1   2
ATOM      2  O   UNL A   1      42.043  19.481  27.018  1.00  0.00    -0.376 OA
BRANCH   2   3
ATOM      3  C   UNL A   1      41.730  20.848  27.300  1.00  0.00     0.202 C 
BRANCH   3   4
ATOM      4  C   UNL A   1      40.825  21.549  26.271  1.00  0.00     0.261 C 
BRANCH   4   5
ATOM      5  O   UNL A   1      39.517  21.853  26.765  1.00  0.00    -0.460 OA
BRANCH   5   6
ATOM      6  C   UNL A   1      39.113  23.141  26.706  1.00  0.00     0.338 C 
ATOM      7  O   UNL A   1      39.711  24.109  27.137  1.00  0.00    -0.246 OA
BRANCH   6   8
ATOM      8  C   UNL A   1      37.911  23.204  25.838  1.00  0.00     0.060 A 
ATOM      9  C   UNL A   1      35.587  23.160  24.281  1.00  0.00     0.006 A 
ATOM     10  C   UNL A   1      36.600  22.219  24.058  1.00  0.00     0.010 A 
ATOM     11  C   UNL A   1      35.721  24.080  25.329  1.00  0.00     0.010 A 
ATOM     12  C   UNL A   1      37.755  22.235  24.839  1.00  0.00     0.016 A 
ATOM     13  C   UNL A   1      36.889  24.132  26.077  1.00  0.00     0.016 A 
BRANCH   9  14
ATOM     14  C   UNL A   1      34.396  23.227  23.365  1.00  0.00     0.299 C 
BRANCH  14  15
ATOM     15  N   UNL A   1      33.191  23.812  23.963  1.00  0.00    -0.331 N 
ATOM     16  C   UNL A   1      31.491  25.608  23.882  1.00  0.00     0.113 C 
ATOM     17  C   UNL A   1      30.622  24.798  24.848  1.00  0.00     0.023 C 
ATOM     18  C   UNL A   1      32.489  24.760  23.099  1.00  0.00     0.274 C 
ATOM     19  C   UNL A   1      31.309  23.598  25.499  1.00  0.00     0.062 C 
ATOM     20  C   UNL A   1      32.267  22.855  24.563  1.00  0.00     0.262 C 
ATOM     21  H   UNL A   1      33.579  24.349  24.739  1.00  0.00     0.348 HD
BRANCH  16  22
ATOM     22  C   UNL A   1      32.112  26.908  24.387  1.00  0.00     0.142 A 
ATOM     23  N   UNL A   1      31.615  28.160  24.271  1.00  0.00    -0.279 N 
ATOM     24  C   UNL A   1      32.398  28.940  25.095  1.00  0.00     0.345 A 
ATOM     25  N   UNL A   1      33.200  26.829  25.106  1.00  0.00    -0.155 NA
ATOM     26  N   UNL A   1      33.399  28.097  25.562  1.00  0.00    -0.216 N 
ATOM     27  O   UNL A   1      32.227  30.104  25.421  1.00  0.00    -0.246 OA
ATOM     28  C   UNL A   1      34.376  28.406  26.567  1.00  0.00     0.179 C 
BRANCH  23  29
ATOM     29  C   UNL A   1      30.363  28.608  23.684  1.00  0.00     0.125 C 
ATOM     30  C   UNL A   1      30.413  29.277  22.320  1.00  0.00     0.028 C 
ENDBRANCH  23  29
ENDBRANCH  16  22
ENDBRANCH  14  15
ENDBRANCH   9  14
ENDBRANCH   6   8
ENDBRANCH   5   6
ENDBRANCH   4   5
ENDBRANCH   3   4
ENDBRANCH   2   3
ENDBRANCH   1   2
BRANCH   1  31
ATOM     31  C   UNL A   1      44.089  19.164  25.615  1.00  0.00     0.188 C 
BRANCH  31  32
ATOM     32  O   UNL A   1      44.781  19.656  24.473  1.00  0.00    -0.376 OA
BRANCH  32  33
ATOM     33  C   UNL A   1      44.632  21.014  24.072  1.00  0.00     0.202 C 
BRANCH  33  34
ATOM     34  C   UNL A   1      44.803  22.137  25.095  1.00  0.00     0.261 C 
BRANCH  34  35
ATOM     35  O   UNL A   1      43.717  23.056  25.128  1.00  0.00    -0.460 OA
BRANCH  35  36
ATOM     36  C   UNL A   1      44.088  24.352  25.216  1.00  0.00     0.338 C 
ATOM     37  O   UNL A   1      45.076  24.869  24.723  1.00  0.00    -0.246 OA
BRANCH  36  38
ATOM     38  C   UNL A   1      43.127  25.084  26.056  1.00  0.00     0.060 A 
ATOM     39  C   UNL A   1      42.250  25.937  25.383  1.00  0.00     0.016 A 
ATOM     40  C   UNL A   1      43.240  25.103  27.455  1.00  0.00     0.016 A 
ATOM     41  C   UNL A   1      41.676  26.974  26.084  1.00  0.00     0.010 A 
ATOM     42  C   UNL A   1      42.660  26.141  28.157  1.00  0.00     0.010 A 
ATOM     43  C   UNL A   1      41.980  27.124  27.441  1.00  0.00    -0.014 A 
BRANCH  43  44
ATOM     44  C   UNL A   1      41.671  28.414  28.026  1.00  0.00     0.031 A 
ATOM     45  C   UNL A   1      42.702  29.461  27.899  1.00  0.00     0.074 A 
ATOM     46  C   UNL A   1      40.515  28.645  28.676  1.00  0.00     0.049 A 
ATOM     47  N   UNL A   1      43.365  30.037  28.846  1.00  0.00    -0.248 NA
ATOM     48  C   UNL A   1      43.078  29.871  26.542  1.00  0.00     0.031 C 
ATOM     49  C   UNL A   1      39.297  27.829  28.672  1.00  0.00     0.029 A 
ATOM     50  N   UNL A   1      40.163  29.735  29.412  1.00  0.00    -0.354 N 
ATOM     51  C   UNL A   1      44.144  31.001  28.222  1.00  0.00     0.074 A 
ATOM     52  C   UNL A   1      44.008  30.790  26.800  1.00  0.00     0.031 C 
ATOM     53  C   UNL A   1      38.280  28.559  29.179  1.00  0.00     0.029 A 
ATOM     54  C   UNL A   1      38.807  29.826  29.661  1.00  0.00     0.049 A 
ATOM     55  H   UNL A   1      40.816  30.398  29.736  1.00  0.00     0.167 HD
ATOM     56  C   UNL A   1      44.704  32.034  28.903  1.00  0.00     0.031 A 
ATOM     57  C   UNL A   1      38.151  30.899  30.159  1.00  0.00     0.031 A 
ATOM     58  C   UNL A   1      44.768  31.802  30.320  1.00  0.00     0.049 A 
ATOM     59  C   UNL A   1      39.132  31.770  30.843  1.00  0.00     0.074 A 
ATOM     60  C   UNL A   1      45.387  30.873  31.129  1.00  0.00     0.029 A 
ATOM     61  N   UNL A   1      43.853  32.445  31.116  1.00  0.00    -0.354 N 
ATOM     62  N   UNL A   1      39.713  31.469  31.968  1.00  0.00    -0.248 NA
ATOM     63  C   UNL A   1      39.756  32.849  30.092  1.00  0.00     0.031 C 
ATOM     64  C   UNL A   1      44.514  30.700  32.242  1.00  0.00     0.029 A 
ATOM     65  C   UNL A   1      43.416  31.539  32.048  1.00  0.00     0.049 A 
ATOM     66  H   UNL A   1      43.564  33.383  31.032  1.00  0.00     0.167 HD
ATOM     67  C   UNL A   1      40.984  32.016  31.872  1.00  0.00     0.074 A 
ATOM     68  C   UNL A   1      40.903  32.963  30.766  1.00  0.00     0.031 C 
ATOM     69  C   UNL A   1      42.048  31.445  32.510  1.00  0.00     0.031 A 
BRANCH  56  70
ATOM     70  C   UNL A   1      44.879  33.400  28.302  1.00  0.00    -0.014 A 
ATOM     71  C   UNL A   1      44.147  34.481  28.820  1.00  0.00     0.009 A 
ATOM     72  C   UNL A   1      45.542  33.607  27.076  1.00  0.00     0.009 A 
ATOM     73  C   UNL A   1      44.057  35.693  28.127  1.00  0.00     0.001 A 
ATOM     74  C   UNL A   1      45.491  34.828  26.404  1.00  0.00     0.001 A 
ATOM     75  C   UNL A   1      44.730  35.867  26.919  1.00  0.00     0.000 A 
ENDBRANCH  56  70
BRANCH  57  76
ATOM     76  C   UNL A   1      36.770  31.328  29.866  1.00  0.00    -0.014 A 
ATOM     77  C   UNL A   1      35.947  31.845  30.877  1.00  0.00     0.009 A 
ATOM     78  C   UNL A   1      36.337  31.461  28.533  1.00  0.00     0.009 A 
ATOM     79  C   UNL A   1      34.747  32.494  30.560  1.00  0.00     0.001 A 
ATOM     80  C   UNL A   1      35.136  32.100  28.218  1.00  0.00     0.001 A 
ATOM     81  C   UNL A   1      34.348  32.630  29.233  1.00  0.00     0.000 A 
ENDBRANCH  57  76
BRANCH  69  82
ATOM     82  C   UNL A   1      41.759  30.393  33.554  1.00  0.00    -0.014 A 
ATOM     83  C   UNL A   1      41.657  29.027  33.239  1.00  0.00     0.009 A 
ATOM     84  C   UNL A   1      41.730  30.769  34.905  1.00  0.00     0.009 A 
ATOM     85  C   UNL A   1      41.490  28.069  34.244  1.00  0.00     0.001 A 
ATOM     86  C   UNL A   1      41.586  29.809  35.911  1.00  0.00     0.001 A 
ATOM     87  C   UNL A   1      41.458  28.461  35.580  1.00  0.00     0.000 A 
ENDBRANCH  69  82
ENDBRANCH  43  44
ENDBRANCH  36  38
ENDBRANCH  35  36
ENDBRANCH  34  35
ENDBRANCH  33  34
ENDBRANCH  32  33
ENDBRANCH  31  32
ENDBRANCH   1  31
TORSDOF 21
ENDMDL
