MODEL 1
REMARK VINA RESULT:      -9.5      0.000      0.000
REMARK SMILES Cc1ccc(S(=O)(=O)n2cc(C(=O)C(=O)N[C@@H](Cc3c[nH]c4ccccc34)C(=O)OCCOCCOCCOC(=O)c3ccc(-c4c5nc(c(-c6ccccc6)c6ccc([nH]6)c(-c6ccccc6)c6nc(c(-c7ccccc7)c7ccc4[nH]7)C=C6)C=C5)cc3)c3ccccc32)cc1
REMARK SMILES IDX 33 1 32 2 31 3 30 4 28 5 29 6 17 7 16 8 14 9 15 10 12 12
REMARK SMILES IDX 13 13 11 14 9 15 10 16 95 17 90 18 94 19 91 20 93 21 92 22
REMARK SMILES IDX 6 23 7 24 8 25 5 26 1 27 2 28 3 29 97 30 4 31 96 32 18 33
REMARK SMILES IDX 19 34 20 35 27 36 21 37 22 38 26 39 23 41 25 42 24 43 34 44
REMARK SMILES IDX 35 45 36 46 37 47 38 48 39 49 40 50 41 51 42 52 43 53 89 54
REMARK SMILES IDX 44 55 88 56 45 57 46 58 47 59 82 60 48 61 87 62 81 63 83 64
REMARK SMILES IDX 49 65 86 66 80 67 79 68 50 70 72 71 57 72 71 73 58 74 61 75
REMARK SMILES IDX 70 76 84 77 59 78 60 79 69 81 85 82 62 83 51 84 52 85 56 86
REMARK SMILES IDX 53 87 55 88 54 89 73 90 74 91 78 92 75 93 77 94 76 95 63 96
REMARK SMILES IDX 64 97 68 98 65 99 67 100 66 101
REMARK H PARENT 16 11 21 40 83 69 61 80
REMARK Flexibility Score: inf
ROOT
ATOM      1  O   UNL A   1      44.965  24.015  32.076  1.00  0.00    -0.376 OA
ENDROOT
BRANCH   1   2
ATOM      2  C   UNL A   1      43.950  23.316  31.414  1.00  0.00     0.202 C 
BRANCH   2   3
ATOM      3  C   UNL A   1      43.910  23.222  29.851  1.00  0.00     0.261 C 
BRANCH   3   4
ATOM      4  O   UNL A   1      43.383  24.487  28.637  1.00  0.00    -0.462 OA
BRANCH   4   5
ATOM      5  C   UNL A   1      43.888  25.578  27.666  1.00  0.00     0.329 C 
ATOM      6  O   UNL A   1      43.800  26.768  27.999  1.00  0.00    -0.250 OA
BRANCH   5   7
ATOM      7  C   UNL A   1      44.510  25.562  26.069  1.00  0.00     0.197 C 
BRANCH   7   8
ATOM      8  N   UNL A   1      45.760  25.193  25.348  1.00  0.00    -0.335 N 
ATOM      9  C   UNL A   1      46.744  25.989  24.850  1.00  0.00     0.293 C 
ATOM     10  O   UNL A   1      47.737  25.514  24.318  1.00  0.00    -0.265 OA
ATOM     11  H   UNL A   1      45.893  24.227  25.212  1.00  0.00     0.164 HD
BRANCH   9  12
ATOM     12  C   UNL A   1      46.577  27.476  25.096  1.00  0.00     0.252 C 
ATOM     13  O   UNL A   1      46.161  28.179  24.177  1.00  0.00    -0.283 OA
BRANCH  12  14
ATOM     14  C   UNL A   1      47.199  28.062  26.239  1.00  0.00     0.054 A 
ATOM     15  N   UNL A   1      48.726  29.122  27.390  1.00  0.00    -0.240 N 
ATOM     16  C   UNL A   1      48.402  27.861  26.909  1.00  0.00     0.117 A 
ATOM     17  C   UNL A   1      47.802  30.028  26.807  1.00  0.00     0.065 A 
ATOM     18  C   UNL A   1      46.659  29.262  26.697  1.00  0.00     0.012 A 
ATOM     19  C   UNL A   1      47.731  31.429  26.840  1.00  0.00     0.028 A 
ATOM     20  C   UNL A   1      45.390  29.851  26.721  1.00  0.00     0.011 A 
ATOM     21  C   UNL A   1      46.462  31.988  27.010  1.00  0.00     0.002 A 
ATOM     22  C   UNL A   1      45.306  31.213  26.970  1.00  0.00     0.001 A 
BRANCH  15  23
ATOM     23  S   UNL A   1      48.982  29.653  28.979  1.00  0.00     0.268 S 
ATOM     24  O   UNL A   1      50.408  29.961  28.969  1.00  0.00    -0.201 OA
ATOM     25  O   UNL A   1      48.445  28.480  29.668  1.00  0.00    -0.201 OA
BRANCH  23  26
ATOM     26  C   UNL A   1      48.376  30.854  30.049  1.00  0.00     0.088 A 
ATOM     27  C   UNL A   1      45.498  33.400  31.911  1.00  0.00     0.044 C 
ATOM     28  C   UNL A   1      46.559  32.524  31.331  1.00  0.00    -0.051 A 
ATOM     29  C   UNL A   1      46.113  31.305  30.866  1.00  0.00     0.005 A 
ATOM     30  C   UNL A   1      47.929  32.875  31.209  1.00  0.00     0.005 A 
ATOM     31  C   UNL A   1      47.023  30.479  30.281  1.00  0.00     0.022 A 
ATOM     32  C   UNL A   1      48.863  32.040  30.548  1.00  0.00     0.022 A 
ENDBRANCH  23  26
ENDBRANCH  15  23
ENDBRANCH  12  14
ENDBRANCH   9  12
ENDBRANCH   7   8
BRANCH   7  33
ATOM     33  C   UNL A   1      43.478  24.863  25.140  1.00  0.00     0.074 C 
BRANCH  33  34
ATOM     34  C   UNL A   1      43.820  23.429  25.141  1.00  0.00    -0.020 A 
ATOM     35  C   UNL A   1      45.034  22.811  24.004  1.00  0.00     0.087 A 
ATOM     36  C   UNL A   1      42.849  21.905  25.873  1.00  0.00     0.003 A 
ATOM     37  N   UNL A   1      44.728  20.910  23.775  1.00  0.00    -0.361 N 
ATOM     38  C   UNL A   1      43.458  20.406  25.060  1.00  0.00     0.046 A 
ATOM     39  C   UNL A   1      41.926  21.701  26.950  1.00  0.00     0.010 A 
ATOM     40  H   UNL A   1      45.158  20.322  23.111  1.00  0.00     0.166 HD
ATOM     41  C   UNL A   1      43.294  19.236  25.831  1.00  0.00     0.026 A 
ATOM     42  C   UNL A   1      41.680  20.397  27.404  1.00  0.00     0.001 A 
ATOM     43  C   UNL A   1      42.382  19.264  26.929  1.00  0.00     0.002 A 
ENDBRANCH  33  34
ENDBRANCH   7  33
ENDBRANCH   5   7
ENDBRANCH   4   5
ENDBRANCH   3   4
ENDBRANCH   2   3
ENDBRANCH   1   2
BRANCH   1  44
ATOM     44  C   UNL A   1      44.809  25.399  31.933  1.00  0.00     0.188 C 
BRANCH  44  45
ATOM     45  C   UNL A   1      44.371  26.180  33.161  1.00  0.00     0.188 C 
BRANCH  45  46
ATOM     46  O   UNL A   1      45.007  25.898  34.389  1.00  0.00    -0.376 OA
BRANCH  46  47
ATOM     47  C   UNL A   1      45.983  26.645  35.065  1.00  0.00     0.202 C 
BRANCH  47  48
ATOM     48  C   UNL A   1      45.412  27.175  36.328  1.00  0.00     0.261 C 
BRANCH  48  49
ATOM     49  O   UNL A   1      46.266  28.060  37.130  1.00  0.00    -0.460 OA
BRANCH  49  50
ATOM     50  C   UNL A   1      46.350  29.420  37.150  1.00  0.00     0.338 C 
ATOM     51  O   UNL A   1      47.071  29.988  37.968  1.00  0.00    -0.246 OA
BRANCH  50  52
ATOM     52  C   UNL A   1      45.535  30.245  36.205  1.00  0.00     0.060 A 
ATOM     53  C   UNL A   1      44.299  30.626  36.637  1.00  0.00     0.016 A 
ATOM     54  C   UNL A   1      45.785  30.461  34.858  1.00  0.00     0.016 A 
ATOM     55  C   UNL A   1      43.344  30.963  35.662  1.00  0.00     0.010 A 
ATOM     56  C   UNL A   1      44.685  30.487  33.917  1.00  0.00     0.010 A 
ATOM     57  C   UNL A   1      43.328  30.599  34.300  1.00  0.00    -0.014 A 
BRANCH  57  58
ATOM     58  C   UNL A   1      41.805  30.524  33.231  1.00  0.00     0.031 A 
ATOM     59  C   UNL A   1      41.946  30.129  31.024  1.00  0.00     0.074 A 
ATOM     60  C   UNL A   1      40.295  30.711  33.987  1.00  0.00     0.049 A 
ATOM     61  N   UNL A   1      41.057  29.362  30.338  1.00  0.00    -0.248 NA
ATOM     62  C   UNL A   1      42.894  30.474  29.726  1.00  0.00     0.031 C 
ATOM     63  C   UNL A   1      38.949  29.893  33.826  1.00  0.00     0.029 A 
ATOM     64  N   UNL A   1      39.660  31.442  35.153  1.00  0.00    -0.354 N 
ATOM     65  C   UNL A   1      40.902  29.647  29.051  1.00  0.00     0.074 A 
ATOM     66  C   UNL A   1      42.227  29.981  28.664  1.00  0.00     0.031 C 
ATOM     67  C   UNL A   1      37.892  30.415  34.511  1.00  0.00     0.029 A 
ATOM     68  C   UNL A   1      38.298  31.572  35.267  1.00  0.00     0.049 A 
ATOM     69  H   UNL A   1      40.239  31.832  35.847  1.00  0.00     0.167 HD
ATOM     70  C   UNL A   1      39.732  29.055  28.730  1.00  0.00     0.031 A 
ATOM     71  C   UNL A   1      37.590  32.701  35.626  1.00  0.00     0.031 A 
ATOM     72  C   UNL A   1      38.617  29.397  29.697  1.00  0.00     0.049 A 
ATOM     73  C   UNL A   1      36.873  33.054  34.338  1.00  0.00     0.074 A 
ATOM     74  C   UNL A   1      38.014  28.717  30.755  1.00  0.00     0.029 A 
ATOM     75  N   UNL A   1      38.179  30.719  29.837  1.00  0.00    -0.354 N 
ATOM     76  N   UNL A   1      37.327  32.608  33.193  1.00  0.00    -0.248 NA
ATOM     77  C   UNL A   1      35.596  33.756  34.207  1.00  0.00     0.031 C 
ATOM     78  C   UNL A   1      37.104  29.602  31.415  1.00  0.00     0.029 A 
ATOM     79  C   UNL A   1      37.224  30.866  30.856  1.00  0.00     0.049 A 
ATOM     80  H   UNL A   1      38.504  31.464  29.282  1.00  0.00     0.167 HD
ATOM     81  C   UNL A   1      36.361  32.718  32.255  1.00  0.00     0.074 A 
ATOM     82  C   UNL A   1      35.321  33.511  32.910  1.00  0.00     0.031 C 
ATOM     83  C   UNL A   1      36.464  32.122  31.031  1.00  0.00     0.031 A 
BRANCH  70  84
ATOM     84  C   UNL A   1      39.898  27.675  28.169  1.00  0.00    -0.014 A 
ATOM     85  C   UNL A   1      39.517  26.603  28.975  1.00  0.00     0.009 A 
ATOM     86  C   UNL A   1      40.495  27.377  26.923  1.00  0.00     0.009 A 
ATOM     87  C   UNL A   1      39.549  25.302  28.488  1.00  0.00     0.001 A 
ATOM     88  C   UNL A   1      40.497  26.082  26.417  1.00  0.00     0.001 A 
ATOM     89  C   UNL A   1      39.976  25.052  27.187  1.00  0.00     0.000 A 
ENDBRANCH  70  84
BRANCH  71  90
ATOM     90  C   UNL A   1      38.157  33.720  36.612  1.00  0.00    -0.014 A 
ATOM     91  C   UNL A   1      38.180  33.445  37.996  1.00  0.00     0.009 A 
ATOM     92  C   UNL A   1      39.000  34.751  36.188  1.00  0.00     0.009 A 
ATOM     93  C   UNL A   1      39.207  33.945  38.826  1.00  0.00     0.001 A 
ATOM     94  C   UNL A   1      40.120  35.116  36.961  1.00  0.00     0.001 A 
ATOM     95  C   UNL A   1      40.248  34.684  38.271  1.00  0.00     0.000 A 
ENDBRANCH  71  90
BRANCH  83  96
ATOM     96  C   UNL A   1      35.735  32.666  29.853  1.00  0.00    -0.014 A 
ATOM     97  C   UNL A   1      34.646  32.027  29.256  1.00  0.00     0.009 A 
ATOM     98  C   UNL A   1      36.043  33.966  29.415  1.00  0.00     0.009 A 
ATOM     99  C   UNL A   1      33.978  32.615  28.188  1.00  0.00     0.001 A 
ATOM    100  C   UNL A   1      35.294  34.611  28.449  1.00  0.00     0.001 A 
ATOM    101  C   UNL A   1      34.290  33.913  27.800  1.00  0.00     0.000 A 
ENDBRANCH  83  96
ENDBRANCH  57  58
ENDBRANCH  50  52
ENDBRANCH  49  50
ENDBRANCH  48  49
ENDBRANCH  47  48
ENDBRANCH  46  47
ENDBRANCH  45  46
ENDBRANCH  44  45
ENDBRANCH   1  44
TORSDOF 24
ENDMDL
MODEL 2
REMARK VINA RESULT:      -9.2      1.078      1.852
REMARK SMILES Cc1ccc(S(=O)(=O)n2cc(C(=O)C(=O)N[C@@H](Cc3c[nH]c4ccccc34)C(=O)OCCOCCOCCOC(=O)c3ccc(-c4c5nc(c(-c6ccccc6)c6ccc([nH]6)c(-c6ccccc6)c6nc(c(-c7ccccc7)c7ccc4[nH]7)C=C6)C=C5)cc3)c3ccccc32)cc1
REMARK SMILES IDX 33 1 32 2 31 3 30 4 28 5 29 6 17 7 16 8 14 9 15 10 12 12
REMARK SMILES IDX 13 13 11 14 9 15 10 16 95 17 90 18 94 19 91 20 93 21 92 22
REMARK SMILES IDX 6 23 7 24 8 25 5 26 1 27 2 28 3 29 97 30 4 31 96 32 18 33
REMARK SMILES IDX 19 34 20 35 27 36 21 37 22 38 26 39 23 41 25 42 24 43 34 44
REMARK SMILES IDX 35 45 36 46 37 47 38 48 39 49 40 50 41 51 42 52 43 53 89 54
REMARK SMILES IDX 44 55 88 56 45 57 46 58 47 59 82 60 48 61 87 62 81 63 83 64
REMARK SMILES IDX 49 65 86 66 80 67 79 68 50 70 72 71 57 72 71 73 58 74 61 75
REMARK SMILES IDX 70 76 84 77 59 78 60 79 69 81 85 82 62 83 51 84 52 85 56 86
REMARK SMILES IDX 53 87 55 88 54 89 73 90 74 91 78 92 75 93 77 94 76 95 63 96
REMARK SMILES IDX 64 97 68 98 65 99 67 100 66 101
REMARK H PARENT 16 11 21 40 83 69 61 80
REMARK Flexibility Score: inf
ROOT
ATOM      1  O   UNL A   1      44.919  24.011  32.164  1.00  0.00    -0.376 OA
ENDROOT
BRANCH   1   2
ATOM      2  C   UNL A   1      43.890  23.281  31.559  1.00  0.00     0.202 C 
BRANCH   2   3
ATOM      3  C   UNL A   1      43.810  23.121  30.002  1.00  0.00     0.261 C 
BRANCH   3   4
ATOM      4  O   UNL A   1      43.325  24.358  28.742  1.00  0.00    -0.462 OA
BRANCH   4   5
ATOM      5  C   UNL A   1      43.858  25.453  27.793  1.00  0.00     0.329 C 
ATOM      6  O   UNL A   1      43.673  26.644  28.083  1.00  0.00    -0.250 OA
BRANCH   5   7
ATOM      7  C   UNL A   1      44.628  25.438  26.262  1.00  0.00     0.197 C 
BRANCH   7   8
ATOM      8  N   UNL A   1      45.920  25.017  25.652  1.00  0.00    -0.335 N 
ATOM      9  C   UNL A   1      46.869  25.763  25.024  1.00  0.00     0.293 C 
ATOM     10  O   UNL A   1      47.906  25.260  24.616  1.00  0.00    -0.265 OA
ATOM     11  H   UNL A   1      46.116  24.054  25.712  1.00  0.00     0.164 HD
BRANCH   9  12
ATOM     12  C   UNL A   1      46.604  27.255  24.967  1.00  0.00     0.252 C 
ATOM     13  O   UNL A   1      46.532  27.796  23.866  1.00  0.00    -0.283 OA
BRANCH  12  14
ATOM     14  C   UNL A   1      46.769  28.032  26.153  1.00  0.00     0.054 A 
ATOM     15  N   UNL A   1      46.380  28.718  28.192  1.00  0.00    -0.240 N 
ATOM     16  C   UNL A   1      45.951  28.889  26.884  1.00  0.00     0.117 A 
ATOM     17  C   UNL A   1      47.287  27.627  28.183  1.00  0.00     0.065 A 
ATOM     18  C   UNL A   1      47.881  27.740  26.941  1.00  0.00     0.012 A 
ATOM     19  C   UNL A   1      47.928  26.944  29.228  1.00  0.00     0.028 A 
ATOM     20  C   UNL A   1      49.180  27.272  26.717  1.00  0.00     0.011 A 
ATOM     21  C   UNL A   1      49.271  26.615  29.032  1.00  0.00     0.002 A 
ATOM     22  C   UNL A   1      49.898  26.790  27.801  1.00  0.00     0.001 A 
BRANCH  15  23
ATOM     23  S   UNL A   1      46.998  29.847  29.295  1.00  0.00     0.268 S 
ATOM     24  O   UNL A   1      46.027  29.774  30.380  1.00  0.00    -0.201 OA
ATOM     25  O   UNL A   1      47.066  30.993  28.388  1.00  0.00    -0.201 OA
BRANCH  23  26
ATOM     26  C   UNL A   1      48.457  30.141  30.156  1.00  0.00     0.088 A 
ATOM     27  C   UNL A   1      52.665  30.363  30.844  1.00  0.00     0.044 C 
ATOM     28  C   UNL A   1      51.181  30.341  30.674  1.00  0.00    -0.051 A 
ATOM     29  C   UNL A   1      50.744  30.544  29.382  1.00  0.00     0.005 A 
ATOM     30  C   UNL A   1      50.246  30.102  31.714  1.00  0.00     0.005 A 
ATOM     31  C   UNL A   1      49.404  30.489  29.152  1.00  0.00     0.022 A 
ATOM     32  C   UNL A   1      48.857  29.985  31.463  1.00  0.00     0.022 A 
ENDBRANCH  23  26
ENDBRANCH  15  23
ENDBRANCH  12  14
ENDBRANCH   9  12
ENDBRANCH   7   8
BRANCH   7  33
ATOM     33  C   UNL A   1      43.654  24.815  25.222  1.00  0.00     0.074 C 
BRANCH  33  34
ATOM     34  C   UNL A   1      43.903  23.362  25.235  1.00  0.00    -0.020 A 
ATOM     35  C   UNL A   1      45.066  22.655  24.097  1.00  0.00     0.087 A 
ATOM     36  C   UNL A   1      42.842  21.911  25.991  1.00  0.00     0.003 A 
ATOM     37  N   UNL A   1      44.637  20.775  23.890  1.00  0.00    -0.361 N 
ATOM     38  C   UNL A   1      43.347  20.367  25.190  1.00  0.00     0.046 A 
ATOM     39  C   UNL A   1      41.915  21.777  27.076  1.00  0.00     0.010 A 
ATOM     40  H   UNL A   1      45.024  20.155  23.230  1.00  0.00     0.166 HD
ATOM     41  C   UNL A   1      43.114  19.219  25.974  1.00  0.00     0.026 A 
ATOM     42  C   UNL A   1      41.589  20.497  27.545  1.00  0.00     0.001 A 
ATOM     43  C   UNL A   1      42.214  19.316  27.078  1.00  0.00     0.002 A 
ENDBRANCH  33  34
ENDBRANCH   7  33
ENDBRANCH   5   7
ENDBRANCH   4   5
ENDBRANCH   3   4
ENDBRANCH   2   3
ENDBRANCH   1   2
BRANCH   1  44
ATOM     44  C   UNL A   1      44.761  25.386  31.955  1.00  0.00     0.188 C 
BRANCH  44  45
ATOM     45  C   UNL A   1      44.346  26.228  33.150  1.00  0.00     0.188 C 
BRANCH  45  46
ATOM     46  O   UNL A   1      44.994  25.998  34.383  1.00  0.00    -0.376 OA
BRANCH  46  47
ATOM     47  C   UNL A   1      46.018  26.741  34.989  1.00  0.00     0.202 C 
BRANCH  47  48
ATOM     48  C   UNL A   1      45.497  27.383  36.221  1.00  0.00     0.261 C 
BRANCH  48  49
ATOM     49  O   UNL A   1      46.399  28.298  36.932  1.00  0.00    -0.460 OA
BRANCH  49  50
ATOM     50  C   UNL A   1      46.525  29.652  36.849  1.00  0.00     0.338 C 
ATOM     51  O   UNL A   1      47.295  30.253  37.595  1.00  0.00    -0.246 OA
BRANCH  50  52
ATOM     52  C   UNL A   1      45.697  30.432  35.877  1.00  0.00     0.060 A 
ATOM     53  C   UNL A   1      44.476  30.852  36.314  1.00  0.00     0.016 A 
ATOM     54  C   UNL A   1      45.919  30.569  34.514  1.00  0.00     0.016 A 
ATOM     55  C   UNL A   1      43.503  31.145  35.342  1.00  0.00     0.010 A 
ATOM     56  C   UNL A   1      44.799  30.555  33.598  1.00  0.00     0.010 A 
ATOM     57  C   UNL A   1      43.452  30.705  34.004  1.00  0.00    -0.014 A 
BRANCH  57  58
ATOM     58  C   UNL A   1      41.904  30.589  32.975  1.00  0.00     0.031 A 
ATOM     59  C   UNL A   1      41.998  30.190  30.766  1.00  0.00     0.074 A 
ATOM     60  C   UNL A   1      40.410  30.741  33.770  1.00  0.00     0.049 A 
ATOM     61  N   UNL A   1      41.112  29.399  30.105  1.00  0.00    -0.248 NA
ATOM     62  C   UNL A   1      42.904  30.554  29.443  1.00  0.00     0.031 C 
ATOM     63  C   UNL A   1      39.081  29.888  33.646  1.00  0.00     0.029 A 
ATOM     64  N   UNL A   1      39.787  31.459  34.950  1.00  0.00    -0.354 N 
ATOM     65  C   UNL A   1      40.916  29.675  28.822  1.00  0.00     0.074 A 
ATOM     66  C   UNL A   1      42.222  30.041  28.400  1.00  0.00     0.031 C 
ATOM     67  C   UNL A   1      38.029  30.386  34.356  1.00  0.00     0.029 A 
ATOM     68  C   UNL A   1      38.426  31.555  35.098  1.00  0.00     0.049 A 
ATOM     69  H   UNL A   1      40.374  31.866  35.627  1.00  0.00     0.167 HD
ATOM     70  C   UNL A   1      39.754  29.054  28.533  1.00  0.00     0.031 A 
ATOM     71  C   UNL A   1      37.700  32.668  35.472  1.00  0.00     0.031 A 
ATOM     72  C   UNL A   1      38.656  29.370  29.528  1.00  0.00     0.049 A 
ATOM     73  C   UNL A   1      36.941  32.999  34.203  1.00  0.00     0.074 A 
ATOM     74  C   UNL A   1      38.097  28.680  30.602  1.00  0.00     0.029 A 
ATOM     75  N   UNL A   1      38.188  30.682  29.675  1.00  0.00    -0.354 N 
ATOM     76  N   UNL A   1      37.376  32.560  33.047  1.00  0.00    -0.248 NA
ATOM     77  C   UNL A   1      35.644  33.668  34.102  1.00  0.00     0.031 C 
ATOM     78  C   UNL A   1      37.182  29.544  31.284  1.00  0.00     0.029 A 
ATOM     79  C   UNL A   1      37.256  30.808  30.718  1.00  0.00     0.049 A 
ATOM     80  H   UNL A   1      38.480  31.433  29.110  1.00  0.00     0.167 HD
ATOM     81  C   UNL A   1      36.383  32.643  32.134  1.00  0.00     0.074 A 
ATOM     82  C   UNL A   1      35.341  33.412  32.813  1.00  0.00     0.031 C 
ATOM     83  C   UNL A   1      36.470  32.046  30.909  1.00  0.00     0.031 A 
BRANCH  70  84
ATOM     84  C   UNL A   1      39.939  27.676  27.971  1.00  0.00    -0.014 A 
ATOM     85  C   UNL A   1      39.591  26.598  28.784  1.00  0.00     0.009 A 
ATOM     86  C   UNL A   1      40.525  27.388  26.718  1.00  0.00     0.009 A 
ATOM     87  C   UNL A   1      39.641  25.298  28.298  1.00  0.00     0.001 A 
ATOM     88  C   UNL A   1      40.546  26.093  26.213  1.00  0.00     0.001 A 
ATOM     89  C   UNL A   1      40.057  25.054  26.992  1.00  0.00     0.000 A 
ENDBRANCH  70  84
BRANCH  71  90
ATOM     90  C   UNL A   1      38.266  33.704  36.441  1.00  0.00    -0.014 A 
ATOM     91  C   UNL A   1      38.315  33.441  37.826  1.00  0.00     0.009 A 
ATOM     92  C   UNL A   1      39.085  34.744  35.994  1.00  0.00     0.009 A 
ATOM     93  C   UNL A   1      39.347  33.964  38.636  1.00  0.00     0.001 A 
ATOM     94  C   UNL A   1      40.212  35.133  36.747  1.00  0.00     0.001 A 
ATOM     95  C   UNL A   1      40.367  34.714  38.058  1.00  0.00     0.000 A 
ENDBRANCH  71  90
BRANCH  83  96
ATOM     96  C   UNL A   1      35.697  32.568  29.749  1.00  0.00    -0.014 A 
ATOM     97  C   UNL A   1      34.657  31.866  29.135  1.00  0.00     0.009 A 
ATOM     98  C   UNL A   1      35.906  33.899  29.349  1.00  0.00     0.009 A 
ATOM     99  C   UNL A   1      33.943  32.433  28.087  1.00  0.00     0.001 A 
ATOM    100  C   UNL A   1      35.106  34.514  28.404  1.00  0.00     0.001 A 
ATOM    101  C   UNL A   1      34.155  33.762  27.737  1.00  0.00     0.000 A 
ENDBRANCH  83  96
ENDBRANCH  57  58
ENDBRANCH  50  52
ENDBRANCH  49  50
ENDBRANCH  48  49
ENDBRANCH  47  48
ENDBRANCH  46  47
ENDBRANCH  45  46
ENDBRANCH  44  45
ENDBRANCH   1  44
TORSDOF 24
ENDMDL
MODEL 3
REMARK VINA RESULT:      -9.1      4.463     12.901
REMARK SMILES Cc1ccc(S(=O)(=O)n2cc(C(=O)C(=O)N[C@@H](Cc3c[nH]c4ccccc34)C(=O)OCCOCCOCCOC(=O)c3ccc(-c4c5nc(c(-c6ccccc6)c6ccc([nH]6)c(-c6ccccc6)c6nc(c(-c7ccccc7)c7ccc4[nH]7)C=C6)C=C5)cc3)c3ccccc32)cc1
REMARK SMILES IDX 33 1 32 2 31 3 30 4 28 5 29 6 17 7 16 8 14 9 15 10 12 12
REMARK SMILES IDX 13 13 11 14 9 15 10 16 95 17 90 18 94 19 91 20 93 21 92 22
REMARK SMILES IDX 6 23 7 24 8 25 5 26 1 27 2 28 3 29 97 30 4 31 96 32 18 33
REMARK SMILES IDX 19 34 20 35 27 36 21 37 22 38 26 39 23 41 25 42 24 43 34 44
REMARK SMILES IDX 35 45 36 46 37 47 38 48 39 49 40 50 41 51 42 52 43 53 89 54
REMARK SMILES IDX 44 55 88 56 45 57 46 58 47 59 82 60 48 61 87 62 81 63 83 64
REMARK SMILES IDX 49 65 86 66 80 67 79 68 50 70 72 71 57 72 71 73 58 74 61 75
REMARK SMILES IDX 70 76 84 77 59 78 60 79 69 81 85 82 62 83 51 84 52 85 56 86
REMARK SMILES IDX 53 87 55 88 54 89 73 90 74 91 78 92 75 93 77 94 76 95 63 96
REMARK SMILES IDX 64 97 68 98 65 99 67 100 66 101
REMARK H PARENT 16 11 21 40 83 69 61 80
REMARK Flexibility Score: inf
ROOT
ATOM      1  O   UNL A   1      45.224  32.699  28.550  1.00  0.00    -0.376 OA
ENDROOT
BRANCH   1   2
ATOM      2  C   UNL A   1      44.190  33.621  28.354  1.00  0.00     0.202 C 
BRANCH   2   3
ATOM      3  C   UNL A   1      43.090  33.857  29.444  1.00  0.00     0.261 C 
BRANCH   3   4
ATOM      4  O   UNL A   1      42.289  32.638  30.551  1.00  0.00    -0.462 OA
BRANCH   4   5
ATOM      5  C   UNL A   1      42.490  31.773  31.815  1.00  0.00     0.329 C 
ATOM      6  O   UNL A   1      43.124  30.712  31.725  1.00  0.00    -0.250 OA
BRANCH   5   7
ATOM      7  C   UNL A   1      41.933  31.872  33.433  1.00  0.00     0.197 C 
BRANCH   7   8
ATOM      8  N   UNL A   1      41.587  30.969  34.565  1.00  0.00    -0.335 N 
ATOM      9  C   UNL A   1      40.506  30.160  34.733  1.00  0.00     0.293 C 
ATOM     10  O   UNL A   1      40.398  29.440  35.716  1.00  0.00    -0.265 OA
ATOM     11  H   UNL A   1      42.238  30.956  35.303  1.00  0.00     0.164 HD
BRANCH   9  12
ATOM     12  C   UNL A   1      39.518  30.131  33.583  1.00  0.00     0.252 C 
ATOM     13  O   UNL A   1      39.779  29.434  32.604  1.00  0.00    -0.283 OA
BRANCH  12  14
ATOM     14  C   UNL A   1      38.505  31.134  33.516  1.00  0.00     0.054 A 
ATOM     15  N   UNL A   1      37.467  32.995  34.004  1.00  0.00    -0.240 N 
ATOM     16  C   UNL A   1      37.608  31.682  34.429  1.00  0.00     0.117 A 
ATOM     17  C   UNL A   1      38.438  33.201  32.990  1.00  0.00     0.065 A 
ATOM     18  C   UNL A   1      38.516  31.958  32.393  1.00  0.00     0.012 A 
ATOM     19  C   UNL A   1      38.826  34.358  32.298  1.00  0.00     0.028 A 
ATOM     20  C   UNL A   1      38.883  31.825  31.049  1.00  0.00     0.011 A 
ATOM     21  C   UNL A   1      39.047  34.224  30.925  1.00  0.00     0.002 A 
ATOM     22  C   UNL A   1      39.059  32.980  30.301  1.00  0.00     0.001 A 
BRANCH  15  23
ATOM     23  S   UNL A   1      36.081  33.844  33.521  1.00  0.00     0.268 S 
ATOM     24  O   UNL A   1      36.474  35.227  33.765  1.00  0.00    -0.201 OA
ATOM     25  O   UNL A   1      35.117  33.149  34.373  1.00  0.00    -0.201 OA
BRANCH  23  26
ATOM     26  C   UNL A   1      35.091  34.006  32.126  1.00  0.00     0.088 A 
ATOM     27  C   UNL A   1      33.907  33.571  28.046  1.00  0.00     0.044 C 
ATOM     28  C   UNL A   1      34.235  33.741  29.494  1.00  0.00    -0.051 A 
ATOM     29  C   UNL A   1      35.026  32.745  30.029  1.00  0.00     0.005 A 
ATOM     30  C   UNL A   1      33.822  34.833  30.299  1.00  0.00     0.005 A 
ATOM     31  C   UNL A   1      35.399  32.866  31.331  1.00  0.00     0.022 A 
ATOM     32  C   UNL A   1      34.260  34.988  31.638  1.00  0.00     0.022 A 
ENDBRANCH  23  26
ENDBRANCH  15  23
ENDBRANCH  12  14
ENDBRANCH   9  12
ENDBRANCH   7   8
BRANCH   7  33
ATOM     33  C   UNL A   1      42.814  32.898  34.201  1.00  0.00     0.074 C 
BRANCH  33  34
ATOM     34  C   UNL A   1      41.892  33.900  34.765  1.00  0.00    -0.020 A 
ATOM     35  C   UNL A   1      41.877  35.551  34.114  1.00  0.00     0.087 A 
ATOM     36  C   UNL A   1      40.936  33.914  36.464  1.00  0.00     0.003 A 
ATOM     37  N   UNL A   1      41.139  36.725  35.469  1.00  0.00    -0.361 N 
ATOM     38  C   UNL A   1      40.459  35.623  36.828  1.00  0.00     0.046 A 
ATOM     39  C   UNL A   1      40.427  32.919  37.360  1.00  0.00     0.010 A 
ATOM     40  H   UNL A   1      41.124  37.709  35.448  1.00  0.00     0.166 HD
ATOM     41  C   UNL A   1      39.332  35.731  37.667  1.00  0.00     0.026 A 
ATOM     42  C   UNL A   1      39.491  33.291  38.336  1.00  0.00     0.001 A 
ATOM     43  C   UNL A   1      38.928  34.586  38.420  1.00  0.00     0.002 A 
ENDBRANCH  33  34
ENDBRANCH   7  33
ENDBRANCH   5   7
ENDBRANCH   4   5
ENDBRANCH   3   4
ENDBRANCH   2   3
ENDBRANCH   1   2
BRANCH   1  44
ATOM     44  C   UNL A   1      45.124  31.624  27.659  1.00  0.00     0.188 C 
BRANCH  44  45
ATOM     45  C   UNL A   1      43.845  30.805  27.699  1.00  0.00     0.188 C 
BRANCH  45  46
ATOM     46  O   UNL A   1      43.450  30.131  26.523  1.00  0.00    -0.376 OA
BRANCH  46  47
ATOM     47  C   UNL A   1      43.107  28.781  26.357  1.00  0.00     0.202 C 
BRANCH  47  48
ATOM     48  C   UNL A   1      41.788  28.686  25.684  1.00  0.00     0.261 C 
BRANCH  48  49
ATOM     49  O   UNL A   1      40.674  28.140  26.469  1.00  0.00    -0.460 OA
BRANCH  49  50
ATOM     50  C   UNL A   1      40.434  28.188  27.809  1.00  0.00     0.338 C 
ATOM     51  O   UNL A   1      39.569  28.937  28.261  1.00  0.00    -0.246 OA
BRANCH  50  52
ATOM     52  C   UNL A   1      41.246  27.362  28.756  1.00  0.00     0.060 A 
ATOM     53  C   UNL A   1      41.886  28.032  29.756  1.00  0.00     0.016 A 
ATOM     54  C   UNL A   1      41.622  26.037  28.594  1.00  0.00     0.016 A 
ATOM     55  C   UNL A   1      42.999  27.410  30.347  1.00  0.00     0.010 A 
ATOM     56  C   UNL A   1      42.946  25.611  28.995  1.00  0.00     0.010 A 
ATOM     57  C   UNL A   1      43.803  26.381  29.816  1.00  0.00    -0.014 A 
BRANCH  57  58
ATOM     58  C   UNL A   1      45.563  26.032  30.315  1.00  0.00     0.031 A 
ATOM     59  C   UNL A   1      47.131  25.524  28.789  1.00  0.00     0.074 A 
ATOM     60  C   UNL A   1      45.961  26.163  31.962  1.00  0.00     0.049 A 
ATOM     61  N   UNL A   1      48.416  25.960  28.856  1.00  0.00    -0.248 NA
ATOM     62  C   UNL A   1      47.318  24.692  27.383  1.00  0.00     0.031 C 
ATOM     63  C   UNL A   1      47.193  26.856  32.676  1.00  0.00     0.029 A 
ATOM     64  N   UNL A   1      45.342  25.954  33.329  1.00  0.00    -0.354 N 
ATOM     65  C   UNL A   1      49.332  25.192  28.280  1.00  0.00     0.074 A 
ATOM     66  C   UNL A   1      48.640  24.728  27.128  1.00  0.00     0.031 C 
ATOM     67  C   UNL A   1      47.247  26.649  34.023  1.00  0.00     0.029 A 
ATOM     68  C   UNL A   1      46.109  25.883  34.465  1.00  0.00     0.049 A 
ATOM     69  H   UNL A   1      44.364  25.868  33.405  1.00  0.00     0.167 HD
ATOM     70  C   UNL A   1      50.493  25.612  28.823  1.00  0.00     0.031 A 
ATOM     71  C   UNL A   1      45.982  24.989  35.509  1.00  0.00     0.031 A 
ATOM     72  C   UNL A   1      50.441  25.683  30.336  1.00  0.00     0.049 A 
ATOM     73  C   UNL A   1      47.243  24.159  35.377  1.00  0.00     0.074 A 
ATOM     74  C   UNL A   1      50.297  26.727  31.249  1.00  0.00     0.029 A 
ATOM     75  N   UNL A   1      50.234  24.524  31.094  1.00  0.00    -0.354 N 
ATOM     76  N   UNL A   1      47.882  24.116  34.233  1.00  0.00    -0.248 NA
ATOM     77  C   UNL A   1      47.957  23.466  36.450  1.00  0.00     0.031 C 
ATOM     78  C   UNL A   1      50.164  26.177  32.563  1.00  0.00     0.029 A 
ATOM     79  C   UNL A   1      50.100  24.795  32.466  1.00  0.00     0.049 A 
ATOM     80  H   UNL A   1      50.188  23.620  30.708  1.00  0.00     0.167 HD
ATOM     81  C   UNL A   1      49.132  23.647  34.435  1.00  0.00     0.074 A 
ATOM     82  C   UNL A   1      49.115  23.180  35.821  1.00  0.00     0.031 C 
ATOM     83  C   UNL A   1      50.098  23.711  33.472  1.00  0.00     0.031 A 
BRANCH  70  84
ATOM     84  C   UNL A   1      51.188  26.659  28.005  1.00  0.00    -0.014 A 
ATOM     85  C   UNL A   1      52.313  27.267  28.561  1.00  0.00     0.009 A 
ATOM     86  C   UNL A   1      50.737  27.137  26.754  1.00  0.00     0.009 A 
ATOM     87  C   UNL A   1      53.066  28.173  27.825  1.00  0.00     0.001 A 
ATOM     88  C   UNL A   1      51.504  28.016  25.999  1.00  0.00     0.001 A 
ATOM     89  C   UNL A   1      52.697  28.495  26.521  1.00  0.00     0.000 A 
ENDBRANCH  70  84
BRANCH  71  90
ATOM     90  C   UNL A   1      44.621  24.440  35.931  1.00  0.00    -0.014 A 
ATOM     91  C   UNL A   1      43.780  25.185  36.785  1.00  0.00     0.009 A 
ATOM     92  C   UNL A   1      44.000  23.412  35.218  1.00  0.00     0.009 A 
ATOM     93  C   UNL A   1      42.374  25.109  36.678  1.00  0.00     0.001 A 
ATOM     94  C   UNL A   1      42.611  23.451  34.981  1.00  0.00     0.001 A 
ATOM     95  C   UNL A   1      41.797  24.326  35.682  1.00  0.00     0.000 A 
ENDBRANCH  71  90
BRANCH  83  96
ATOM     96  C   UNL A   1      51.233  22.749  33.463  1.00  0.00    -0.014 A 
ATOM     97  C   UNL A   1      51.076  21.371  33.293  1.00  0.00     0.009 A 
ATOM     98  C   UNL A   1      52.544  23.257  33.460  1.00  0.00     0.009 A 
ATOM     99  C   UNL A   1      52.184  20.533  33.245  1.00  0.00     0.001 A 
ATOM    100  C   UNL A   1      53.645  22.444  33.273  1.00  0.00     0.001 A 
ATOM    101  C   UNL A   1      53.465  21.073  33.215  1.00  0.00     0.000 A 
ENDBRANCH  83  96
ENDBRANCH  57  58
ENDBRANCH  50  52
ENDBRANCH  49  50
ENDBRANCH  48  49
ENDBRANCH  47  48
ENDBRANCH  46  47
ENDBRANCH  45  46
ENDBRANCH  44  45
ENDBRANCH   1  44
TORSDOF 24
ENDMDL
