MODEL 1
REMARK VINA RESULT:     -10.6      0.000      0.000
REMARK SMILES C[N@@H+]1CCN(C(=O)c2cnn3c2CCCC3)C[C@H]1C(=O)OCCOCCOCCOC(=O)c1ccc(-c2c3nc(c(-c4ccccc4)c4ccc([nH]4)c(-c4ccccc4)c4nc(c(-c5ccccc5)c5ccc2[nH]5)C=C4)C=C3)cc1
REMARK SMILES IDX 25 1 24 2 23 3 22 4 21 5 19 6 20 7 18 8 1 9 2 10 3 11 4 13
REMARK SMILES IDX 17 14 5 15 6 16 7 17 8 18 9 19 12 20 10 21 11 22 13 23 16 24
REMARK SMILES IDX 14 25 15 26 26 27 27 28 28 29 29 30 30 31 31 32 32 33 33 34
REMARK SMILES IDX 34 35 80 36 35 37 79 38 36 39 37 40 38 41 73 42 39 43 78 44
REMARK SMILES IDX 72 45 74 46 40 47 77 48 71 49 70 50 41 52 63 53 48 54 62 55
REMARK SMILES IDX 49 56 52 57 61 58 75 59 50 60 51 61 60 63 76 64 53 65 42 66
REMARK SMILES IDX 43 67 47 68 44 69 46 70 45 71 64 72 65 73 69 74 66 75 68 76
REMARK SMILES IDX 67 77 54 78 55 79 59 80 56 81 58 82 57 83
REMARK H PARENT 2 12 74 51 52 62
REMARK Flexibility Score: inf
ROOT
ATOM      1  C   UNL A   1      37.870  21.198  25.125  1.00  0.00     0.188 C 
ENDROOT
BRANCH   1   2
ATOM      2  O   UNL A   1      36.550  21.574  25.496  1.00  0.00    -0.376 OA
BRANCH   2   3
ATOM      3  C   UNL A   1      35.494  20.754  25.003  1.00  0.00     0.202 C 
BRANCH   3   4
ATOM      4  C   UNL A   1      34.040  21.259  25.167  1.00  0.00     0.261 C 
BRANCH   4   5
ATOM      5  O   UNL A   1      33.739  22.637  24.831  1.00  0.00    -0.459 OA
BRANCH   5   6
ATOM      6  C   UNL A   1      33.525  23.443  25.893  1.00  0.00     0.366 C 
ATOM      7  O   UNL A   1      34.171  23.346  26.939  1.00  0.00    -0.245 OA
BRANCH   6   8
ATOM      8  C   UNL A   1      32.393  24.463  25.815  1.00  0.00     0.314 C 
ATOM      9  C   UNL A   1      30.391  23.189  26.556  1.00  0.00     0.333 C 
ATOM     10  N   UNL A   1      31.180  24.410  26.707  1.00  0.00    -0.323 N 
ATOM     11  C   UNL A   1      30.289  25.558  26.341  1.00  0.00     0.284 C 
ATOM     12  H   UNL A   1      31.517  24.444  27.669  1.00  0.00     0.348 HD
ATOM     13  C   UNL A   1      30.980  26.929  26.427  1.00  0.00     0.181 C 
ATOM     14  C   UNL A   1      33.117  25.804  26.046  1.00  0.00     0.197 C 
ATOM     15  N   UNL A   1      32.242  26.921  25.699  1.00  0.00    -0.326 N 
BRANCH  15  16
ATOM     16  C   UNL A   1      32.529  27.908  24.771  1.00  0.00     0.257 C 
ATOM     17  O   UNL A   1      33.599  28.511  24.748  1.00  0.00    -0.269 OA
BRANCH  16  18
ATOM     18  C   UNL A   1      31.517  28.160  23.767  1.00  0.00     0.081 A 
ATOM     19  C   UNL A   1      31.190  27.430  22.601  1.00  0.00     0.149 A 
ATOM     20  C   UNL A   1      30.656  29.238  23.748  1.00  0.00     0.051 A 
ATOM     21  N   UNL A   1      30.199  27.994  21.903  1.00  0.00    -0.180 NA
ATOM     22  N   UNL A   1      29.874  29.070  22.639  1.00  0.00    -0.269 N 
ATOM     23  C   UNL A   1      30.479  30.384  24.679  1.00  0.00     0.057 C 
ATOM     24  C   UNL A   1      28.822  29.975  22.216  1.00  0.00     0.144 C 
ATOM     25  C   UNL A   1      29.610  31.487  24.069  1.00  0.00     0.008 C 
ATOM     26  C   UNL A   1      28.389  30.896  23.359  1.00  0.00     0.024 C 
ENDBRANCH  16  18
ENDBRANCH  15  16
ENDBRANCH   6   8
ENDBRANCH   5   6
ENDBRANCH   4   5
ENDBRANCH   3   4
ENDBRANCH   2   3
ENDBRANCH   1   2
BRANCH   1  27
ATOM     27  C   UNL A   1      38.983  21.659  26.068  1.00  0.00     0.188 C 
BRANCH  27  28
ATOM     28  O   UNL A   1      39.960  20.661  26.295  1.00  0.00    -0.376 OA
BRANCH  28  29
ATOM     29  C   UNL A   1      41.361  20.878  26.205  1.00  0.00     0.202 C 
BRANCH  29  30
ATOM     30  C   UNL A   1      42.344  19.716  26.186  1.00  0.00     0.261 C 
BRANCH  30  31
ATOM     31  O   UNL A   1      43.699  20.078  25.991  1.00  0.00    -0.460 OA
BRANCH  31  32
ATOM     32  C   UNL A   1      44.200  20.163  24.737  1.00  0.00     0.338 C 
ATOM     33  O   UNL A   1      44.202  19.338  23.863  1.00  0.00    -0.246 OA
BRANCH  32  34
ATOM     34  C   UNL A   1      44.730  21.539  24.660  1.00  0.00     0.060 A 
ATOM     35  C   UNL A   1      45.923  21.806  25.318  1.00  0.00     0.016 A 
ATOM     36  C   UNL A   1      43.908  22.562  24.141  1.00  0.00     0.016 A 
ATOM     37  C   UNL A   1      46.072  23.077  25.811  1.00  0.00     0.010 A 
ATOM     38  C   UNL A   1      44.062  23.824  24.611  1.00  0.00     0.010 A 
ATOM     39  C   UNL A   1      45.039  23.989  25.576  1.00  0.00    -0.014 A 
BRANCH  39  40
ATOM     40  C   UNL A   1      44.835  25.050  26.520  1.00  0.00     0.031 A 
ATOM     41  C   UNL A   1      45.895  26.061  26.485  1.00  0.00     0.074 A 
ATOM     42  C   UNL A   1      43.693  25.116  27.228  1.00  0.00     0.049 A 
ATOM     43  N   UNL A   1      46.841  26.215  27.345  1.00  0.00    -0.248 NA
ATOM     44  C   UNL A   1      46.055  26.835  25.244  1.00  0.00     0.031 C 
ATOM     45  C   UNL A   1      42.445  24.358  27.063  1.00  0.00     0.029 A 
ATOM     46  N   UNL A   1      43.377  25.997  28.201  1.00  0.00    -0.354 N 
ATOM     47  C   UNL A   1      47.612  27.252  26.843  1.00  0.00     0.074 A 
ATOM     48  C   UNL A   1      47.237  27.405  25.462  1.00  0.00     0.031 C 
ATOM     49  C   UNL A   1      41.451  24.996  27.728  1.00  0.00     0.029 A 
ATOM     50  C   UNL A   1      42.022  26.116  28.457  1.00  0.00     0.049 A 
ATOM     51  H   UNL A   1      44.056  26.515  28.690  1.00  0.00     0.167 HD
ATOM     52  C   UNL A   1      48.277  28.097  27.671  1.00  0.00     0.031 A 
ATOM     53  C   UNL A   1      41.441  27.146  29.125  1.00  0.00     0.031 A 
ATOM     54  C   UNL A   1      48.341  27.578  29.015  1.00  0.00     0.049 A 
ATOM     55  C   UNL A   1      42.523  27.852  29.868  1.00  0.00     0.074 A 
ATOM     56  C   UNL A   1      48.884  26.443  29.586  1.00  0.00     0.029 A 
ATOM     57  N   UNL A   1      47.414  28.051  29.917  1.00  0.00    -0.354 N 
ATOM     58  N   UNL A   1      43.181  27.312  30.858  1.00  0.00    -0.248 NA
ATOM     59  C   UNL A   1      43.220  28.934  29.182  1.00  0.00     0.031 C 
ATOM     60  C   UNL A   1      47.933  26.033  30.564  1.00  0.00     0.029 A 
ATOM     61  C   UNL A   1      46.899  26.970  30.588  1.00  0.00     0.049 A 
ATOM     62  H   UNL A   1      47.165  28.994  30.054  1.00  0.00     0.167 HD
ATOM     63  C   UNL A   1      44.506  27.681  30.659  1.00  0.00     0.074 A 
ATOM     64  C   UNL A   1      44.458  28.743  29.653  1.00  0.00     0.031 C 
ATOM     65  C   UNL A   1      45.540  26.895  31.087  1.00  0.00     0.031 A 
BRANCH  52  66
ATOM     66  C   UNL A   1      48.483  29.555  27.356  1.00  0.00    -0.014 A 
ATOM     67  C   UNL A   1      49.795  30.015  27.174  1.00  0.00     0.009 A 
ATOM     68  C   UNL A   1      47.479  30.536  27.481  1.00  0.00     0.009 A 
ATOM     69  C   UNL A   1      50.092  31.381  27.193  1.00  0.00     0.001 A 
ATOM     70  C   UNL A   1      47.765  31.901  27.456  1.00  0.00     0.001 A 
ATOM     71  C   UNL A   1      49.078  32.323  27.342  1.00  0.00     0.000 A 
ENDBRANCH  52  66
BRANCH  53  72
ATOM     72  C   UNL A   1      40.127  27.767  28.833  1.00  0.00    -0.014 A 
ATOM     73  C   UNL A   1      39.110  27.806  29.799  1.00  0.00     0.009 A 
ATOM     74  C   UNL A   1      39.950  28.547  27.673  1.00  0.00     0.009 A 
ATOM     75  C   UNL A   1      37.975  28.613  29.619  1.00  0.00     0.001 A 
ATOM     76  C   UNL A   1      38.818  29.350  27.493  1.00  0.00     0.001 A 
ATOM     77  C   UNL A   1      37.834  29.392  28.473  1.00  0.00     0.000 A 
ENDBRANCH  53  72
BRANCH  65  78
ATOM     78  C   UNL A   1      45.216  25.691  31.943  1.00  0.00    -0.014 A 
ATOM     79  C   UNL A   1      45.221  25.726  33.350  1.00  0.00     0.009 A 
ATOM     80  C   UNL A   1      44.703  24.548  31.312  1.00  0.00     0.009 A 
ATOM     81  C   UNL A   1      44.746  24.641  34.098  1.00  0.00     0.001 A 
ATOM     82  C   UNL A   1      44.211  23.475  32.058  1.00  0.00     0.001 A 
ATOM     83  C   UNL A   1      44.235  23.520  33.450  1.00  0.00     0.000 A 
ENDBRANCH  65  78
ENDBRANCH  39  40
ENDBRANCH  32  34
ENDBRANCH  31  32
ENDBRANCH  30  31
ENDBRANCH  29  30
ENDBRANCH  28  29
ENDBRANCH  27  28
ENDBRANCH   1  27
TORSDOF 19
ENDMDL
MODEL 2
REMARK VINA RESULT:     -10.4      3.202      7.909
REMARK SMILES C[N@@H+]1CCN(C(=O)c2cnn3c2CCCC3)C[C@H]1C(=O)OCCOCCOCCOC(=O)c1ccc(-c2c3nc(c(-c4ccccc4)c4ccc([nH]4)c(-c4ccccc4)c4nc(c(-c5ccccc5)c5ccc2[nH]5)C=C4)C=C3)cc1
REMARK SMILES IDX 25 1 24 2 23 3 22 4 21 5 19 6 20 7 18 8 1 9 2 10 3 11 4 13
REMARK SMILES IDX 17 14 5 15 6 16 7 17 8 18 9 19 12 20 10 21 11 22 13 23 16 24
REMARK SMILES IDX 14 25 15 26 26 27 27 28 28 29 29 30 30 31 31 32 32 33 33 34
REMARK SMILES IDX 34 35 80 36 35 37 79 38 36 39 37 40 38 41 73 42 39 43 78 44
REMARK SMILES IDX 72 45 74 46 40 47 77 48 71 49 70 50 41 52 63 53 48 54 62 55
REMARK SMILES IDX 49 56 52 57 61 58 75 59 50 60 51 61 60 63 76 64 53 65 42 66
REMARK SMILES IDX 43 67 47 68 44 69 46 70 45 71 64 72 65 73 69 74 66 75 68 76
REMARK SMILES IDX 67 77 54 78 55 79 59 80 56 81 58 82 57 83
REMARK H PARENT 2 12 74 51 52 62
REMARK Flexibility Score: inf
ROOT
ATOM      1  C   UNL A   1      34.027  31.252  27.888  1.00  0.00     0.188 C 
ENDROOT
BRANCH   1   2
ATOM      2  O   UNL A   1      34.804  30.382  27.074  1.00  0.00    -0.376 OA
BRANCH   2   3
ATOM      3  C   UNL A   1      34.580  28.986  27.245  1.00  0.00     0.202 C 
BRANCH   3   4
ATOM      4  C   UNL A   1      33.605  28.279  26.272  1.00  0.00     0.261 C 
BRANCH   4   5
ATOM      5  O   UNL A   1      33.771  28.486  24.846  1.00  0.00    -0.459 OA
BRANCH   5   6
ATOM      6  C   UNL A   1      32.723  28.089  24.092  1.00  0.00     0.366 C 
ATOM      7  O   UNL A   1      32.131  28.853  23.326  1.00  0.00    -0.245 OA
BRANCH   6   8
ATOM      8  C   UNL A   1      32.213  26.660  24.252  1.00  0.00     0.314 C 
ATOM      9  C   UNL A   1      30.659  26.794  26.188  1.00  0.00     0.333 C 
ATOM     10  N   UNL A   1      30.855  26.333  24.815  1.00  0.00    -0.323 N 
ATOM     11  C   UNL A   1      30.708  24.842  24.826  1.00  0.00     0.284 C 
ATOM     12  H   UNL A   1      30.169  26.808  24.228  1.00  0.00     0.348 HD
ATOM     13  C   UNL A   1      30.907  24.190  23.447  1.00  0.00     0.181 C 
ATOM     14  C   UNL A   1      32.303  26.098  22.819  1.00  0.00     0.197 C 
ATOM     15  N   UNL A   1      32.148  24.645  22.833  1.00  0.00    -0.326 N 
BRANCH  15  16
ATOM     16  C   UNL A   1      33.061  23.735  22.327  1.00  0.00     0.257 C 
ATOM     17  O   UNL A   1      33.443  23.752  21.160  1.00  0.00    -0.269 OA
BRANCH  16  18
ATOM     18  C   UNL A   1      33.607  22.782  23.270  1.00  0.00     0.081 A 
ATOM     19  C   UNL A   1      34.655  22.928  24.208  1.00  0.00     0.149 A 
ATOM     20  C   UNL A   1      33.202  21.471  23.412  1.00  0.00     0.051 A 
ATOM     21  N   UNL A   1      34.890  21.804  24.895  1.00  0.00    -0.180 NA
ATOM     22  N   UNL A   1      33.973  20.949  24.413  1.00  0.00    -0.269 N 
ATOM     23  C   UNL A   1      32.148  20.677  22.725  1.00  0.00     0.057 C 
ATOM     24  C   UNL A   1      33.893  19.586  24.902  1.00  0.00     0.144 C 
ATOM     25  C   UNL A   1      32.285  19.179  23.009  1.00  0.00     0.008 C 
ATOM     26  C   UNL A   1      32.577  18.923  24.490  1.00  0.00     0.024 C 
ENDBRANCH  16  18
ENDBRANCH  15  16
ENDBRANCH   6   8
ENDBRANCH   5   6
ENDBRANCH   4   5
ENDBRANCH   3   4
ENDBRANCH   2   3
ENDBRANCH   1   2
BRANCH   1  27
ATOM     27  C   UNL A   1      34.570  32.674  28.050  1.00  0.00     0.188 C 
BRANCH  27  28
ATOM     28  O   UNL A   1      34.358  33.199  29.346  1.00  0.00    -0.376 OA
BRANCH  28  29
ATOM     29  C   UNL A   1      34.847  32.604  30.540  1.00  0.00     0.202 C 
BRANCH  29  30
ATOM     30  C   UNL A   1      36.307  32.198  30.684  1.00  0.00     0.261 C 
BRANCH  30  31
ATOM     31  O   UNL A   1      36.610  30.883  30.253  1.00  0.00    -0.460 OA
BRANCH  31  32
ATOM     32  C   UNL A   1      36.859  29.916  31.165  1.00  0.00     0.338 C 
ATOM     33  O   UNL A   1      36.596  29.892  32.338  1.00  0.00    -0.246 OA
BRANCH  32  34
ATOM     34  C   UNL A   1      37.514  28.850  30.381  1.00  0.00     0.060 A 
ATOM     35  C   UNL A   1      38.093  27.800  31.082  1.00  0.00     0.016 A 
ATOM     36  C   UNL A   1      37.734  29.050  29.002  1.00  0.00     0.016 A 
ATOM     37  C   UNL A   1      39.195  27.221  30.506  1.00  0.00     0.010 A 
ATOM     38  C   UNL A   1      38.812  28.467  28.423  1.00  0.00     0.010 A 
ATOM     39  C   UNL A   1      39.608  27.709  29.262  1.00  0.00    -0.014 A 
BRANCH  39  40
ATOM     40  C   UNL A   1      40.997  27.616  28.917  1.00  0.00     0.031 A 
ATOM     41  C   UNL A   1      41.334  26.372  28.222  1.00  0.00     0.074 A 
ATOM     42  C   UNL A   1      41.817  28.665  29.118  1.00  0.00     0.049 A 
ATOM     43  N   UNL A   1      41.951  25.355  28.715  1.00  0.00    -0.248 NA
ATOM     44  C   UNL A   1      40.717  26.142  26.906  1.00  0.00     0.031 C 
ATOM     45  C   UNL A   1      41.489  30.053  29.470  1.00  0.00     0.029 A 
ATOM     46  N   UNL A   1      43.152  28.717  28.921  1.00  0.00    -0.354 N 
ATOM     47  C   UNL A   1      41.972  24.421  27.692  1.00  0.00     0.074 A 
ATOM     48  C   UNL A   1      40.996  24.852  26.727  1.00  0.00     0.031 C 
ATOM     49  C   UNL A   1      42.560  30.839  29.204  1.00  0.00     0.029 A 
ATOM     50  C   UNL A   1      43.668  29.993  28.791  1.00  0.00     0.049 A 
ATOM     51  H   UNL A   1      43.713  27.910  28.873  1.00  0.00     0.167 HD
ATOM     52  C   UNL A   1      42.993  23.534  27.571  1.00  0.00     0.031 A 
ATOM     53  C   UNL A   1      44.883  30.294  28.264  1.00  0.00     0.031 A 
ATOM     54  C   UNL A   1      43.794  23.484  28.770  1.00  0.00     0.049 A 
ATOM     55  C   UNL A   1      45.683  29.037  28.263  1.00  0.00     0.074 A 
ATOM     56  C   UNL A   1      43.539  23.154  30.087  1.00  0.00     0.029 A 
ATOM     57  N   UNL A   1      44.956  24.224  28.780  1.00  0.00    -0.354 N 
ATOM     58  N   UNL A   1      46.077  28.439  29.354  1.00  0.00    -0.248 NA
ATOM     59  C   UNL A   1      45.592  28.178  27.087  1.00  0.00     0.031 C 
ATOM     60  C   UNL A   1      44.284  24.098  30.853  1.00  0.00     0.029 A 
ATOM     61  C   UNL A   1      45.003  24.906  29.970  1.00  0.00     0.049 A 
ATOM     62  H   UNL A   1      45.630  24.257  28.064  1.00  0.00     0.167 HD
ATOM     63  C   UNL A   1      45.880  27.083  29.118  1.00  0.00     0.074 A 
ATOM     64  C   UNL A   1      45.651  26.978  27.676  1.00  0.00     0.031 C 
ATOM     65  C   UNL A   1      45.612  26.211  30.136  1.00  0.00     0.031 A 
BRANCH  52  66
ATOM     66  C   UNL A   1      43.499  23.048  26.240  1.00  0.00    -0.014 A 
ATOM     67  C   UNL A   1      43.558  21.664  26.017  1.00  0.00     0.009 A 
ATOM     68  C   UNL A   1      44.154  23.869  25.299  1.00  0.00     0.009 A 
ATOM     69  C   UNL A   1      44.295  21.133  24.955  1.00  0.00     0.001 A 
ATOM     70  C   UNL A   1      44.854  23.345  24.213  1.00  0.00     0.001 A 
ATOM     71  C   UNL A   1      44.949  21.973  24.058  1.00  0.00     0.000 A 
ENDBRANCH  52  66
BRANCH  53  72
ATOM     72  C   UNL A   1      45.221  31.465  27.419  1.00  0.00    -0.014 A 
ATOM     73  C   UNL A   1      44.352  31.910  26.411  1.00  0.00     0.009 A 
ATOM     74  C   UNL A   1      46.296  32.306  27.767  1.00  0.00     0.009 A 
ATOM     75  C   UNL A   1      44.542  33.157  25.794  1.00  0.00     0.001 A 
ATOM     76  C   UNL A   1      46.487  33.548  27.150  1.00  0.00     0.001 A 
ATOM     77  C   UNL A   1      45.601  33.979  26.171  1.00  0.00     0.000 A 
ENDBRANCH  53  72
BRANCH  65  78
ATOM     78  C   UNL A   1      45.709  26.720  31.558  1.00  0.00    -0.014 A 
ATOM     79  C   UNL A   1      44.624  27.301  32.240  1.00  0.00     0.009 A 
ATOM     80  C   UNL A   1      46.869  26.427  32.289  1.00  0.00     0.009 A 
ATOM     81  C   UNL A   1      44.709  27.597  33.606  1.00  0.00     0.001 A 
ATOM     82  C   UNL A   1      46.947  26.704  33.656  1.00  0.00     0.001 A 
ATOM     83  C   UNL A   1      45.869  27.291  34.314  1.00  0.00     0.000 A 
ENDBRANCH  65  78
ENDBRANCH  39  40
ENDBRANCH  32  34
ENDBRANCH  31  32
ENDBRANCH  30  31
ENDBRANCH  29  30
ENDBRANCH  28  29
ENDBRANCH  27  28
ENDBRANCH   1  27
TORSDOF 19
ENDMDL
MODEL 3
REMARK VINA RESULT:     -10.4      1.429      2.083
REMARK SMILES C[N@@H+]1CCN(C(=O)c2cnn3c2CCCC3)C[C@H]1C(=O)OCCOCCOCCOC(=O)c1ccc(-c2c3nc(c(-c4ccccc4)c4ccc([nH]4)c(-c4ccccc4)c4nc(c(-c5ccccc5)c5ccc2[nH]5)C=C4)C=C3)cc1
REMARK SMILES IDX 25 1 24 2 23 3 22 4 21 5 19 6 20 7 18 8 1 9 2 10 3 11 4 13
REMARK SMILES IDX 17 14 5 15 6 16 7 17 8 18 9 19 12 20 10 21 11 22 13 23 16 24
REMARK SMILES IDX 14 25 15 26 26 27 27 28 28 29 29 30 30 31 31 32 32 33 33 34
REMARK SMILES IDX 34 35 80 36 35 37 79 38 36 39 37 40 38 41 73 42 39 43 78 44
REMARK SMILES IDX 72 45 74 46 40 47 77 48 71 49 70 50 41 52 63 53 48 54 62 55
REMARK SMILES IDX 49 56 52 57 61 58 75 59 50 60 51 61 60 63 76 64 53 65 42 66
REMARK SMILES IDX 43 67 47 68 44 69 46 70 45 71 64 72 65 73 69 74 66 75 68 76
REMARK SMILES IDX 67 77 54 78 55 79 59 80 56 81 58 82 57 83
REMARK H PARENT 2 12 74 51 52 62
REMARK Flexibility Score: inf
ROOT
ATOM      1  C   UNL A   1      36.977  21.103  25.088  1.00  0.00     0.188 C 
ENDROOT
BRANCH   1   2
ATOM      2  O   UNL A   1      35.701  21.605  25.463  1.00  0.00    -0.376 OA
BRANCH   2   3
ATOM      3  C   UNL A   1      35.677  22.907  26.041  1.00  0.00     0.202 C 
BRANCH   3   4
ATOM      4  C   UNL A   1      34.445  23.308  26.888  1.00  0.00     0.261 C 
BRANCH   4   5
ATOM      5  O   UNL A   1      33.161  22.706  26.578  1.00  0.00    -0.459 OA
BRANCH   5   6
ATOM      6  C   UNL A   1      32.326  23.494  25.866  1.00  0.00     0.366 C 
ATOM      7  O   UNL A   1      31.255  23.904  26.320  1.00  0.00    -0.245 OA
BRANCH   6   8
ATOM      8  C   UNL A   1      32.693  23.826  24.423  1.00  0.00     0.314 C 
ATOM      9  C   UNL A   1      33.078  21.603  23.378  1.00  0.00     0.333 C 
ATOM     10  N   UNL A   1      32.410  22.898  23.271  1.00  0.00    -0.323 N 
ATOM     11  C   UNL A   1      32.912  23.551  22.020  1.00  0.00     0.284 C 
ATOM     12  H   UNL A   1      31.403  22.728  23.269  1.00  0.00     0.348 HD
ATOM     13  C   UNL A   1      32.316  24.946  21.768  1.00  0.00     0.181 C 
ATOM     14  C   UNL A   1      31.959  25.159  24.177  1.00  0.00     0.197 C 
ATOM     15  N   UNL A   1      32.444  25.787  22.950  1.00  0.00    -0.326 N 
BRANCH  15  16
ATOM     16  C   UNL A   1      32.987  27.058  22.859  1.00  0.00     0.257 C 
ATOM     17  O   UNL A   1      33.964  27.316  22.162  1.00  0.00    -0.269 OA
BRANCH  16  18
ATOM     18  C   UNL A   1      32.300  28.103  23.586  1.00  0.00     0.081 A 
ATOM     19  C   UNL A   1      31.105  28.793  23.277  1.00  0.00     0.149 A 
ATOM     20  C   UNL A   1      32.726  28.673  24.769  1.00  0.00     0.051 A 
ATOM     21  N   UNL A   1      30.794  29.719  24.191  1.00  0.00    -0.180 NA
ATOM     22  N   UNL A   1      31.778  29.600  25.099  1.00  0.00    -0.269 N 
ATOM     23  C   UNL A   1      33.913  28.410  25.626  1.00  0.00     0.057 C 
ATOM     24  C   UNL A   1      31.815  30.449  26.274  1.00  0.00     0.144 C 
ATOM     25  C   UNL A   1      34.116  29.510  26.671  1.00  0.00     0.008 C 
ATOM     26  C   UNL A   1      32.788  29.905  27.322  1.00  0.00     0.024 C 
ENDBRANCH  16  18
ENDBRANCH  15  16
ENDBRANCH   6   8
ENDBRANCH   5   6
ENDBRANCH   4   5
ENDBRANCH   3   4
ENDBRANCH   2   3
ENDBRANCH   1   2
BRANCH   1  27
ATOM     27  C   UNL A   1      38.171  21.998  25.431  1.00  0.00     0.188 C 
BRANCH  27  28
ATOM     28  O   UNL A   1      38.978  21.465  26.463  1.00  0.00    -0.376 OA
BRANCH  28  29
ATOM     29  C   UNL A   1      40.396  21.546  26.493  1.00  0.00     0.202 C 
BRANCH  29  30
ATOM     30  C   UNL A   1      41.267  20.357  26.114  1.00  0.00     0.261 C 
BRANCH  30  31
ATOM     31  O   UNL A   1      42.653  20.526  26.353  1.00  0.00    -0.460 OA
BRANCH  31  32
ATOM     32  C   UNL A   1      43.535  20.379  25.337  1.00  0.00     0.338 C 
ATOM     33  O   UNL A   1      43.759  19.412  24.661  1.00  0.00    -0.246 OA
BRANCH  32  34
ATOM     34  C   UNL A   1      44.159  21.712  25.214  1.00  0.00     0.060 A 
ATOM     35  C   UNL A   1      45.313  21.950  25.948  1.00  0.00     0.016 A 
ATOM     36  C   UNL A   1      43.448  22.744  24.566  1.00  0.00     0.016 A 
ATOM     37  C   UNL A   1      45.509  23.241  26.367  1.00  0.00     0.010 A 
ATOM     38  C   UNL A   1      43.649  24.023  24.965  1.00  0.00     0.010 A 
ATOM     39  C   UNL A   1      44.559  24.196  25.992  1.00  0.00    -0.014 A 
BRANCH  39  40
ATOM     40  C   UNL A   1      44.354  25.331  26.846  1.00  0.00     0.031 A 
ATOM     41  C   UNL A   1      45.384  26.360  26.689  1.00  0.00     0.074 A 
ATOM     42  C   UNL A   1      43.232  25.430  27.583  1.00  0.00     0.049 A 
ATOM     43  N   UNL A   1      46.351  26.613  27.501  1.00  0.00    -0.248 NA
ATOM     44  C   UNL A   1      45.485  27.026  25.381  1.00  0.00     0.031 C 
ATOM     45  C   UNL A   1      42.002  24.630  27.525  1.00  0.00     0.029 A 
ATOM     46  N   UNL A   1      42.922  26.386  28.485  1.00  0.00    -0.354 N 
ATOM     47  C   UNL A   1      47.077  27.621  26.885  1.00  0.00     0.074 A 
ATOM     48  C   UNL A   1      46.657  27.643  25.509  1.00  0.00     0.031 C 
ATOM     49  C   UNL A   1      41.011  25.299  28.164  1.00  0.00     0.029 A 
ATOM     50  C   UNL A   1      41.573  26.493  28.773  1.00  0.00     0.049 A 
ATOM     51  H   UNL A   1      43.601  26.961  28.905  1.00  0.00     0.167 HD
ATOM     52  C   UNL A   1      47.744  28.552  27.614  1.00  0.00     0.031 A 
ATOM     53  C   UNL A   1      40.984  27.563  29.368  1.00  0.00     0.031 A 
ATOM     54  C   UNL A   1      47.864  28.155  28.996  1.00  0.00     0.049 A 
ATOM     55  C   UNL A   1      42.068  28.358  30.011  1.00  0.00     0.074 A 
ATOM     56  C   UNL A   1      48.455  27.088  29.645  1.00  0.00     0.029 A 
ATOM     57  N   UNL A   1      46.951  28.682  29.882  1.00  0.00    -0.354 N 
ATOM     58  N   UNL A   1      42.770  27.924  31.022  1.00  0.00    -0.248 NA
ATOM     59  C   UNL A   1      42.714  29.392  29.211  1.00  0.00     0.031 C 
ATOM     60  C   UNL A   1      47.545  26.742  30.686  1.00  0.00     0.029 A 
ATOM     61  C   UNL A   1      46.486  27.652  30.662  1.00  0.00     0.049 A 
ATOM     62  H   UNL A   1      46.681  29.627  29.945  1.00  0.00     0.167 HD
ATOM     63  C   UNL A   1      44.078  28.307  30.748  1.00  0.00     0.074 A 
ATOM     64  C   UNL A   1      43.970  29.275  29.656  1.00  0.00     0.031 C 
ATOM     65  C   UNL A   1      45.146  27.587  31.209  1.00  0.00     0.031 A 
BRANCH  52  66
ATOM     66  C   UNL A   1      47.900  29.980  27.167  1.00  0.00    -0.014 A 
ATOM     67  C   UNL A   1      49.180  30.552  27.207  1.00  0.00     0.009 A 
ATOM     68  C   UNL A   1      46.820  30.860  26.953  1.00  0.00     0.009 A 
ATOM     69  C   UNL A   1      49.358  31.936  27.114  1.00  0.00     0.001 A 
ATOM     70  C   UNL A   1      46.997  32.237  26.815  1.00  0.00     0.001 A 
ATOM     71  C   UNL A   1      48.266  32.778  26.927  1.00  0.00     0.000 A 
ENDBRANCH  52  66
BRANCH  53  72
ATOM     72  C   UNL A   1      39.645  28.123  29.066  1.00  0.00    -0.014 A 
ATOM     73  C   UNL A   1      38.652  28.207  30.054  1.00  0.00     0.009 A 
ATOM     74  C   UNL A   1      39.416  28.807  27.856  1.00  0.00     0.009 A 
ATOM     75  C   UNL A   1      37.489  28.966  29.845  1.00  0.00     0.001 A 
ATOM     76  C   UNL A   1      38.256  29.562  27.646  1.00  0.00     0.001 A 
ATOM     77  C   UNL A   1      37.297  29.651  28.647  1.00  0.00     0.000 A 
ENDBRANCH  53  72
BRANCH  65  78
ATOM     78  C   UNL A   1      44.881  26.456  32.178  1.00  0.00    -0.014 A 
ATOM     79  C   UNL A   1      44.648  25.131  31.764  1.00  0.00     0.009 A 
ATOM     80  C   UNL A   1      45.065  26.699  33.547  1.00  0.00     0.009 A 
ATOM     81  C   UNL A   1      44.582  24.088  32.697  1.00  0.00     0.001 A 
ATOM     82  C   UNL A   1      45.019  25.656  34.475  1.00  0.00     0.001 A 
ATOM     83  C   UNL A   1      44.775  24.351  34.051  1.00  0.00     0.000 A 
ENDBRANCH  65  78
ENDBRANCH  39  40
ENDBRANCH  32  34
ENDBRANCH  31  32
ENDBRANCH  30  31
ENDBRANCH  29  30
ENDBRANCH  28  29
ENDBRANCH  27  28
ENDBRANCH   1  27
TORSDOF 19
ENDMDL
