MODEL 1
REMARK VINA RESULT:     -10.5      0.000      0.000
REMARK SMILES O=C(OCCOCCOCCOC(=O)[C@@H]1[C@@H](C(=O)NCCCn2ccnc2)[C@@H]2C=C[C@H]1C2)c1ccc(-c2c3nc(c(-c4ccccc4)c4ccc([nH]4)c(-c4ccccc4)c4nc(c(-c5ccccc5)c5ccc2[nH]5)C=C4)C=C3)cc1
REMARK SMILES IDX 9 1 8 2 7 3 6 4 5 5 4 6 3 7 2 8 1 9 33 10 34 11 80 12 35 13
REMARK SMILES IDX 79 14 36 15 37 16 38 17 73 18 39 19 78 20 72 21 74 22 40 23
REMARK SMILES IDX 77 24 71 25 70 26 41 28 63 29 48 30 62 31 49 32 52 33 61 34
REMARK SMILES IDX 75 35 50 36 51 37 60 39 76 40 53 41 42 42 43 43 47 44 44 45
REMARK SMILES IDX 46 46 45 47 64 48 65 49 69 50 66 51 68 52 67 53 54 54 55 55
REMARK SMILES IDX 59 56 56 57 58 58 57 59 10 60 11 61 12 62 13 63 14 64 15 65
REMARK SMILES IDX 16 66 31 67 28 68 30 69 32 70 29 71 17 72 18 73 19 74 20 76
REMARK SMILES IDX 21 77 22 78 23 79 24 80 27 81 25 82 26 83
REMARK H PARENT 74 27 52 38 19 75
REMARK Flexibility Score: inf
ROOT
ATOM      1  O   UNL A   1      38.903  22.980  26.813  1.00  0.00    -0.376 OA
ENDROOT
BRANCH   1   2
ATOM      2  C   UNL A   1      39.431  21.848  26.127  1.00  0.00     0.188 C 
BRANCH   2   3
ATOM      3  C   UNL A   1      40.633  21.157  26.768  1.00  0.00     0.188 C 
BRANCH   3   4
ATOM      4  O   UNL A   1      40.890  19.825  26.328  1.00  0.00    -0.376 OA
BRANCH   4   5
ATOM      5  C   UNL A   1      42.074  19.178  26.785  1.00  0.00     0.202 C 
BRANCH   5   6
ATOM      6  C   UNL A   1      43.053  18.491  25.820  1.00  0.00     0.261 C 
BRANCH   6   7
ATOM      7  O   UNL A   1      43.438  19.147  24.605  1.00  0.00    -0.460 OA
BRANCH   7   8
ATOM      8  C   UNL A   1      44.584  19.776  24.295  1.00  0.00     0.338 C 
ATOM      9  O   UNL A   1      45.426  19.181  23.617  1.00  0.00    -0.246 OA
BRANCH   8  10
ATOM     10  C   UNL A   1      44.872  21.174  24.689  1.00  0.00     0.060 A 
ATOM     11  C   UNL A   1      45.773  21.526  25.691  1.00  0.00     0.016 A 
ATOM     12  C   UNL A   1      44.012  22.154  24.150  1.00  0.00     0.016 A 
ATOM     13  C   UNL A   1      45.712  22.789  26.253  1.00  0.00     0.010 A 
ATOM     14  C   UNL A   1      43.930  23.409  24.725  1.00  0.00     0.010 A 
ATOM     15  C   UNL A   1      44.732  23.684  25.824  1.00  0.00    -0.014 A 
BRANCH  15  16
ATOM     16  C   UNL A   1      44.563  24.895  26.602  1.00  0.00     0.031 A 
ATOM     17  C   UNL A   1      45.671  25.870  26.512  1.00  0.00     0.074 A 
ATOM     18  C   UNL A   1      43.457  25.121  27.336  1.00  0.00     0.049 A 
ATOM     19  N   UNL A   1      46.461  26.261  27.456  1.00  0.00    -0.248 NA
ATOM     20  C   UNL A   1      45.994  26.403  25.183  1.00  0.00     0.031 C 
ATOM     21  C   UNL A   1      42.187  24.393  27.306  1.00  0.00     0.029 A 
ATOM     22  N   UNL A   1      43.212  26.143  28.199  1.00  0.00    -0.354 N 
ATOM     23  C   UNL A   1      47.288  27.221  26.881  1.00  0.00     0.074 A 
ATOM     24  C   UNL A   1      47.043  27.175  25.460  1.00  0.00     0.031 C 
ATOM     25  C   UNL A   1      41.242  25.129  27.934  1.00  0.00     0.029 A 
ATOM     26  C   UNL A   1      41.873  26.302  28.518  1.00  0.00     0.049 A 
ATOM     27  H   UNL A   1      43.923  26.717  28.566  1.00  0.00     0.167 HD
ATOM     28  C   UNL A   1      47.962  28.134  27.630  1.00  0.00     0.031 A 
ATOM     29  C   UNL A   1      41.319  27.365  29.148  1.00  0.00     0.031 A 
ATOM     30  C   UNL A   1      48.070  27.735  29.008  1.00  0.00     0.049 A 
ATOM     31  C   UNL A   1      42.400  28.095  29.850  1.00  0.00     0.074 A 
ATOM     32  C   UNL A   1      48.641  26.664  29.667  1.00  0.00     0.029 A 
ATOM     33  N   UNL A   1      47.222  28.325  29.913  1.00  0.00    -0.354 N 
ATOM     34  N   UNL A   1      43.026  27.629  30.891  1.00  0.00    -0.248 NA
ATOM     35  C   UNL A   1      43.081  29.170  29.143  1.00  0.00     0.031 C 
ATOM     36  C   UNL A   1      47.758  26.385  30.750  1.00  0.00     0.029 A 
ATOM     37  C   UNL A   1      46.728  27.328  30.713  1.00  0.00     0.049 A 
ATOM     38  H   UNL A   1      47.007  29.284  29.974  1.00  0.00     0.167 HD
ATOM     39  C   UNL A   1      44.343  28.032  30.724  1.00  0.00     0.074 A 
ATOM     40  C   UNL A   1      44.293  29.069  29.696  1.00  0.00     0.031 C 
ATOM     41  C   UNL A   1      45.376  27.294  31.227  1.00  0.00     0.031 A 
BRANCH  28  42
ATOM     42  C   UNL A   1      48.183  29.555  27.185  1.00  0.00    -0.014 A 
ATOM     43  C   UNL A   1      49.487  30.081  27.201  1.00  0.00     0.009 A 
ATOM     44  C   UNL A   1      47.130  30.477  27.017  1.00  0.00     0.009 A 
ATOM     45  C   UNL A   1      49.716  31.460  27.122  1.00  0.00     0.001 A 
ATOM     46  C   UNL A   1      47.358  31.849  26.894  1.00  0.00     0.001 A 
ATOM     47  C   UNL A   1      48.651  32.344  26.975  1.00  0.00     0.000 A 
ENDBRANCH  28  42
BRANCH  29  48
ATOM     48  C   UNL A   1      39.974  27.943  28.947  1.00  0.00    -0.014 A 
ATOM     49  C   UNL A   1      39.039  27.971  29.992  1.00  0.00     0.009 A 
ATOM     50  C   UNL A   1      39.698  28.706  27.797  1.00  0.00     0.009 A 
ATOM     51  C   UNL A   1      37.886  28.763  29.900  1.00  0.00     0.001 A 
ATOM     52  C   UNL A   1      38.545  29.490  27.703  1.00  0.00     0.001 A 
ATOM     53  C   UNL A   1      37.646  29.531  28.763  1.00  0.00     0.000 A 
ENDBRANCH  29  48
BRANCH  41  54
ATOM     54  C   UNL A   1      45.045  26.166  32.172  1.00  0.00    -0.014 A 
ATOM     55  C   UNL A   1      44.710  24.874  31.729  1.00  0.00     0.009 A 
ATOM     56  C   UNL A   1      45.225  26.369  33.549  1.00  0.00     0.009 A 
ATOM     57  C   UNL A   1      44.526  23.827  32.639  1.00  0.00     0.001 A 
ATOM     58  C   UNL A   1      45.063  25.318  34.456  1.00  0.00     0.001 A 
ATOM     59  C   UNL A   1      44.708  24.051  34.001  1.00  0.00     0.000 A 
ENDBRANCH  41  54
ENDBRANCH  15  16
ENDBRANCH   8  10
ENDBRANCH   7   8
ENDBRANCH   6   7
ENDBRANCH   5   6
ENDBRANCH   4   5
ENDBRANCH   3   4
ENDBRANCH   2   3
ENDBRANCH   1   2
BRANCH   1  60
ATOM     60  C   UNL A   1      38.263  23.974  26.025  1.00  0.00     0.202 C 
BRANCH  60  61
ATOM     61  C   UNL A   1      37.010  23.530  25.266  1.00  0.00     0.261 C 
BRANCH  61  62
ATOM     62  O   UNL A   1      35.777  23.807  25.954  1.00  0.00    -0.463 OA
BRANCH  62  63
ATOM     63  C   UNL A   1      34.760  24.201  25.153  1.00  0.00     0.310 C 
ATOM     64  O   UNL A   1      34.803  24.187  23.927  1.00  0.00    -0.252 OA
BRANCH  63  65
ATOM     65  C   UNL A   1      33.533  24.700  25.868  1.00  0.00     0.119 C 
ATOM     66  C   UNL A   1      32.255  23.948  25.407  1.00  0.00     0.100 C 
ATOM     67  C   UNL A   1      33.111  26.186  25.803  1.00  0.00     0.027 C 
ATOM     68  C   UNL A   1      31.201  25.088  25.389  1.00  0.00     0.025 C 
ATOM     69  C   UNL A   1      32.648  26.585  24.421  1.00  0.00    -0.027 C 
ATOM     70  C   UNL A   1      31.721  26.066  26.453  1.00  0.00     0.017 C 
ATOM     71  C   UNL A   1      31.503  25.933  24.170  1.00  0.00    -0.027 C 
BRANCH  66  72
ATOM     72  C   UNL A   1      31.924  22.866  26.412  1.00  0.00     0.224 C 
ATOM     73  O   UNL A   1      31.254  23.089  27.421  1.00  0.00    -0.275 OA
ATOM     74  N   UNL A   1      32.436  21.615  26.250  1.00  0.00    -0.356 N 
ATOM     75  H   UNL A   1      32.347  21.026  27.034  1.00  0.00     0.163 HD
BRANCH  74  76
ATOM     76  C   UNL A   1      33.097  21.008  25.103  1.00  0.00     0.117 C 
BRANCH  76  77
ATOM     77  C   UNL A   1      32.742  19.534  24.899  1.00  0.00     0.043 C 
BRANCH  77  78
ATOM     78  C   UNL A   1      33.916  18.622  24.553  1.00  0.00     0.125 C 
BRANCH  78  79
ATOM     79  N   UNL A   1      33.680  17.237  24.892  1.00  0.00    -0.337 N 
ATOM     80  C   UNL A   1      32.517  16.714  25.384  1.00  0.00     0.107 A 
ATOM     81  C   UNL A   1      34.586  16.222  24.798  1.00  0.00     0.199 A 
ATOM     82  C   UNL A   1      32.795  15.386  25.602  1.00  0.00     0.130 A 
ATOM     83  N   UNL A   1      34.084  15.091  25.240  1.00  0.00    -0.245 NA
ENDBRANCH  78  79
ENDBRANCH  77  78
ENDBRANCH  76  77
ENDBRANCH  74  76
ENDBRANCH  66  72
ENDBRANCH  63  65
ENDBRANCH  62  63
ENDBRANCH  61  62
ENDBRANCH  60  61
ENDBRANCH   1  60
TORSDOF 22
ENDMDL
MODEL 2
REMARK VINA RESULT:     -10.4      1.852      2.421
REMARK SMILES O=C(OCCOCCOCCOC(=O)[C@@H]1[C@@H](C(=O)NCCCn2ccnc2)[C@@H]2C=C[C@H]1C2)c1ccc(-c2c3nc(c(-c4ccccc4)c4ccc([nH]4)c(-c4ccccc4)c4nc(c(-c5ccccc5)c5ccc2[nH]5)C=C4)C=C3)cc1
REMARK SMILES IDX 9 1 8 2 7 3 6 4 5 5 4 6 3 7 2 8 1 9 33 10 34 11 80 12 35 13
REMARK SMILES IDX 79 14 36 15 37 16 38 17 73 18 39 19 78 20 72 21 74 22 40 23
REMARK SMILES IDX 77 24 71 25 70 26 41 28 63 29 48 30 62 31 49 32 52 33 61 34
REMARK SMILES IDX 75 35 50 36 51 37 60 39 76 40 53 41 42 42 43 43 47 44 44 45
REMARK SMILES IDX 46 46 45 47 64 48 65 49 69 50 66 51 68 52 67 53 54 54 55 55
REMARK SMILES IDX 59 56 56 57 58 58 57 59 10 60 11 61 12 62 13 63 14 64 15 65
REMARK SMILES IDX 16 66 31 67 28 68 30 69 32 70 29 71 17 72 18 73 19 74 20 76
REMARK SMILES IDX 21 77 22 78 23 79 24 80 27 81 25 82 26 83
REMARK H PARENT 74 27 52 38 19 75
REMARK Flexibility Score: inf
ROOT
ATOM      1  O   UNL A   1      37.637  22.515  24.935  1.00  0.00    -0.376 OA
ENDROOT
BRANCH   1   2
ATOM      2  C   UNL A   1      38.410  21.613  25.725  1.00  0.00     0.188 C 
BRANCH   2   3
ATOM      3  C   UNL A   1      39.523  22.226  26.572  1.00  0.00     0.188 C 
BRANCH   3   4
ATOM      4  O   UNL A   1      40.337  21.300  27.289  1.00  0.00    -0.376 OA
BRANCH   4   5
ATOM      5  C   UNL A   1      40.721  20.092  26.638  1.00  0.00     0.202 C 
BRANCH   5   6
ATOM      6  C   UNL A   1      42.191  19.659  26.524  1.00  0.00     0.261 C 
BRANCH   6   7
ATOM      7  O   UNL A   1      42.928  19.935  25.327  1.00  0.00    -0.460 OA
BRANCH   7   8
ATOM      8  C   UNL A   1      44.095  20.582  25.167  1.00  0.00     0.338 C 
ATOM      9  O   UNL A   1      45.061  19.962  24.714  1.00  0.00    -0.246 OA
BRANCH   8  10
ATOM     10  C   UNL A   1      44.269  22.021  25.464  1.00  0.00     0.060 A 
ATOM     11  C   UNL A   1      45.087  22.508  26.482  1.00  0.00     0.016 A 
ATOM     12  C   UNL A   1      43.382  22.897  24.805  1.00  0.00     0.016 A 
ATOM     13  C   UNL A   1      44.913  23.802  26.940  1.00  0.00     0.010 A 
ATOM     14  C   UNL A   1      43.187  24.183  25.274  1.00  0.00     0.010 A 
ATOM     15  C   UNL A   1      43.904  24.594  26.389  1.00  0.00    -0.014 A 
BRANCH  15  16
ATOM     16  C   UNL A   1      43.613  25.845  27.060  1.00  0.00     0.031 A 
ATOM     17  C   UNL A   1      44.578  26.939  26.815  1.00  0.00     0.074 A 
ATOM     18  C   UNL A   1      42.523  26.002  27.833  1.00  0.00     0.049 A 
ATOM     19  N   UNL A   1      45.353  27.519  27.670  1.00  0.00    -0.248 NA
ATOM     20  C   UNL A   1      44.766  27.373  25.425  1.00  0.00     0.031 C 
ATOM     21  C   UNL A   1      41.360  25.119  27.946  1.00  0.00     0.029 A 
ATOM     22  N   UNL A   1      42.186  27.066  28.611  1.00  0.00    -0.354 N 
ATOM     23  C   UNL A   1      46.018  28.514  26.960  1.00  0.00     0.074 A 
ATOM     24  C   UNL A   1      45.716  28.295  25.567  1.00  0.00     0.031 C 
ATOM     25  C   UNL A   1      40.356  25.789  28.557  1.00  0.00     0.029 A 
ATOM     26  C   UNL A   1      40.853  27.085  28.992  1.00  0.00     0.049 A 
ATOM     27  H   UNL A   1      42.830  27.759  28.880  1.00  0.00     0.167 HD
ATOM     28  C   UNL A   1      46.600  29.575  27.580  1.00  0.00     0.031 A 
ATOM     29  C   UNL A   1      40.194  28.127  29.551  1.00  0.00     0.031 A 
ATOM     30  C   UNL A   1      46.824  29.333  28.979  1.00  0.00     0.049 A 
ATOM     31  C   UNL A   1      41.201  29.055  30.117  1.00  0.00     0.074 A 
ATOM     32  C   UNL A   1      47.561  28.415  29.701  1.00  0.00     0.029 A 
ATOM     33  N   UNL A   1      45.948  29.899  29.874  1.00  0.00    -0.354 N 
ATOM     34  N   UNL A   1      41.930  28.779  31.159  1.00  0.00    -0.248 NA
ATOM     35  C   UNL A   1      41.701  30.131  29.275  1.00  0.00     0.031 C 
ATOM     36  C   UNL A   1      46.773  28.136  30.855  1.00  0.00     0.029 A 
ATOM     37  C   UNL A   1      45.628  28.932  30.792  1.00  0.00     0.049 A 
ATOM     38  H   UNL A   1      45.612  30.824  29.859  1.00  0.00     0.167 HD
ATOM     39  C   UNL A   1      43.174  29.326  30.877  1.00  0.00     0.074 A 
ATOM     40  C   UNL A   1      42.940  30.240  29.762  1.00  0.00     0.031 C 
ATOM     41  C   UNL A   1      44.317  28.779  31.385  1.00  0.00     0.031 A 
BRANCH  28  42
ATOM     42  C   UNL A   1      46.611  30.962  26.991  1.00  0.00    -0.014 A 
ATOM     43  C   UNL A   1      47.816  31.687  26.974  1.00  0.00     0.009 A 
ATOM     44  C   UNL A   1      45.434  31.683  26.710  1.00  0.00     0.009 A 
ATOM     45  C   UNL A   1      47.828  33.069  26.755  1.00  0.00     0.001 A 
ATOM     46  C   UNL A   1      45.448  33.054  26.447  1.00  0.00     0.001 A 
ATOM     47  C   UNL A   1      46.644  33.753  26.498  1.00  0.00     0.000 A 
ENDBRANCH  28  42
BRANCH  29  48
ATOM     48  C   UNL A   1      38.777  28.507  29.377  1.00  0.00    -0.014 A 
ATOM     49  C   UNL A   1      37.947  28.722  30.487  1.00  0.00     0.009 A 
ATOM     50  C   UNL A   1      38.304  28.913  28.115  1.00  0.00     0.009 A 
ATOM     51  C   UNL A   1      36.704  29.354  30.341  1.00  0.00     0.001 A 
ATOM     52  C   UNL A   1      37.063  29.537  27.968  1.00  0.00     0.001 A 
ATOM     53  C   UNL A   1      36.269  29.772  29.085  1.00  0.00     0.000 A 
ENDBRANCH  29  48
BRANCH  41  54
ATOM     54  C   UNL A   1      44.181  27.718  32.449  1.00  0.00    -0.014 A 
ATOM     55  C   UNL A   1      44.145  26.344  32.155  1.00  0.00     0.009 A 
ATOM     56  C   UNL A   1      44.247  28.106  33.796  1.00  0.00     0.009 A 
ATOM     57  C   UNL A   1      44.138  25.389  33.178  1.00  0.00     0.001 A 
ATOM     58  C   UNL A   1      44.263  27.153  34.817  1.00  0.00     0.001 A 
ATOM     59  C   UNL A   1      44.202  25.796  34.508  1.00  0.00     0.000 A 
ENDBRANCH  41  54
ENDBRANCH  15  16
ENDBRANCH   8  10
ENDBRANCH   7   8
ENDBRANCH   6   7
ENDBRANCH   5   6
ENDBRANCH   4   5
ENDBRANCH   3   4
ENDBRANCH   2   3
ENDBRANCH   1   2
BRANCH   1  60
ATOM     60  C   UNL A   1      36.954  23.554  25.620  1.00  0.00     0.202 C 
BRANCH  60  61
ATOM     61  C   UNL A   1      35.712  24.118  24.925  1.00  0.00     0.261 C 
BRANCH  61  62
ATOM     62  O   UNL A   1      34.843  24.868  25.792  1.00  0.00    -0.463 OA
BRANCH  62  63
ATOM     63  C   UNL A   1      33.990  25.703  25.153  1.00  0.00     0.310 C 
ATOM     64  O   UNL A   1      33.954  25.849  23.935  1.00  0.00    -0.252 OA
BRANCH  63  65
ATOM     65  C   UNL A   1      33.070  26.492  26.045  1.00  0.00     0.119 C 
ATOM     66  C   UNL A   1      31.754  26.875  25.315  1.00  0.00     0.100 C 
ATOM     67  C   UNL A   1      33.519  27.825  26.687  1.00  0.00     0.027 C 
ATOM     68  C   UNL A   1      31.495  28.309  25.852  1.00  0.00     0.025 C 
ATOM     69  C   UNL A   1      33.700  28.918  25.660  1.00  0.00    -0.027 C 
ATOM     70  C   UNL A   1      32.159  28.291  27.237  1.00  0.00     0.017 C 
ATOM     71  C   UNL A   1      32.491  29.213  25.160  1.00  0.00    -0.027 C 
BRANCH  66  72
ATOM     72  C   UNL A   1      30.665  25.901  25.709  1.00  0.00     0.224 C 
ATOM     73  O   UNL A   1      30.026  26.018  26.755  1.00  0.00    -0.275 OA
ATOM     74  N   UNL A   1      30.420  24.811  24.930  1.00  0.00    -0.356 N 
ATOM     75  H   UNL A   1      29.847  24.126  25.345  1.00  0.00     0.163 HD
BRANCH  74  76
ATOM     76  C   UNL A   1      30.870  24.497  23.582  1.00  0.00     0.117 C 
BRANCH  76  77
ATOM     77  C   UNL A   1      31.662  23.191  23.488  1.00  0.00     0.043 C 
BRANCH  77  78
ATOM     78  C   UNL A   1      31.428  22.202  24.626  1.00  0.00     0.125 C 
BRANCH  78  79
ATOM     79  N   UNL A   1      32.654  21.705  25.209  1.00  0.00    -0.337 N 
ATOM     80  C   UNL A   1      33.070  21.896  26.496  1.00  0.00     0.107 A 
ATOM     81  C   UNL A   1      33.612  20.977  24.565  1.00  0.00     0.199 A 
ATOM     82  C   UNL A   1      34.304  21.293  26.559  1.00  0.00     0.130 A 
ATOM     83  N   UNL A   1      34.633  20.730  25.353  1.00  0.00    -0.245 NA
ENDBRANCH  78  79
ENDBRANCH  77  78
ENDBRANCH  76  77
ENDBRANCH  74  76
ENDBRANCH  66  72
ENDBRANCH  63  65
ENDBRANCH  62  63
ENDBRANCH  61  62
ENDBRANCH  60  61
ENDBRANCH   1  60
TORSDOF 22
ENDMDL
MODEL 3
REMARK VINA RESULT:     -10.2      2.442      4.731
REMARK SMILES O=C(OCCOCCOCCOC(=O)[C@@H]1[C@@H](C(=O)NCCCn2ccnc2)[C@@H]2C=C[C@H]1C2)c1ccc(-c2c3nc(c(-c4ccccc4)c4ccc([nH]4)c(-c4ccccc4)c4nc(c(-c5ccccc5)c5ccc2[nH]5)C=C4)C=C3)cc1
REMARK SMILES IDX 9 1 8 2 7 3 6 4 5 5 4 6 3 7 2 8 1 9 33 10 34 11 80 12 35 13
REMARK SMILES IDX 79 14 36 15 37 16 38 17 73 18 39 19 78 20 72 21 74 22 40 23
REMARK SMILES IDX 77 24 71 25 70 26 41 28 63 29 48 30 62 31 49 32 52 33 61 34
REMARK SMILES IDX 75 35 50 36 51 37 60 39 76 40 53 41 42 42 43 43 47 44 44 45
REMARK SMILES IDX 46 46 45 47 64 48 65 49 69 50 66 51 68 52 67 53 54 54 55 55
REMARK SMILES IDX 59 56 56 57 58 58 57 59 10 60 11 61 12 62 13 63 14 64 15 65
REMARK SMILES IDX 16 66 31 67 28 68 30 69 32 70 29 71 17 72 18 73 19 74 20 76
REMARK SMILES IDX 21 77 22 78 23 79 24 80 27 81 25 82 26 83
REMARK H PARENT 74 27 52 38 19 75
REMARK Flexibility Score: inf
ROOT
ATOM      1  O   UNL A   1      38.817  22.715  26.518  1.00  0.00    -0.376 OA
ENDROOT
BRANCH   1   2
ATOM      2  C   UNL A   1      39.475  21.656  25.826  1.00  0.00     0.188 C 
BRANCH   2   3
ATOM      3  C   UNL A   1      40.635  20.979  26.553  1.00  0.00     0.188 C 
BRANCH   3   4
ATOM      4  O   UNL A   1      41.451  20.124  25.755  1.00  0.00    -0.376 OA
BRANCH   4   5
ATOM      5  C   UNL A   1      42.466  19.361  26.403  1.00  0.00     0.202 C 
BRANCH   5   6
ATOM      6  C   UNL A   1      43.245  18.255  25.672  1.00  0.00     0.261 C 
BRANCH   6   7
ATOM      7  O   UNL A   1      44.436  18.581  24.946  1.00  0.00    -0.460 OA
BRANCH   7   8
ATOM      8  C   UNL A   1      44.667  19.582  24.079  1.00  0.00     0.338 C 
ATOM      9  O   UNL A   1      44.605  19.347  22.869  1.00  0.00    -0.246 OA
BRANCH   8  10
ATOM     10  C   UNL A   1      44.947  20.972  24.504  1.00  0.00     0.060 A 
ATOM     11  C   UNL A   1      45.866  21.307  25.496  1.00  0.00     0.016 A 
ATOM     12  C   UNL A   1      44.066  21.956  24.010  1.00  0.00     0.016 A 
ATOM     13  C   UNL A   1      45.803  22.553  26.094  1.00  0.00     0.010 A 
ATOM     14  C   UNL A   1      43.982  23.194  24.619  1.00  0.00     0.010 A 
ATOM     15  C   UNL A   1      44.804  23.449  25.708  1.00  0.00    -0.014 A 
BRANCH  15  16
ATOM     16  C   UNL A   1      44.639  24.636  26.523  1.00  0.00     0.031 A 
ATOM     17  C   UNL A   1      45.745  25.615  26.454  1.00  0.00     0.074 A 
ATOM     18  C   UNL A   1      43.538  24.839  27.270  1.00  0.00     0.049 A 
ATOM     19  N   UNL A   1      46.541  25.981  27.403  1.00  0.00    -0.248 NA
ATOM     20  C   UNL A   1      46.057  26.187  25.138  1.00  0.00     0.031 C 
ATOM     21  C   UNL A   1      42.269  24.110  27.228  1.00  0.00     0.029 A 
ATOM     22  N   UNL A   1      43.298  25.836  28.165  1.00  0.00    -0.354 N 
ATOM     23  C   UNL A   1      47.362  26.959  26.850  1.00  0.00     0.074 A 
ATOM     24  C   UNL A   1      47.108  26.953  25.430  1.00  0.00     0.031 C 
ATOM     25  C   UNL A   1      41.327  24.826  27.884  1.00  0.00     0.029 A 
ATOM     26  C   UNL A   1      41.960  25.982  28.497  1.00  0.00     0.049 A 
ATOM     27  H   UNL A   1      44.010  26.400  28.543  1.00  0.00     0.167 HD
ATOM     28  C   UNL A   1      48.040  27.850  27.620  1.00  0.00     0.031 A 
ATOM     29  C   UNL A   1      41.409  27.026  29.161  1.00  0.00     0.031 A 
ATOM     30  C   UNL A   1      48.158  27.412  28.985  1.00  0.00     0.049 A 
ATOM     31  C   UNL A   1      42.494  27.738  29.877  1.00  0.00     0.074 A 
ATOM     32  C   UNL A   1      48.736  26.324  29.609  1.00  0.00     0.029 A 
ATOM     33  N   UNL A   1      47.315  27.975  29.913  1.00  0.00    -0.354 N 
ATOM     34  N   UNL A   1      43.128  27.243  30.900  1.00  0.00    -0.248 NA
ATOM     35  C   UNL A   1      43.168  28.834  29.196  1.00  0.00     0.031 C 
ATOM     36  C   UNL A   1      47.861  26.012  30.689  1.00  0.00     0.029 A 
ATOM     37  C   UNL A   1      46.829  26.954  30.687  1.00  0.00     0.049 A 
ATOM     38  H   UNL A   1      47.100  28.931  30.003  1.00  0.00     0.167 HD
ATOM     39  C   UNL A   1      44.443  27.653  30.735  1.00  0.00     0.074 A 
ATOM     40  C   UNL A   1      44.384  28.719  29.738  1.00  0.00     0.031 C 
ATOM     41  C   UNL A   1      45.481  26.903  31.209  1.00  0.00     0.031 A 
BRANCH  28  42
ATOM     42  C   UNL A   1      48.256  29.285  27.214  1.00  0.00    -0.014 A 
ATOM     43  C   UNL A   1      49.553  29.824  27.274  1.00  0.00     0.009 A 
ATOM     44  C   UNL A   1      47.197  30.199  27.044  1.00  0.00     0.009 A 
ATOM     45  C   UNL A   1      49.768  31.206  27.234  1.00  0.00     0.001 A 
ATOM     46  C   UNL A   1      47.412  31.576  26.959  1.00  0.00     0.001 A 
ATOM     47  C   UNL A   1      48.697  32.082  27.083  1.00  0.00     0.000 A 
ENDBRANCH  28  42
BRANCH  29  48
ATOM     48  C   UNL A   1      40.062  27.607  28.986  1.00  0.00    -0.014 A 
ATOM     49  C   UNL A   1      39.148  27.640  30.050  1.00  0.00     0.009 A 
ATOM     50  C   UNL A   1      39.764  28.368  27.840  1.00  0.00     0.009 A 
ATOM     51  C   UNL A   1      37.995  28.435  29.980  1.00  0.00     0.001 A 
ATOM     52  C   UNL A   1      38.612  29.155  27.768  1.00  0.00     0.001 A 
ATOM     53  C   UNL A   1      37.735  29.201  28.846  1.00  0.00     0.000 A 
ENDBRANCH  29  48
BRANCH  41  54
ATOM     54  C   UNL A   1      45.158  25.747  32.124  1.00  0.00    -0.014 A 
ATOM     55  C   UNL A   1      45.148  25.864  33.525  1.00  0.00     0.009 A 
ATOM     56  C   UNL A   1      44.699  24.549  31.555  1.00  0.00     0.009 A 
ATOM     57  C   UNL A   1      44.727  24.802  34.332  1.00  0.00     0.001 A 
ATOM     58  C   UNL A   1      44.258  23.496  32.360  1.00  0.00     0.001 A 
ATOM     59  C   UNL A   1      44.278  23.621  33.747  1.00  0.00     0.000 A 
ENDBRANCH  41  54
ENDBRANCH  15  16
ENDBRANCH   8  10
ENDBRANCH   7   8
ENDBRANCH   6   7
ENDBRANCH   5   6
ENDBRANCH   4   5
ENDBRANCH   3   4
ENDBRANCH   2   3
ENDBRANCH   1   2
BRANCH   1  60
ATOM     60  C   UNL A   1      37.736  23.350  25.852  1.00  0.00     0.202 C 
BRANCH  60  61
ATOM     61  C   UNL A   1      36.534  22.462  25.517  1.00  0.00     0.261 C 
BRANCH  61  62
ATOM     62  O   UNL A   1      35.289  22.928  26.066  1.00  0.00    -0.463 OA
BRANCH  62  63
ATOM     63  C   UNL A   1      34.720  23.952  25.387  1.00  0.00     0.310 C 
ATOM     64  O   UNL A   1      34.896  25.136  25.654  1.00  0.00    -0.252 OA
BRANCH  63  65
ATOM     65  C   UNL A   1      33.806  23.550  24.261  1.00  0.00     0.119 C 
ATOM     66  C   UNL A   1      32.634  24.554  24.088  1.00  0.00     0.100 C 
ATOM     67  C   UNL A   1      33.099  22.176  24.248  1.00  0.00     0.027 C 
ATOM     68  C   UNL A   1      31.451  23.609  23.743  1.00  0.00     0.025 C 
ATOM     69  C   UNL A   1      32.052  22.065  25.332  1.00  0.00    -0.027 C 
ATOM     70  C   UNL A   1      32.140  22.414  23.068  1.00  0.00     0.017 C 
ATOM     71  C   UNL A   1      31.062  22.919  25.032  1.00  0.00    -0.027 C 
BRANCH  66  72
ATOM     72  C   UNL A   1      32.960  25.512  22.963  1.00  0.00     0.224 C 
ATOM     73  O   UNL A   1      33.735  25.217  22.053  1.00  0.00    -0.275 OA
ATOM     74  N   UNL A   1      32.447  26.773  22.981  1.00  0.00    -0.356 N 
ATOM     75  H   UNL A   1      32.855  27.395  22.336  1.00  0.00     0.163 HD
BRANCH  74  76
ATOM     76  C   UNL A   1      31.392  27.349  23.801  1.00  0.00     0.117 C 
BRANCH  76  77
ATOM     77  C   UNL A   1      31.052  28.797  23.438  1.00  0.00     0.043 C 
BRANCH  77  78
ATOM     78  C   UNL A   1      30.045  28.966  22.304  1.00  0.00     0.125 C 
BRANCH  78  79
ATOM     79  N   UNL A   1      29.295  30.199  22.389  1.00  0.00    -0.337 N 
ATOM     80  C   UNL A   1      29.049  30.916  23.525  1.00  0.00     0.107 A 
ATOM     81  C   UNL A   1      28.688  30.843  21.350  1.00  0.00     0.199 A 
ATOM     82  C   UNL A   1      28.256  31.962  23.115  1.00  0.00     0.130 A 
ATOM     83  N   UNL A   1      28.034  31.904  21.763  1.00  0.00    -0.245 NA
ENDBRANCH  78  79
ENDBRANCH  77  78
ENDBRANCH  76  77
ENDBRANCH  74  76
ENDBRANCH  66  72
ENDBRANCH  63  65
ENDBRANCH  62  63
ENDBRANCH  61  62
ENDBRANCH  60  61
ENDBRANCH   1  60
TORSDOF 22
ENDMDL
