MODEL 1
REMARK VINA RESULT:     -10.1      0.000      0.000
REMARK SMILES O=C(OCCOCCOCCOC(=O)c1cc(-c2cccc(Cl)c2)oc1C(F)(F)F)c1ccc(-c2c3nc(c(-c4ccccc4)c4ccc([nH]4)c(-c4ccccc4)c4nc(c(-c5ccccc5)c5ccc2[nH]5)C=C4)C=C3)cc1
REMARK SMILES IDX 7 1 6 2 5 3 4 4 3 5 2 6 1 7 31 8 32 9 78 10 33 11 77 12
REMARK SMILES IDX 34 13 35 14 36 15 71 16 37 17 76 18 70 19 72 20 38 21 75 22
REMARK SMILES IDX 69 23 68 24 39 26 61 27 46 28 60 29 47 30 50 31 59 32 73 33
REMARK SMILES IDX 48 34 49 35 58 37 74 38 51 39 40 40 41 41 45 42 42 43 44 44
REMARK SMILES IDX 43 45 62 46 63 47 67 48 64 49 66 50 65 51 52 52 53 53 57 54
REMARK SMILES IDX 54 55 56 56 55 57 8 58 9 59 10 60 11 61 12 62 13 63 14 64
REMARK SMILES IDX 15 65 16 66 26 67 17 68 25 69 27 70 28 71 29 72 30 73 18 74
REMARK SMILES IDX 19 75 24 76 20 77 22 78 21 79 23 80
REMARK H PARENT 72 25 50 36
REMARK Flexibility Score: inf
ROOT
ATOM      1  C   UNL A   1      45.584  20.139  25.217  1.00  0.00     0.188 C 
ENDROOT
BRANCH   1   2
ATOM      2  O   UNL A   1      45.248  20.925  24.063  1.00  0.00    -0.376 OA
BRANCH   2   3
ATOM      3  C   UNL A   1      45.553  22.311  24.258  1.00  0.00     0.202 C 
BRANCH   3   4
ATOM      4  C   UNL A   1      44.408  23.030  24.972  1.00  0.00     0.261 C 
BRANCH   4   5
ATOM      5  O   UNL A   1      44.378  24.407  24.541  1.00  0.00    -0.460 OA
BRANCH   5   6
ATOM      6  C   UNL A   1      44.977  25.467  25.129  1.00  0.00     0.338 C 
ATOM      7  O   UNL A   1      46.010  25.933  24.656  1.00  0.00    -0.246 OA
BRANCH   6   8
ATOM      8  C   UNL A   1      44.345  26.174  26.273  1.00  0.00     0.060 A 
ATOM      9  C   UNL A   1      43.893  27.495  26.202  1.00  0.00     0.016 A 
ATOM     10  C   UNL A   1      44.074  25.422  27.424  1.00  0.00     0.016 A 
ATOM     11  C   UNL A   1      43.276  28.090  27.309  1.00  0.00     0.010 A 
ATOM     12  C   UNL A   1      43.406  25.998  28.509  1.00  0.00     0.010 A 
ATOM     13  C   UNL A   1      43.024  27.347  28.474  1.00  0.00    -0.014 A 
BRANCH  13  14
ATOM     14  C   UNL A   1      42.363  27.966  29.654  1.00  0.00     0.031 A 
ATOM     15  C   UNL A   1      41.017  28.629  29.514  1.00  0.00     0.074 A 
ATOM     16  C   UNL A   1      42.950  27.927  30.867  1.00  0.00     0.049 A 
ATOM     17  N   UNL A   1      40.321  29.287  30.408  1.00  0.00    -0.248 NA
ATOM     18  C   UNL A   1      40.362  28.529  28.199  1.00  0.00     0.031 C 
ATOM     19  C   UNL A   1      44.220  27.270  31.181  1.00  0.00     0.029 A 
ATOM     20  N   UNL A   1      42.536  28.444  32.070  1.00  0.00    -0.354 N 
ATOM     21  C   UNL A   1      39.155  29.684  29.767  1.00  0.00     0.074 A 
ATOM     22  C   UNL A   1      39.243  29.212  28.401  1.00  0.00     0.031 C 
ATOM     23  C   UNL A   1      44.454  27.376  32.499  1.00  0.00     0.029 A 
ATOM     24  C   UNL A   1      43.388  28.164  33.109  1.00  0.00     0.049 A 
ATOM     25  H   UNL A   1      41.709  28.965  32.176  1.00  0.00     0.167 HD
ATOM     26  C   UNL A   1      38.097  30.365  30.267  1.00  0.00     0.031 A 
ATOM     27  C   UNL A   1      43.331  28.521  34.405  1.00  0.00     0.031 A 
ATOM     28  C   UNL A   1      37.975  30.824  31.623  1.00  0.00     0.049 A 
ATOM     29  C   UNL A   1      42.245  29.437  34.881  1.00  0.00     0.074 A 
ATOM     30  C   UNL A   1      36.910  31.470  32.228  1.00  0.00     0.029 A 
ATOM     31  N   UNL A   1      38.960  30.690  32.585  1.00  0.00    -0.354 N 
ATOM     32  N   UNL A   1      41.173  29.840  34.251  1.00  0.00    -0.248 NA
ATOM     33  C   UNL A   1      42.393  29.982  36.240  1.00  0.00     0.031 C 
ATOM     34  C   UNL A   1      37.264  31.755  33.554  1.00  0.00     0.029 A 
ATOM     35  C   UNL A   1      38.543  31.271  33.770  1.00  0.00     0.049 A 
ATOM     36  H   UNL A   1      39.827  30.245  32.448  1.00  0.00     0.167 HD
ATOM     37  C   UNL A   1      40.515  30.685  35.134  1.00  0.00     0.074 A 
ATOM     38  C   UNL A   1      41.310  30.740  36.343  1.00  0.00     0.031 C 
ATOM     39  C   UNL A   1      39.349  31.349  34.955  1.00  0.00     0.031 A 
BRANCH  26  40
ATOM     40  C   UNL A   1      36.970  30.656  29.324  1.00  0.00    -0.014 A 
ATOM     41  C   UNL A   1      36.059  29.650  28.968  1.00  0.00     0.009 A 
ATOM     42  C   UNL A   1      36.802  31.950  28.809  1.00  0.00     0.009 A 
ATOM     43  C   UNL A   1      35.007  29.932  28.094  1.00  0.00     0.001 A 
ATOM     44  C   UNL A   1      35.745  32.230  27.942  1.00  0.00     0.001 A 
ATOM     45  C   UNL A   1      34.852  31.220  27.583  1.00  0.00     0.000 A 
ENDBRANCH  26  40
BRANCH  27  46
ATOM     46  C   UNL A   1      44.363  28.049  35.356  1.00  0.00    -0.014 A 
ATOM     47  C   UNL A   1      44.137  26.892  36.114  1.00  0.00     0.009 A 
ATOM     48  C   UNL A   1      45.556  28.763  35.532  1.00  0.00     0.009 A 
ATOM     49  C   UNL A   1      45.086  26.463  37.043  1.00  0.00     0.001 A 
ATOM     50  C   UNL A   1      46.505  28.329  36.458  1.00  0.00     0.001 A 
ATOM     51  C   UNL A   1      46.269  27.182  37.213  1.00  0.00     0.000 A 
ENDBRANCH  27  46
BRANCH  39  52
ATOM     52  C   UNL A   1      38.872  32.193  36.095  1.00  0.00    -0.014 A 
ATOM     53  C   UNL A   1      39.251  33.540  36.187  1.00  0.00     0.009 A 
ATOM     54  C   UNL A   1      38.045  31.642  37.084  1.00  0.00     0.009 A 
ATOM     55  C   UNL A   1      38.823  34.318  37.264  1.00  0.00     0.001 A 
ATOM     56  C   UNL A   1      37.613  32.425  38.156  1.00  0.00     0.001 A 
ATOM     57  C   UNL A   1      38.006  33.760  38.247  1.00  0.00     0.000 A 
ENDBRANCH  39  52
ENDBRANCH  13  14
ENDBRANCH   6   8
ENDBRANCH   5   6
ENDBRANCH   4   5
ENDBRANCH   3   4
ENDBRANCH   2   3
ENDBRANCH   1   2
BRANCH   1  58
ATOM     58  C   UNL A   1      45.184  18.675  25.030  1.00  0.00     0.188 C 
BRANCH  58  59
ATOM     59  O   UNL A   1      43.860  18.421  25.507  1.00  0.00    -0.376 OA
BRANCH  59  60
ATOM     60  C   UNL A   1      43.247  19.534  26.164  1.00  0.00     0.202 C 
BRANCH  60  61
ATOM     61  C   UNL A   1      41.750  19.594  25.872  1.00  0.00     0.261 C 
BRANCH  61  62
ATOM     62  O   UNL A   1      41.297  20.960  25.765  1.00  0.00    -0.460 OA
BRANCH  62  63
ATOM     63  C   UNL A   1      40.573  21.401  26.831  1.00  0.00     0.342 C 
ATOM     64  O   UNL A   1      40.675  20.980  27.973  1.00  0.00    -0.246 OA
BRANCH  63  65
ATOM     65  C   UNL A   1      39.507  22.301  26.448  1.00  0.00     0.111 A 
ATOM     66  C   UNL A   1      38.349  21.937  25.703  1.00  0.00     0.067 A 
ATOM     67  C   UNL A   1      39.343  23.637  26.773  1.00  0.00     0.223 A 
ATOM     68  C   UNL A   1      37.565  23.062  25.594  1.00  0.00     0.135 A 
ATOM     69  O   UNL A   1      38.177  24.105  26.221  1.00  0.00    -0.451 OA
BRANCH  67  70
ATOM     70  C   UNL A   1      40.096  24.582  27.630  1.00  0.00     0.450 C 
ATOM     71  F   UNL A   1      41.127  23.989  28.280  1.00  0.00    -0.163 F 
ATOM     72  F   UNL A   1      40.615  25.603  26.902  1.00  0.00    -0.163 F 
ATOM     73  F   UNL A   1      39.299  25.140  28.572  1.00  0.00    -0.163 F 
ENDBRANCH  67  70
BRANCH  68  74
ATOM     74  C   UNL A   1      36.253  23.325  25.023  1.00  0.00     0.019 A 
ATOM     75  C   UNL A   1      36.028  23.086  23.659  1.00  0.00     0.012 A 
ATOM     76  C   UNL A   1      35.198  23.804  25.809  1.00  0.00     0.032 A 
ATOM     77  C   UNL A   1      34.770  23.298  23.093  1.00  0.00     0.002 A 
ATOM     78  C   UNL A   1      33.946  24.027  25.237  1.00  0.00     0.041 A 
ATOM     79  C   UNL A   1      33.726  23.770  23.885  1.00  0.00     0.020 A 
ATOM     80  Cl  UNL A   1      32.659  24.632  26.205  1.00  0.00    -0.084 Cl
ENDBRANCH  68  74
ENDBRANCH  63  65
ENDBRANCH  62  63
ENDBRANCH  61  62
ENDBRANCH  60  61
ENDBRANCH  59  60
ENDBRANCH  58  59
ENDBRANCH   1  58
TORSDOF 19
ENDMDL
MODEL 2
REMARK VINA RESULT:      -9.5      4.463     10.394
REMARK SMILES O=C(OCCOCCOCCOC(=O)c1cc(-c2cccc(Cl)c2)oc1C(F)(F)F)c1ccc(-c2c3nc(c(-c4ccccc4)c4ccc([nH]4)c(-c4ccccc4)c4nc(c(-c5ccccc5)c5ccc2[nH]5)C=C4)C=C3)cc1
REMARK SMILES IDX 7 1 6 2 5 3 4 4 3 5 2 6 1 7 31 8 32 9 78 10 33 11 77 12
REMARK SMILES IDX 34 13 35 14 36 15 71 16 37 17 76 18 70 19 72 20 38 21 75 22
REMARK SMILES IDX 69 23 68 24 39 26 61 27 46 28 60 29 47 30 50 31 59 32 73 33
REMARK SMILES IDX 48 34 49 35 58 37 74 38 51 39 40 40 41 41 45 42 42 43 44 44
REMARK SMILES IDX 43 45 62 46 63 47 67 48 64 49 66 50 65 51 52 52 53 53 57 54
REMARK SMILES IDX 54 55 56 56 55 57 8 58 9 59 10 60 11 61 12 62 13 63 14 64
REMARK SMILES IDX 15 65 16 66 26 67 17 68 25 69 27 70 28 71 29 72 30 73 18 74
REMARK SMILES IDX 19 75 24 76 20 77 22 78 21 79 23 80
REMARK H PARENT 72 25 50 36
REMARK Flexibility Score: inf
ROOT
ATOM      1  C   UNL A   1      33.696  34.196  28.085  1.00  0.00     0.188 C 
ENDROOT
BRANCH   1   2
ATOM      2  O   UNL A   1      32.712  34.609  29.046  1.00  0.00    -0.376 OA
BRANCH   2   3
ATOM      3  C   UNL A   1      32.914  35.964  29.464  1.00  0.00     0.202 C 
BRANCH   3   4
ATOM      4  C   UNL A   1      32.803  36.092  30.984  1.00  0.00     0.261 C 
BRANCH   4   5
ATOM      5  O   UNL A   1      34.004  35.569  31.587  1.00  0.00    -0.460 OA
BRANCH   5   6
ATOM      6  C   UNL A   1      34.150  34.402  32.255  1.00  0.00     0.338 C 
ATOM      7  O   UNL A   1      33.193  33.903  32.842  1.00  0.00    -0.246 OA
BRANCH   6   8
ATOM      8  C   UNL A   1      35.418  33.630  32.193  1.00  0.00     0.060 A 
ATOM      9  C   UNL A   1      36.559  34.085  31.524  1.00  0.00     0.016 A 
ATOM     10  C   UNL A   1      35.498  32.460  32.960  1.00  0.00     0.016 A 
ATOM     11  C   UNL A   1      37.732  33.321  31.532  1.00  0.00     0.010 A 
ATOM     12  C   UNL A   1      36.688  31.727  33.016  1.00  0.00     0.010 A 
ATOM     13  C   UNL A   1      37.810  32.135  32.280  1.00  0.00    -0.014 A 
BRANCH  13  14
ATOM     14  C   UNL A   1      39.054  31.318  32.303  1.00  0.00     0.031 A 
ATOM     15  C   UNL A   1      40.092  31.540  33.373  1.00  0.00     0.074 A 
ATOM     16  C   UNL A   1      39.261  30.360  31.378  1.00  0.00     0.049 A 
ATOM     17  N   UNL A   1      41.269  30.981  33.512  1.00  0.00    -0.248 NA
ATOM     18  C   UNL A   1      39.757  32.507  34.432  1.00  0.00     0.031 C 
ATOM     19  C   UNL A   1      38.327  29.981  30.316  1.00  0.00     0.029 A 
ATOM     20  N   UNL A   1      40.329  29.516  31.199  1.00  0.00    -0.354 N 
ATOM     21  C   UNL A   1      41.817  31.530  34.664  1.00  0.00     0.074 A 
ATOM     22  C   UNL A   1      40.854  32.482  35.177  1.00  0.00     0.031 C 
ATOM     23  C   UNL A   1      38.839  28.944  29.633  1.00  0.00     0.029 A 
ATOM     24  C   UNL A   1      40.162  28.631  30.163  1.00  0.00     0.049 A 
ATOM     25  H   UNL A   1      41.136  29.543  31.760  1.00  0.00     0.167 HD
ATOM     26  C   UNL A   1      43.005  31.260  35.255  1.00  0.00     0.031 A 
ATOM     27  C   UNL A   1      40.990  27.689  29.678  1.00  0.00     0.031 A 
ATOM     28  C   UNL A   1      43.967  30.305  34.779  1.00  0.00     0.049 A 
ATOM     29  C   UNL A   1      42.373  27.549  30.236  1.00  0.00     0.074 A 
ATOM     30  C   UNL A   1      45.170  29.927  35.350  1.00  0.00     0.029 A 
ATOM     31  N   UNL A   1      43.835  29.580  33.608  1.00  0.00    -0.354 N 
ATOM     32  N   UNL A   1      42.893  28.108  31.298  1.00  0.00    -0.248 NA
ATOM     33  C   UNL A   1      43.298  26.679  29.492  1.00  0.00     0.031 C 
ATOM     34  C   UNL A   1      45.783  28.992  34.506  1.00  0.00     0.029 A 
ATOM     35  C   UNL A   1      44.951  28.782  33.420  1.00  0.00     0.049 A 
ATOM     36  H   UNL A   1      43.063  29.624  33.000  1.00  0.00     0.167 HD
ATOM     37  C   UNL A   1      44.204  27.657  31.354  1.00  0.00     0.074 A 
ATOM     38  C   UNL A   1      44.403  26.782  30.217  1.00  0.00     0.031 C 
ATOM     39  C   UNL A   1      45.155  27.941  32.275  1.00  0.00     0.031 A 
BRANCH  26  40
ATOM     40  C   UNL A   1      43.331  32.022  36.503  1.00  0.00    -0.014 A 
ATOM     41  C   UNL A   1      42.982  31.512  37.762  1.00  0.00     0.009 A 
ATOM     42  C   UNL A   1      44.014  33.244  36.421  1.00  0.00     0.009 A 
ATOM     43  C   UNL A   1      43.297  32.224  38.921  1.00  0.00     0.001 A 
ATOM     44  C   UNL A   1      44.334  33.950  37.582  1.00  0.00     0.001 A 
ATOM     45  C   UNL A   1      43.971  33.441  38.829  1.00  0.00     0.000 A 
ENDBRANCH  26  40
BRANCH  27  46
ATOM     46  C   UNL A   1      40.555  26.816  28.563  1.00  0.00    -0.014 A 
ATOM     47  C   UNL A   1      39.688  25.744  28.814  1.00  0.00     0.009 A 
ATOM     48  C   UNL A   1      41.028  27.028  27.261  1.00  0.00     0.009 A 
ATOM     49  C   UNL A   1      39.307  24.890  27.777  1.00  0.00     0.001 A 
ATOM     50  C   UNL A   1      40.641  26.176  26.226  1.00  0.00     0.001 A 
ATOM     51  C   UNL A   1      39.783  25.108  26.485  1.00  0.00     0.000 A 
ENDBRANCH  27  46
BRANCH  39  52
ATOM     52  C   UNL A   1      46.493  27.300  32.083  1.00  0.00    -0.014 A 
ATOM     53  C   UNL A   1      47.471  27.925  31.295  1.00  0.00     0.009 A 
ATOM     54  C   UNL A   1      46.779  26.067  32.685  1.00  0.00     0.009 A 
ATOM     55  C   UNL A   1      48.710  27.313  31.100  1.00  0.00     0.001 A 
ATOM     56  C   UNL A   1      48.022  25.461  32.492  1.00  0.00     0.001 A 
ATOM     57  C   UNL A   1      48.984  26.082  31.697  1.00  0.00     0.000 A 
ENDBRANCH  39  52
ENDBRANCH  13  14
ENDBRANCH   6   8
ENDBRANCH   5   6
ENDBRANCH   4   5
ENDBRANCH   3   4
ENDBRANCH   2   3
ENDBRANCH   1   2
BRANCH   1  58
ATOM     58  C   UNL A   1      34.444  32.949  28.555  1.00  0.00     0.188 C 
BRANCH  58  59
ATOM     59  O   UNL A   1      33.686  31.758  28.328  1.00  0.00    -0.376 OA
BRANCH  59  60
ATOM     60  C   UNL A   1      34.275  30.855  27.388  1.00  0.00     0.202 C 
BRANCH  60  61
ATOM     61  C   UNL A   1      33.206  30.083  26.617  1.00  0.00     0.261 C 
BRANCH  61  62
ATOM     62  O   UNL A   1      33.784  28.965  25.910  1.00  0.00    -0.460 OA
BRANCH  62  63
ATOM     63  C   UNL A   1      32.885  28.024  25.509  1.00  0.00     0.342 C 
ATOM     64  O   UNL A   1      31.684  28.061  25.726  1.00  0.00    -0.246 OA
BRANCH  63  65
ATOM     65  C   UNL A   1      33.519  26.846  24.956  1.00  0.00     0.111 A 
ATOM     66  C   UNL A   1      34.049  25.763  25.713  1.00  0.00     0.067 A 
ATOM     67  C   UNL A   1      33.673  26.491  23.626  1.00  0.00     0.223 A 
ATOM     68  C   UNL A   1      34.515  24.830  24.816  1.00  0.00     0.135 A 
ATOM     69  O   UNL A   1      34.311  25.278  23.546  1.00  0.00    -0.451 OA
BRANCH  67  70
ATOM     70  C   UNL A   1      33.224  27.088  22.347  1.00  0.00     0.450 C 
ATOM     71  F   UNL A   1      33.359  26.239  21.299  1.00  0.00    -0.163 F 
ATOM     72  F   UNL A   1      31.918  27.451  22.404  1.00  0.00    -0.163 F 
ATOM     73  F   UNL A   1      33.928  28.206  22.048  1.00  0.00    -0.163 F 
ENDBRANCH  67  70
BRANCH  68  74
ATOM     74  C   UNL A   1      35.095  23.503  24.953  1.00  0.00     0.019 A 
ATOM     75  C   UNL A   1      34.289  22.369  24.765  1.00  0.00     0.012 A 
ATOM     76  C   UNL A   1      36.450  23.326  25.257  1.00  0.00     0.032 A 
ATOM     77  C   UNL A   1      34.827  21.085  24.858  1.00  0.00     0.002 A 
ATOM     78  C   UNL A   1      36.981  22.041  25.360  1.00  0.00     0.041 A 
ATOM     79  C   UNL A   1      36.178  20.921  25.156  1.00  0.00     0.020 A 
ATOM     80  Cl  UNL A   1      38.643  21.832  25.751  1.00  0.00    -0.084 Cl
ENDBRANCH  68  74
ENDBRANCH  63  65
ENDBRANCH  62  63
ENDBRANCH  61  62
ENDBRANCH  60  61
ENDBRANCH  59  60
ENDBRANCH  58  59
ENDBRANCH   1  58
TORSDOF 19
ENDMDL
MODEL 3
REMARK VINA RESULT:      -9.5      4.280      9.581
REMARK SMILES O=C(OCCOCCOCCOC(=O)c1cc(-c2cccc(Cl)c2)oc1C(F)(F)F)c1ccc(-c2c3nc(c(-c4ccccc4)c4ccc([nH]4)c(-c4ccccc4)c4nc(c(-c5ccccc5)c5ccc2[nH]5)C=C4)C=C3)cc1
REMARK SMILES IDX 7 1 6 2 5 3 4 4 3 5 2 6 1 7 31 8 32 9 78 10 33 11 77 12
REMARK SMILES IDX 34 13 35 14 36 15 71 16 37 17 76 18 70 19 72 20 38 21 75 22
REMARK SMILES IDX 69 23 68 24 39 26 61 27 46 28 60 29 47 30 50 31 59 32 73 33
REMARK SMILES IDX 48 34 49 35 58 37 74 38 51 39 40 40 41 41 45 42 42 43 44 44
REMARK SMILES IDX 43 45 62 46 63 47 67 48 64 49 66 50 65 51 52 52 53 53 57 54
REMARK SMILES IDX 54 55 56 56 55 57 8 58 9 59 10 60 11 61 12 62 13 63 14 64
REMARK SMILES IDX 15 65 16 66 26 67 17 68 25 69 27 70 28 71 29 72 30 73 18 74
REMARK SMILES IDX 19 75 24 76 20 77 22 78 21 79 23 80
REMARK H PARENT 72 25 50 36
REMARK Flexibility Score: inf
ROOT
ATOM      1  C   UNL A   1      31.418  28.647  25.096  1.00  0.00     0.188 C 
ENDROOT
BRANCH   1   2
ATOM      2  O   UNL A   1      32.627  28.946  24.381  1.00  0.00    -0.376 OA
BRANCH   2   3
ATOM      3  C   UNL A   1      33.713  29.229  25.272  1.00  0.00     0.202 C 
BRANCH   3   4
ATOM      4  C   UNL A   1      33.398  28.753  26.690  1.00  0.00     0.261 C 
BRANCH   4   5
ATOM      5  O   UNL A   1      33.502  29.872  27.594  1.00  0.00    -0.460 OA
BRANCH   5   6
ATOM      6  C   UNL A   1      34.551  30.714  27.745  1.00  0.00     0.338 C 
ATOM      7  O   UNL A   1      34.393  31.925  27.614  1.00  0.00    -0.246 OA
BRANCH   6   8
ATOM      8  C   UNL A   1      35.878  30.221  28.195  1.00  0.00     0.060 A 
ATOM      9  C   UNL A   1      36.068  29.513  29.386  1.00  0.00     0.016 A 
ATOM     10  C   UNL A   1      36.952  30.363  27.307  1.00  0.00     0.016 A 
ATOM     11  C   UNL A   1      37.342  29.049  29.734  1.00  0.00     0.010 A 
ATOM     12  C   UNL A   1      38.213  29.847  27.628  1.00  0.00     0.010 A 
ATOM     13  C   UNL A   1      38.428  29.208  28.858  1.00  0.00    -0.014 A 
BRANCH  13  14
ATOM     14  C   UNL A   1      39.785  28.713  29.213  1.00  0.00     0.031 A 
ATOM     15  C   UNL A   1      40.682  29.526  30.111  1.00  0.00     0.074 A 
ATOM     16  C   UNL A   1      40.223  27.525  28.751  1.00  0.00     0.049 A 
ATOM     17  N   UNL A   1      41.921  29.296  30.469  1.00  0.00    -0.248 NA
ATOM     18  C   UNL A   1      40.106  30.750  30.691  1.00  0.00     0.031 C 
ATOM     19  C   UNL A   1      39.454  26.593  27.925  1.00  0.00     0.029 A 
ATOM     20  N   UNL A   1      41.429  26.893  28.932  1.00  0.00    -0.354 N 
ATOM     21  C   UNL A   1      42.276  30.345  31.308  1.00  0.00     0.074 A 
ATOM     22  C   UNL A   1      41.129  31.224  31.391  1.00  0.00     0.031 C 
ATOM     23  C   UNL A   1      40.186  25.486  27.717  1.00  0.00     0.029 A 
ATOM     24  C   UNL A   1      41.496  25.658  28.337  1.00  0.00     0.049 A 
ATOM     25  H   UNL A   1      42.172  27.288  29.441  1.00  0.00     0.167 HD
ATOM     26  C   UNL A   1      43.441  30.554  31.965  1.00  0.00     0.031 A 
ATOM     27  C   UNL A   1      42.507  24.773  28.275  1.00  0.00     0.031 A 
ATOM     28  C   UNL A   1      44.584  29.686  31.918  1.00  0.00     0.049 A 
ATOM     29  C   UNL A   1      43.845  25.124  28.851  1.00  0.00     0.074 A 
ATOM     30  C   UNL A   1      45.784  29.794  32.600  1.00  0.00     0.029 A 
ATOM     31  N   UNL A   1      44.670  28.549  31.135  1.00  0.00    -0.354 N 
ATOM     32  N   UNL A   1      44.176  26.140  29.603  1.00  0.00    -0.248 NA
ATOM     33  C   UNL A   1      44.959  24.219  28.523  1.00  0.00     0.031 C 
ATOM     34  C   UNL A   1      46.611  28.734  32.205  1.00  0.00     0.029 A 
ATOM     35  C   UNL A   1      45.915  27.964  31.289  1.00  0.00     0.049 A 
ATOM     36  H   UNL A   1      43.953  28.206  30.555  1.00  0.00     0.167 HD
ATOM     37  C   UNL A   1      45.536  26.000  29.842  1.00  0.00     0.074 A 
ATOM     38  C   UNL A   1      45.970  24.803  29.153  1.00  0.00     0.031 C 
ATOM     39  C   UNL A   1      46.349  26.795  30.578  1.00  0.00     0.031 A 
BRANCH  26  40
ATOM     40  C   UNL A   1      43.533  31.791  32.805  1.00  0.00    -0.014 A 
ATOM     41  C   UNL A   1      44.096  32.966  32.285  1.00  0.00     0.009 A 
ATOM     42  C   UNL A   1      43.029  31.791  34.114  1.00  0.00     0.009 A 
ATOM     43  C   UNL A   1      44.170  34.117  33.072  1.00  0.00     0.001 A 
ATOM     44  C   UNL A   1      43.098  32.945  34.895  1.00  0.00     0.001 A 
ATOM     45  C   UNL A   1      43.672  34.105  34.375  1.00  0.00     0.000 A 
ENDBRANCH  26  40
BRANCH  27  46
ATOM     46  C   UNL A   1      42.315  23.468  27.601  1.00  0.00    -0.014 A 
ATOM     47  C   UNL A   1      41.907  22.352  28.344  1.00  0.00     0.009 A 
ATOM     48  C   UNL A   1      42.571  23.325  26.231  1.00  0.00     0.009 A 
ATOM     49  C   UNL A   1      41.765  21.109  27.725  1.00  0.00     0.001 A 
ATOM     50  C   UNL A   1      42.423  22.082  25.614  1.00  0.00     0.001 A 
ATOM     51  C   UNL A   1      42.023  20.976  26.361  1.00  0.00     0.000 A 
ENDBRANCH  27  46
BRANCH  39  52
ATOM     52  C   UNL A   1      47.786  26.391  30.667  1.00  0.00    -0.014 A 
ATOM     53  C   UNL A   1      48.678  26.712  29.633  1.00  0.00     0.009 A 
ATOM     54  C   UNL A   1      48.254  25.683  31.784  1.00  0.00     0.009 A 
ATOM     55  C   UNL A   1      50.013  26.314  29.709  1.00  0.00     0.001 A 
ATOM     56  C   UNL A   1      49.592  25.292  31.859  1.00  0.00     0.001 A 
ATOM     57  C   UNL A   1      50.469  25.604  30.820  1.00  0.00     0.000 A 
ENDBRANCH  39  52
ENDBRANCH  13  14
ENDBRANCH   6   8
ENDBRANCH   5   6
ENDBRANCH   4   5
ENDBRANCH   3   4
ENDBRANCH   2   3
ENDBRANCH   1   2
BRANCH   1  58
ATOM     58  C   UNL A   1      30.618  27.545  24.400  1.00  0.00     0.188 C 
BRANCH  58  59
ATOM     59  O   UNL A   1      31.334  26.986  23.296  1.00  0.00    -0.376 OA
BRANCH  59  60
ATOM     60  C   UNL A   1      30.922  25.665  22.935  1.00  0.00     0.202 C 
BRANCH  60  61
ATOM     61  C   UNL A   1      30.782  24.772  24.166  1.00  0.00     0.261 C 
BRANCH  61  62
ATOM     62  O   UNL A   1      32.051  24.190  24.530  1.00  0.00    -0.460 OA
BRANCH  62  63
ATOM     63  C   UNL A   1      32.026  23.445  25.669  1.00  0.00     0.342 C 
ATOM     64  O   UNL A   1      31.595  23.823  26.748  1.00  0.00    -0.246 OA
BRANCH  63  65
ATOM     65  C   UNL A   1      32.749  22.198  25.538  1.00  0.00     0.111 A 
ATOM     66  C   UNL A   1      32.162  20.928  25.275  1.00  0.00     0.067 A 
ATOM     67  C   UNL A   1      34.118  21.986  25.558  1.00  0.00     0.223 A 
ATOM     68  C   UNL A   1      33.189  20.018  25.177  1.00  0.00     0.135 A 
ATOM     69  O   UNL A   1      34.378  20.651  25.372  1.00  0.00    -0.451 OA
BRANCH  67  70
ATOM     70  C   UNL A   1      35.293  22.884  25.644  1.00  0.00     0.450 C 
ATOM     71  F   UNL A   1      35.263  23.871  24.715  1.00  0.00    -0.163 F 
ATOM     72  F   UNL A   1      35.369  23.481  26.860  1.00  0.00    -0.163 F 
ATOM     73  F   UNL A   1      36.451  22.205  25.468  1.00  0.00    -0.163 F 
ENDBRANCH  67  70
BRANCH  68  74
ATOM     74  C   UNL A   1      33.251  18.600  24.860  1.00  0.00     0.019 A 
ATOM     75  C   UNL A   1      33.911  18.175  23.697  1.00  0.00     0.012 A 
ATOM     76  C   UNL A   1      32.675  17.638  25.699  1.00  0.00     0.032 A 
ATOM     77  C   UNL A   1      34.014  16.818  23.387  1.00  0.00     0.002 A 
ATOM     78  C   UNL A   1      32.769  16.284  25.379  1.00  0.00     0.041 A 
ATOM     79  C   UNL A   1      33.441  15.870  24.231  1.00  0.00     0.020 A 
ATOM     80  Cl  UNL A   1      32.044  15.111  26.407  1.00  0.00    -0.084 Cl
ENDBRANCH  68  74
ENDBRANCH  63  65
ENDBRANCH  62  63
ENDBRANCH  61  62
ENDBRANCH  60  61
ENDBRANCH  59  60
ENDBRANCH  58  59
ENDBRANCH   1  58
TORSDOF 19
ENDMDL
