MODEL 1
REMARK VINA RESULT:     -11.1      0.000      0.000
REMARK SMILES CC(=O)Nc1cc(NC(C)=O)cc(C(=O)Nc2ccc(Br)cc2C(=O)OCCOCCOCCOC(=O)c2ccc(-c3c4nc(c(-c5ccccc5)c5ccc([nH]5)c(-c5ccccc5)c5nc(c(-c6ccccc6)c6ccc3[nH]6)C=C5)C=C4)cc2)c1
REMARK SMILES IDX 30 1 29 2 28 3 27 4 26 5 24 6 25 7 23 8 17 9 18 10 19 11
REMARK SMILES IDX 22 12 20 13 21 14 16 15 14 16 15 17 13 19 5 20 6 21 86 22
REMARK SMILES IDX 7 23 12 24 4 25 1 26 2 27 3 28 8 30 9 31 10 33 11 34 31 35
REMARK SMILES IDX 32 36 33 37 34 38 35 39 36 40 37 41 38 42 39 43 85 44 40 45
REMARK SMILES IDX 84 46 41 47 42 48 43 49 78 50 44 51 83 52 77 53 79 54 45 55
REMARK SMILES IDX 82 56 76 57 75 58 46 60 68 61 53 62 67 63 54 64 57 65 66 66
REMARK SMILES IDX 80 67 55 68 56 69 65 71 81 72 58 73 47 74 48 75 52 76 49 77
REMARK SMILES IDX 51 78 50 79 69 80 70 81 74 82 71 83 73 84 72 85 59 86 60 87
REMARK SMILES IDX 64 88 61 89 63 90 62 91
REMARK H PARENT 16 18 4 29 8 32 79 59 57 70
REMARK Flexibility Score: inf
ROOT
ATOM      1  C   UNL A   1      33.878  32.215  28.245  1.00  0.00     0.188 C 
ENDROOT
BRANCH   1   2
ATOM      2  O   UNL A   1      33.899  31.166  27.300  1.00  0.00    -0.376 OA
BRANCH   2   3
ATOM      3  C   UNL A   1      34.704  30.026  27.541  1.00  0.00     0.202 C 
BRANCH   3   4
ATOM      4  C   UNL A   1      34.282  28.609  27.150  1.00  0.00     0.261 C 
BRANCH   4   5
ATOM      5  O   UNL A   1      33.470  28.461  25.974  1.00  0.00    -0.460 OA
BRANCH   5   6
ATOM      6  C   UNL A   1      33.073  27.189  25.718  1.00  0.00     0.340 C 
ATOM      7  O   UNL A   1      33.689  26.182  26.038  1.00  0.00    -0.246 OA
BRANCH   6   8
ATOM      8  C   UNL A   1      31.700  27.104  25.148  1.00  0.00     0.084 A 
ATOM      9  C   UNL A   1      30.703  26.157  25.455  1.00  0.00     0.056 A 
ATOM     10  C   UNL A   1      29.525  26.167  24.676  1.00  0.00     0.028 A 
ATOM     11  C   UNL A   1      29.296  27.136  23.692  1.00  0.00     0.018 A 
ATOM     12  C   UNL A   1      31.458  28.075  24.146  1.00  0.00     0.033 A 
ATOM     13  C   UNL A   1      30.263  28.094  23.438  1.00  0.00     0.018 A 
ATOM     14  Br  UNL A   1      29.962  29.428  22.136  1.00  0.00    -0.051 Br
BRANCH   9  15
ATOM     15  N   UNL A   1      30.687  25.187  26.489  1.00  0.00    -0.321 N 
ATOM     16  C   UNL A   1      30.969  23.837  26.552  1.00  0.00     0.255 C 
ATOM     17  O   UNL A   1      30.681  23.212  27.573  1.00  0.00    -0.269 OA
ATOM     18  H   UNL A   1      30.413  25.561  27.358  1.00  0.00     0.170 HD
BRANCH  16  19
ATOM     19  C   UNL A   1      31.651  23.115  25.452  1.00  0.00     0.044 A 
ATOM     20  C   UNL A   1      33.559  21.829  24.771  1.00  0.00     0.044 A 
ATOM     21  C   UNL A   1      33.436  22.386  23.484  1.00  0.00     0.052 A 
ATOM     22  C   UNL A   1      32.588  22.114  25.722  1.00  0.00     0.040 A 
ATOM     23  C   UNL A   1      32.391  23.256  23.155  1.00  0.00     0.044 A 
ATOM     24  C   UNL A   1      31.475  23.602  24.150  1.00  0.00     0.040 A 
BRANCH  20  25
ATOM     25  N   UNL A   1      34.816  21.266  25.083  1.00  0.00    -0.326 N 
ATOM     26  C   UNL A   1      36.156  23.175  25.975  1.00  0.00     0.114 C 
ATOM     27  C   UNL A   1      36.033  21.799  25.389  1.00  0.00     0.221 C 
ATOM     28  O   UNL A   1      37.045  21.119  25.200  1.00  0.00    -0.275 OA
ATOM     29  H   UNL A   1      34.813  20.282  25.079  1.00  0.00     0.169 HD
ENDBRANCH  20  25
BRANCH  23  30
ATOM     30  N   UNL A   1      32.281  23.926  21.914  1.00  0.00    -0.326 N 
ATOM     31  C   UNL A   1      32.914  25.102  21.548  1.00  0.00     0.221 C 
ATOM     32  H   UNL A   1      31.694  23.513  21.241  1.00  0.00     0.169 HD
ATOM     33  C   UNL A   1      32.610  25.533  20.135  1.00  0.00     0.114 C 
ATOM     34  O   UNL A   1      33.652  25.782  22.252  1.00  0.00    -0.275 OA
ENDBRANCH  23  30
ENDBRANCH  16  19
ENDBRANCH   9  15
ENDBRANCH   6   8
ENDBRANCH   5   6
ENDBRANCH   4   5
ENDBRANCH   3   4
ENDBRANCH   2   3
ENDBRANCH   1   2
BRANCH   1  35
ATOM     35  C   UNL A   1      34.842  33.404  28.049  1.00  0.00     0.188 C 
BRANCH  35  36
ATOM     36  O   UNL A   1      35.284  34.124  29.174  1.00  0.00    -0.376 OA
BRANCH  36  37
ATOM     37  C   UNL A   1      34.396  34.346  30.256  1.00  0.00     0.202 C 
BRANCH  37  38
ATOM     38  C   UNL A   1      34.567  33.777  31.684  1.00  0.00     0.261 C 
BRANCH  38  39
ATOM     39  O   UNL A   1      34.873  32.383  31.833  1.00  0.00    -0.460 OA
BRANCH  39  40
ATOM     40  C   UNL A   1      35.925  32.087  32.645  1.00  0.00     0.338 C 
ATOM     41  O   UNL A   1      35.980  32.230  33.849  1.00  0.00    -0.246 OA
BRANCH  40  42
ATOM     42  C   UNL A   1      36.924  31.300  31.876  1.00  0.00     0.060 A 
ATOM     43  C   UNL A   1      37.938  30.644  32.593  1.00  0.00     0.016 A 
ATOM     44  C   UNL A   1      36.861  31.180  30.487  1.00  0.00     0.016 A 
ATOM     45  C   UNL A   1      38.913  29.905  31.924  1.00  0.00     0.010 A 
ATOM     46  C   UNL A   1      37.862  30.466  29.812  1.00  0.00     0.010 A 
ATOM     47  C   UNL A   1      38.916  29.862  30.525  1.00  0.00    -0.014 A 
BRANCH  47  48
ATOM     48  C   UNL A   1      40.144  29.395  29.830  1.00  0.00     0.031 A 
ATOM     49  C   UNL A   1      41.295  30.360  29.694  1.00  0.00     0.074 A 
ATOM     50  C   UNL A   1      40.284  28.128  29.399  1.00  0.00     0.049 A 
ATOM     51  N   UNL A   1      42.486  30.172  29.185  1.00  0.00    -0.248 NA
ATOM     52  C   UNL A   1      41.069  31.721  30.208  1.00  0.00     0.031 C 
ATOM     53  C   UNL A   1      39.279  27.074  29.512  1.00  0.00     0.029 A 
ATOM     54  N   UNL A   1      41.350  27.514  28.785  1.00  0.00    -0.354 N 
ATOM     55  C   UNL A   1      43.147  31.389  29.316  1.00  0.00     0.074 A 
ATOM     56  C   UNL A   1      42.213  32.315  29.915  1.00  0.00     0.031 C 
ATOM     57  C   UNL A   1      39.777  25.940  28.984  1.00  0.00     0.029 A 
ATOM     58  C   UNL A   1      41.125  26.195  28.476  1.00  0.00     0.049 A 
ATOM     59  H   UNL A   1      42.196  27.977  28.585  1.00  0.00     0.167 HD
ATOM     60  C   UNL A   1      44.420  31.708  28.981  1.00  0.00     0.031 A 
ATOM     61  C   UNL A   1      41.912  25.299  27.848  1.00  0.00     0.031 A 
ATOM     62  C   UNL A   1      45.350  30.799  28.365  1.00  0.00     0.049 A 
ATOM     63  C   UNL A   1      43.297  25.703  27.408  1.00  0.00     0.074 A 
ATOM     64  C   UNL A   1      46.664  31.029  27.996  1.00  0.00     0.029 A 
ATOM     65  N   UNL A   1      45.060  29.491  28.013  1.00  0.00    -0.354 N 
ATOM     66  N   UNL A   1      43.921  26.845  27.566  1.00  0.00    -0.248 NA
ATOM     67  C   UNL A   1      44.092  24.678  26.715  1.00  0.00     0.031 C 
ATOM     68  C   UNL A   1      47.149  29.881  27.361  1.00  0.00     0.029 A 
ATOM     69  C   UNL A   1      46.160  28.911  27.402  1.00  0.00     0.049 A 
ATOM     70  H   UNL A   1      44.200  29.039  28.173  1.00  0.00     0.167 HD
ATOM     71  C   UNL A   1      45.189  26.665  27.023  1.00  0.00     0.074 A 
ATOM     72  C   UNL A   1      45.252  25.298  26.554  1.00  0.00     0.031 C 
ATOM     73  C   UNL A   1      46.210  27.553  26.923  1.00  0.00     0.031 A 
BRANCH  60  74
ATOM     74  C   UNL A   1      44.865  33.122  29.238  1.00  0.00    -0.014 A 
ATOM     75  C   UNL A   1      44.518  34.171  28.370  1.00  0.00     0.009 A 
ATOM     76  C   UNL A   1      45.626  33.413  30.380  1.00  0.00     0.009 A 
ATOM     77  C   UNL A   1      44.958  35.472  28.621  1.00  0.00     0.001 A 
ATOM     78  C   UNL A   1      46.036  34.720  30.647  1.00  0.00     0.001 A 
ATOM     79  C   UNL A   1      45.710  35.747  29.762  1.00  0.00     0.000 A 
ENDBRANCH  60  74
BRANCH  61  80
ATOM     80  C   UNL A   1      41.414  23.923  27.577  1.00  0.00    -0.014 A 
ATOM     81  C   UNL A   1      40.423  23.691  26.610  1.00  0.00     0.009 A 
ATOM     82  C   UNL A   1      41.903  22.835  28.317  1.00  0.00     0.009 A 
ATOM     83  C   UNL A   1      39.911  22.405  26.413  1.00  0.00     0.001 A 
ATOM     84  C   UNL A   1      41.414  21.546  28.095  1.00  0.00     0.001 A 
ATOM     85  C   UNL A   1      40.410  21.333  27.152  1.00  0.00     0.000 A 
ENDBRANCH  61  80
BRANCH  73  86
ATOM     86  C   UNL A   1      47.495  27.056  26.311  1.00  0.00    -0.014 A 
ATOM     87  C   UNL A   1      47.745  27.161  24.933  1.00  0.00     0.009 A 
ATOM     88  C   UNL A   1      48.477  26.475  27.132  1.00  0.00     0.009 A 
ATOM     89  C   UNL A   1      48.920  26.642  24.384  1.00  0.00     0.001 A 
ATOM     90  C   UNL A   1      49.667  25.993  26.585  1.00  0.00     0.001 A 
ATOM     91  C   UNL A   1      49.880  26.060  25.210  1.00  0.00     0.000 A 
ENDBRANCH  73  86
ENDBRANCH  47  48
ENDBRANCH  40  42
ENDBRANCH  39  40
ENDBRANCH  38  39
ENDBRANCH  37  38
ENDBRANCH  36  37
ENDBRANCH  35  36
ENDBRANCH   1  35
TORSDOF 21
ENDMDL
MODEL 2
REMARK VINA RESULT:     -10.5      4.047      7.457
REMARK SMILES CC(=O)Nc1cc(NC(C)=O)cc(C(=O)Nc2ccc(Br)cc2C(=O)OCCOCCOCCOC(=O)c2ccc(-c3c4nc(c(-c5ccccc5)c5ccc([nH]5)c(-c5ccccc5)c5nc(c(-c6ccccc6)c6ccc3[nH]6)C=C5)C=C4)cc2)c1
REMARK SMILES IDX 30 1 29 2 28 3 27 4 26 5 24 6 25 7 23 8 17 9 18 10 19 11
REMARK SMILES IDX 22 12 20 13 21 14 16 15 14 16 15 17 13 19 5 20 6 21 86 22
REMARK SMILES IDX 7 23 12 24 4 25 1 26 2 27 3 28 8 30 9 31 10 33 11 34 31 35
REMARK SMILES IDX 32 36 33 37 34 38 35 39 36 40 37 41 38 42 39 43 85 44 40 45
REMARK SMILES IDX 84 46 41 47 42 48 43 49 78 50 44 51 83 52 77 53 79 54 45 55
REMARK SMILES IDX 82 56 76 57 75 58 46 60 68 61 53 62 67 63 54 64 57 65 66 66
REMARK SMILES IDX 80 67 55 68 56 69 65 71 81 72 58 73 47 74 48 75 52 76 49 77
REMARK SMILES IDX 51 78 50 79 69 80 70 81 74 82 71 83 73 84 72 85 59 86 60 87
REMARK SMILES IDX 64 88 61 89 63 90 62 91
REMARK H PARENT 16 18 4 29 8 32 79 59 57 70
REMARK Flexibility Score: inf
ROOT
ATOM      1  C   UNL A   1      34.132  32.235  28.378  1.00  0.00     0.188 C 
ENDROOT
BRANCH   1   2
ATOM      2  O   UNL A   1      33.728  31.147  27.573  1.00  0.00    -0.376 OA
BRANCH   2   3
ATOM      3  C   UNL A   1      34.645  30.106  27.296  1.00  0.00     0.202 C 
BRANCH   3   4
ATOM      4  C   UNL A   1      34.210  28.700  26.875  1.00  0.00     0.261 C 
BRANCH   4   5
ATOM      5  O   UNL A   1      33.041  28.590  26.048  1.00  0.00    -0.460 OA
BRANCH   5   6
ATOM      6  C   UNL A   1      32.557  27.329  25.919  1.00  0.00     0.340 C 
ATOM      7  O   UNL A   1      33.034  26.335  26.451  1.00  0.00    -0.246 OA
BRANCH   6   8
ATOM      8  C   UNL A   1      31.257  27.267  25.196  1.00  0.00     0.084 A 
ATOM      9  C   UNL A   1      30.226  26.321  25.368  1.00  0.00     0.056 A 
ATOM     10  C   UNL A   1      29.145  26.357  24.460  1.00  0.00     0.028 A 
ATOM     11  C   UNL A   1      29.035  27.349  23.478  1.00  0.00     0.018 A 
ATOM     12  C   UNL A   1      31.137  28.260  24.194  1.00  0.00     0.033 A 
ATOM     13  C   UNL A   1      30.030  28.304  23.356  1.00  0.00     0.018 A 
ATOM     14  Br  UNL A   1      29.886  29.668  22.058  1.00  0.00    -0.051 Br
BRANCH   9  15
ATOM     15  N   UNL A   1      30.088  25.330  26.371  1.00  0.00    -0.321 N 
ATOM     16  C   UNL A   1      30.312  23.969  26.423  1.00  0.00     0.255 C 
ATOM     17  O   UNL A   1      29.917  23.333  27.401  1.00  0.00    -0.269 OA
ATOM     18  H   UNL A   1      29.756  25.695  27.223  1.00  0.00     0.170 HD
BRANCH  16  19
ATOM     19  C   UNL A   1      31.057  23.245  25.365  1.00  0.00     0.044 A 
ATOM     20  C   UNL A   1      32.954  21.881  24.816  1.00  0.00     0.044 A 
ATOM     21  C   UNL A   1      32.978  22.482  23.544  1.00  0.00     0.052 A 
ATOM     22  C   UNL A   1      31.913  22.188  25.684  1.00  0.00     0.040 A 
ATOM     23  C   UNL A   1      32.013  23.416  23.152  1.00  0.00     0.044 A 
ATOM     24  C   UNL A   1      31.027  23.780  24.071  1.00  0.00     0.040 A 
BRANCH  20  25
ATOM     25  N   UNL A   1      34.146  21.242  25.222  1.00  0.00    -0.326 N 
ATOM     26  C   UNL A   1      35.046  22.693  27.044  1.00  0.00     0.114 C 
ATOM     27  C   UNL A   1      35.198  21.627  25.999  1.00  0.00     0.221 C 
ATOM     28  O   UNL A   1      36.285  21.063  25.850  1.00  0.00    -0.275 OA
ATOM     29  H   UNL A   1      34.236  20.328  24.870  1.00  0.00     0.169 HD
ENDBRANCH  20  25
BRANCH  23  30
ATOM     30  N   UNL A   1      32.053  24.128  21.930  1.00  0.00    -0.326 N 
ATOM     31  C   UNL A   1      32.724  25.314  21.683  1.00  0.00     0.221 C 
ATOM     32  H   UNL A   1      31.551  23.740  21.177  1.00  0.00     0.169 HD
ATOM     33  C   UNL A   1      32.593  25.793  20.259  1.00  0.00     0.114 C 
ATOM     34  O   UNL A   1      33.372  25.967  22.493  1.00  0.00    -0.275 OA
ENDBRANCH  23  30
ENDBRANCH  16  19
ENDBRANCH   9  15
ENDBRANCH   6   8
ENDBRANCH   5   6
ENDBRANCH   4   5
ENDBRANCH   3   4
ENDBRANCH   2   3
ENDBRANCH   1   2
BRANCH   1  35
ATOM     35  C   UNL A   1      33.597  33.643  28.039  1.00  0.00     0.188 C 
BRANCH  35  36
ATOM     36  O   UNL A   1      34.133  34.760  28.705  1.00  0.00    -0.376 OA
BRANCH  36  37
ATOM     37  C   UNL A   1      33.356  35.938  28.834  1.00  0.00     0.202 C 
BRANCH  37  38
ATOM     38  C   UNL A   1      32.687  36.429  30.139  1.00  0.00     0.261 C 
BRANCH  38  39
ATOM     39  O   UNL A   1      32.401  35.468  31.164  1.00  0.00    -0.460 OA
BRANCH  39  40
ATOM     40  C   UNL A   1      32.979  35.698  32.375  1.00  0.00     0.338 C 
ATOM     41  O   UNL A   1      32.492  36.293  33.314  1.00  0.00    -0.246 OA
BRANCH  40  42
ATOM     42  C   UNL A   1      34.211  34.875  32.489  1.00  0.00     0.060 A 
ATOM     43  C   UNL A   1      34.108  33.618  33.108  1.00  0.00     0.016 A 
ATOM     44  C   UNL A   1      35.437  35.305  31.980  1.00  0.00     0.016 A 
ATOM     45  C   UNL A   1      35.234  32.810  33.259  1.00  0.00     0.010 A 
ATOM     46  C   UNL A   1      36.576  34.506  32.163  1.00  0.00     0.010 A 
ATOM     47  C   UNL A   1      36.487  33.275  32.841  1.00  0.00    -0.014 A 
BRANCH  47  48
ATOM     48  C   UNL A   1      37.705  32.580  33.335  1.00  0.00     0.031 A 
ATOM     49  C   UNL A   1      38.325  31.522  32.457  1.00  0.00     0.074 A 
ATOM     50  C   UNL A   1      38.305  32.922  34.489  1.00  0.00     0.049 A 
ATOM     51  N   UNL A   1      39.415  30.822  32.638  1.00  0.00    -0.248 NA
ATOM     52  C   UNL A   1      37.618  31.220  31.201  1.00  0.00     0.031 C 
ATOM     53  C   UNL A   1      37.850  33.960  35.411  1.00  0.00     0.029 A 
ATOM     54  N   UNL A   1      39.447  32.428  35.074  1.00  0.00    -0.354 N 
ATOM     55  C   UNL A   1      39.522  29.997  31.523  1.00  0.00     0.074 A 
ATOM     56  C   UNL A   1      38.367  30.257  30.693  1.00  0.00     0.031 C 
ATOM     57  C   UNL A   1      38.706  34.027  36.447  1.00  0.00     0.029 A 
ATOM     58  C   UNL A   1      39.754  33.021  36.274  1.00  0.00     0.049 A 
ATOM     59  H   UNL A   1      39.993  31.715  34.670  1.00  0.00     0.167 HD
ATOM     60  C   UNL A   1      40.497  29.111  31.208  1.00  0.00     0.031 A 
ATOM     61  C   UNL A   1      40.760  32.776  37.136  1.00  0.00     0.031 A 
ATOM     62  C   UNL A   1      41.639  28.830  32.037  1.00  0.00     0.049 A 
ATOM     63  C   UNL A   1      41.788  31.724  36.803  1.00  0.00     0.074 A 
ATOM     64  C   UNL A   1      42.683  27.955  31.798  1.00  0.00     0.029 A 
ATOM     65  N   UNL A   1      41.878  29.410  33.273  1.00  0.00    -0.354 N 
ATOM     66  N   UNL A   1      41.896  30.975  35.732  1.00  0.00    -0.248 NA
ATOM     67  C   UNL A   1      42.847  31.500  37.798  1.00  0.00     0.031 C 
ATOM     68  C   UNL A   1      43.521  27.955  32.919  1.00  0.00     0.029 A 
ATOM     69  C   UNL A   1      43.038  28.887  33.823  1.00  0.00     0.049 A 
ATOM     70  H   UNL A   1      41.310  30.091  33.698  1.00  0.00     0.167 HD
ATOM     71  C   UNL A   1      43.049  30.216  35.911  1.00  0.00     0.074 A 
ATOM     72  C   UNL A   1      43.617  30.615  37.181  1.00  0.00     0.031 C 
ATOM     73  C   UNL A   1      43.589  29.276  35.096  1.00  0.00     0.031 A 
BRANCH  60  74
ATOM     74  C   UNL A   1      40.342  28.347  29.921  1.00  0.00    -0.014 A 
ATOM     75  C   UNL A   1      39.545  27.192  29.844  1.00  0.00     0.009 A 
ATOM     76  C   UNL A   1      40.987  28.802  28.761  1.00  0.00     0.009 A 
ATOM     77  C   UNL A   1      39.431  26.490  28.642  1.00  0.00     0.001 A 
ATOM     78  C   UNL A   1      40.843  28.118  27.554  1.00  0.00     0.001 A 
ATOM     79  C   UNL A   1      40.075  26.957  27.497  1.00  0.00     0.000 A 
ENDBRANCH  60  74
BRANCH  61  80
ATOM     80  C   UNL A   1      40.850  33.528  38.417  1.00  0.00    -0.014 A 
ATOM     81  C   UNL A   1      41.636  34.687  38.521  1.00  0.00     0.009 A 
ATOM     82  C   UNL A   1      40.179  33.063  39.560  1.00  0.00     0.009 A 
ATOM     83  C   UNL A   1      41.772  35.345  39.747  1.00  0.00     0.001 A 
ATOM     84  C   UNL A   1      40.289  33.742  40.775  1.00  0.00     0.001 A 
ATOM     85  C   UNL A   1      41.095  34.875  40.871  1.00  0.00     0.000 A 
ENDBRANCH  61  80
BRANCH  73  86
ATOM     86  C   UNL A   1      44.880  28.639  35.542  1.00  0.00    -0.014 A 
ATOM     87  C   UNL A   1      44.895  27.471  36.323  1.00  0.00     0.009 A 
ATOM     88  C   UNL A   1      46.105  29.218  35.171  1.00  0.00     0.009 A 
ATOM     89  C   UNL A   1      46.104  26.934  36.770  1.00  0.00     0.001 A 
ATOM     90  C   UNL A   1      47.313  28.656  35.588  1.00  0.00     0.001 A 
ATOM     91  C   UNL A   1      47.311  27.525  36.402  1.00  0.00     0.000 A 
ENDBRANCH  73  86
ENDBRANCH  47  48
ENDBRANCH  40  42
ENDBRANCH  39  40
ENDBRANCH  38  39
ENDBRANCH  37  38
ENDBRANCH  36  37
ENDBRANCH  35  36
ENDBRANCH   1  35
TORSDOF 21
ENDMDL
MODEL 3
REMARK VINA RESULT:     -10.2      2.788      6.776
REMARK SMILES CC(=O)Nc1cc(NC(C)=O)cc(C(=O)Nc2ccc(Br)cc2C(=O)OCCOCCOCCOC(=O)c2ccc(-c3c4nc(c(-c5ccccc5)c5ccc([nH]5)c(-c5ccccc5)c5nc(c(-c6ccccc6)c6ccc3[nH]6)C=C5)C=C4)cc2)c1
REMARK SMILES IDX 30 1 29 2 28 3 27 4 26 5 24 6 25 7 23 8 17 9 18 10 19 11
REMARK SMILES IDX 22 12 20 13 21 14 16 15 14 16 15 17 13 19 5 20 6 21 86 22
REMARK SMILES IDX 7 23 12 24 4 25 1 26 2 27 3 28 8 30 9 31 10 33 11 34 31 35
REMARK SMILES IDX 32 36 33 37 34 38 35 39 36 40 37 41 38 42 39 43 85 44 40 45
REMARK SMILES IDX 84 46 41 47 42 48 43 49 78 50 44 51 83 52 77 53 79 54 45 55
REMARK SMILES IDX 82 56 76 57 75 58 46 60 68 61 53 62 67 63 54 64 57 65 66 66
REMARK SMILES IDX 80 67 55 68 56 69 65 71 81 72 58 73 47 74 48 75 52 76 49 77
REMARK SMILES IDX 51 78 50 79 69 80 70 81 74 82 71 83 73 84 72 85 59 86 60 87
REMARK SMILES IDX 64 88 61 89 63 90 62 91
REMARK H PARENT 16 18 4 29 8 32 79 59 57 70
REMARK Flexibility Score: inf
ROOT
ATOM      1  C   UNL A   1      34.522  32.927  28.357  1.00  0.00     0.188 C 
ENDROOT
BRANCH   1   2
ATOM      2  O   UNL A   1      33.850  31.868  27.710  1.00  0.00    -0.376 OA
BRANCH   2   3
ATOM      3  C   UNL A   1      34.585  30.738  27.275  1.00  0.00     0.202 C 
BRANCH   3   4
ATOM      4  C   UNL A   1      34.028  29.314  27.319  1.00  0.00     0.261 C 
BRANCH   4   5
ATOM      5  O   UNL A   1      33.089  28.938  26.299  1.00  0.00    -0.460 OA
BRANCH   5   6
ATOM      6  C   UNL A   1      32.045  28.191  26.739  1.00  0.00     0.340 C 
ATOM      7  O   UNL A   1      31.773  27.988  27.914  1.00  0.00    -0.246 OA
BRANCH   6   8
ATOM      8  C   UNL A   1      31.125  27.764  25.649  1.00  0.00     0.084 A 
ATOM      9  C   UNL A   1      30.529  26.499  25.479  1.00  0.00     0.056 A 
ATOM     10  C   UNL A   1      29.816  26.265  24.283  1.00  0.00     0.028 A 
ATOM     11  C   UNL A   1      29.615  27.272  23.331  1.00  0.00     0.018 A 
ATOM     12  C   UNL A   1      30.920  28.772  24.676  1.00  0.00     0.033 A 
ATOM     13  C   UNL A   1      30.161  28.527  23.538  1.00  0.00     0.018 A 
ATOM     14  Br  UNL A   1      29.878  29.908  22.282  1.00  0.00    -0.051 Br
BRANCH   9  15
ATOM     15  N   UNL A   1      30.505  25.401  26.374  1.00  0.00    -0.321 N 
ATOM     16  C   UNL A   1      31.129  24.170  26.411  1.00  0.00     0.255 C 
ATOM     17  O   UNL A   1      30.761  23.336  27.239  1.00  0.00    -0.269 OA
ATOM     18  H   UNL A   1      29.908  25.550  27.143  1.00  0.00     0.170 HD
BRANCH  16  19
ATOM     19  C   UNL A   1      32.263  23.825  25.521  1.00  0.00     0.044 A 
ATOM     20  C   UNL A   1      34.639  23.863  25.186  1.00  0.00     0.044 A 
ATOM     21  C   UNL A   1      34.411  23.990  23.803  1.00  0.00     0.052 A 
ATOM     22  C   UNL A   1      33.553  23.665  26.031  1.00  0.00     0.040 A 
ATOM     23  C   UNL A   1      33.119  23.973  23.266  1.00  0.00     0.044 A 
ATOM     24  C   UNL A   1      32.036  23.865  24.139  1.00  0.00     0.040 A 
BRANCH  20  25
ATOM     25  N   UNL A   1      35.921  24.242  25.639  1.00  0.00    -0.326 N 
ATOM     26  C   UNL A   1      37.418  22.377  24.919  1.00  0.00     0.114 C 
ATOM     27  C   UNL A   1      37.106  23.578  25.762  1.00  0.00     0.221 C 
ATOM     28  O   UNL A   1      37.942  23.998  26.566  1.00  0.00    -0.275 OA
ATOM     29  H   UNL A   1      35.970  25.181  25.926  1.00  0.00     0.169 HD
ENDBRANCH  20  25
BRANCH  23  30
ATOM     30  N   UNL A   1      32.829  24.205  21.900  1.00  0.00    -0.326 N 
ATOM     31  C   UNL A   1      32.733  25.434  21.271  1.00  0.00     0.221 C 
ATOM     32  H   UNL A   1      32.680  23.410  21.340  1.00  0.00     0.169 HD
ATOM     33  C   UNL A   1      32.444  25.332  19.794  1.00  0.00     0.114 C 
ATOM     34  O   UNL A   1      32.851  26.535  21.798  1.00  0.00    -0.275 OA
ENDBRANCH  23  30
ENDBRANCH  16  19
ENDBRANCH   9  15
ENDBRANCH   6   8
ENDBRANCH   5   6
ENDBRANCH   4   5
ENDBRANCH   3   4
ENDBRANCH   2   3
ENDBRANCH   1   2
BRANCH   1  35
ATOM     35  C   UNL A   1      33.693  33.925  29.195  1.00  0.00     0.188 C 
BRANCH  35  36
ATOM     36  O   UNL A   1      34.039  34.147  30.540  1.00  0.00    -0.376 OA
BRANCH  36  37
ATOM     37  C   UNL A   1      35.297  33.708  31.022  1.00  0.00     0.202 C 
BRANCH  37  38
ATOM     38  C   UNL A   1      35.532  32.451  31.891  1.00  0.00     0.261 C 
BRANCH  38  39
ATOM     39  O   UNL A   1      36.055  31.272  31.263  1.00  0.00    -0.460 OA
BRANCH  39  40
ATOM     40  C   UNL A   1      36.984  30.578  31.976  1.00  0.00     0.338 C 
ATOM     41  O   UNL A   1      36.777  29.679  32.763  1.00  0.00    -0.246 OA
BRANCH  40  42
ATOM     42  C   UNL A   1      38.337  30.899  31.450  1.00  0.00     0.060 A 
ATOM     43  C   UNL A   1      39.220  31.600  32.287  1.00  0.00     0.016 A 
ATOM     44  C   UNL A   1      38.749  30.501  30.176  1.00  0.00     0.016 A 
ATOM     45  C   UNL A   1      40.495  31.944  31.841  1.00  0.00     0.010 A 
ATOM     46  C   UNL A   1      40.019  30.877  29.716  1.00  0.00     0.010 A 
ATOM     47  C   UNL A   1      40.881  31.637  30.531  1.00  0.00    -0.014 A 
BRANCH  47  48
ATOM     48  C   UNL A   1      42.072  32.322  29.961  1.00  0.00     0.031 A 
ATOM     49  C   UNL A   1      43.339  31.523  29.794  1.00  0.00     0.074 A 
ATOM     50  C   UNL A   1      42.023  33.592  29.521  1.00  0.00     0.049 A 
ATOM     51  N   UNL A   1      44.485  31.875  29.270  1.00  0.00    -0.248 NA
ATOM     52  C   UNL A   1      43.304  30.134  30.283  1.00  0.00     0.031 C 
ATOM     53  C   UNL A   1      40.854  34.466  29.568  1.00  0.00     0.029 A 
ATOM     54  N   UNL A   1      42.998  34.363  28.933  1.00  0.00    -0.354 N 
ATOM     55  C   UNL A   1      45.305  30.756  29.368  1.00  0.00     0.074 A 
ATOM     56  C   UNL A   1      44.538  29.728  30.036  1.00  0.00     0.031 C 
ATOM     57  C   UNL A   1      41.178  35.656  29.029  1.00  0.00     0.029 A 
ATOM     58  C   UNL A   1      42.583  35.635  28.622  1.00  0.00     0.049 A 
ATOM     59  H   UNL A   1      43.908  34.035  28.752  1.00  0.00     0.167 HD
ATOM     60  C   UNL A   1      46.577  30.589  28.933  1.00  0.00     0.031 A 
ATOM     61  C   UNL A   1      43.260  36.666  28.078  1.00  0.00     0.031 A 
ATOM     62  C   UNL A   1      47.355  31.613  28.287  1.00  0.00     0.049 A 
ATOM     63  C   UNL A   1      44.703  36.481  27.678  1.00  0.00     0.074 A 
ATOM     64  C   UNL A   1      48.649  31.535  27.803  1.00  0.00     0.029 A 
ATOM     65  N   UNL A   1      46.916  32.905  28.047  1.00  0.00    -0.354 N 
ATOM     66  N   UNL A   1      45.455  35.409  27.746  1.00  0.00    -0.248 NA
ATOM     67  C   UNL A   1      45.383  37.653  27.107  1.00  0.00     0.031 C 
ATOM     68  C   UNL A   1      49.018  32.799  27.330  1.00  0.00     0.029 A 
ATOM     69  C   UNL A   1      47.926  33.644  27.451  1.00  0.00     0.049 A 
ATOM     70  H   UNL A   1      46.020  33.248  28.267  1.00  0.00     0.167 HD
ATOM     71  C   UNL A   1      46.683  35.769  27.199  1.00  0.00     0.074 A 
ATOM     72  C   UNL A   1      46.564  37.150  26.782  1.00  0.00     0.031 C 
ATOM     73  C   UNL A   1      47.806  35.023  27.053  1.00  0.00     0.031 A 
BRANCH  60  74
ATOM     74  C   UNL A   1      47.220  29.253  29.185  1.00  0.00    -0.014 A 
ATOM     75  C   UNL A   1      47.931  28.991  30.368  1.00  0.00     0.009 A 
ATOM     76  C   UNL A   1      47.094  28.231  28.231  1.00  0.00     0.009 A 
ATOM     77  C   UNL A   1      48.533  27.747  30.571  1.00  0.00     0.001 A 
ATOM     78  C   UNL A   1      47.669  26.979  28.452  1.00  0.00     0.001 A 
ATOM     79  C   UNL A   1      48.397  26.741  29.616  1.00  0.00     0.000 A 
ENDBRANCH  60  74
BRANCH  61  80
ATOM     80  C   UNL A   1      42.595  37.983  27.886  1.00  0.00    -0.014 A 
ATOM     81  C   UNL A   1      41.936  38.290  26.685  1.00  0.00     0.009 A 
ATOM     82  C   UNL A   1      42.653  38.959  28.894  1.00  0.00     0.009 A 
ATOM     83  C   UNL A   1      41.377  39.557  26.487  1.00  0.00     0.001 A 
ATOM     84  C   UNL A   1      42.063  40.211  28.706  1.00  0.00     0.001 A 
ATOM     85  C   UNL A   1      41.437  40.513  27.499  1.00  0.00     0.000 A 
ENDBRANCH  61  80
BRANCH  73  86
ATOM     86  C   UNL A   1      48.986  35.680  26.383  1.00  0.00    -0.014 A 
ATOM     87  C   UNL A   1      49.191  35.588  24.996  1.00  0.00     0.009 A 
ATOM     88  C   UNL A   1      49.908  36.407  27.155  1.00  0.00     0.009 A 
ATOM     89  C   UNL A   1      50.323  36.158  24.409  1.00  0.00     0.001 A 
ATOM     90  C   UNL A   1      51.017  37.008  26.558  1.00  0.00     0.001 A 
ATOM     91  C   UNL A   1      51.234  36.868  25.189  1.00  0.00     0.000 A 
ENDBRANCH  73  86
ENDBRANCH  47  48
ENDBRANCH  40  42
ENDBRANCH  39  40
ENDBRANCH  38  39
ENDBRANCH  37  38
ENDBRANCH  36  37
ENDBRANCH  35  36
ENDBRANCH   1  35
TORSDOF 21
ENDMDL
