MODEL 1
REMARK VINA RESULT:      -9.5      0.000      0.000
REMARK SMILES CCC[C@H](C)C(=O)N1CC[C@H](C(=O)OCCOCCOCCOC(=O)c2ccc(-c3c4nc(c(-c5ccccc5)c5ccc([nH]5)c(-c5ccccc5)c5nc(c(-c6ccccc6)c6ccc3[nH]6)C=C5)C=C4)cc2)[C@@H]1C
REMARK SMILES IDX 18 1 17 2 16 3 15 4 14 5 12 6 13 7 11 8 8 9 9 10 74 11 10 12
REMARK SMILES IDX 75 13 6 14 7 15 4 16 5 17 3 18 2 19 1 20 19 21 20 22 21 23
REMARK SMILES IDX 22 24 23 25 24 26 25 27 26 28 27 29 73 30 28 31 72 32 29 33
REMARK SMILES IDX 30 34 31 35 66 36 32 37 71 38 65 39 67 40 33 41 70 42 64 43
REMARK SMILES IDX 63 44 34 46 56 47 41 48 55 49 42 50 45 51 54 52 68 53 43 54
REMARK SMILES IDX 44 55 53 57 69 58 46 59 35 60 36 61 40 62 37 63 39 64 38 65
REMARK SMILES IDX 57 66 58 67 62 68 59 69 61 70 60 71 47 72 48 73 52 74 49 75
REMARK SMILES IDX 51 76 50 77
REMARK H PARENT 67 45 45 56
REMARK Flexibility Score: inf
ROOT
ATOM      1  C   UNL A   1      40.076  21.342  26.305  1.00  0.00     0.188 C 
ENDROOT
BRANCH   1   2
ATOM      2  O   UNL A   1      38.951  21.589  25.476  1.00  0.00    -0.376 OA
BRANCH   2   3
ATOM      3  C   UNL A   1      37.822  20.730  25.594  1.00  0.00     0.202 C 
BRANCH   3   4
ATOM      4  C   UNL A   1      36.553  21.192  24.879  1.00  0.00     0.261 C 
BRANCH   4   5
ATOM      5  O   UNL A   1      35.559  20.147  24.860  1.00  0.00    -0.463 OA
BRANCH   5   6
ATOM      6  C   UNL A   1      34.278  20.541  25.024  1.00  0.00     0.311 C 
ATOM      7  O   UNL A   1      33.400  19.823  25.492  1.00  0.00    -0.252 OA
BRANCH   6   8
ATOM      8  C   UNL A   1      33.995  21.997  24.687  1.00  0.00     0.123 C 
ATOM      9  N   UNL A   1      32.469  23.710  25.386  1.00  0.00    -0.339 N 
ATOM     10  C   UNL A   1      31.778  22.961  24.364  1.00  0.00     0.121 C 
ATOM     11  C   UNL A   1      33.770  23.119  25.724  1.00  0.00     0.096 C 
ATOM     12  C   UNL A   1      32.822  22.088  23.703  1.00  0.00     0.039 C 
ATOM     13  C   UNL A   1      33.871  22.735  27.200  1.00  0.00     0.032 C 
BRANCH   9  14
ATOM     14  C   UNL A   1      31.858  24.856  25.851  1.00  0.00     0.225 C 
ATOM     15  O   UNL A   1      31.014  24.779  26.752  1.00  0.00    -0.275 OA
BRANCH  14  16
ATOM     16  C   UNL A   1      31.982  26.169  25.068  1.00  0.00     0.075 C 
ATOM     17  C   UNL A   1      30.706  26.891  24.670  1.00  0.00     0.018 C 
BRANCH  16  18
ATOM     18  C   UNL A   1      32.972  27.097  25.808  1.00  0.00     0.013 C 
BRANCH  18  19
ATOM     19  C   UNL A   1      32.314  28.375  26.341  1.00  0.00    -0.003 C 
ATOM     20  C   UNL A   1      31.758  28.220  27.748  1.00  0.00     0.004 C 
ENDBRANCH  18  19
ENDBRANCH  16  18
ENDBRANCH  14  16
ENDBRANCH   9  14
ENDBRANCH   6   8
ENDBRANCH   5   6
ENDBRANCH   4   5
ENDBRANCH   3   4
ENDBRANCH   2   3
ENDBRANCH   1   2
BRANCH   1  21
ATOM     21  C   UNL A   1      40.804  19.990  26.206  1.00  0.00     0.188 C 
BRANCH  21  22
ATOM     22  O   UNL A   1      41.925  19.826  25.357  1.00  0.00    -0.376 OA
BRANCH  22  23
ATOM     23  C   UNL A   1      43.212  20.120  25.877  1.00  0.00     0.202 C 
BRANCH  23  24
ATOM     24  C   UNL A   1      44.017  21.215  25.177  1.00  0.00     0.261 C 
BRANCH  24  25
ATOM     25  O   UNL A   1      43.222  22.373  24.870  1.00  0.00    -0.460 OA
BRANCH  25  26
ATOM     26  C   UNL A   1      43.905  23.545  24.830  1.00  0.00     0.338 C 
ATOM     27  O   UNL A   1      44.862  23.827  24.135  1.00  0.00    -0.246 OA
BRANCH  26  28
ATOM     28  C   UNL A   1      43.223  24.534  25.684  1.00  0.00     0.060 A 
ATOM     29  C   UNL A   1      43.736  25.836  25.738  1.00  0.00     0.016 A 
ATOM     30  C   UNL A   1      42.151  24.155  26.493  1.00  0.00     0.016 A 
ATOM     31  C   UNL A   1      43.189  26.764  26.624  1.00  0.00     0.010 A 
ATOM     32  C   UNL A   1      41.623  25.077  27.399  1.00  0.00     0.010 A 
ATOM     33  C   UNL A   1      42.158  26.375  27.489  1.00  0.00    -0.014 A 
BRANCH  33  34
ATOM     34  C   UNL A   1      41.767  27.254  28.617  1.00  0.00     0.031 A 
ATOM     35  C   UNL A   1      42.562  27.185  29.892  1.00  0.00     0.074 A 
ATOM     36  C   UNL A   1      40.733  28.107  28.511  1.00  0.00     0.049 A 
ATOM     37  N   UNL A   1      42.346  27.776  31.038  1.00  0.00    -0.248 NA
ATOM     38  C   UNL A   1      43.765  26.335  29.867  1.00  0.00     0.031 C 
ATOM     39  C   UNL A   1      39.929  28.323  27.310  1.00  0.00     0.029 A 
ATOM     40  N   UNL A   1      40.180  28.949  29.445  1.00  0.00    -0.354 N 
ATOM     41  C   UNL A   1      43.377  27.363  31.873  1.00  0.00     0.074 A 
ATOM     42  C   UNL A   1      44.207  26.457  31.109  1.00  0.00     0.031 C 
ATOM     43  C   UNL A   1      38.978  29.234  27.583  1.00  0.00     0.029 A 
ATOM     44  C   UNL A   1      39.079  29.629  28.988  1.00  0.00     0.049 A 
ATOM     45  H   UNL A   1      40.540  29.054  30.355  1.00  0.00     0.167 HD
ATOM     46  C   UNL A   1      43.614  27.707  33.161  1.00  0.00     0.031 A 
ATOM     47  C   UNL A   1      38.233  30.449  29.639  1.00  0.00     0.031 A 
ATOM     48  C   UNL A   1      42.780  28.593  33.928  1.00  0.00     0.049 A 
ATOM     49  C   UNL A   1      38.455  30.731  31.103  1.00  0.00     0.074 A 
ATOM     50  C   UNL A   1      42.925  28.987  35.247  1.00  0.00     0.029 A 
ATOM     51  N   UNL A   1      41.645  29.222  33.442  1.00  0.00    -0.354 N 
ATOM     52  N   UNL A   1      39.423  30.323  31.888  1.00  0.00    -0.248 NA
ATOM     53  C   UNL A   1      37.462  31.585  31.771  1.00  0.00     0.031 C 
ATOM     54  C   UNL A   1      41.849  29.819  35.573  1.00  0.00     0.029 A 
ATOM     55  C   UNL A   1      41.067  29.986  34.441  1.00  0.00     0.049 A 
ATOM     56  H   UNL A   1      41.302  29.137  32.524  1.00  0.00     0.167 HD
ATOM     57  C   UNL A   1      39.174  30.898  33.130  1.00  0.00     0.074 A 
ATOM     58  C   UNL A   1      37.971  31.691  32.990  1.00  0.00     0.031 C 
ATOM     59  C   UNL A   1      39.876  30.779  34.282  1.00  0.00     0.031 A 
BRANCH  46  60
ATOM     60  C   UNL A   1      44.805  27.087  33.833  1.00  0.00    -0.014 A 
ATOM     61  C   UNL A   1      44.707  25.853  34.495  1.00  0.00     0.009 A 
ATOM     62  C   UNL A   1      46.049  27.734  33.782  1.00  0.00     0.009 A 
ATOM     63  C   UNL A   1      45.826  25.293  35.115  1.00  0.00     0.001 A 
ATOM     64  C   UNL A   1      47.171  27.160  34.379  1.00  0.00     0.001 A 
ATOM     65  C   UNL A   1      47.058  25.944  35.052  1.00  0.00     0.000 A 
ENDBRANCH  46  60
BRANCH  47  66
ATOM     66  C   UNL A   1      37.065  31.042  28.935  1.00  0.00    -0.014 A 
ATOM     67  C   UNL A   1      37.047  32.405  28.599  1.00  0.00     0.009 A 
ATOM     68  C   UNL A   1      35.938  30.258  28.642  1.00  0.00     0.009 A 
ATOM     69  C   UNL A   1      35.914  32.976  28.015  1.00  0.00     0.001 A 
ATOM     70  C   UNL A   1      34.818  30.825  28.030  1.00  0.00     0.001 A 
ATOM     71  C   UNL A   1      34.801  32.185  27.728  1.00  0.00     0.000 A 
ENDBRANCH  47  66
BRANCH  59  72
ATOM     72  C   UNL A   1      39.394  31.565  35.470  1.00  0.00    -0.014 A 
ATOM     73  C   UNL A   1      39.928  32.826  35.778  1.00  0.00     0.009 A 
ATOM     74  C   UNL A   1      38.359  31.051  36.265  1.00  0.00     0.009 A 
ATOM     75  C   UNL A   1      39.455  33.541  36.880  1.00  0.00     0.001 A 
ATOM     76  C   UNL A   1      37.867  31.781  37.349  1.00  0.00     0.001 A 
ATOM     77  C   UNL A   1      38.424  33.021  37.661  1.00  0.00     0.000 A 
ENDBRANCH  59  72
ENDBRANCH  33  34
ENDBRANCH  26  28
ENDBRANCH  25  26
ENDBRANCH  24  25
ENDBRANCH  23  24
ENDBRANCH  22  23
ENDBRANCH  21  22
ENDBRANCH   1  21
TORSDOF 21
ENDMDL
MODEL 2
REMARK VINA RESULT:      -9.2      4.518     10.184
REMARK SMILES CCC[C@H](C)C(=O)N1CC[C@H](C(=O)OCCOCCOCCOC(=O)c2ccc(-c3c4nc(c(-c5ccccc5)c5ccc([nH]5)c(-c5ccccc5)c5nc(c(-c6ccccc6)c6ccc3[nH]6)C=C5)C=C4)cc2)[C@@H]1C
REMARK SMILES IDX 18 1 17 2 16 3 15 4 14 5 12 6 13 7 11 8 8 9 9 10 74 11 10 12
REMARK SMILES IDX 75 13 6 14 7 15 4 16 5 17 3 18 2 19 1 20 19 21 20 22 21 23
REMARK SMILES IDX 22 24 23 25 24 26 25 27 26 28 27 29 73 30 28 31 72 32 29 33
REMARK SMILES IDX 30 34 31 35 66 36 32 37 71 38 65 39 67 40 33 41 70 42 64 43
REMARK SMILES IDX 63 44 34 46 56 47 41 48 55 49 42 50 45 51 54 52 68 53 43 54
REMARK SMILES IDX 44 55 53 57 69 58 46 59 35 60 36 61 40 62 37 63 39 64 38 65
REMARK SMILES IDX 57 66 58 67 62 68 59 69 61 70 60 71 47 72 48 73 52 74 49 75
REMARK SMILES IDX 51 76 50 77
REMARK H PARENT 67 45 45 56
REMARK Flexibility Score: inf
ROOT
ATOM      1  C   UNL A   1      34.497  32.955  29.978  1.00  0.00     0.188 C 
ENDROOT
BRANCH   1   2
ATOM      2  O   UNL A   1      35.618  32.622  29.173  1.00  0.00    -0.376 OA
BRANCH   2   3
ATOM      3  C   UNL A   1      35.403  31.835  28.006  1.00  0.00     0.202 C 
BRANCH   3   4
ATOM      4  C   UNL A   1      34.081  31.073  27.949  1.00  0.00     0.261 C 
BRANCH   4   5
ATOM      5  O   UNL A   1      33.613  30.947  26.590  1.00  0.00    -0.463 OA
BRANCH   5   6
ATOM      6  C   UNL A   1      32.626  30.050  26.381  1.00  0.00     0.311 C 
ATOM      7  O   UNL A   1      31.574  30.317  25.807  1.00  0.00    -0.252 OA
BRANCH   6   8
ATOM      8  C   UNL A   1      32.936  28.625  26.811  1.00  0.00     0.123 C 
ATOM      9  N   UNL A   1      32.598  26.407  25.963  1.00  0.00    -0.339 N 
ATOM     10  C   UNL A   1      31.388  26.744  26.675  1.00  0.00     0.121 C 
ATOM     11  C   UNL A   1      33.537  27.534  25.898  1.00  0.00     0.096 C 
ATOM     12  C   UNL A   1      31.701  27.995  27.467  1.00  0.00     0.039 C 
ATOM     13  C   UNL A   1      33.871  27.933  24.461  1.00  0.00     0.032 C 
BRANCH   9  14
ATOM     14  C   UNL A   1      32.719  25.112  25.503  1.00  0.00     0.225 C 
ATOM     15  O   UNL A   1      31.720  24.512  25.090  1.00  0.00    -0.275 OA
BRANCH  14  16
ATOM     16  C   UNL A   1      33.998  24.312  25.778  1.00  0.00     0.075 C 
ATOM     17  C   UNL A   1      33.861  22.923  26.380  1.00  0.00     0.018 C 
BRANCH  16  18
ATOM     18  C   UNL A   1      34.869  24.312  24.500  1.00  0.00     0.013 C 
BRANCH  18  19
ATOM     19  C   UNL A   1      36.140  23.465  24.639  1.00  0.00    -0.003 C 
ATOM     20  C   UNL A   1      36.638  22.913  23.312  1.00  0.00     0.004 C 
ENDBRANCH  18  19
ENDBRANCH  16  18
ENDBRANCH  14  16
ENDBRANCH   9  14
ENDBRANCH   6   8
ENDBRANCH   5   6
ENDBRANCH   4   5
ENDBRANCH   3   4
ENDBRANCH   2   3
ENDBRANCH   1   2
BRANCH   1  21
ATOM     21  C   UNL A   1      34.666  33.968  31.125  1.00  0.00     0.188 C 
BRANCH  21  22
ATOM     22  O   UNL A   1      33.724  34.040  32.178  1.00  0.00    -0.376 OA
BRANCH  22  23
ATOM     23  C   UNL A   1      34.165  33.760  33.497  1.00  0.00     0.202 C 
BRANCH  23  24
ATOM     24  C   UNL A   1      35.655  33.476  33.691  1.00  0.00     0.261 C 
BRANCH  24  25
ATOM     25  O   UNL A   1      35.981  32.088  33.507  1.00  0.00    -0.460 OA
BRANCH  25  26
ATOM     26  C   UNL A   1      37.173  31.704  34.029  1.00  0.00     0.338 C 
ATOM     27  O   UNL A   1      37.521  31.732  35.194  1.00  0.00    -0.246 OA
BRANCH  26  28
ATOM     28  C   UNL A   1      37.991  31.088  32.969  1.00  0.00     0.060 A 
ATOM     29  C   UNL A   1      39.058  30.263  33.344  1.00  0.00     0.016 A 
ATOM     30  C   UNL A   1      37.767  31.400  31.628  1.00  0.00     0.016 A 
ATOM     31  C   UNL A   1      39.924  29.759  32.373  1.00  0.00     0.010 A 
ATOM     32  C   UNL A   1      38.651  30.919  30.660  1.00  0.00     0.010 A 
ATOM     33  C   UNL A   1      39.750  30.121  31.031  1.00  0.00    -0.014 A 
BRANCH  33  34
ATOM     34  C   UNL A   1      40.814  29.830  30.042  1.00  0.00     0.031 A 
ATOM     35  C   UNL A   1      40.824  28.482  29.373  1.00  0.00     0.074 A 
ATOM     36  C   UNL A   1      41.749  30.744  29.732  1.00  0.00     0.049 A 
ATOM     37  N   UNL A   1      41.708  27.966  28.560  1.00  0.00    -0.248 NA
ATOM     38  C   UNL A   1      39.680  27.601  29.661  1.00  0.00     0.031 C 
ATOM     39  C   UNL A   1      41.809  32.109  30.251  1.00  0.00     0.029 A 
ATOM     40  N   UNL A   1      42.838  30.651  28.900  1.00  0.00    -0.354 N 
ATOM     41  C   UNL A   1      41.233  26.698  28.247  1.00  0.00     0.074 A 
ATOM     42  C   UNL A   1      39.995  26.515  28.973  1.00  0.00     0.031 C 
ATOM     43  C   UNL A   1      42.886  32.724  29.732  1.00  0.00     0.029 A 
ATOM     44  C   UNL A   1      43.614  31.783  28.882  1.00  0.00     0.049 A 
ATOM     45  H   UNL A   1      43.042  29.848  28.368  1.00  0.00     0.167 HD
ATOM     46  C   UNL A   1      41.779  25.768  27.428  1.00  0.00     0.031 A 
ATOM     47  C   UNL A   1      44.793  32.018  28.274  1.00  0.00     0.031 A 
ATOM     48  C   UNL A   1      43.019  25.939  26.720  1.00  0.00     0.049 A 
ATOM     49  C   UNL A   1      45.434  30.927  27.456  1.00  0.00     0.074 A 
ATOM     50  C   UNL A   1      43.665  25.047  25.883  1.00  0.00     0.029 A 
ATOM     51  N   UNL A   1      43.800  27.083  26.769  1.00  0.00    -0.354 N 
ATOM     52  N   UNL A   1      44.986  29.726  27.179  1.00  0.00    -0.248 NA
ATOM     53  C   UNL A   1      46.749  31.226  26.869  1.00  0.00     0.031 C 
ATOM     54  C   UNL A   1      44.862  25.633  25.461  1.00  0.00     0.029 A 
ATOM     55  C   UNL A   1      44.933  26.912  25.992  1.00  0.00     0.049 A 
ATOM     56  H   UNL A   1      43.581  27.895  27.280  1.00  0.00     0.167 HD
ATOM     57  C   UNL A   1      45.946  29.141  26.360  1.00  0.00     0.074 A 
ATOM     58  C   UNL A   1      46.994  30.123  26.177  1.00  0.00     0.031 C 
ATOM     59  C   UNL A   1      45.960  27.903  25.811  1.00  0.00     0.031 A 
BRANCH  46  60
ATOM     60  C   UNL A   1      41.052  24.461  27.288  1.00  0.00    -0.014 A 
ATOM     61  C   UNL A   1      39.880  24.358  26.523  1.00  0.00     0.009 A 
ATOM     62  C   UNL A   1      41.562  23.311  27.910  1.00  0.00     0.009 A 
ATOM     63  C   UNL A   1      39.218  23.134  26.405  1.00  0.00     0.001 A 
ATOM     64  C   UNL A   1      40.913  22.083  27.769  1.00  0.00     0.001 A 
ATOM     65  C   UNL A   1      39.738  21.997  27.025  1.00  0.00     0.000 A 
ENDBRANCH  46  60
BRANCH  47  66
ATOM     66  C   UNL A   1      45.479  33.327  28.440  1.00  0.00    -0.014 A 
ATOM     67  C   UNL A   1      45.262  34.371  27.527  1.00  0.00     0.009 A 
ATOM     68  C   UNL A   1      46.397  33.522  29.484  1.00  0.00     0.009 A 
ATOM     69  C   UNL A   1      45.972  35.568  27.637  1.00  0.00     0.001 A 
ATOM     70  C   UNL A   1      47.084  34.731  29.610  1.00  0.00     0.001 A 
ATOM     71  C   UNL A   1      46.880  35.749  28.680  1.00  0.00     0.000 A 
ENDBRANCH  47  66
BRANCH  59  72
ATOM     72  C   UNL A   1      47.117  27.557  24.916  1.00  0.00    -0.014 A 
ATOM     73  C   UNL A   1      47.120  27.905  23.556  1.00  0.00     0.009 A 
ATOM     74  C   UNL A   1      48.240  26.911  25.455  1.00  0.00     0.009 A 
ATOM     75  C   UNL A   1      48.212  27.582  22.748  1.00  0.00     0.001 A 
ATOM     76  C   UNL A   1      49.343  26.616  24.652  1.00  0.00     0.001 A 
ATOM     77  C   UNL A   1      49.323  26.942  23.297  1.00  0.00     0.000 A 
ENDBRANCH  59  72
ENDBRANCH  33  34
ENDBRANCH  26  28
ENDBRANCH  25  26
ENDBRANCH  24  25
ENDBRANCH  23  24
ENDBRANCH  22  23
ENDBRANCH  21  22
ENDBRANCH   1  21
TORSDOF 21
ENDMDL
MODEL 3
REMARK VINA RESULT:      -9.1      4.635      7.103
REMARK SMILES CCC[C@H](C)C(=O)N1CC[C@H](C(=O)OCCOCCOCCOC(=O)c2ccc(-c3c4nc(c(-c5ccccc5)c5ccc([nH]5)c(-c5ccccc5)c5nc(c(-c6ccccc6)c6ccc3[nH]6)C=C5)C=C4)cc2)[C@@H]1C
REMARK SMILES IDX 18 1 17 2 16 3 15 4 14 5 12 6 13 7 11 8 8 9 9 10 74 11 10 12
REMARK SMILES IDX 75 13 6 14 7 15 4 16 5 17 3 18 2 19 1 20 19 21 20 22 21 23
REMARK SMILES IDX 22 24 23 25 24 26 25 27 26 28 27 29 73 30 28 31 72 32 29 33
REMARK SMILES IDX 30 34 31 35 66 36 32 37 71 38 65 39 67 40 33 41 70 42 64 43
REMARK SMILES IDX 63 44 34 46 56 47 41 48 55 49 42 50 45 51 54 52 68 53 43 54
REMARK SMILES IDX 44 55 53 57 69 58 46 59 35 60 36 61 40 62 37 63 39 64 38 65
REMARK SMILES IDX 57 66 58 67 62 68 59 69 61 70 60 71 47 72 48 73 52 74 49 75
REMARK SMILES IDX 51 76 50 77
REMARK H PARENT 67 45 45 56
REMARK Flexibility Score: inf
ROOT
ATOM      1  C   UNL A   1      40.432  22.483  26.103  1.00  0.00     0.188 C 
ENDROOT
BRANCH   1   2
ATOM      2  O   UNL A   1      39.132  22.497  26.674  1.00  0.00    -0.376 OA
BRANCH   2   3
ATOM      3  C   UNL A   1      38.372  23.699  26.597  1.00  0.00     0.202 C 
BRANCH   3   4
ATOM      4  C   UNL A   1      36.986  23.574  25.968  1.00  0.00     0.261 C 
BRANCH   4   5
ATOM      5  O   UNL A   1      37.058  23.669  24.531  1.00  0.00    -0.463 OA
BRANCH   5   6
ATOM      6  C   UNL A   1      36.086  23.034  23.842  1.00  0.00     0.311 C 
ATOM      7  O   UNL A   1      36.102  22.883  22.624  1.00  0.00    -0.252 OA
BRANCH   6   8
ATOM      8  C   UNL A   1      34.991  22.405  24.690  1.00  0.00     0.123 C 
ATOM      9  N   UNL A   1      33.722  20.369  24.714  1.00  0.00    -0.339 N 
ATOM     10  C   UNL A   1      33.021  21.259  23.819  1.00  0.00     0.121 C 
ATOM     11  C   UNL A   1      34.987  20.943  25.190  1.00  0.00     0.096 C 
ATOM     12  C   UNL A   1      33.625  22.630  24.031  1.00  0.00     0.039 C 
ATOM     13  C   UNL A   1      36.194  20.079  24.828  1.00  0.00     0.032 C 
BRANCH   9  14
ATOM     14  C   UNL A   1      33.110  19.172  25.021  1.00  0.00     0.225 C 
ATOM     15  O   UNL A   1      32.866  18.894  26.201  1.00  0.00    -0.275 OA
BRANCH  14  16
ATOM     16  C   UNL A   1      33.007  18.065  23.966  1.00  0.00     0.075 C 
ATOM     17  C   UNL A   1      32.519  18.440  22.576  1.00  0.00     0.018 C 
BRANCH  16  18
ATOM     18  C   UNL A   1      34.345  17.291  23.925  1.00  0.00     0.013 C 
BRANCH  18  19
ATOM     19  C   UNL A   1      34.381  16.101  24.891  1.00  0.00    -0.003 C 
ATOM     20  C   UNL A   1      33.006  15.514  25.169  1.00  0.00     0.004 C 
ENDBRANCH  18  19
ENDBRANCH  16  18
ENDBRANCH  14  16
ENDBRANCH   9  14
ENDBRANCH   6   8
ENDBRANCH   5   6
ENDBRANCH   4   5
ENDBRANCH   3   4
ENDBRANCH   2   3
ENDBRANCH   1   2
BRANCH   1  21
ATOM     21  C   UNL A   1      41.478  21.487  26.635  1.00  0.00     0.188 C 
BRANCH  21  22
ATOM     22  O   UNL A   1      41.337  20.096  26.416  1.00  0.00    -0.376 OA
BRANCH  22  23
ATOM     23  C   UNL A   1      42.390  19.239  26.828  1.00  0.00     0.202 C 
BRANCH  23  24
ATOM     24  C   UNL A   1      43.192  18.539  25.731  1.00  0.00     0.261 C 
BRANCH  24  25
ATOM     25  O   UNL A   1      43.421  19.382  24.590  1.00  0.00    -0.460 OA
BRANCH  25  26
ATOM     26  C   UNL A   1      44.725  19.566  24.262  1.00  0.00     0.338 C 
ATOM     27  O   UNL A   1      45.471  18.784  23.704  1.00  0.00    -0.246 OA
BRANCH  26  28
ATOM     28  C   UNL A   1      45.110  20.956  24.565  1.00  0.00     0.060 A 
ATOM     29  C   UNL A   1      45.691  21.232  25.808  1.00  0.00     0.016 A 
ATOM     30  C   UNL A   1      44.814  21.985  23.671  1.00  0.00     0.016 A 
ATOM     31  C   UNL A   1      45.960  22.550  26.175  1.00  0.00     0.010 A 
ATOM     32  C   UNL A   1      45.057  23.307  24.051  1.00  0.00     0.010 A 
ATOM     33  C   UNL A   1      45.603  23.597  25.315  1.00  0.00    -0.014 A 
BRANCH  33  34
ATOM     34  C   UNL A   1      45.621  24.996  25.804  1.00  0.00     0.031 A 
ATOM     35  C   UNL A   1      46.924  25.749  25.783  1.00  0.00     0.074 A 
ATOM     36  C   UNL A   1      44.503  25.595  26.250  1.00  0.00     0.049 A 
ATOM     37  N   UNL A   1      47.204  26.936  26.253  1.00  0.00    -0.248 NA
ATOM     38  C   UNL A   1      48.062  25.067  25.142  1.00  0.00     0.031 C 
ATOM     39  C   UNL A   1      43.167  25.004  26.254  1.00  0.00     0.029 A 
ATOM     40  N   UNL A   1      44.322  26.843  26.793  1.00  0.00    -0.354 N 
ATOM     41  C   UNL A   1      48.550  27.141  25.975  1.00  0.00     0.074 A 
ATOM     42  C   UNL A   1      49.034  25.949  25.314  1.00  0.00     0.031 C 
ATOM     43  C   UNL A   1      42.302  25.887  26.785  1.00  0.00     0.029 A 
ATOM     44  C   UNL A   1      43.033  27.085  27.197  1.00  0.00     0.049 A 
ATOM     45  H   UNL A   1      45.049  27.501  26.884  1.00  0.00     0.167 HD
ATOM     46  C   UNL A   1      49.315  28.224  26.245  1.00  0.00     0.031 A 
ATOM     47  C   UNL A   1      42.513  28.140  27.853  1.00  0.00     0.031 A 
ATOM     48  C   UNL A   1      48.841  29.403  26.918  1.00  0.00     0.049 A 
ATOM     49  C   UNL A   1      43.411  29.287  28.240  1.00  0.00     0.074 A 
ATOM     50  C   UNL A   1      49.545  30.545  27.257  1.00  0.00     0.029 A 
ATOM     51  N   UNL A   1      47.540  29.588  27.356  1.00  0.00    -0.354 N 
ATOM     52  N   UNL A   1      44.684  29.465  27.987  1.00  0.00    -0.248 NA
ATOM     53  C   UNL A   1      42.794  30.380  29.008  1.00  0.00     0.031 C 
ATOM     54  C   UNL A   1      48.679  31.403  27.943  1.00  0.00     0.029 A 
ATOM     55  C   UNL A   1      47.424  30.818  27.981  1.00  0.00     0.049 A 
ATOM     56  H   UNL A   1      46.807  28.940  27.241  1.00  0.00     0.167 HD
ATOM     57  C   UNL A   1      45.012  30.701  28.534  1.00  0.00     0.074 A 
ATOM     58  C   UNL A   1      43.801  31.233  29.122  1.00  0.00     0.031 C 
ATOM     59  C   UNL A   1      46.209  31.337  28.550  1.00  0.00     0.031 A 
BRANCH  46  60
ATOM     60  C   UNL A   1      50.762  28.164  25.844  1.00  0.00    -0.014 A 
ATOM     61  C   UNL A   1      51.192  28.640  24.595  1.00  0.00     0.009 A 
ATOM     62  C   UNL A   1      51.711  27.648  26.739  1.00  0.00     0.009 A 
ATOM     63  C   UNL A   1      52.541  28.575  24.241  1.00  0.00     0.001 A 
ATOM     64  C   UNL A   1      53.062  27.609  26.393  1.00  0.00     0.001 A 
ATOM     65  C   UNL A   1      53.475  28.064  25.142  1.00  0.00     0.000 A 
ENDBRANCH  46  60
BRANCH  47  66
ATOM     66  C   UNL A   1      41.074  28.158  28.231  1.00  0.00    -0.014 A 
ATOM     67  C   UNL A   1      40.604  27.379  29.300  1.00  0.00     0.009 A 
ATOM     68  C   UNL A   1      40.154  28.917  27.491  1.00  0.00     0.009 A 
ATOM     69  C   UNL A   1      39.241  27.333  29.597  1.00  0.00     0.001 A 
ATOM     70  C   UNL A   1      38.795  28.894  27.811  1.00  0.00     0.001 A 
ATOM     71  C   UNL A   1      38.337  28.093  28.855  1.00  0.00     0.000 A 
ENDBRANCH  47  66
BRANCH  59  72
ATOM     72  C   UNL A   1      46.256  32.704  29.176  1.00  0.00    -0.014 A 
ATOM     73  C   UNL A   1      45.968  33.859  28.432  1.00  0.00     0.009 A 
ATOM     74  C   UNL A   1      46.552  32.829  30.541  1.00  0.00     0.009 A 
ATOM     75  C   UNL A   1      46.007  35.115  29.040  1.00  0.00     0.001 A 
ATOM     76  C   UNL A   1      46.562  34.084  31.153  1.00  0.00     0.001 A 
ATOM     77  C   UNL A   1      46.300  35.227  30.399  1.00  0.00     0.000 A 
ENDBRANCH  59  72
ENDBRANCH  33  34
ENDBRANCH  26  28
ENDBRANCH  25  26
ENDBRANCH  24  25
ENDBRANCH  23  24
ENDBRANCH  22  23
ENDBRANCH  21  22
ENDBRANCH   1  21
TORSDOF 21
ENDMDL
