MODEL 1
REMARK VINA RESULT:     -10.0      0.000      0.000
REMARK SMILES CN(CC(N)=O)S(=O)(=O)c1ccc(C(=O)OCCOCCOCCOC(=O)c2ccc(-c3c4nc(c(-c5ccccc5)c5ccc([nH]5)c(-c5ccccc5)c5nc(c(-c6ccccc6)c6ccc3[nH]6)C=C5)C=C4)cc2)cc1Br
REMARK SMILES IDX 20 1 19 2 18 3 17 4 16 5 14 6 15 7 13 8 10 9 11 10 77 11
REMARK SMILES IDX 12 12 76 13 78 14 7 15 8 16 9 17 2 18 1 19 3 20 4 21 5 22
REMARK SMILES IDX 6 23 21 26 22 27 23 28 24 29 25 30 26 31 27 32 28 33 29 34
REMARK SMILES IDX 75 35 30 36 74 37 31 38 32 39 33 40 68 41 34 42 73 43 67 44
REMARK SMILES IDX 69 45 35 46 72 47 66 48 65 49 36 51 58 52 43 53 57 54 44 55
REMARK SMILES IDX 47 56 56 57 70 58 45 59 46 60 55 62 71 63 48 64 37 65 38 66
REMARK SMILES IDX 42 67 39 68 41 69 40 70 59 71 60 72 64 73 61 74 63 75 62 76
REMARK SMILES IDX 49 77 50 78 54 79 51 80 53 81 52 82
REMARK H PARENT 5 24 5 25 69 50 47 61
REMARK Flexibility Score: inf
ROOT
ATOM      1  C   UNL A   1      40.605  20.920  27.205  1.00  0.00     0.188 C 
ENDROOT
BRANCH   1   2
ATOM      2  O   UNL A   1      39.844  20.954  26.015  1.00  0.00    -0.376 OA
BRANCH   2   3
ATOM      3  C   UNL A   1      38.789  21.887  25.858  1.00  0.00     0.202 C 
BRANCH   3   4
ATOM      4  C   UNL A   1      37.446  21.471  25.257  1.00  0.00     0.261 C 
BRANCH   4   5
ATOM      5  O   UNL A   1      36.306  22.069  25.891  1.00  0.00    -0.460 OA
BRANCH   5   6
ATOM      6  C   UNL A   1      35.113  21.697  25.368  1.00  0.00     0.338 C 
ATOM      7  O   UNL A   1      34.516  20.651  25.554  1.00  0.00    -0.246 OA
BRANCH   6   8
ATOM      8  C   UNL A   1      34.504  22.829  24.647  1.00  0.00     0.061 A 
ATOM      9  C   UNL A   1      33.542  24.992  23.146  1.00  0.00     0.096 A 
ATOM     10  C   UNL A   1      33.724  23.722  22.556  1.00  0.00     0.024 A 
ATOM     11  C   UNL A   1      33.832  25.166  24.503  1.00  0.00     0.038 A 
ATOM     12  C   UNL A   1      34.227  22.655  23.293  1.00  0.00     0.017 A 
ATOM     13  C   UNL A   1      34.277  24.064  25.261  1.00  0.00     0.032 A 
ATOM     14  Br  UNL A   1      33.804  26.809  25.450  1.00  0.00    -0.049 Br
BRANCH   9  15
ATOM     15  S   UNL A   1      33.086  26.249  21.969  1.00  0.00     0.244 S 
ATOM     16  O   UNL A   1      32.983  25.569  20.693  1.00  0.00    -0.207 OA
ATOM     17  O   UNL A   1      34.053  27.307  22.169  1.00  0.00    -0.207 OA
BRANCH  15  18
ATOM     18  N   UNL A   1      31.551  26.854  22.328  1.00  0.00    -0.192 NA
ATOM     19  C   UNL A   1      30.745  25.948  23.185  1.00  0.00     0.125 C 
BRANCH  18  20
ATOM     20  C   UNL A   1      31.459  28.273  22.753  1.00  0.00     0.201 C 
BRANCH  20  21
ATOM     21  C   UNL A   1      30.303  29.073  22.176  1.00  0.00     0.232 C 
ATOM     22  N   UNL A   1      30.641  30.210  21.501  1.00  0.00    -0.369 N 
ATOM     23  O   UNL A   1      29.128  28.731  22.271  1.00  0.00    -0.274 OA
ATOM     24  H   UNL A   1      31.585  30.479  21.428  1.00  0.00     0.159 HD
ATOM     25  H   UNL A   1      29.939  30.763  21.084  1.00  0.00     0.159 HD
ENDBRANCH  20  21
ENDBRANCH  18  20
ENDBRANCH  15  18
ENDBRANCH   9  15
ENDBRANCH   6   8
ENDBRANCH   5   6
ENDBRANCH   4   5
ENDBRANCH   3   4
ENDBRANCH   2   3
ENDBRANCH   1   2
BRANCH   1  26
ATOM     26  C   UNL A   1      42.091  20.506  27.200  1.00  0.00     0.188 C 
BRANCH  26  27
ATOM     27  O   UNL A   1      43.101  21.353  26.692  1.00  0.00    -0.376 OA
BRANCH  27  28
ATOM     28  C   UNL A   1      43.500  21.283  25.335  1.00  0.00     0.202 C 
BRANCH  28  29
ATOM     29  C   UNL A   1      44.289  22.402  24.649  1.00  0.00     0.261 C 
BRANCH  29  30
ATOM     30  O   UNL A   1      43.652  23.682  24.633  1.00  0.00    -0.460 OA
BRANCH  30  31
ATOM     31  C   UNL A   1      44.423  24.704  25.088  1.00  0.00     0.338 C 
ATOM     32  O   UNL A   1      45.489  25.082  24.657  1.00  0.00    -0.246 OA
BRANCH  31  33
ATOM     33  C   UNL A   1      43.674  25.433  26.127  1.00  0.00     0.060 A 
ATOM     34  C   UNL A   1      44.017  26.767  26.378  1.00  0.00     0.016 A 
ATOM     35  C   UNL A   1      42.681  24.797  26.872  1.00  0.00     0.016 A 
ATOM     36  C   UNL A   1      43.370  27.472  27.391  1.00  0.00     0.010 A 
ATOM     37  C   UNL A   1      42.049  25.498  27.900  1.00  0.00     0.010 A 
ATOM     38  C   UNL A   1      42.405  26.830  28.177  1.00  0.00    -0.014 A 
BRANCH  38  39
ATOM     39  C   UNL A   1      41.859  27.500  29.378  1.00  0.00     0.031 A 
ATOM     40  C   UNL A   1      40.566  28.255  29.264  1.00  0.00     0.074 A 
ATOM     41  C   UNL A   1      42.512  27.448  30.552  1.00  0.00     0.049 A 
ATOM     42  N   UNL A   1      39.950  28.980  30.159  1.00  0.00    -0.248 NA
ATOM     43  C   UNL A   1      39.879  28.182  27.964  1.00  0.00     0.031 C 
ATOM     44  C   UNL A   1      43.749  26.711  30.803  1.00  0.00     0.029 A 
ATOM     45  N   UNL A   1      42.223  28.046  31.753  1.00  0.00    -0.354 N 
ATOM     46  C   UNL A   1      38.805  29.455  29.532  1.00  0.00     0.074 A 
ATOM     47  C   UNL A   1      38.824  28.955  28.174  1.00  0.00     0.031 C 
ATOM     48  C   UNL A   1      44.123  26.914  32.080  1.00  0.00     0.029 A 
ATOM     49  C   UNL A   1      43.173  27.823  32.718  1.00  0.00     0.049 A 
ATOM     50  H   UNL A   1      41.413  28.583  31.906  1.00  0.00     0.167 HD
ATOM     51  C   UNL A   1      37.826  30.239  30.041  1.00  0.00     0.031 A 
ATOM     52  C   UNL A   1      43.280  28.324  33.964  1.00  0.00     0.031 A 
ATOM     53  C   UNL A   1      37.817  30.758  31.381  1.00  0.00     0.049 A 
ATOM     54  C   UNL A   1      42.231  29.278  34.473  1.00  0.00     0.074 A 
ATOM     55  C   UNL A   1      36.862  31.551  31.993  1.00  0.00     0.029 A 
ATOM     56  N   UNL A   1      38.820  30.547  32.313  1.00  0.00    -0.354 N 
ATOM     57  N   UNL A   1      41.140  29.700  33.881  1.00  0.00    -0.248 NA
ATOM     58  C   UNL A   1      42.431  29.825  35.823  1.00  0.00     0.031 C 
ATOM     59  C   UNL A   1      37.315  31.867  33.277  1.00  0.00     0.029 A 
ATOM     60  C   UNL A   1      38.525  31.225  33.485  1.00  0.00     0.049 A 
ATOM     61  H   UNL A   1      39.624  29.998  32.165  1.00  0.00     0.167 HD
ATOM     62  C   UNL A   1      40.514  30.541  34.793  1.00  0.00     0.074 A 
ATOM     63  C   UNL A   1      41.339  30.559  35.983  1.00  0.00     0.031 C 
ATOM     64  C   UNL A   1      39.358  31.235  34.659  1.00  0.00     0.031 A 
BRANCH  51  65
ATOM     65  C   UNL A   1      36.700  30.617  29.122  1.00  0.00    -0.014 A 
ATOM     66  C   UNL A   1      35.763  29.665  28.689  1.00  0.00     0.009 A 
ATOM     67  C   UNL A   1      36.557  31.951  28.709  1.00  0.00     0.009 A 
ATOM     68  C   UNL A   1      34.724  30.038  27.833  1.00  0.00     0.001 A 
ATOM     69  C   UNL A   1      35.503  32.325  27.876  1.00  0.00     0.001 A 
ATOM     70  C   UNL A   1      34.592  31.368  27.431  1.00  0.00     0.000 A 
ENDBRANCH  51  65
BRANCH  52  71
ATOM     71  C   UNL A   1      44.445  27.966  34.815  1.00  0.00    -0.014 A 
ATOM     72  C   UNL A   1      45.704  28.539  34.581  1.00  0.00     0.009 A 
ATOM     73  C   UNL A   1      44.308  27.026  35.848  1.00  0.00     0.009 A 
ATOM     74  C   UNL A   1      46.807  28.160  35.350  1.00  0.00     0.001 A 
ATOM     75  C   UNL A   1      45.407  26.669  36.633  1.00  0.00     0.001 A 
ATOM     76  C   UNL A   1      46.656  27.230  36.377  1.00  0.00     0.000 A 
ENDBRANCH  52  71
BRANCH  64  77
ATOM     77  C   UNL A   1      38.898  32.051  35.835  1.00  0.00    -0.014 A 
ATOM     78  C   UNL A   1      39.191  33.420  35.929  1.00  0.00     0.009 A 
ATOM     79  C   UNL A   1      38.113  31.452  36.832  1.00  0.00     0.009 A 
ATOM     80  C   UNL A   1      38.726  34.167  37.015  1.00  0.00     0.001 A 
ATOM     81  C   UNL A   1      37.627  32.207  37.901  1.00  0.00     0.001 A 
ATOM     82  C   UNL A   1      37.941  33.562  37.995  1.00  0.00     0.000 A 
ENDBRANCH  64  77
ENDBRANCH  38  39
ENDBRANCH  31  33
ENDBRANCH  30  31
ENDBRANCH  29  30
ENDBRANCH  28  29
ENDBRANCH  27  28
ENDBRANCH  26  27
ENDBRANCH   1  26
TORSDOF 21
ENDMDL
MODEL 2
REMARK VINA RESULT:      -9.7      2.098      6.430
REMARK SMILES CN(CC(N)=O)S(=O)(=O)c1ccc(C(=O)OCCOCCOCCOC(=O)c2ccc(-c3c4nc(c(-c5ccccc5)c5ccc([nH]5)c(-c5ccccc5)c5nc(c(-c6ccccc6)c6ccc3[nH]6)C=C5)C=C4)cc2)cc1Br
REMARK SMILES IDX 20 1 19 2 18 3 17 4 16 5 14 6 15 7 13 8 10 9 11 10 77 11
REMARK SMILES IDX 12 12 76 13 78 14 7 15 8 16 9 17 2 18 1 19 3 20 4 21 5 22
REMARK SMILES IDX 6 23 21 26 22 27 23 28 24 29 25 30 26 31 27 32 28 33 29 34
REMARK SMILES IDX 75 35 30 36 74 37 31 38 32 39 33 40 68 41 34 42 73 43 67 44
REMARK SMILES IDX 69 45 35 46 72 47 66 48 65 49 36 51 58 52 43 53 57 54 44 55
REMARK SMILES IDX 47 56 56 57 70 58 45 59 46 60 55 62 71 63 48 64 37 65 38 66
REMARK SMILES IDX 42 67 39 68 41 69 40 70 59 71 60 72 64 73 61 74 63 75 62 76
REMARK SMILES IDX 49 77 50 78 54 79 51 80 53 81 52 82
REMARK H PARENT 5 24 5 25 69 50 47 61
REMARK Flexibility Score: inf
ROOT
ATOM      1  C   UNL A   1      43.735  19.028  25.123  1.00  0.00     0.188 C 
ENDROOT
BRANCH   1   2
ATOM      2  O   UNL A   1      42.820  19.463  26.108  1.00  0.00    -0.376 OA
BRANCH   2   3
ATOM      3  C   UNL A   1      41.768  20.353  25.774  1.00  0.00     0.202 C 
BRANCH   3   4
ATOM      4  C   UNL A   1      40.614  20.615  26.743  1.00  0.00     0.261 C 
BRANCH   4   5
ATOM      5  O   UNL A   1      39.352  20.853  26.104  1.00  0.00    -0.460 OA
BRANCH   5   6
ATOM      6  C   UNL A   1      38.909  22.130  26.194  1.00  0.00     0.338 C 
ATOM      7  O   UNL A   1      39.558  23.120  26.483  1.00  0.00    -0.246 OA
BRANCH   6   8
ATOM      8  C   UNL A   1      37.519  22.218  25.711  1.00  0.00     0.061 A 
ATOM      9  C   UNL A   1      34.962  22.366  24.572  1.00  0.00     0.096 A 
ATOM     10  C   UNL A   1      35.712  21.170  24.523  1.00  0.00     0.024 A 
ATOM     11  C   UNL A   1      35.501  23.487  25.212  1.00  0.00     0.038 A 
ATOM     12  C   UNL A   1      36.991  21.103  25.064  1.00  0.00     0.017 A 
ATOM     13  C   UNL A   1      36.771  23.393  25.817  1.00  0.00     0.032 A 
ATOM     14  Br  UNL A   1      34.735  25.221  25.259  1.00  0.00    -0.049 Br
BRANCH   9  15
ATOM     15  S   UNL A   1      33.446  22.277  23.642  1.00  0.00     0.244 S 
ATOM     16  O   UNL A   1      33.127  20.866  23.550  1.00  0.00    -0.207 OA
ATOM     17  O   UNL A   1      33.700  23.060  22.451  1.00  0.00    -0.207 OA
BRANCH  15  18
ATOM     18  N   UNL A   1      32.191  23.008  24.502  1.00  0.00    -0.192 NA
ATOM     19  C   UNL A   1      31.043  23.406  23.648  1.00  0.00     0.125 C 
BRANCH  18  20
ATOM     20  C   UNL A   1      31.763  22.362  25.768  1.00  0.00     0.201 C 
BRANCH  20  21
ATOM     21  C   UNL A   1      31.831  23.224  27.018  1.00  0.00     0.232 C 
ATOM     22  N   UNL A   1      31.548  24.549  26.848  1.00  0.00    -0.369 N 
ATOM     23  O   UNL A   1      32.095  22.782  28.133  1.00  0.00    -0.274 OA
ATOM     24  H   UNL A   1      31.337  24.896  25.952  1.00  0.00     0.159 HD
ATOM     25  H   UNL A   1      31.554  25.157  27.623  1.00  0.00     0.159 HD
ENDBRANCH  20  21
ENDBRANCH  18  20
ENDBRANCH  15  18
ENDBRANCH   9  15
ENDBRANCH   6   8
ENDBRANCH   5   6
ENDBRANCH   4   5
ENDBRANCH   3   4
ENDBRANCH   2   3
ENDBRANCH   1   2
BRANCH   1  26
ATOM     26  C   UNL A   1      45.213  18.748  25.464  1.00  0.00     0.188 C 
BRANCH  26  27
ATOM     27  O   UNL A   1      46.240  19.666  25.153  1.00  0.00    -0.376 OA
BRANCH  27  28
ATOM     28  C   UNL A   1      45.939  20.994  24.760  1.00  0.00     0.202 C 
BRANCH  28  29
ATOM     29  C   UNL A   1      45.796  22.139  25.768  1.00  0.00     0.261 C 
BRANCH  29  30
ATOM     30  O   UNL A   1      44.467  22.380  26.237  1.00  0.00    -0.460 OA
BRANCH  30  31
ATOM     31  C   UNL A   1      43.875  23.485  25.715  1.00  0.00     0.338 C 
ATOM     32  O   UNL A   1      43.495  23.661  24.580  1.00  0.00    -0.246 OA
BRANCH  31  33
ATOM     33  C   UNL A   1      43.592  24.431  26.811  1.00  0.00     0.060 A 
ATOM     34  C   UNL A   1      42.798  23.991  27.876  1.00  0.00     0.016 A 
ATOM     35  C   UNL A   1      44.065  25.742  26.764  1.00  0.00     0.016 A 
ATOM     36  C   UNL A   1      42.462  24.872  28.902  1.00  0.00     0.010 A 
ATOM     37  C   UNL A   1      43.711  26.629  27.781  1.00  0.00     0.010 A 
ATOM     38  C   UNL A   1      42.892  26.204  28.843  1.00  0.00    -0.014 A 
BRANCH  38  39
ATOM     39  C   UNL A   1      42.377  27.194  29.814  1.00  0.00     0.031 A 
ATOM     40  C   UNL A   1      43.085  27.357  31.128  1.00  0.00     0.074 A 
ATOM     41  C   UNL A   1      41.288  27.931  29.535  1.00  0.00     0.049 A 
ATOM     42  N   UNL A   1      42.764  28.100  32.155  1.00  0.00    -0.248 NA
ATOM     43  C   UNL A   1      44.318  26.573  31.309  1.00  0.00     0.031 C 
ATOM     44  C   UNL A   1      40.541  27.899  28.279  1.00  0.00     0.029 A 
ATOM     45  N   UNL A   1      40.614  28.842  30.308  1.00  0.00    -0.354 N 
ATOM     46  C   UNL A   1      43.751  27.872  33.105  1.00  0.00     0.074 A 
ATOM     47  C   UNL A   1      44.668  26.905  32.543  1.00  0.00     0.031 C 
ATOM     48  C   UNL A   1      39.498  28.745  28.373  1.00  0.00     0.029 A 
ATOM     49  C   UNL A   1      39.486  29.343  29.706  1.00  0.00     0.049 A 
ATOM     50  H   UNL A   1      40.910  29.110  31.208  1.00  0.00     0.167 HD
ATOM     51  C   UNL A   1      43.880  28.419  34.337  1.00  0.00     0.031 A 
ATOM     52  C   UNL A   1      38.535  30.165  30.191  1.00  0.00     0.031 A 
ATOM     53  C   UNL A   1      42.956  29.360  34.907  1.00  0.00     0.049 A 
ATOM     54  C   UNL A   1      38.647  30.679  31.602  1.00  0.00     0.074 A 
ATOM     55  C   UNL A   1      43.011  29.980  36.143  1.00  0.00     0.029 A 
ATOM     56  N   UNL A   1      41.803  29.808  34.283  1.00  0.00    -0.354 N 
ATOM     57  N   UNL A   1      39.597  30.478  32.484  1.00  0.00    -0.248 NA
ATOM     58  C   UNL A   1      37.552  31.534  32.085  1.00  0.00     0.031 C 
ATOM     59  C   UNL A   1      41.858  30.759  36.290  1.00  0.00     0.029 A 
ATOM     60  C   UNL A   1      41.117  30.668  35.124  1.00  0.00     0.049 A 
ATOM     61  H   UNL A   1      41.513  29.552  33.378  1.00  0.00     0.167 HD
ATOM     62  C   UNL A   1      39.227  31.197  33.613  1.00  0.00     0.074 A 
ATOM     63  C   UNL A   1      37.973  31.852  33.302  1.00  0.00     0.031 C 
ATOM     64  C   UNL A   1      39.868  31.309  34.801  1.00  0.00     0.031 A 
BRANCH  51  65
ATOM     65  C   UNL A   1      45.049  27.973  35.167  1.00  0.00    -0.014 A 
ATOM     66  C   UNL A   1      44.974  26.827  35.974  1.00  0.00     0.009 A 
ATOM     67  C   UNL A   1      46.252  28.694  35.117  1.00  0.00     0.009 A 
ATOM     68  C   UNL A   1      46.074  26.431  36.739  1.00  0.00     0.001 A 
ATOM     69  C   UNL A   1      47.357  28.281  35.862  1.00  0.00     0.001 A 
ATOM     70  C   UNL A   1      47.265  27.155  36.679  1.00  0.00     0.000 A 
ENDBRANCH  51  65
BRANCH  52  71
ATOM     71  C   UNL A   1      37.366  30.530  29.350  1.00  0.00    -0.014 A 
ATOM     72  C   UNL A   1      36.371  29.585  29.058  1.00  0.00     0.009 A 
ATOM     73  C   UNL A   1      37.254  31.822  28.810  1.00  0.00     0.009 A 
ATOM     74  C   UNL A   1      35.301  29.919  28.224  1.00  0.00     0.001 A 
ATOM     75  C   UNL A   1      36.169  32.160  27.998  1.00  0.00     0.001 A 
ATOM     76  C   UNL A   1      35.199  31.206  27.699  1.00  0.00     0.000 A 
ENDBRANCH  52  71
BRANCH  64  77
ATOM     77  C   UNL A   1      39.244  32.191  35.846  1.00  0.00    -0.014 A 
ATOM     78  C   UNL A   1      39.533  33.563  35.907  1.00  0.00     0.009 A 
ATOM     79  C   UNL A   1      38.311  31.651  36.744  1.00  0.00     0.009 A 
ATOM     80  C   UNL A   1      38.917  34.371  36.865  1.00  0.00     0.001 A 
ATOM     81  C   UNL A   1      37.676  32.467  37.683  1.00  0.00     0.001 A 
ATOM     82  C   UNL A   1      37.986  33.824  37.747  1.00  0.00     0.000 A 
ENDBRANCH  64  77
ENDBRANCH  38  39
ENDBRANCH  31  33
ENDBRANCH  30  31
ENDBRANCH  29  30
ENDBRANCH  28  29
ENDBRANCH  27  28
ENDBRANCH  26  27
ENDBRANCH   1  26
TORSDOF 21
ENDMDL
MODEL 3
REMARK VINA RESULT:      -9.5      1.300      6.063
REMARK SMILES CN(CC(N)=O)S(=O)(=O)c1ccc(C(=O)OCCOCCOCCOC(=O)c2ccc(-c3c4nc(c(-c5ccccc5)c5ccc([nH]5)c(-c5ccccc5)c5nc(c(-c6ccccc6)c6ccc3[nH]6)C=C5)C=C4)cc2)cc1Br
REMARK SMILES IDX 20 1 19 2 18 3 17 4 16 5 14 6 15 7 13 8 10 9 11 10 77 11
REMARK SMILES IDX 12 12 76 13 78 14 7 15 8 16 9 17 2 18 1 19 3 20 4 21 5 22
REMARK SMILES IDX 6 23 21 26 22 27 23 28 24 29 25 30 26 31 27 32 28 33 29 34
REMARK SMILES IDX 75 35 30 36 74 37 31 38 32 39 33 40 68 41 34 42 73 43 67 44
REMARK SMILES IDX 69 45 35 46 72 47 66 48 65 49 36 51 58 52 43 53 57 54 44 55
REMARK SMILES IDX 47 56 56 57 70 58 45 59 46 60 55 62 71 63 48 64 37 65 38 66
REMARK SMILES IDX 42 67 39 68 41 69 40 70 59 71 60 72 64 73 61 74 63 75 62 76
REMARK SMILES IDX 49 77 50 78 54 79 51 80 53 81 52 82
REMARK H PARENT 5 24 5 25 69 50 47 61
REMARK Flexibility Score: inf
ROOT
ATOM      1  C   UNL A   1      38.472  21.551  25.368  1.00  0.00     0.188 C 
ENDROOT
BRANCH   1   2
ATOM      2  O   UNL A   1      37.466  20.592  25.113  1.00  0.00    -0.376 OA
BRANCH   2   3
ATOM      3  C   UNL A   1      36.119  20.843  25.475  1.00  0.00     0.202 C 
BRANCH   3   4
ATOM      4  C   UNL A   1      35.183  21.621  24.551  1.00  0.00     0.261 C 
BRANCH   4   5
ATOM      5  O   UNL A   1      35.181  23.039  24.772  1.00  0.00    -0.460 OA
BRANCH   5   6
ATOM      6  C   UNL A   1      34.333  23.457  25.741  1.00  0.00     0.338 C 
ATOM      7  O   UNL A   1      34.211  23.001  26.865  1.00  0.00    -0.246 OA
BRANCH   6   8
ATOM      8  C   UNL A   1      33.659  24.699  25.322  1.00  0.00     0.061 A 
ATOM      9  C   UNL A   1      32.591  27.153  24.488  1.00  0.00     0.096 A 
ATOM     10  C   UNL A   1      33.255  26.301  23.577  1.00  0.00     0.024 A 
ATOM     11  C   UNL A   1      32.454  26.756  25.822  1.00  0.00     0.038 A 
ATOM     12  C   UNL A   1      33.808  25.096  23.996  1.00  0.00     0.017 A 
ATOM     13  C   UNL A   1      32.958  25.502  26.225  1.00  0.00     0.032 A 
ATOM     14  Br  UNL A   1      31.740  27.805  27.231  1.00  0.00    -0.049 Br
BRANCH   9  15
ATOM     15  S   UNL A   1      32.148  28.724  23.776  1.00  0.00     0.244 S 
ATOM     16  O   UNL A   1      32.479  28.622  22.370  1.00  0.00    -0.207 OA
ATOM     17  O   UNL A   1      32.794  29.705  24.623  1.00  0.00    -0.207 OA
BRANCH  15  18
ATOM     18  N   UNL A   1      30.478  28.956  23.872  1.00  0.00    -0.192 NA
ATOM     19  C   UNL A   1      30.091  30.371  24.100  1.00  0.00     0.125 C 
BRANCH  18  20
ATOM     20  C   UNL A   1      29.636  28.293  22.845  1.00  0.00     0.201 C 
BRANCH  20  21
ATOM     21  C   UNL A   1      28.193  28.020  23.234  1.00  0.00     0.232 C 
ATOM     22  N   UNL A   1      27.955  26.824  23.848  1.00  0.00    -0.369 N 
ATOM     23  O   UNL A   1      27.278  28.817  23.046  1.00  0.00    -0.274 OA
ATOM     24  H   UNL A   1      28.693  26.191  23.996  1.00  0.00     0.159 HD
ATOM     25  H   UNL A   1      27.043  26.596  24.145  1.00  0.00     0.159 HD
ENDBRANCH  20  21
ENDBRANCH  18  20
ENDBRANCH  15  18
ENDBRANCH   9  15
ENDBRANCH   6   8
ENDBRANCH   5   6
ENDBRANCH   4   5
ENDBRANCH   3   4
ENDBRANCH   2   3
ENDBRANCH   1   2
BRANCH   1  26
ATOM     26  C   UNL A   1      39.546  21.323  26.453  1.00  0.00     0.188 C 
BRANCH  26  27
ATOM     27  O   UNL A   1      40.569  20.362  26.302  1.00  0.00    -0.376 OA
BRANCH  27  28
ATOM     28  C   UNL A   1      41.915  20.670  26.618  1.00  0.00     0.202 C 
BRANCH  28  29
ATOM     29  C   UNL A   1      42.854  21.372  25.632  1.00  0.00     0.261 C 
BRANCH  29  30
ATOM     30  O   UNL A   1      42.433  22.668  25.201  1.00  0.00    -0.460 OA
BRANCH  30  31
ATOM     31  C   UNL A   1      43.396  23.624  25.258  1.00  0.00     0.338 C 
ATOM     32  O   UNL A   1      44.272  23.848  24.454  1.00  0.00    -0.246 OA
BRANCH  31  33
ATOM     33  C   UNL A   1      43.119  24.503  26.410  1.00  0.00     0.060 A 
ATOM     34  C   UNL A   1      42.084  24.145  27.281  1.00  0.00     0.016 A 
ATOM     35  C   UNL A   1      43.839  25.682  26.598  1.00  0.00     0.016 A 
ATOM     36  C   UNL A   1      41.755  24.979  28.348  1.00  0.00     0.010 A 
ATOM     37  C   UNL A   1      43.494  26.527  27.654  1.00  0.00     0.010 A 
ATOM     38  C   UNL A   1      42.439  26.189  28.521  1.00  0.00    -0.014 A 
BRANCH  38  39
ATOM     39  C   UNL A   1      41.968  27.172  29.521  1.00  0.00     0.031 A 
ATOM     40  C   UNL A   1      42.674  27.257  30.844  1.00  0.00     0.074 A 
ATOM     41  C   UNL A   1      40.919  27.971  29.261  1.00  0.00     0.049 A 
ATOM     42  N   UNL A   1      42.384  27.982  31.892  1.00  0.00    -0.248 NA
ATOM     43  C   UNL A   1      43.866  26.407  31.005  1.00  0.00     0.031 C 
ATOM     44  C   UNL A   1      40.180  28.018  28.000  1.00  0.00     0.029 A 
ATOM     45  N   UNL A   1      40.286  28.890  30.059  1.00  0.00    -0.354 N 
ATOM     46  C   UNL A   1      43.352  27.674  32.839  1.00  0.00     0.074 A 
ATOM     47  C   UNL A   1      44.224  26.681  32.250  1.00  0.00     0.031 C 
ATOM     48  C   UNL A   1      39.180  28.911  28.116  1.00  0.00     0.029 A 
ATOM     49  C   UNL A   1      39.189  29.466  29.468  1.00  0.00     0.049 A 
ATOM     50  H   UNL A   1      40.589  29.114  30.968  1.00  0.00     0.167 HD
ATOM     51  C   UNL A   1      43.500  28.174  34.089  1.00  0.00     0.031 A 
ATOM     52  C   UNL A   1      38.277  30.319  29.974  1.00  0.00     0.031 A 
ATOM     53  C   UNL A   1      42.621  29.142  34.684  1.00  0.00     0.049 A 
ATOM     54  C   UNL A   1      38.405  30.781  31.402  1.00  0.00     0.074 A 
ATOM     55  C   UNL A   1      42.698  29.718  35.940  1.00  0.00     0.029 A 
ATOM     56  N   UNL A   1      41.495  29.666  34.070  1.00  0.00    -0.354 N 
ATOM     57  N   UNL A   1      39.338  30.504  32.281  1.00  0.00    -0.248 NA
ATOM     58  C   UNL A   1      37.351  31.673  31.907  1.00  0.00     0.031 C 
ATOM     59  C   UNL A   1      41.584  30.549  36.107  1.00  0.00     0.029 A 
ATOM     60  C   UNL A   1      40.847  30.533  34.934  1.00  0.00     0.049 A 
ATOM     61  H   UNL A   1      41.199  29.454  33.155  1.00  0.00     0.167 HD
ATOM     62  C   UNL A   1      38.996  31.204  33.431  1.00  0.00     0.074 A 
ATOM     63  C   UNL A   1      37.779  31.930  33.135  1.00  0.00     0.031 C 
ATOM     64  C   UNL A   1      39.635  31.246  34.626  1.00  0.00     0.031 A 
BRANCH  51  65
ATOM     65  C   UNL A   1      44.640  27.644  34.910  1.00  0.00    -0.014 A 
ATOM     66  C   UNL A   1      44.461  26.570  35.796  1.00  0.00     0.009 A 
ATOM     67  C   UNL A   1      45.917  28.208  34.772  1.00  0.00     0.009 A 
ATOM     68  C   UNL A   1      45.535  26.093  36.551  1.00  0.00     0.001 A 
ATOM     69  C   UNL A   1      46.994  27.712  35.508  1.00  0.00     0.001 A 
ATOM     70  C   UNL A   1      46.801  26.661  36.403  1.00  0.00     0.000 A 
ENDBRANCH  51  65
BRANCH  52  71
ATOM     71  C   UNL A   1      37.133  30.769  29.140  1.00  0.00    -0.014 A 
ATOM     72  C   UNL A   1      37.017  32.110  28.747  1.00  0.00     0.009 A 
ATOM     73  C   UNL A   1      36.134  29.860  28.755  1.00  0.00     0.009 A 
ATOM     74  C   UNL A   1      35.912  32.538  28.007  1.00  0.00     0.001 A 
ATOM     75  C   UNL A   1      35.043  30.286  27.993  1.00  0.00     0.001 A 
ATOM     76  C   UNL A   1      34.930  31.625  27.627  1.00  0.00     0.000 A 
ENDBRANCH  52  71
BRANCH  64  77
ATOM     77  C   UNL A   1      39.048  32.124  35.695  1.00  0.00    -0.014 A 
ATOM     78  C   UNL A   1      38.142  31.616  36.638  1.00  0.00     0.009 A 
ATOM     79  C   UNL A   1      39.455  33.463  35.795  1.00  0.00     0.009 A 
ATOM     80  C   UNL A   1      37.633  32.441  37.644  1.00  0.00     0.001 A 
ATOM     81  C   UNL A   1      38.967  34.278  36.818  1.00  0.00     0.001 A 
ATOM     82  C   UNL A   1      38.051  33.768  37.737  1.00  0.00     0.000 A 
ENDBRANCH  64  77
ENDBRANCH  38  39
ENDBRANCH  31  33
ENDBRANCH  30  31
ENDBRANCH  29  30
ENDBRANCH  28  29
ENDBRANCH  27  28
ENDBRANCH  26  27
ENDBRANCH   1  26
TORSDOF 21
ENDMDL
