MODEL 1
REMARK VINA RESULT:     -10.5      0.000      0.000
REMARK SMILES O=C(COc1ccccc1C[NH+]1CCC2(CC[NH2+]CC2)CC1)OCCOCCOCCOC(=O)c1ccc(-c2c3nc(c(-c4ccccc4)c4ccc([nH]4)c(-c4ccccc4)c4nc(c(-c5ccccc5)c5ccc2[nH]5)C=C4)C=C3)cc1
REMARK SMILES IDX 27 1 26 2 25 3 24 4 23 5 2 6 1 7 3 8 4 9 5 10 6 11 10 12
REMARK SMILES IDX 7 13 9 14 8 15 11 16 12 17 13 18 22 19 14 21 21 22 15 23
REMARK SMILES IDX 16 24 20 25 17 26 19 27 18 28 28 31 29 32 30 33 31 34 32 35
REMARK SMILES IDX 33 36 34 37 35 38 36 39 82 40 37 41 81 42 38 43 39 44 40 45
REMARK SMILES IDX 75 46 41 47 80 48 74 49 76 50 42 51 79 52 73 53 72 54 43 56
REMARK SMILES IDX 65 57 50 58 64 59 51 60 54 61 63 62 77 63 52 64 53 65 62 67
REMARK SMILES IDX 78 68 55 69 44 70 45 71 49 72 46 73 48 74 47 75 66 76 67 77
REMARK SMILES IDX 71 78 68 79 70 80 69 81 56 82 57 83 61 84 58 85 60 86 59 87
REMARK H PARENT 12 20 18 29 18 30 76 55 54 66
REMARK Flexibility Score: inf
ROOT
ATOM      1  C   UNL A   1      46.524  18.852  25.541  1.00  0.00     0.188 C 
ENDROOT
BRANCH   1   2
ATOM      2  O   UNL A   1      45.411  18.056  25.146  1.00  0.00    -0.376 OA
BRANCH   2   3
ATOM      3  C   UNL A   1      44.164  18.721  25.060  1.00  0.00     0.202 C 
BRANCH   3   4
ATOM      4  C   UNL A   1      43.055  17.984  25.794  1.00  0.00     0.261 C 
BRANCH   4   5
ATOM      5  O   UNL A   1      41.845  18.763  25.974  1.00  0.00    -0.461 OA
BRANCH   5   6
ATOM      6  C   UNL A   1      41.641  19.845  26.765  1.00  0.00     0.344 C 
ATOM      7  O   UNL A   1      41.951  19.807  27.954  1.00  0.00    -0.248 OA
BRANCH   6   8
ATOM      8  C   UNL A   1      41.027  21.079  26.154  1.00  0.00     0.351 C 
BRANCH   8   9
ATOM      9  O   UNL A   1      39.614  20.968  25.999  1.00  0.00    -0.481 OA
BRANCH   9  10
ATOM     10  C   UNL A   1      39.001  22.157  26.282  1.00  0.00     0.129 A 
ATOM     11  C   UNL A   1      39.760  23.019  27.081  1.00  0.00     0.047 A 
ATOM     12  C   UNL A   1      37.738  22.524  25.782  1.00  0.00     0.048 A 
ATOM     13  C   UNL A   1      39.318  24.313  27.312  1.00  0.00     0.004 A 
ATOM     14  C   UNL A   1      37.390  23.877  25.917  1.00  0.00     0.013 A 
ATOM     15  C   UNL A   1      38.153  24.754  26.696  1.00  0.00     0.001 A 
BRANCH  12  16
ATOM     16  C   UNL A   1      36.779  21.578  25.077  1.00  0.00     0.302 C 
BRANCH  16  17
ATOM     17  N   UNL A   1      35.550  21.084  25.709  1.00  0.00    -0.331 N 
ATOM     18  C   UNL A   1      34.909  21.972  26.675  1.00  0.00     0.263 C 
ATOM     19  C   UNL A   1      34.584  20.399  24.877  1.00  0.00     0.263 C 
ATOM     20  H   UNL A   1      35.976  20.335  26.255  1.00  0.00     0.348 HD
ATOM     21  C   UNL A   1      34.023  23.031  26.021  1.00  0.00     0.069 C 
ATOM     22  C   UNL A   1      33.679  21.367  24.122  1.00  0.00     0.069 C 
ATOM     23  C   UNL A   1      33.003  22.438  25.010  1.00  0.00    -0.008 C 
ATOM     24  C   UNL A   1      31.806  21.773  25.736  1.00  0.00     0.069 C 
ATOM     25  C   UNL A   1      32.508  23.569  24.071  1.00  0.00     0.069 C 
ATOM     26  C   UNL A   1      30.760  22.764  26.239  1.00  0.00     0.261 C 
ATOM     27  C   UNL A   1      31.452  24.466  24.702  1.00  0.00     0.261 C 
ATOM     28  N   UNL A   1      30.323  23.672  25.180  1.00  0.00    -0.346 N 
ATOM     29  H   UNL A   1      29.603  24.296  25.546  1.00  0.00     0.346 HD
ATOM     30  H   UNL A   1      29.947  23.126  24.406  1.00  0.00     0.346 HD
ENDBRANCH  16  17
ENDBRANCH  12  16
ENDBRANCH   9  10
ENDBRANCH   8   9
ENDBRANCH   6   8
ENDBRANCH   5   6
ENDBRANCH   4   5
ENDBRANCH   3   4
ENDBRANCH   2   3
ENDBRANCH   1   2
BRANCH   1  31
ATOM     31  C   UNL A   1      46.784  20.059  24.605  1.00  0.00     0.188 C 
BRANCH  31  32
ATOM     32  O   UNL A   1      46.325  21.342  25.011  1.00  0.00    -0.376 OA
BRANCH  32  33
ATOM     33  C   UNL A   1      45.627  22.126  24.060  1.00  0.00     0.202 C 
BRANCH  33  34
ATOM     34  C   UNL A   1      44.394  22.891  24.568  1.00  0.00     0.261 C 
BRANCH  34  35
ATOM     35  O   UNL A   1      44.430  24.323  24.361  1.00  0.00    -0.460 OA
BRANCH  35  36
ATOM     36  C   UNL A   1      45.078  25.064  25.296  1.00  0.00     0.338 C 
ATOM     37  O   UNL A   1      46.275  25.315  25.318  1.00  0.00    -0.246 OA
BRANCH  36  38
ATOM     38  C   UNL A   1      44.115  25.717  26.231  1.00  0.00     0.060 A 
ATOM     39  C   UNL A   1      44.113  27.121  26.319  1.00  0.00     0.016 A 
ATOM     40  C   UNL A   1      43.275  24.982  27.068  1.00  0.00     0.016 A 
ATOM     41  C   UNL A   1      43.330  27.784  27.275  1.00  0.00     0.010 A 
ATOM     42  C   UNL A   1      42.509  25.646  28.045  1.00  0.00     0.010 A 
ATOM     43  C   UNL A   1      42.567  27.049  28.188  1.00  0.00    -0.014 A 
BRANCH  43  44
ATOM     44  C   UNL A   1      42.035  27.701  29.423  1.00  0.00     0.031 A 
ATOM     45  C   UNL A   1      40.710  28.423  29.334  1.00  0.00     0.074 A 
ATOM     46  C   UNL A   1      42.671  27.661  30.610  1.00  0.00     0.049 A 
ATOM     47  N   UNL A   1      40.083  29.136  30.238  1.00  0.00    -0.248 NA
ATOM     48  C   UNL A   1      40.001  28.327  28.048  1.00  0.00     0.031 C 
ATOM     49  C   UNL A   1      43.916  26.951  30.887  1.00  0.00     0.029 A 
ATOM     50  N   UNL A   1      42.346  28.253  31.811  1.00  0.00    -0.354 N 
ATOM     51  C   UNL A   1      38.919  29.585  29.624  1.00  0.00     0.074 A 
ATOM     52  C   UNL A   1      38.939  29.086  28.266  1.00  0.00     0.031 C 
ATOM     53  C   UNL A   1      44.262  27.164  32.172  1.00  0.00     0.029 A 
ATOM     54  C   UNL A   1      43.281  28.052  32.799  1.00  0.00     0.049 A 
ATOM     55  H   UNL A   1      41.522  28.772  31.950  1.00  0.00     0.167 HD
ATOM     56  C   UNL A   1      37.916  30.340  30.136  1.00  0.00     0.031 A 
ATOM     57  C   UNL A   1      43.356  28.544  34.054  1.00  0.00     0.031 A 
ATOM     58  C   UNL A   1      37.879  30.854  31.479  1.00  0.00     0.049 A 
ATOM     59  C   UNL A   1      42.277  29.466  34.572  1.00  0.00     0.074 A 
ATOM     60  C   UNL A   1      36.893  31.619  32.080  1.00  0.00     0.029 A 
ATOM     61  N   UNL A   1      38.869  30.662  32.427  1.00  0.00    -0.354 N 
ATOM     62  N   UNL A   1      41.177  29.871  33.985  1.00  0.00    -0.248 NA
ATOM     63  C   UNL A   1      42.453  29.994  35.936  1.00  0.00     0.031 C 
ATOM     64  C   UNL A   1      37.317  31.943  33.373  1.00  0.00     0.029 A 
ATOM     65  C   UNL A   1      38.534  31.321  33.598  1.00  0.00     0.049 A 
ATOM     66  H   UNL A   1      39.690  30.136  32.289  1.00  0.00     0.167 HD
ATOM     67  C   UNL A   1      40.518  30.669  34.916  1.00  0.00     0.074 A 
ATOM     68  C   UNL A   1      41.332  30.681  36.112  1.00  0.00     0.031 C 
ATOM     69  C   UNL A   1      39.341  31.330  34.790  1.00  0.00     0.031 A 
BRANCH  56  70
ATOM     70  C   UNL A   1      36.781  30.694  29.216  1.00  0.00    -0.014 A 
ATOM     71  C   UNL A   1      36.614  32.001  28.730  1.00  0.00     0.009 A 
ATOM     72  C   UNL A   1      35.887  29.695  28.799  1.00  0.00     0.009 A 
ATOM     73  C   UNL A   1      35.555  32.305  27.872  1.00  0.00     0.001 A 
ATOM     74  C   UNL A   1      34.849  29.996  27.916  1.00  0.00     0.001 A 
ATOM     75  C   UNL A   1      34.678  31.302  27.461  1.00  0.00     0.000 A 
ENDBRANCH  56  70
BRANCH  57  76
ATOM     76  C   UNL A   1      44.517  28.212  34.926  1.00  0.00    -0.014 A 
ATOM     77  C   UNL A   1      44.491  27.085  35.761  1.00  0.00     0.009 A 
ATOM     78  C   UNL A   1      45.635  29.061  34.973  1.00  0.00     0.009 A 
ATOM     79  C   UNL A   1      45.543  26.831  36.645  1.00  0.00     0.001 A 
ATOM     80  C   UNL A   1      46.700  28.787  35.834  1.00  0.00     0.001 A 
ATOM     81  C   UNL A   1      46.649  27.680  36.677  1.00  0.00     0.000 A 
ENDBRANCH  57  76
BRANCH  69  82
ATOM     82  C   UNL A   1      38.830  32.088  35.986  1.00  0.00    -0.014 A 
ATOM     83  C   UNL A   1      38.046  31.466  36.971  1.00  0.00     0.009 A 
ATOM     84  C   UNL A   1      39.181  33.437  36.156  1.00  0.00     0.009 A 
ATOM     85  C   UNL A   1      37.594  32.189  38.078  1.00  0.00     0.001 A 
ATOM     86  C   UNL A   1      38.753  34.149  37.278  1.00  0.00     0.001 A 
ATOM     87  C   UNL A   1      37.952  33.528  38.233  1.00  0.00     0.000 A 
ENDBRANCH  69  82
ENDBRANCH  43  44
ENDBRANCH  36  38
ENDBRANCH  35  36
ENDBRANCH  34  35
ENDBRANCH  33  34
ENDBRANCH  32  33
ENDBRANCH  31  32
ENDBRANCH   1  31
TORSDOF 21
ENDMDL
MODEL 2
REMARK VINA RESULT:     -10.4      1.766      6.433
REMARK SMILES O=C(COc1ccccc1C[NH+]1CCC2(CC[NH2+]CC2)CC1)OCCOCCOCCOC(=O)c1ccc(-c2c3nc(c(-c4ccccc4)c4ccc([nH]4)c(-c4ccccc4)c4nc(c(-c5ccccc5)c5ccc2[nH]5)C=C4)C=C3)cc1
REMARK SMILES IDX 27 1 26 2 25 3 24 4 23 5 2 6 1 7 3 8 4 9 5 10 6 11 10 12
REMARK SMILES IDX 7 13 9 14 8 15 11 16 12 17 13 18 22 19 14 21 21 22 15 23
REMARK SMILES IDX 16 24 20 25 17 26 19 27 18 28 28 31 29 32 30 33 31 34 32 35
REMARK SMILES IDX 33 36 34 37 35 38 36 39 82 40 37 41 81 42 38 43 39 44 40 45
REMARK SMILES IDX 75 46 41 47 80 48 74 49 76 50 42 51 79 52 73 53 72 54 43 56
REMARK SMILES IDX 65 57 50 58 64 59 51 60 54 61 63 62 77 63 52 64 53 65 62 67
REMARK SMILES IDX 78 68 55 69 44 70 45 71 49 72 46 73 48 74 47 75 66 76 67 77
REMARK SMILES IDX 71 78 68 79 70 80 69 81 56 82 57 83 61 84 58 85 60 86 59 87
REMARK H PARENT 12 20 18 29 18 30 76 55 54 66
REMARK Flexibility Score: inf
ROOT
ATOM      1  C   UNL A   1      43.014  18.996  25.943  1.00  0.00     0.188 C 
ENDROOT
BRANCH   1   2
ATOM      2  O   UNL A   1      41.758  19.364  25.383  1.00  0.00    -0.376 OA
BRANCH   2   3
ATOM      3  C   UNL A   1      40.975  20.268  26.139  1.00  0.00     0.202 C 
BRANCH   3   4
ATOM      4  C   UNL A   1      39.588  20.475  25.553  1.00  0.00     0.261 C 
BRANCH   4   5
ATOM      5  O   UNL A   1      38.959  21.722  25.946  1.00  0.00    -0.461 OA
BRANCH   5   6
ATOM      6  C   UNL A   1      37.673  22.116  25.774  1.00  0.00     0.344 C 
ATOM      7  O   UNL A   1      37.311  23.224  26.164  1.00  0.00    -0.248 OA
BRANCH   6   8
ATOM      8  C   UNL A   1      36.712  21.167  25.104  1.00  0.00     0.351 C 
BRANCH   8   9
ATOM      9  O   UNL A   1      35.452  21.105  25.768  1.00  0.00    -0.481 OA
BRANCH   9  10
ATOM     10  C   UNL A   1      34.463  20.741  24.897  1.00  0.00     0.129 A 
ATOM     11  C   UNL A   1      34.260  19.360  24.803  1.00  0.00     0.047 A 
ATOM     12  C   UNL A   1      33.671  21.659  24.184  1.00  0.00     0.048 A 
ATOM     13  C   UNL A   1      33.188  18.868  24.073  1.00  0.00     0.004 A 
ATOM     14  C   UNL A   1      32.519  21.139  23.574  1.00  0.00     0.013 A 
ATOM     15  C   UNL A   1      32.295  19.760  23.493  1.00  0.00     0.001 A 
BRANCH  12  16
ATOM     16  C   UNL A   1      33.954  23.150  24.086  1.00  0.00     0.302 C 
BRANCH  16  17
ATOM     17  N   UNL A   1      34.100  24.006  25.269  1.00  0.00    -0.331 N 
ATOM     18  C   UNL A   1      34.731  25.308  25.061  1.00  0.00     0.263 C 
ATOM     19  C   UNL A   1      32.992  24.082  26.196  1.00  0.00     0.263 C 
ATOM     20  H   UNL A   1      34.789  23.435  25.759  1.00  0.00     0.348 HD
ATOM     21  C   UNL A   1      33.761  26.368  24.542  1.00  0.00     0.069 C 
ATOM     22  C   UNL A   1      31.925  25.073  25.744  1.00  0.00     0.069 C 
ATOM     23  C   UNL A   1      32.464  26.479  25.390  1.00  0.00    -0.008 C 
ATOM     24  C   UNL A   1      32.715  27.245  26.714  1.00  0.00     0.069 C 
ATOM     25  C   UNL A   1      31.373  27.192  24.549  1.00  0.00     0.069 C 
ATOM     26  C   UNL A   1      32.762  28.761  26.552  1.00  0.00     0.261 C 
ATOM     27  C   UNL A   1      31.537  28.705  24.494  1.00  0.00     0.261 C 
ATOM     28  N   UNL A   1      31.588  29.266  25.842  1.00  0.00    -0.346 N 
ATOM     29  H   UNL A   1      31.641  30.283  25.782  1.00  0.00     0.346 HD
ATOM     30  H   UNL A   1      30.747  28.991  26.349  1.00  0.00     0.346 HD
ENDBRANCH  16  17
ENDBRANCH  12  16
ENDBRANCH   9  10
ENDBRANCH   8   9
ENDBRANCH   6   8
ENDBRANCH   5   6
ENDBRANCH   4   5
ENDBRANCH   3   4
ENDBRANCH   2   3
ENDBRANCH   1   2
BRANCH   1  31
ATOM     31  C   UNL A   1      44.219  19.318  25.023  1.00  0.00     0.188 C 
BRANCH  31  32
ATOM     32  O   UNL A   1      45.335  19.999  25.582  1.00  0.00    -0.376 OA
BRANCH  32  33
ATOM     33  C   UNL A   1      46.062  20.876  24.740  1.00  0.00     0.202 C 
BRANCH  33  34
ATOM     34  C   UNL A   1      45.798  22.381  24.919  1.00  0.00     0.261 C 
BRANCH  34  35
ATOM     35  O   UNL A   1      44.636  22.710  25.719  1.00  0.00    -0.460 OA
BRANCH  35  36
ATOM     36  C   UNL A   1      43.549  23.184  25.058  1.00  0.00     0.338 C 
ATOM     37  O   UNL A   1      43.079  22.735  24.022  1.00  0.00    -0.246 OA
BRANCH  36  38
ATOM     38  C   UNL A   1      42.852  24.239  25.851  1.00  0.00     0.060 A 
ATOM     39  C   UNL A   1      43.265  25.574  25.702  1.00  0.00     0.016 A 
ATOM     40  C   UNL A   1      41.858  23.936  26.782  1.00  0.00     0.016 A 
ATOM     41  C   UNL A   1      42.743  26.589  26.517  1.00  0.00     0.010 A 
ATOM     42  C   UNL A   1      41.353  24.949  27.619  1.00  0.00     0.010 A 
ATOM     43  C   UNL A   1      41.825  26.275  27.525  1.00  0.00    -0.014 A 
BRANCH  43  44
ATOM     44  C   UNL A   1      41.548  27.251  28.622  1.00  0.00     0.031 A 
ATOM     45  C   UNL A   1      42.405  27.190  29.866  1.00  0.00     0.074 A 
ATOM     46  C   UNL A   1      40.584  28.189  28.548  1.00  0.00     0.049 A 
ATOM     47  N   UNL A   1      42.308  27.866  30.984  1.00  0.00    -0.248 NA
ATOM     48  C   UNL A   1      43.522  26.231  29.840  1.00  0.00     0.031 C 
ATOM     49  C   UNL A   1      39.717  28.433  27.398  1.00  0.00     0.029 A 
ATOM     50  N   UNL A   1      40.169  29.112  29.483  1.00  0.00    -0.354 N 
ATOM     51  C   UNL A   1      43.336  27.403  31.796  1.00  0.00     0.074 A 
ATOM     52  C   UNL A   1      44.029  26.372  31.054  1.00  0.00     0.031 C 
ATOM     53  C   UNL A   1      38.859  29.426  27.702  1.00  0.00     0.029 A 
ATOM     54  C   UNL A   1      39.093  29.867  29.079  1.00  0.00     0.049 A 
ATOM     55  H   UNL A   1      40.602  29.221  30.359  1.00  0.00     0.167 HD
ATOM     56  C   UNL A   1      43.685  27.796  33.046  1.00  0.00     0.031 A 
ATOM     57  C   UNL A   1      38.364  30.787  29.744  1.00  0.00     0.031 A 
ATOM     58  C   UNL A   1      43.007  28.812  33.806  1.00  0.00     0.049 A 
ATOM     59  C   UNL A   1      38.707  31.139  31.172  1.00  0.00     0.074 A 
ATOM     60  C   UNL A   1      43.304  29.278  35.077  1.00  0.00     0.029 A 
ATOM     61  N   UNL A   1      41.896  29.515  33.372  1.00  0.00    -0.354 N 
ATOM     62  N   UNL A   1      39.689  30.702  31.923  1.00  0.00    -0.248 NA
ATOM     63  C   UNL A   1      37.837  32.120  31.843  1.00  0.00     0.031 C 
ATOM     64  C   UNL A   1      42.333  30.219  35.436  1.00  0.00     0.029 A 
ATOM     65  C   UNL A   1      41.476  30.388  34.362  1.00  0.00     0.049 A 
ATOM     66  H   UNL A   1      41.469  29.411  32.492  1.00  0.00     0.167 HD
ATOM     67  C   UNL A   1      39.575  31.378  33.134  1.00  0.00     0.074 A 
ATOM     68  C   UNL A   1      38.438  32.265  33.016  1.00  0.00     0.031 C 
ATOM     69  C   UNL A   1      40.347  31.273  34.244  1.00  0.00     0.031 A 
BRANCH  56  70
ATOM     70  C   UNL A   1      44.842  27.088  33.695  1.00  0.00    -0.014 A 
ATOM     71  C   UNL A   1      44.655  25.917  34.446  1.00  0.00     0.009 A 
ATOM     72  C   UNL A   1      46.145  27.581  33.517  1.00  0.00     0.009 A 
ATOM     73  C   UNL A   1      45.746  25.274  35.034  1.00  0.00     0.001 A 
ATOM     74  C   UNL A   1      47.237  26.917  34.080  1.00  0.00     0.001 A 
ATOM     75  C   UNL A   1      47.036  25.771  34.845  1.00  0.00     0.000 A 
ENDBRANCH  56  70
BRANCH  57  76
ATOM     76  C   UNL A   1      37.193  31.438  29.091  1.00  0.00    -0.014 A 
ATOM     77  C   UNL A   1      37.289  32.739  28.575  1.00  0.00     0.009 A 
ATOM     78  C   UNL A   1      35.954  30.780  29.037  1.00  0.00     0.009 A 
ATOM     79  C   UNL A   1      36.164  33.379  28.048  1.00  0.00     0.001 A 
ATOM     80  C   UNL A   1      34.838  31.410  28.480  1.00  0.00     0.001 A 
ATOM     81  C   UNL A   1      34.941  32.712  27.997  1.00  0.00     0.000 A 
ENDBRANCH  57  76
BRANCH  69  82
ATOM     82  C   UNL A   1      40.025  32.170  35.410  1.00  0.00    -0.014 A 
ATOM     83  C   UNL A   1      40.601  33.444  35.540  1.00  0.00     0.009 A 
ATOM     84  C   UNL A   1      39.090  31.752  36.371  1.00  0.00     0.009 A 
ATOM     85  C   UNL A   1      40.276  34.261  36.626  1.00  0.00     0.001 A 
ATOM     86  C   UNL A   1      38.743  32.582  37.438  1.00  0.00     0.001 A 
ATOM     87  C   UNL A   1      39.344  33.832  37.571  1.00  0.00     0.000 A 
ENDBRANCH  69  82
ENDBRANCH  43  44
ENDBRANCH  36  38
ENDBRANCH  35  36
ENDBRANCH  34  35
ENDBRANCH  33  34
ENDBRANCH  32  33
ENDBRANCH  31  32
ENDBRANCH   1  31
TORSDOF 21
ENDMDL
MODEL 3
REMARK VINA RESULT:     -10.1      4.637     10.527
REMARK SMILES O=C(COc1ccccc1C[NH+]1CCC2(CC[NH2+]CC2)CC1)OCCOCCOCCOC(=O)c1ccc(-c2c3nc(c(-c4ccccc4)c4ccc([nH]4)c(-c4ccccc4)c4nc(c(-c5ccccc5)c5ccc2[nH]5)C=C4)C=C3)cc1
REMARK SMILES IDX 27 1 26 2 25 3 24 4 23 5 2 6 1 7 3 8 4 9 5 10 6 11 10 12
REMARK SMILES IDX 7 13 9 14 8 15 11 16 12 17 13 18 22 19 14 21 21 22 15 23
REMARK SMILES IDX 16 24 20 25 17 26 19 27 18 28 28 31 29 32 30 33 31 34 32 35
REMARK SMILES IDX 33 36 34 37 35 38 36 39 82 40 37 41 81 42 38 43 39 44 40 45
REMARK SMILES IDX 75 46 41 47 80 48 74 49 76 50 42 51 79 52 73 53 72 54 43 56
REMARK SMILES IDX 65 57 50 58 64 59 51 60 54 61 63 62 77 63 52 64 53 65 62 67
REMARK SMILES IDX 78 68 55 69 44 70 45 71 49 72 46 73 48 74 47 75 66 76 67 77
REMARK SMILES IDX 71 78 68 79 70 80 69 81 56 82 57 83 61 84 58 85 60 86 59 87
REMARK H PARENT 12 20 18 29 18 30 76 55 54 66
REMARK Flexibility Score: inf
ROOT
ATOM      1  C   UNL A   1      34.021  32.636  28.006  1.00  0.00     0.188 C 
ENDROOT
BRANCH   1   2
ATOM      2  O   UNL A   1      33.220  31.549  27.553  1.00  0.00    -0.376 OA
BRANCH   2   3
ATOM      3  C   UNL A   1      33.908  30.359  27.219  1.00  0.00     0.202 C 
BRANCH   3   4
ATOM      4  C   UNL A   1      33.124  29.477  26.261  1.00  0.00     0.261 C 
BRANCH   4   5
ATOM      5  O   UNL A   1      33.952  28.650  25.404  1.00  0.00    -0.461 OA
BRANCH   5   6
ATOM      6  C   UNL A   1      33.668  28.145  24.179  1.00  0.00     0.344 C 
ATOM      7  O   UNL A   1      34.111  27.047  23.846  1.00  0.00    -0.248 OA
BRANCH   6   8
ATOM      8  C   UNL A   1      32.808  28.959  23.245  1.00  0.00     0.351 C 
BRANCH   8   9
ATOM      9  O   UNL A   1      31.983  28.147  22.414  1.00  0.00    -0.481 OA
BRANCH   9  10
ATOM     10  C   UNL A   1      30.689  28.158  22.856  1.00  0.00     0.129 A 
ATOM     11  C   UNL A   1      30.101  29.427  22.879  1.00  0.00     0.047 A 
ATOM     12  C   UNL A   1      29.975  27.001  23.216  1.00  0.00     0.048 A 
ATOM     13  C   UNL A   1      28.749  29.557  23.161  1.00  0.00     0.004 A 
ATOM     14  C   UNL A   1      28.586  27.151  23.358  1.00  0.00     0.013 A 
ATOM     15  C   UNL A   1      27.984  28.413  23.360  1.00  0.00     0.001 A 
BRANCH  12  16
ATOM     16  C   UNL A   1      30.595  25.625  23.402  1.00  0.00     0.302 C 
BRANCH  16  17
ATOM     17  N   UNL A   1      30.419  24.839  24.629  1.00  0.00    -0.331 N 
ATOM     18  C   UNL A   1      30.853  23.445  24.580  1.00  0.00     0.263 C 
ATOM     19  C   UNL A   1      30.746  25.465  25.891  1.00  0.00     0.263 C 
ATOM     20  H   UNL A   1      29.399  24.817  24.625  1.00  0.00     0.348 HD
ATOM     21  C   UNL A   1      32.354  23.275  24.811  1.00  0.00     0.069 C 
ATOM     22  C   UNL A   1      32.239  25.409  26.198  1.00  0.00     0.069 C 
ATOM     23  C   UNL A   1      32.863  23.998  26.087  1.00  0.00    -0.008 C 
ATOM     24  C   UNL A   1      32.499  23.210  27.370  1.00  0.00     0.069 C 
ATOM     25  C   UNL A   1      34.400  24.182  25.981  1.00  0.00     0.069 C 
ATOM     26  C   UNL A   1      33.418  22.025  27.650  1.00  0.00     0.261 C 
ATOM     27  C   UNL A   1      35.189  22.922  26.308  1.00  0.00     0.261 C 
ATOM     28  N   UNL A   1      34.827  22.418  27.631  1.00  0.00    -0.346 N 
ATOM     29  H   UNL A   1      35.407  21.608  27.853  1.00  0.00     0.346 HD
ATOM     30  H   UNL A   1      34.978  23.153  28.321  1.00  0.00     0.346 HD
ENDBRANCH  16  17
ENDBRANCH  12  16
ENDBRANCH   9  10
ENDBRANCH   8   9
ENDBRANCH   6   8
ENDBRANCH   5   6
ENDBRANCH   4   5
ENDBRANCH   3   4
ENDBRANCH   2   3
ENDBRANCH   1   2
BRANCH   1  31
ATOM     31  C   UNL A   1      33.220  33.941  28.237  1.00  0.00     0.188 C 
BRANCH  31  32
ATOM     32  O   UNL A   1      33.938  35.137  28.512  1.00  0.00    -0.376 OA
BRANCH  32  33
ATOM     33  C   UNL A   1      33.205  36.256  28.977  1.00  0.00     0.202 C 
BRANCH  33  34
ATOM     34  C   UNL A   1      32.807  36.252  30.462  1.00  0.00     0.261 C 
BRANCH  34  35
ATOM     35  O   UNL A   1      33.011  34.993  31.150  1.00  0.00    -0.460 OA
BRANCH  35  36
ATOM     36  C   UNL A   1      33.963  34.967  32.117  1.00  0.00     0.338 C 
ATOM     37  O   UNL A   1      33.937  35.581  33.174  1.00  0.00    -0.246 OA
BRANCH  36  38
ATOM     38  C   UNL A   1      35.000  33.934  31.828  1.00  0.00     0.060 A 
ATOM     39  C   UNL A   1      34.940  32.712  32.521  1.00  0.00     0.016 A 
ATOM     40  C   UNL A   1      36.060  34.167  30.952  1.00  0.00     0.016 A 
ATOM     41  C   UNL A   1      35.960  31.757  32.395  1.00  0.00     0.010 A 
ATOM     42  C   UNL A   1      37.097  33.221  30.845  1.00  0.00     0.010 A 
ATOM     43  C   UNL A   1      37.079  32.030  31.601  1.00  0.00    -0.014 A 
BRANCH  43  44
ATOM     44  C   UNL A   1      38.321  31.211  31.744  1.00  0.00     0.031 A 
ATOM     45  C   UNL A   1      39.286  31.565  32.852  1.00  0.00     0.074 A 
ATOM     46  C   UNL A   1      38.612  30.166  30.944  1.00  0.00     0.049 A 
ATOM     47  N   UNL A   1      40.465  31.065  33.128  1.00  0.00    -0.248 NA
ATOM     48  C   UNL A   1      38.857  32.633  33.771  1.00  0.00     0.031 C 
ATOM     49  C   UNL A   1      37.762  29.647  29.876  1.00  0.00     0.029 A 
ATOM     50  N   UNL A   1      39.728  29.359  30.909  1.00  0.00    -0.354 N 
ATOM     51  C   UNL A   1      40.924  31.766  34.237  1.00  0.00     0.074 A 
ATOM     52  C   UNL A   1      39.908  32.743  34.568  1.00  0.00     0.031 C 
ATOM     53  C   UNL A   1      38.395  28.619  29.277  1.00  0.00     0.029 A 
ATOM     54  C   UNL A   1      39.709  28.429  29.896  1.00  0.00     0.049 A 
ATOM     55  H   UNL A   1      40.470  29.439  31.549  1.00  0.00     0.167 HD
ATOM     56  C   UNL A   1      42.080  31.617  34.928  1.00  0.00     0.031 A 
ATOM     57  C   UNL A   1      40.646  27.545  29.494  1.00  0.00     0.031 A 
ATOM     58  C   UNL A   1      43.107  30.660  34.613  1.00  0.00     0.049 A 
ATOM     59  C   UNL A   1      41.970  27.463  30.217  1.00  0.00     0.074 A 
ATOM     60  C   UNL A   1      44.305  30.436  35.271  1.00  0.00     0.029 A 
ATOM     61  N   UNL A   1      43.062  29.773  33.552  1.00  0.00    -0.354 N 
ATOM     62  N   UNL A   1      42.384  28.124  31.271  1.00  0.00    -0.248 NA
ATOM     63  C   UNL A   1      42.956  26.504  29.691  1.00  0.00     0.031 C 
ATOM     64  C   UNL A   1      45.014  29.456  34.569  1.00  0.00     0.029 A 
ATOM     65  C   UNL A   1      44.226  29.022  33.517  1.00  0.00     0.049 A 
ATOM     66  H   UNL A   1      42.315  29.688  32.917  1.00  0.00     0.167 HD
ATOM     67  C   UNL A   1      43.657  27.637  31.552  1.00  0.00     0.074 A 
ATOM     68  C   UNL A   1      43.944  26.616  30.569  1.00  0.00     0.031 C 
ATOM     69  C   UNL A   1      44.510  28.003  32.540  1.00  0.00     0.031 A 
BRANCH  56  70
ATOM     70  C   UNL A   1      42.318  32.548  36.085  1.00  0.00    -0.014 A 
ATOM     71  C   UNL A   1      42.940  33.794  35.905  1.00  0.00     0.009 A 
ATOM     72  C   UNL A   1      41.877  32.188  37.368  1.00  0.00     0.009 A 
ATOM     73  C   UNL A   1      43.145  34.644  36.993  1.00  0.00     0.001 A 
ATOM     74  C   UNL A   1      42.055  33.054  38.448  1.00  0.00     0.001 A 
ATOM     75  C   UNL A   1      42.697  34.277  38.262  1.00  0.00     0.000 A 
ENDBRANCH  56  70
BRANCH  57  76
ATOM     76  C   UNL A   1      40.400  26.668  28.316  1.00  0.00    -0.014 A 
ATOM     77  C   UNL A   1      39.664  25.480  28.444  1.00  0.00     0.009 A 
ATOM     78  C   UNL A   1      40.955  26.986  27.066  1.00  0.00     0.009 A 
ATOM     79  C   UNL A   1      39.516  24.615  27.356  1.00  0.00     0.001 A 
ATOM     80  C   UNL A   1      40.778  26.135  25.972  1.00  0.00     0.001 A 
ATOM     81  C   UNL A   1      40.069  24.946  26.120  1.00  0.00     0.000 A 
ENDBRANCH  57  76
BRANCH  69  82
ATOM     82  C   UNL A   1      45.820  27.268  32.645  1.00  0.00    -0.014 A 
ATOM     83  C   UNL A   1      45.938  26.075  33.377  1.00  0.00     0.009 A 
ATOM     84  C   UNL A   1      46.945  27.752  31.959  1.00  0.00     0.009 A 
ATOM     85  C   UNL A   1      47.163  25.406  33.448  1.00  0.00     0.001 A 
ATOM     86  C   UNL A   1      48.160  27.066  32.006  1.00  0.00     0.001 A 
ATOM     87  C   UNL A   1      48.271  25.899  32.759  1.00  0.00     0.000 A 
ENDBRANCH  69  82
ENDBRANCH  43  44
ENDBRANCH  36  38
ENDBRANCH  35  36
ENDBRANCH  34  35
ENDBRANCH  33  34
ENDBRANCH  32  33
ENDBRANCH  31  32
ENDBRANCH   1  31
TORSDOF 21
ENDMDL
