MODEL 1
REMARK VINA RESULT:     -11.4      0.000      0.000
REMARK SMILES Cc1c(C(=O)OCCOCCOCCOC(=O)c2ccc(-c3c4nc(c(-c5ccccc5)c5ccc([nH]5)c(-c5ccccc5)c5nc(c(-c6ccccc6)c6ccc3[nH]6)C=C5)C=C4)cc2)oc2c1/C(=N/NC(=O)C(c1ccccc1)c1ccccc1)CCC2
REMARK SMILES IDX 10 1 9 2 8 3 7 4 6 5 4 6 5 7 3 8 1 9 2 10 68 11 66 12 67 13
REMARK SMILES IDX 69 14 89 15 70 16 87 17 88 18 71 19 72 20 73 22 74 23 75 24
REMARK SMILES IDX 76 25 80 26 77 27 79 28 78 29 81 30 82 31 86 32 83 33 85 34
REMARK SMILES IDX 84 35 11 36 12 37 13 38 14 39 15 40 16 41 17 42 18 43 19 44
REMARK SMILES IDX 65 45 20 46 64 47 21 48 22 49 23 50 58 51 24 52 63 53 57 54
REMARK SMILES IDX 59 55 25 56 62 57 56 58 55 59 26 61 48 62 33 63 47 64 34 65
REMARK SMILES IDX 37 66 46 67 60 68 35 69 36 70 45 72 61 73 38 74 27 75 28 76
REMARK SMILES IDX 32 77 29 78 31 79 30 80 49 81 50 82 54 83 51 84 53 85 52 86
REMARK SMILES IDX 39 87 40 88 44 89 41 90 43 91 42 92
REMARK H PARENT 71 21 59 60 37 71
REMARK Flexibility Score: inf
ROOT
ATOM      1  C   UNL A   1      34.827  32.842  27.996  1.00  0.00     0.188 C 
ENDROOT
BRANCH   1   2
ATOM      2  O   UNL A   1      34.976  31.428  28.034  1.00  0.00    -0.376 OA
BRANCH   2   3
ATOM      3  C   UNL A   1      34.135  30.562  27.284  1.00  0.00     0.202 C 
BRANCH   3   4
ATOM      4  C   UNL A   1      34.398  29.050  27.183  1.00  0.00     0.261 C 
BRANCH   4   5
ATOM      5  O   UNL A   1      33.260  28.214  27.310  1.00  0.00    -0.457 OA
BRANCH   5   6
ATOM      6  C   UNL A   1      32.243  28.360  26.407  1.00  0.00     0.374 C 
ATOM      7  O   UNL A   1      31.443  29.267  26.380  1.00  0.00    -0.242 OA
BRANCH   6   8
ATOM      8  C   UNL A   1      32.422  27.307  25.427  1.00  0.00     0.215 A 
ATOM      9  C   UNL A   1      31.433  25.146  26.438  1.00  0.00     0.049 C 
ATOM     10  C   UNL A   1      32.099  25.946  25.379  1.00  0.00     0.012 A 
ATOM     11  C   UNL A   1      32.464  25.516  24.062  1.00  0.00     0.043 A 
ATOM     12  O   UNL A   1      32.885  27.720  24.214  1.00  0.00    -0.453 OA
ATOM     13  C   UNL A   1      32.830  26.671  23.398  1.00  0.00     0.114 A 
ATOM     14  C   UNL A   1      32.522  24.257  23.317  1.00  0.00     0.072 C 
ATOM     15  C   UNL A   1      33.177  26.908  21.981  1.00  0.00     0.076 C 
ATOM     16  N   UNL A   1      32.071  23.163  23.844  1.00  0.00    -0.177 NA
ATOM     17  C   UNL A   1      33.212  24.438  22.006  1.00  0.00     0.059 C 
ATOM     18  C   UNL A   1      32.812  25.660  21.198  1.00  0.00     0.014 C 
BRANCH  16  19
ATOM     19  N   UNL A   1      32.081  21.857  23.396  1.00  0.00    -0.246 N 
ATOM     20  C   UNL A   1      32.364  20.559  23.762  1.00  0.00     0.252 C 
ATOM     21  H   UNL A   1      31.769  21.851  22.463  1.00  0.00     0.193 HD
ATOM     22  O   UNL A   1      32.055  19.710  22.900  1.00  0.00    -0.272 OA
BRANCH  20  23
ATOM     23  C   UNL A   1      33.019  20.018  25.083  1.00  0.00     0.140 C 
BRANCH  23  24
ATOM     24  C   UNL A   1      33.267  18.475  24.917  1.00  0.00    -0.031 A 
ATOM     25  C   UNL A   1      34.494  18.030  24.357  1.00  0.00     0.005 A 
ATOM     26  C   UNL A   1      32.418  17.468  25.404  1.00  0.00     0.005 A 
ATOM     27  C   UNL A   1      34.949  16.717  24.504  1.00  0.00     0.000 A 
ATOM     28  C   UNL A   1      32.879  16.147  25.563  1.00  0.00     0.000 A 
ATOM     29  C   UNL A   1      34.158  15.784  25.153  1.00  0.00     0.000 A 
ENDBRANCH  23  24
BRANCH  23  30
ATOM     30  C   UNL A   1      34.083  21.056  25.557  1.00  0.00    -0.031 A 
ATOM     31  C   UNL A   1      35.135  21.584  24.792  1.00  0.00     0.005 A 
ATOM     32  C   UNL A   1      33.962  21.577  26.870  1.00  0.00     0.005 A 
ATOM     33  C   UNL A   1      35.849  22.721  25.219  1.00  0.00     0.000 A 
ATOM     34  C   UNL A   1      34.662  22.708  27.295  1.00  0.00     0.000 A 
ATOM     35  C   UNL A   1      35.576  23.311  26.448  1.00  0.00     0.000 A 
ENDBRANCH  23  30
ENDBRANCH  20  23
ENDBRANCH  16  19
ENDBRANCH   6   8
ENDBRANCH   5   6
ENDBRANCH   4   5
ENDBRANCH   3   4
ENDBRANCH   2   3
ENDBRANCH   1   2
BRANCH   1  36
ATOM     36  C   UNL A   1      34.503  33.670  29.262  1.00  0.00     0.188 C 
BRANCH  36  37
ATOM     37  O   UNL A   1      34.044  32.894  30.346  1.00  0.00    -0.376 OA
BRANCH  37  38
ATOM     38  C   UNL A   1      34.859  32.723  31.491  1.00  0.00     0.202 C 
BRANCH  38  39
ATOM     39  C   UNL A   1      35.866  33.777  31.956  1.00  0.00     0.261 C 
BRANCH  39  40
ATOM     40  O   UNL A   1      37.199  33.614  31.510  1.00  0.00    -0.460 OA
BRANCH  40  41
ATOM     41  C   UNL A   1      37.933  32.724  32.208  1.00  0.00     0.338 C 
ATOM     42  O   UNL A   1      38.139  32.721  33.410  1.00  0.00    -0.246 OA
BRANCH  41  43
ATOM     43  C   UNL A   1      38.560  31.796  31.262  1.00  0.00     0.060 A 
ATOM     44  C   UNL A   1      37.958  30.545  31.117  1.00  0.00     0.016 A 
ATOM     45  C   UNL A   1      39.857  32.060  30.796  1.00  0.00     0.016 A 
ATOM     46  C   UNL A   1      38.754  29.488  30.740  1.00  0.00     0.010 A 
ATOM     47  C   UNL A   1      40.656  31.002  30.440  1.00  0.00     0.010 A 
ATOM     48  C   UNL A   1      40.116  29.723  30.522  1.00  0.00    -0.014 A 
BRANCH  48  49
ATOM     49  C   UNL A   1      40.977  28.569  30.430  1.00  0.00     0.031 A 
ATOM     50  C   UNL A   1      41.649  28.198  31.686  1.00  0.00     0.074 A 
ATOM     51  C   UNL A   1      41.094  27.861  29.294  1.00  0.00     0.049 A 
ATOM     52  N   UNL A   1      42.913  28.205  31.935  1.00  0.00    -0.248 NA
ATOM     53  C   UNL A   1      40.791  27.887  32.838  1.00  0.00     0.031 C 
ATOM     54  C   UNL A   1      40.272  27.940  28.083  1.00  0.00     0.029 A 
ATOM     55  N   UNL A   1      41.927  26.818  29.039  1.00  0.00    -0.354 N 
ATOM     56  C   UNL A   1      43.033  27.742  33.238  1.00  0.00     0.074 A 
ATOM     57  C   UNL A   1      41.701  27.701  33.790  1.00  0.00     0.031 C 
ATOM     58  C   UNL A   1      40.497  26.839  27.328  1.00  0.00     0.029 A 
ATOM     59  C   UNL A   1      41.562  26.062  27.940  1.00  0.00     0.049 A 
ATOM     60  H   UNL A   1      42.720  26.620  29.588  1.00  0.00     0.167 HD
ATOM     61  C   UNL A   1      44.189  27.205  33.706  1.00  0.00     0.031 A 
ATOM     62  C   UNL A   1      42.050  24.840  27.618  1.00  0.00     0.031 A 
ATOM     63  C   UNL A   1      45.326  27.555  32.899  1.00  0.00     0.049 A 
ATOM     64  C   UNL A   1      43.330  24.655  28.343  1.00  0.00     0.074 A 
ATOM     65  C   UNL A   1      45.926  28.746  32.541  1.00  0.00     0.029 A 
ATOM     66  N   UNL A   1      45.796  26.617  32.011  1.00  0.00    -0.354 N 
ATOM     67  N   UNL A   1      44.416  25.318  28.072  1.00  0.00    -0.248 NA
ATOM     68  C   UNL A   1      43.298  24.029  29.657  1.00  0.00     0.031 C 
ATOM     69  C   UNL A   1      46.347  28.561  31.192  1.00  0.00     0.029 A 
ATOM     70  C   UNL A   1      46.014  27.258  30.818  1.00  0.00     0.049 A 
ATOM     71  H   UNL A   1      45.947  25.662  32.198  1.00  0.00     0.167 HD
ATOM     72  C   UNL A   1      45.008  25.557  29.305  1.00  0.00     0.074 A 
ATOM     73  C   UNL A   1      44.340  24.641  30.226  1.00  0.00     0.031 C 
ATOM     74  C   UNL A   1      45.776  26.666  29.517  1.00  0.00     0.031 A 
BRANCH  61  75
ATOM     75  C   UNL A   1      44.198  26.073  34.692  1.00  0.00    -0.014 A 
ATOM     76  C   UNL A   1      44.999  26.163  35.839  1.00  0.00     0.009 A 
ATOM     77  C   UNL A   1      43.631  24.814  34.404  1.00  0.00     0.009 A 
ATOM     78  C   UNL A   1      45.237  25.039  36.641  1.00  0.00     0.001 A 
ATOM     79  C   UNL A   1      43.829  23.705  35.224  1.00  0.00     0.001 A 
ATOM     80  C   UNL A   1      44.651  23.814  36.335  1.00  0.00     0.000 A 
ENDBRANCH  61  75
BRANCH  62  81
ATOM     81  C   UNL A   1      41.341  23.725  26.959  1.00  0.00    -0.014 A 
ATOM     82  C   UNL A   1      42.035  22.577  26.549  1.00  0.00     0.009 A 
ATOM     83  C   UNL A   1      39.934  23.677  26.962  1.00  0.00     0.009 A 
ATOM     84  C   UNL A   1      41.343  21.413  26.187  1.00  0.00     0.001 A 
ATOM     85  C   UNL A   1      39.245  22.518  26.595  1.00  0.00     0.001 A 
ATOM     86  C   UNL A   1      39.951  21.380  26.222  1.00  0.00     0.000 A 
ENDBRANCH  62  81
BRANCH  74  87
ATOM     87  C   UNL A   1      46.157  27.500  28.316  1.00  0.00    -0.014 A 
ATOM     88  C   UNL A   1      47.440  27.460  27.737  1.00  0.00     0.009 A 
ATOM     89  C   UNL A   1      45.159  28.234  27.658  1.00  0.00     0.009 A 
ATOM     90  C   UNL A   1      47.722  28.162  26.562  1.00  0.00     0.001 A 
ATOM     91  C   UNL A   1      45.435  28.917  26.470  1.00  0.00     0.001 A 
ATOM     92  C   UNL A   1      46.718  28.887  25.926  1.00  0.00     0.000 A 
ENDBRANCH  74  87
ENDBRANCH  48  49
ENDBRANCH  41  43
ENDBRANCH  40  41
ENDBRANCH  39  40
ENDBRANCH  38  39
ENDBRANCH  37  38
ENDBRANCH  36  37
ENDBRANCH   1  36
TORSDOF 21
ENDMDL
MODEL 2
REMARK VINA RESULT:     -11.0      0.537      2.241
REMARK SMILES Cc1c(C(=O)OCCOCCOCCOC(=O)c2ccc(-c3c4nc(c(-c5ccccc5)c5ccc([nH]5)c(-c5ccccc5)c5nc(c(-c6ccccc6)c6ccc3[nH]6)C=C5)C=C4)cc2)oc2c1/C(=N/NC(=O)C(c1ccccc1)c1ccccc1)CCC2
REMARK SMILES IDX 10 1 9 2 8 3 7 4 6 5 4 6 5 7 3 8 1 9 2 10 68 11 66 12 67 13
REMARK SMILES IDX 69 14 89 15 70 16 87 17 88 18 71 19 72 20 73 22 74 23 75 24
REMARK SMILES IDX 76 25 80 26 77 27 79 28 78 29 81 30 82 31 86 32 83 33 85 34
REMARK SMILES IDX 84 35 11 36 12 37 13 38 14 39 15 40 16 41 17 42 18 43 19 44
REMARK SMILES IDX 65 45 20 46 64 47 21 48 22 49 23 50 58 51 24 52 63 53 57 54
REMARK SMILES IDX 59 55 25 56 62 57 56 58 55 59 26 61 48 62 33 63 47 64 34 65
REMARK SMILES IDX 37 66 46 67 60 68 35 69 36 70 45 72 61 73 38 74 27 75 28 76
REMARK SMILES IDX 32 77 29 78 31 79 30 80 49 81 50 82 54 83 51 84 53 85 52 86
REMARK SMILES IDX 39 87 40 88 44 89 41 90 43 91 42 92
REMARK H PARENT 71 21 59 60 37 71
REMARK Flexibility Score: inf
ROOT
ATOM      1  C   UNL A   1      35.281  32.629  27.904  1.00  0.00     0.188 C 
ENDROOT
BRANCH   1   2
ATOM      2  O   UNL A   1      35.214  31.213  28.021  1.00  0.00    -0.376 OA
BRANCH   2   3
ATOM      3  C   UNL A   1      34.240  30.447  27.325  1.00  0.00     0.202 C 
BRANCH   3   4
ATOM      4  C   UNL A   1      34.468  28.970  26.960  1.00  0.00     0.261 C 
BRANCH   4   5
ATOM      5  O   UNL A   1      33.390  28.091  27.234  1.00  0.00    -0.457 OA
BRANCH   5   6
ATOM      6  C   UNL A   1      32.264  28.184  26.462  1.00  0.00     0.374 C 
ATOM      7  O   UNL A   1      31.403  29.027  26.561  1.00  0.00    -0.242 OA
BRANCH   6   8
ATOM      8  C   UNL A   1      32.401  27.175  25.430  1.00  0.00     0.215 A 
ATOM      9  C   UNL A   1      31.552  24.947  26.422  1.00  0.00     0.049 C 
ATOM     10  C   UNL A   1      32.115  25.807  25.350  1.00  0.00     0.012 A 
ATOM     11  C   UNL A   1      32.395  25.439  23.994  1.00  0.00     0.043 A 
ATOM     12  O   UNL A   1      32.762  27.648  24.204  1.00  0.00    -0.453 OA
ATOM     13  C   UNL A   1      32.678  26.630  23.352  1.00  0.00     0.114 A 
ATOM     14  C   UNL A   1      32.434  24.212  23.197  1.00  0.00     0.072 C 
ATOM     15  C   UNL A   1      32.912  26.931  21.924  1.00  0.00     0.076 C 
ATOM     16  N   UNL A   1      32.054  23.085  23.711  1.00  0.00    -0.177 NA
ATOM     17  C   UNL A   1      33.020  24.464  21.848  1.00  0.00     0.059 C 
ATOM     18  C   UNL A   1      32.528  25.703  21.121  1.00  0.00     0.014 C 
BRANCH  16  19
ATOM     19  N   UNL A   1      32.068  21.798  23.211  1.00  0.00    -0.246 N 
ATOM     20  C   UNL A   1      32.660  20.560  23.345  1.00  0.00     0.252 C 
ATOM     21  H   UNL A   1      31.407  21.744  22.485  1.00  0.00     0.193 HD
ATOM     22  O   UNL A   1      32.153  19.675  22.627  1.00  0.00    -0.272 OA
BRANCH  20  23
ATOM     23  C   UNL A   1      33.867  20.128  24.252  1.00  0.00     0.140 C 
BRANCH  23  24
ATOM     24  C   UNL A   1      34.074  21.225  25.358  1.00  0.00    -0.031 A 
ATOM     25  C   UNL A   1      33.320  21.145  26.558  1.00  0.00     0.005 A 
ATOM     26  C   UNL A   1      35.057  22.227  25.322  1.00  0.00     0.005 A 
ATOM     27  C   UNL A   1      33.684  21.835  27.717  1.00  0.00     0.000 A 
ATOM     28  C   UNL A   1      35.433  22.915  26.490  1.00  0.00     0.000 A 
ATOM     29  C   UNL A   1      34.777  22.686  27.696  1.00  0.00     0.000 A 
ENDBRANCH  23  24
BRANCH  23  30
ATOM     30  C   UNL A   1      33.751  18.594  24.513  1.00  0.00    -0.031 A 
ATOM     31  C   UNL A   1      34.714  17.618  24.209  1.00  0.00     0.005 A 
ATOM     32  C   UNL A   1      32.590  18.120  25.174  1.00  0.00     0.005 A 
ATOM     33  C   UNL A   1      34.633  16.320  24.750  1.00  0.00     0.000 A 
ATOM     34  C   UNL A   1      32.509  16.836  25.718  1.00  0.00     0.000 A 
ATOM     35  C   UNL A   1      33.556  15.947  25.545  1.00  0.00     0.000 A 
ENDBRANCH  23  30
ENDBRANCH  20  23
ENDBRANCH  16  19
ENDBRANCH   6   8
ENDBRANCH   5   6
ENDBRANCH   4   5
ENDBRANCH   3   4
ENDBRANCH   2   3
ENDBRANCH   1   2
BRANCH   1  36
ATOM     36  C   UNL A   1      35.056  33.565  29.116  1.00  0.00     0.188 C 
BRANCH  36  37
ATOM     37  O   UNL A   1      34.341  32.966  30.173  1.00  0.00    -0.376 OA
BRANCH  37  38
ATOM     38  C   UNL A   1      34.988  32.697  31.404  1.00  0.00     0.202 C 
BRANCH  38  39
ATOM     39  C   UNL A   1      36.022  33.642  32.019  1.00  0.00     0.261 C 
BRANCH  39  40
ATOM     40  O   UNL A   1      37.368  33.437  31.636  1.00  0.00    -0.460 OA
BRANCH  40  41
ATOM     41  C   UNL A   1      38.026  32.491  32.336  1.00  0.00     0.338 C 
ATOM     42  O   UNL A   1      38.178  32.442  33.545  1.00  0.00    -0.246 OA
BRANCH  41  43
ATOM     43  C   UNL A   1      38.649  31.561  31.389  1.00  0.00     0.060 A 
ATOM     44  C   UNL A   1      37.997  30.345  31.181  1.00  0.00     0.016 A 
ATOM     45  C   UNL A   1      39.976  31.777  30.985  1.00  0.00     0.016 A 
ATOM     46  C   UNL A   1      38.757  29.263  30.805  1.00  0.00     0.010 A 
ATOM     47  C   UNL A   1      40.739  30.692  30.630  1.00  0.00     0.010 A 
ATOM     48  C   UNL A   1      40.137  29.439  30.651  1.00  0.00    -0.014 A 
BRANCH  48  49
ATOM     49  C   UNL A   1      40.947  28.248  30.558  1.00  0.00     0.031 A 
ATOM     50  C   UNL A   1      41.737  27.944  31.763  1.00  0.00     0.074 A 
ATOM     51  C   UNL A   1      40.920  27.454  29.474  1.00  0.00     0.049 A 
ATOM     52  N   UNL A   1      43.020  27.919  31.878  1.00  0.00    -0.248 NA
ATOM     53  C   UNL A   1      40.997  27.752  33.018  1.00  0.00     0.031 C 
ATOM     54  C   UNL A   1      39.976  27.477  28.353  1.00  0.00     0.029 A 
ATOM     55  N   UNL A   1      41.688  26.364  29.216  1.00  0.00    -0.354 N 
ATOM     56  C   UNL A   1      43.264  27.549  33.193  1.00  0.00     0.074 A 
ATOM     57  C   UNL A   1      41.998  27.602  33.882  1.00  0.00     0.031 C 
ATOM     58  C   UNL A   1      40.084  26.316  27.667  1.00  0.00     0.029 A 
ATOM     59  C   UNL A   1      41.184  25.544  28.222  1.00  0.00     0.049 A 
ATOM     60  H   UNL A   1      42.528  26.175  29.693  1.00  0.00     0.167 HD
ATOM     61  C   UNL A   1      44.446  27.004  33.578  1.00  0.00     0.031 A 
ATOM     62  C   UNL A   1      41.596  24.284  27.946  1.00  0.00     0.031 A 
ATOM     63  C   UNL A   1      45.500  27.248  32.632  1.00  0.00     0.049 A 
ATOM     64  C   UNL A   1      42.940  24.102  28.547  1.00  0.00     0.074 A 
ATOM     65  C   UNL A   1      46.096  28.385  32.124  1.00  0.00     0.029 A 
ATOM     66  N   UNL A   1      45.843  26.230  31.776  1.00  0.00    -0.354 N 
ATOM     67  N   UNL A   1      44.011  24.700  28.113  1.00  0.00    -0.248 NA
ATOM     68  C   UNL A   1      43.029  23.576  29.901  1.00  0.00     0.031 C 
ATOM     69  C   UNL A   1      46.364  28.085  30.756  1.00  0.00     0.029 A 
ATOM     70  C   UNL A   1      45.953  26.773  30.520  1.00  0.00     0.049 A 
ATOM     71  H   UNL A   1      45.983  25.285  32.019  1.00  0.00     0.167 HD
ATOM     72  C   UNL A   1      44.738  25.005  29.256  1.00  0.00     0.074 A 
ATOM     73  C   UNL A   1      44.145  24.187  30.309  1.00  0.00     0.031 C 
ATOM     74  C   UNL A   1      45.560  26.096  29.301  1.00  0.00     0.031 A 
BRANCH  61  75
ATOM     75  C   UNL A   1      44.525  25.947  34.642  1.00  0.00    -0.014 A 
ATOM     76  C   UNL A   1      45.375  26.135  35.741  1.00  0.00     0.009 A 
ATOM     77  C   UNL A   1      43.972  24.660  34.474  1.00  0.00     0.009 A 
ATOM     78  C   UNL A   1      45.674  25.078  36.609  1.00  0.00     0.001 A 
ATOM     79  C   UNL A   1      44.231  23.618  35.362  1.00  0.00     0.001 A 
ATOM     80  C   UNL A   1      45.101  23.823  36.421  1.00  0.00     0.000 A 
ENDBRANCH  61  75
BRANCH  62  81
ATOM     81  C   UNL A   1      40.787  23.152  27.453  1.00  0.00    -0.014 A 
ATOM     82  C   UNL A   1      39.544  23.372  26.841  1.00  0.00     0.009 A 
ATOM     83  C   UNL A   1      41.350  21.865  27.352  1.00  0.00     0.009 A 
ATOM     84  C   UNL A   1      38.906  22.349  26.126  1.00  0.00     0.001 A 
ATOM     85  C   UNL A   1      40.711  20.844  26.644  1.00  0.00     0.001 A 
ATOM     86  C   UNL A   1      39.495  21.092  26.018  1.00  0.00     0.000 A 
ENDBRANCH  62  81
BRANCH  74  87
ATOM     87  C   UNL A   1      45.836  26.824  28.006  1.00  0.00    -0.014 A 
ATOM     88  C   UNL A   1      45.038  27.889  27.547  1.00  0.00     0.009 A 
ATOM     89  C   UNL A   1      47.014  26.530  27.303  1.00  0.00     0.009 A 
ATOM     90  C   UNL A   1      45.389  28.609  26.400  1.00  0.00     0.001 A 
ATOM     91  C   UNL A   1      47.376  27.265  26.170  1.00  0.00     0.001 A 
ATOM     92  C   UNL A   1      46.560  28.299  25.715  1.00  0.00     0.000 A 
ENDBRANCH  74  87
ENDBRANCH  48  49
ENDBRANCH  41  43
ENDBRANCH  40  41
ENDBRANCH  39  40
ENDBRANCH  38  39
ENDBRANCH  37  38
ENDBRANCH  36  37
ENDBRANCH   1  36
TORSDOF 21
ENDMDL
MODEL 3
REMARK VINA RESULT:     -10.9      1.810      5.004
REMARK SMILES Cc1c(C(=O)OCCOCCOCCOC(=O)c2ccc(-c3c4nc(c(-c5ccccc5)c5ccc([nH]5)c(-c5ccccc5)c5nc(c(-c6ccccc6)c6ccc3[nH]6)C=C5)C=C4)cc2)oc2c1/C(=N/NC(=O)C(c1ccccc1)c1ccccc1)CCC2
REMARK SMILES IDX 10 1 9 2 8 3 7 4 6 5 4 6 5 7 3 8 1 9 2 10 68 11 66 12 67 13
REMARK SMILES IDX 69 14 89 15 70 16 87 17 88 18 71 19 72 20 73 22 74 23 75 24
REMARK SMILES IDX 76 25 80 26 77 27 79 28 78 29 81 30 82 31 86 32 83 33 85 34
REMARK SMILES IDX 84 35 11 36 12 37 13 38 14 39 15 40 16 41 17 42 18 43 19 44
REMARK SMILES IDX 65 45 20 46 64 47 21 48 22 49 23 50 58 51 24 52 63 53 57 54
REMARK SMILES IDX 59 55 25 56 62 57 56 58 55 59 26 61 48 62 33 63 47 64 34 65
REMARK SMILES IDX 37 66 46 67 60 68 35 69 36 70 45 72 61 73 38 74 27 75 28 76
REMARK SMILES IDX 32 77 29 78 31 79 30 80 49 81 50 82 54 83 51 84 53 85 52 86
REMARK SMILES IDX 39 87 40 88 44 89 41 90 43 91 42 92
REMARK H PARENT 71 21 59 60 37 71
REMARK Flexibility Score: inf
ROOT
ATOM      1  C   UNL A   1      35.582  32.593  28.503  1.00  0.00     0.188 C 
ENDROOT
BRANCH   1   2
ATOM      2  O   UNL A   1      35.340  31.191  28.458  1.00  0.00    -0.376 OA
BRANCH   2   3
ATOM      3  C   UNL A   1      34.359  30.625  27.601  1.00  0.00     0.202 C 
BRANCH   3   4
ATOM      4  C   UNL A   1      34.525  29.228  26.978  1.00  0.00     0.261 C 
BRANCH   4   5
ATOM      5  O   UNL A   1      33.514  28.285  27.296  1.00  0.00    -0.457 OA
BRANCH   5   6
ATOM      6  C   UNL A   1      32.353  28.309  26.573  1.00  0.00     0.374 C 
ATOM      7  O   UNL A   1      31.457  29.114  26.695  1.00  0.00    -0.242 OA
BRANCH   6   8
ATOM      8  C   UNL A   1      32.493  27.286  25.555  1.00  0.00     0.215 A 
ATOM      9  C   UNL A   1      31.650  25.070  26.578  1.00  0.00     0.049 C 
ATOM     10  C   UNL A   1      32.210  25.917  25.495  1.00  0.00     0.012 A 
ATOM     11  C   UNL A   1      32.491  25.531  24.144  1.00  0.00     0.043 A 
ATOM     12  O   UNL A   1      32.852  27.744  24.322  1.00  0.00    -0.453 OA
ATOM     13  C   UNL A   1      32.770  26.713  23.485  1.00  0.00     0.114 A 
ATOM     14  C   UNL A   1      32.533  24.293  23.364  1.00  0.00     0.072 C 
ATOM     15  C   UNL A   1      33.004  26.995  22.053  1.00  0.00     0.076 C 
ATOM     16  N   UNL A   1      32.157  23.171  23.894  1.00  0.00    -0.177 NA
ATOM     17  C   UNL A   1      33.119  24.528  22.011  1.00  0.00     0.059 C 
ATOM     18  C   UNL A   1      32.623  25.755  21.267  1.00  0.00     0.014 C 
BRANCH  16  19
ATOM     19  N   UNL A   1      32.175  21.878  23.411  1.00  0.00    -0.246 N 
ATOM     20  C   UNL A   1      32.473  20.573  23.742  1.00  0.00     0.252 C 
ATOM     21  H   UNL A   1      31.856  21.893  22.481  1.00  0.00     0.193 HD
ATOM     22  O   UNL A   1      32.165  19.745  22.861  1.00  0.00    -0.272 OA
BRANCH  20  23
ATOM     23  C   UNL A   1      33.143  20.005  25.043  1.00  0.00     0.140 C 
BRANCH  23  24
ATOM     24  C   UNL A   1      33.309  18.451  24.876  1.00  0.00    -0.031 A 
ATOM     25  C   UNL A   1      34.558  17.933  24.440  1.00  0.00     0.005 A 
ATOM     26  C   UNL A   1      32.352  17.495  25.254  1.00  0.00     0.005 A 
ATOM     27  C   UNL A   1      34.910  16.592  24.610  1.00  0.00     0.000 A 
ATOM     28  C   UNL A   1      32.708  16.146  25.436  1.00  0.00     0.000 A 
ATOM     29  C   UNL A   1      33.998  15.705  25.156  1.00  0.00     0.000 A 
ENDBRANCH  23  24
BRANCH  23  30
ATOM     30  C   UNL A   1      34.273  20.991  25.477  1.00  0.00    -0.031 A 
ATOM     31  C   UNL A   1      35.474  21.238  24.795  1.00  0.00     0.005 A 
ATOM     32  C   UNL A   1      34.062  21.767  26.644  1.00  0.00     0.005 A 
ATOM     33  C   UNL A   1      36.279  22.350  25.114  1.00  0.00     0.000 A 
ATOM     34  C   UNL A   1      34.852  22.875  26.960  1.00  0.00     0.000 A 
ATOM     35  C   UNL A   1      35.939  23.195  26.164  1.00  0.00     0.000 A 
ENDBRANCH  23  30
ENDBRANCH  20  23
ENDBRANCH  16  19
ENDBRANCH   6   8
ENDBRANCH   5   6
ENDBRANCH   4   5
ENDBRANCH   3   4
ENDBRANCH   2   3
ENDBRANCH   1   2
BRANCH   1  36
ATOM     36  C   UNL A   1      35.346  33.427  29.784  1.00  0.00     0.188 C 
BRANCH  36  37
ATOM     37  O   UNL A   1      34.435  32.840  30.686  1.00  0.00    -0.376 OA
BRANCH  37  38
ATOM     38  C   UNL A   1      34.885  32.368  31.943  1.00  0.00     0.202 C 
BRANCH  38  39
ATOM     39  C   UNL A   1      36.083  32.976  32.674  1.00  0.00     0.261 C 
BRANCH  39  40
ATOM     40  O   UNL A   1      37.345  32.399  32.404  1.00  0.00    -0.460 OA
BRANCH  40  41
ATOM     41  C   UNL A   1      37.639  31.297  33.123  1.00  0.00     0.338 C 
ATOM     42  O   UNL A   1      37.492  31.140  34.323  1.00  0.00    -0.246 OA
BRANCH  41  43
ATOM     43  C   UNL A   1      38.285  30.322  32.238  1.00  0.00     0.060 A 
ATOM     44  C   UNL A   1      39.273  29.516  32.805  1.00  0.00     0.016 A 
ATOM     45  C   UNL A   1      38.125  30.443  30.849  1.00  0.00     0.016 A 
ATOM     46  C   UNL A   1      40.265  29.037  31.982  1.00  0.00     0.010 A 
ATOM     47  C   UNL A   1      39.127  29.984  30.030  1.00  0.00     0.010 A 
ATOM     48  C   UNL A   1      40.229  29.382  30.626  1.00  0.00    -0.014 A 
BRANCH  48  49
ATOM     49  C   UNL A   1      41.421  29.133  29.851  1.00  0.00     0.031 A 
ATOM     50  C   UNL A   1      41.515  27.778  29.283  1.00  0.00     0.074 A 
ATOM     51  C   UNL A   1      42.332  30.093  29.621  1.00  0.00     0.049 A 
ATOM     52  N   UNL A   1      42.388  26.869  29.553  1.00  0.00    -0.248 NA
ATOM     53  C   UNL A   1      40.433  27.352  28.384  1.00  0.00     0.031 C 
ATOM     54  C   UNL A   1      42.219  31.533  29.870  1.00  0.00     0.029 A 
ATOM     55  N   UNL A   1      43.531  29.977  28.993  1.00  0.00    -0.354 N 
ATOM     56  C   UNL A   1      42.065  25.795  28.736  1.00  0.00     0.074 A 
ATOM     57  C   UNL A   1      40.780  26.089  28.150  1.00  0.00     0.031 C 
ATOM     58  C   UNL A   1      43.197  32.174  29.188  1.00  0.00     0.029 A 
ATOM     59  C   UNL A   1      44.067  31.182  28.576  1.00  0.00     0.049 A 
ATOM     60  H   UNL A   1      43.979  29.112  28.849  1.00  0.00     0.167 HD
ATOM     61  C   UNL A   1      42.974  24.839  28.413  1.00  0.00     0.031 A 
ATOM     62  C   UNL A   1      45.100  31.337  27.714  1.00  0.00     0.031 A 
ATOM     63  C   UNL A   1      44.098  24.823  29.308  1.00  0.00     0.049 A 
ATOM     64  C   UNL A   1      45.842  30.055  27.657  1.00  0.00     0.074 A 
ATOM     65  C   UNL A   1      44.247  24.624  30.667  1.00  0.00     0.029 A 
ATOM     66  N   UNL A   1      45.264  25.414  28.886  1.00  0.00    -0.354 N 
ATOM     67  N   UNL A   1      46.549  29.585  28.644  1.00  0.00    -0.248 NA
ATOM     68  C   UNL A   1      45.462  29.078  26.647  1.00  0.00     0.031 C 
ATOM     69  C   UNL A   1      45.281  25.521  31.064  1.00  0.00     0.029 A 
ATOM     70  C   UNL A   1      45.729  26.186  29.921  1.00  0.00     0.049 A 
ATOM     71  H   UNL A   1      45.687  25.303  28.003  1.00  0.00     0.167 HD
ATOM     72  C   UNL A   1      46.341  28.213  28.612  1.00  0.00     0.074 A 
ATOM     73  C   UNL A   1      45.764  27.951  27.297  1.00  0.00     0.031 C 
ATOM     74  C   UNL A   1      46.390  27.464  29.753  1.00  0.00     0.031 A 
BRANCH  61  75
ATOM     75  C   UNL A   1      42.986  24.176  27.067  1.00  0.00    -0.014 A 
ATOM     76  C   UNL A   1      42.468  22.880  26.930  1.00  0.00     0.009 A 
ATOM     77  C   UNL A   1      43.716  24.692  25.975  1.00  0.00     0.009 A 
ATOM     78  C   UNL A   1      42.695  22.133  25.768  1.00  0.00     0.001 A 
ATOM     79  C   UNL A   1      43.904  23.968  24.799  1.00  0.00     0.001 A 
ATOM     80  C   UNL A   1      43.409  22.677  24.703  1.00  0.00     0.000 A 
ENDBRANCH  61  75
BRANCH  62  81
ATOM     81  C   UNL A   1      45.307  32.420  26.732  1.00  0.00    -0.014 A 
ATOM     82  C   UNL A   1      44.266  32.832  25.887  1.00  0.00     0.009 A 
ATOM     83  C   UNL A   1      46.459  33.228  26.797  1.00  0.00     0.009 A 
ATOM     84  C   UNL A   1      44.362  34.026  25.162  1.00  0.00     0.001 A 
ATOM     85  C   UNL A   1      46.556  34.417  26.068  1.00  0.00     0.001 A 
ATOM     86  C   UNL A   1      45.500  34.823  25.262  1.00  0.00     0.000 A 
ENDBRANCH  62  81
BRANCH  74  87
ATOM     87  C   UNL A   1      46.907  28.127  31.010  1.00  0.00    -0.014 A 
ATOM     88  C   UNL A   1      48.279  28.297  31.270  1.00  0.00     0.009 A 
ATOM     89  C   UNL A   1      45.989  28.728  31.884  1.00  0.00     0.009 A 
ATOM     90  C   UNL A   1      48.716  29.012  32.390  1.00  0.00     0.001 A 
ATOM     91  C   UNL A   1      46.425  29.462  32.990  1.00  0.00     0.001 A 
ATOM     92  C   UNL A   1      47.788  29.598  33.246  1.00  0.00     0.000 A 
ENDBRANCH  74  87
ENDBRANCH  48  49
ENDBRANCH  41  43
ENDBRANCH  40  41
ENDBRANCH  39  40
ENDBRANCH  38  39
ENDBRANCH  37  38
ENDBRANCH  36  37
ENDBRANCH   1  36
TORSDOF 21
ENDMDL
