MODEL 1
REMARK VINA RESULT:     -10.3      0.000      0.000
REMARK SMILES CCCOC(=O)c1c(NC(=O)[C@@H]2CC=CC[C@H]2C(=O)OCCOCCOCCOC(=O)c2ccc(-c3c4nc(c(-c5ccccc5)c5ccc([nH]5)c(-c5ccccc5)c5nc(c(-c6ccccc6)c6ccc3[nH]6)C=C5)C=C4)cc2)sc2c1CCCC2
REMARK SMILES IDX 22 1 21 2 20 3 18 4 19 5 17 6 12 7 13 8 14 9 16 10 15 11
REMARK SMILES IDX 10 12 9 13 11 15 8 16 7 17 82 18 80 19 81 20 83 21 86 22
REMARK SMILES IDX 84 23 85 24 5 25 6 26 4 27 3 28 2 29 1 30 23 31 24 32 25 33
REMARK SMILES IDX 26 34 27 35 28 36 29 37 30 38 31 39 32 40 33 41 79 42 34 43
REMARK SMILES IDX 78 44 35 45 36 46 37 47 72 48 38 49 77 50 71 51 73 52 39 53
REMARK SMILES IDX 76 54 70 55 69 56 40 58 62 59 47 60 61 61 48 62 51 63 60 64
REMARK SMILES IDX 74 65 49 66 50 67 59 69 75 70 52 71 41 72 42 73 46 74 43 75
REMARK SMILES IDX 45 76 44 77 63 78 64 79 68 80 65 81 67 82 66 83 53 84 54 85
REMARK SMILES IDX 58 86 55 87 57 88 56 89
REMARK H PARENT 9 14 73 57 51 68
REMARK Flexibility Score: inf
ROOT
ATOM      1  C   UNL A   1      32.601  23.596  27.031  1.00  0.00     0.202 C 
ENDROOT
BRANCH   1   2
ATOM      2  C   UNL A   1      31.924  24.697  26.209  1.00  0.00     0.261 C 
BRANCH   2   3
ATOM      3  O   UNL A   1      30.762  24.275  25.456  1.00  0.00    -0.463 OA
BRANCH   3   4
ATOM      4  C   UNL A   1      30.606  24.881  24.251  1.00  0.00     0.310 C 
ATOM      5  O   UNL A   1      29.931  25.894  24.084  1.00  0.00    -0.252 OA
BRANCH   4   6
ATOM      6  C   UNL A   1      31.305  24.192  23.074  1.00  0.00     0.116 C 
ATOM      7  C   UNL A   1      32.748  24.673  22.717  1.00  0.00     0.097 C 
ATOM      8  C   UNL A   1      33.614  23.596  22.021  1.00  0.00     0.041 C 
ATOM      9  C   UNL A   1      33.425  22.199  22.490  1.00  0.00    -0.030 C 
ATOM     10  C   UNL A   1      31.162  22.684  23.405  1.00  0.00     0.043 C 
ATOM     11  C   UNL A   1      32.310  21.789  23.093  1.00  0.00    -0.030 C 
BRANCH   7  12
ATOM     12  C   UNL A   1      32.719  25.764  21.670  1.00  0.00     0.229 C 
ATOM     13  N   UNL A   1      32.578  27.089  21.902  1.00  0.00    -0.317 N 
ATOM     14  H   UNL A   1      32.652  27.612  21.071  1.00  0.00     0.170 HD
ATOM     15  O   UNL A   1      32.936  25.451  20.492  1.00  0.00    -0.274 OA
BRANCH  13  16
ATOM     16  C   UNL A   1      32.360  27.898  22.991  1.00  0.00     0.110 A 
ATOM     17  C   UNL A   1      31.449  28.810  23.488  1.00  0.00     0.098 A 
ATOM     18  C   UNL A   1      31.922  29.393  24.734  1.00  0.00    -0.017 A 
ATOM     19  S   UNL A   1      33.681  27.671  24.081  1.00  0.00    -0.122 S 
ATOM     20  C   UNL A   1      33.130  28.869  25.136  1.00  0.00     0.011 A 
ATOM     21  C   UNL A   1      31.186  30.401  25.575  1.00  0.00     0.038 C 
ATOM     22  C   UNL A   1      33.891  29.281  26.358  1.00  0.00     0.047 C 
ATOM     23  C   UNL A   1      32.088  31.047  26.635  1.00  0.00     0.005 C 
ATOM     24  C   UNL A   1      32.965  30.009  27.345  1.00  0.00     0.006 C 
BRANCH  17  25
ATOM     25  C   UNL A   1      30.147  29.164  22.959  1.00  0.00     0.341 C 
ATOM     26  O   UNL A   1      29.109  28.651  23.348  1.00  0.00    -0.246 OA
BRANCH  25  27
ATOM     27  O   UNL A   1      30.228  30.231  22.114  1.00  0.00    -0.462 OA
BRANCH  27  28
ATOM     28  C   UNL A   1      29.000  30.637  21.493  1.00  0.00     0.233 C 
BRANCH  28  29
ATOM     29  C   UNL A   1      28.415  31.894  22.119  1.00  0.00     0.038 C 
ATOM     30  C   UNL A   1      27.707  31.627  23.432  1.00  0.00     0.007 C 
ENDBRANCH  28  29
ENDBRANCH  27  28
ENDBRANCH  25  27
ENDBRANCH  17  25
ENDBRANCH  13  16
ENDBRANCH   7  12
ENDBRANCH   4   6
ENDBRANCH   3   4
ENDBRANCH   2   3
ENDBRANCH   1   2
BRANCH   1  31
ATOM     31  O   UNL A   1      32.385  22.267  26.577  1.00  0.00    -0.376 OA
BRANCH  31  32
ATOM     32  C   UNL A   1      33.526  21.437  26.363  1.00  0.00     0.188 C 
BRANCH  32  33
ATOM     33  C   UNL A   1      34.910  22.061  26.550  1.00  0.00     0.188 C 
BRANCH  33  34
ATOM     34  O   UNL A   1      35.462  22.418  25.283  1.00  0.00    -0.376 OA
BRANCH  34  35
ATOM     35  C   UNL A   1      36.383  21.454  24.788  1.00  0.00     0.202 C 
BRANCH  35  36
ATOM     36  C   UNL A   1      37.704  21.505  25.564  1.00  0.00     0.261 C 
BRANCH  36  37
ATOM     37  O   UNL A   1      38.215  22.833  25.797  1.00  0.00    -0.460 OA
BRANCH  37  38
ATOM     38  C   UNL A   1      39.457  22.920  26.324  1.00  0.00     0.338 C 
ATOM     39  O   UNL A   1      40.371  22.129  26.173  1.00  0.00    -0.246 OA
BRANCH  38  40
ATOM     40  C   UNL A   1      39.607  24.256  26.944  1.00  0.00     0.060 A 
ATOM     41  C   UNL A   1      40.246  25.248  26.200  1.00  0.00     0.016 A 
ATOM     42  C   UNL A   1      39.150  24.547  28.227  1.00  0.00     0.016 A 
ATOM     43  C   UNL A   1      40.443  26.529  26.711  1.00  0.00     0.010 A 
ATOM     44  C   UNL A   1      39.357  25.831  28.755  1.00  0.00     0.010 A 
ATOM     45  C   UNL A   1      40.014  26.827  28.005  1.00  0.00    -0.014 A 
BRANCH  45  46
ATOM     46  C   UNL A   1      40.345  28.133  28.629  1.00  0.00     0.031 A 
ATOM     47  C   UNL A   1      41.714  28.337  29.211  1.00  0.00     0.074 A 
ATOM     48  C   UNL A   1      39.450  29.136  28.676  1.00  0.00     0.049 A 
ATOM     49  N   UNL A   1      42.161  29.303  29.971  1.00  0.00    -0.248 NA
ATOM     50  C   UNL A   1      42.715  27.308  28.886  1.00  0.00     0.031 C 
ATOM     51  C   UNL A   1      38.129  29.129  28.049  1.00  0.00     0.029 A 
ATOM     52  N   UNL A   1      39.523  30.361  29.295  1.00  0.00    -0.354 N 
ATOM     53  C   UNL A   1      43.485  28.983  30.245  1.00  0.00     0.074 A 
ATOM     54  C   UNL A   1      43.766  27.732  29.573  1.00  0.00     0.031 C 
ATOM     55  C   UNL A   1      37.510  30.290  28.327  1.00  0.00     0.029 A 
ATOM     56  C   UNL A   1      38.362  31.090  29.203  1.00  0.00     0.049 A 
ATOM     57  H   UNL A   1      40.328  30.684  29.761  1.00  0.00     0.167 HD
ATOM     58  C   UNL A   1      44.381  29.665  30.998  1.00  0.00     0.031 A 
ATOM     59  C   UNL A   1      38.009  32.246  29.798  1.00  0.00     0.031 A 
ATOM     60  C   UNL A   1      44.100  30.905  31.669  1.00  0.00     0.049 A 
ATOM     61  C   UNL A   1      38.968  32.914  30.748  1.00  0.00     0.074 A 
ATOM     62  C   UNL A   1      44.937  31.668  32.463  1.00  0.00     0.029 A 
ATOM     63  N   UNL A   1      42.881  31.564  31.623  1.00  0.00    -0.354 N 
ATOM     64  N   UNL A   1      40.199  32.580  31.053  1.00  0.00    -0.248 NA
ATOM     65  C   UNL A   1      38.478  34.109  31.453  1.00  0.00     0.031 C 
ATOM     66  C   UNL A   1      44.207  32.760  32.945  1.00  0.00     0.029 A 
ATOM     67  C   UNL A   1      42.932  32.706  32.405  1.00  0.00     0.049 A 
ATOM     68  H   UNL A   1      42.096  31.265  31.110  1.00  0.00     0.167 HD
ATOM     69  C   UNL A   1      40.634  33.527  31.971  1.00  0.00     0.074 A 
ATOM     70  C   UNL A   1      39.542  34.460  32.163  1.00  0.00     0.031 C 
ATOM     71  C   UNL A   1      41.834  33.617  32.597  1.00  0.00     0.031 A 
BRANCH  58  72
ATOM     72  C   UNL A   1      45.733  29.034  31.186  1.00  0.00    -0.014 A 
ATOM     73  C   UNL A   1      46.801  29.309  30.318  1.00  0.00     0.009 A 
ATOM     74  C   UNL A   1      45.933  28.143  32.251  1.00  0.00     0.009 A 
ATOM     75  C   UNL A   1      48.031  28.669  30.489  1.00  0.00     0.001 A 
ATOM     76  C   UNL A   1      47.171  27.525  32.436  1.00  0.00     0.001 A 
ATOM     77  C   UNL A   1      48.214  27.779  31.548  1.00  0.00     0.000 A 
ENDBRANCH  58  72
BRANCH  59  78
ATOM     78  C   UNL A   1      36.656  32.818  29.569  1.00  0.00    -0.014 A 
ATOM     79  C   UNL A   1      36.352  33.468  28.363  1.00  0.00     0.009 A 
ATOM     80  C   UNL A   1      35.663  32.722  30.557  1.00  0.00     0.009 A 
ATOM     81  C   UNL A   1      35.084  34.016  28.156  1.00  0.00     0.001 A 
ATOM     82  C   UNL A   1      34.389  33.249  30.338  1.00  0.00     0.001 A 
ATOM     83  C   UNL A   1      34.102  33.900  29.140  1.00  0.00     0.000 A 
ENDBRANCH  59  78
BRANCH  71  84
ATOM     84  C   UNL A   1      42.036  34.774  33.535  1.00  0.00    -0.014 A 
ATOM     85  C   UNL A   1      41.632  34.701  34.876  1.00  0.00     0.009 A 
ATOM     86  C   UNL A   1      42.685  35.933  33.081  1.00  0.00     0.009 A 
ATOM     87  C   UNL A   1      41.853  35.777  35.740  1.00  0.00     0.001 A 
ATOM     88  C   UNL A   1      42.928  36.997  33.952  1.00  0.00     0.001 A 
ATOM     89  C   UNL A   1      42.505  36.920  35.279  1.00  0.00     0.000 A 
ENDBRANCH  71  84
ENDBRANCH  45  46
ENDBRANCH  38  40
ENDBRANCH  37  38
ENDBRANCH  36  37
ENDBRANCH  35  36
ENDBRANCH  34  35
ENDBRANCH  33  34
ENDBRANCH  32  33
ENDBRANCH  31  32
ENDBRANCH   1  31
TORSDOF 23
ENDMDL
MODEL 2
REMARK VINA RESULT:      -9.4      1.795      5.770
REMARK SMILES CCCOC(=O)c1c(NC(=O)[C@@H]2CC=CC[C@H]2C(=O)OCCOCCOCCOC(=O)c2ccc(-c3c4nc(c(-c5ccccc5)c5ccc([nH]5)c(-c5ccccc5)c5nc(c(-c6ccccc6)c6ccc3[nH]6)C=C5)C=C4)cc2)sc2c1CCCC2
REMARK SMILES IDX 22 1 21 2 20 3 18 4 19 5 17 6 12 7 13 8 14 9 16 10 15 11
REMARK SMILES IDX 10 12 9 13 11 15 8 16 7 17 82 18 80 19 81 20 83 21 86 22
REMARK SMILES IDX 84 23 85 24 5 25 6 26 4 27 3 28 2 29 1 30 23 31 24 32 25 33
REMARK SMILES IDX 26 34 27 35 28 36 29 37 30 38 31 39 32 40 33 41 79 42 34 43
REMARK SMILES IDX 78 44 35 45 36 46 37 47 72 48 38 49 77 50 71 51 73 52 39 53
REMARK SMILES IDX 76 54 70 55 69 56 40 58 62 59 47 60 61 61 48 62 51 63 60 64
REMARK SMILES IDX 74 65 49 66 50 67 59 69 75 70 52 71 41 72 42 73 46 74 43 75
REMARK SMILES IDX 45 76 44 77 63 78 64 79 68 80 65 81 67 82 66 83 53 84 54 85
REMARK SMILES IDX 58 86 55 87 57 88 56 89
REMARK H PARENT 9 14 73 57 51 68
REMARK Flexibility Score: inf
ROOT
ATOM      1  C   UNL A   1      32.766  23.326  27.299  1.00  0.00     0.202 C 
ENDROOT
BRANCH   1   2
ATOM      2  C   UNL A   1      32.402  24.048  25.998  1.00  0.00     0.261 C 
BRANCH   2   3
ATOM      3  O   UNL A   1      30.991  24.059  25.675  1.00  0.00    -0.463 OA
BRANCH   3   4
ATOM      4  C   UNL A   1      30.642  24.880  24.651  1.00  0.00     0.310 C 
ATOM      5  O   UNL A   1      30.016  25.925  24.804  1.00  0.00    -0.252 OA
BRANCH   4   6
ATOM      6  C   UNL A   1      31.048  24.396  23.256  1.00  0.00     0.116 C 
ATOM      7  C   UNL A   1      32.294  25.072  22.597  1.00  0.00     0.097 C 
ATOM      8  C   UNL A   1      33.023  24.177  21.569  1.00  0.00     0.041 C 
ATOM      9  C   UNL A   1      33.088  22.728  21.889  1.00  0.00    -0.030 C 
ATOM     10  C   UNL A   1      31.128  22.856  23.417  1.00  0.00     0.043 C 
ATOM     11  C   UNL A   1      32.219  22.134  22.706  1.00  0.00    -0.030 C 
BRANCH   7  12
ATOM     12  C   UNL A   1      31.889  26.252  21.742  1.00  0.00     0.229 C 
ATOM     13  N   UNL A   1      31.821  27.543  22.142  1.00  0.00    -0.317 N 
ATOM     14  H   UNL A   1      31.594  28.142  21.394  1.00  0.00     0.170 HD
ATOM     15  O   UNL A   1      31.685  26.058  20.536  1.00  0.00    -0.274 OA
BRANCH  13  16
ATOM     16  C   UNL A   1      31.986  28.237  23.316  1.00  0.00     0.110 A 
ATOM     17  C   UNL A   1      31.377  29.212  24.082  1.00  0.00     0.098 A 
ATOM     18  C   UNL A   1      32.199  29.560  25.231  1.00  0.00    -0.017 A 
ATOM     19  S   UNL A   1      33.446  27.679  24.050  1.00  0.00    -0.122 S 
ATOM     20  C   UNL A   1      33.353  28.812  25.300  1.00  0.00     0.011 A 
ATOM     21  C   UNL A   1      31.849  30.560  26.300  1.00  0.00     0.038 C 
ATOM     22  C   UNL A   1      34.417  28.951  26.345  1.00  0.00     0.047 C 
ATOM     23  C   UNL A   1      33.056  30.926  27.175  1.00  0.00     0.005 C 
ATOM     24  C   UNL A   1      33.865  29.687  27.575  1.00  0.00     0.006 C 
BRANCH  17  25
ATOM     25  C   UNL A   1      30.076  29.824  23.898  1.00  0.00     0.341 C 
ATOM     26  O   UNL A   1      29.820  30.964  24.256  1.00  0.00    -0.246 OA
BRANCH  25  27
ATOM     27  O   UNL A   1      29.259  29.035  23.145  1.00  0.00    -0.462 OA
BRANCH  27  28
ATOM     28  C   UNL A   1      28.099  29.674  22.595  1.00  0.00     0.233 C 
BRANCH  28  29
ATOM     29  C   UNL A   1      28.386  30.371  21.273  1.00  0.00     0.038 C 
ATOM     30  C   UNL A   1      28.077  31.854  21.306  1.00  0.00     0.007 C 
ENDBRANCH  28  29
ENDBRANCH  27  28
ENDBRANCH  25  27
ENDBRANCH  17  25
ENDBRANCH  13  16
ENDBRANCH   7  12
ENDBRANCH   4   6
ENDBRANCH   3   4
ENDBRANCH   2   3
ENDBRANCH   1   2
BRANCH   1  31
ATOM     31  O   UNL A   1      32.742  21.907  27.243  1.00  0.00    -0.376 OA
BRANCH  31  32
ATOM     32  C   UNL A   1      33.276  21.273  26.080  1.00  0.00     0.188 C 
BRANCH  32  33
ATOM     33  C   UNL A   1      34.791  21.319  25.872  1.00  0.00     0.188 C 
BRANCH  33  34
ATOM     34  O   UNL A   1      35.097  22.003  24.657  1.00  0.00    -0.376 OA
BRANCH  34  35
ATOM     35  C   UNL A   1      36.494  22.075  24.398  1.00  0.00     0.202 C 
BRANCH  35  36
ATOM     36  C   UNL A   1      37.293  22.150  25.704  1.00  0.00     0.261 C 
BRANCH  36  37
ATOM     37  O   UNL A   1      38.575  22.801  25.589  1.00  0.00    -0.460 OA
BRANCH  37  38
ATOM     38  C   UNL A   1      39.469  22.556  26.572  1.00  0.00     0.338 C 
ATOM     39  O   UNL A   1      39.858  21.465  26.950  1.00  0.00    -0.246 OA
BRANCH  38  40
ATOM     40  C   UNL A   1      40.078  23.843  26.980  1.00  0.00     0.060 A 
ATOM     41  C   UNL A   1      40.798  23.869  28.174  1.00  0.00     0.016 A 
ATOM     42  C   UNL A   1      39.947  25.008  26.231  1.00  0.00     0.016 A 
ATOM     43  C   UNL A   1      41.392  25.040  28.642  1.00  0.00     0.010 A 
ATOM     44  C   UNL A   1      40.529  26.195  26.701  1.00  0.00     0.010 A 
ATOM     45  C   UNL A   1      41.246  26.222  27.914  1.00  0.00    -0.014 A 
BRANCH  45  46
ATOM     46  C   UNL A   1      41.736  27.512  28.463  1.00  0.00     0.031 A 
ATOM     47  C   UNL A   1      40.742  28.501  28.999  1.00  0.00     0.074 A 
ATOM     48  C   UNL A   1      43.048  27.807  28.497  1.00  0.00     0.049 A 
ATOM     49  N   UNL A   1      40.913  29.753  29.338  1.00  0.00    -0.248 NA
ATOM     50  C   UNL A   1      39.368  28.006  29.177  1.00  0.00     0.031 C 
ATOM     51  C   UNL A   1      44.135  26.901  28.126  1.00  0.00     0.029 A 
ATOM     52  N   UNL A   1      43.686  28.970  28.857  1.00  0.00    -0.354 N 
ATOM     53  C   UNL A   1      39.662  30.207  29.738  1.00  0.00     0.074 A 
ATOM     54  C   UNL A   1      38.743  29.097  29.595  1.00  0.00     0.031 C 
ATOM     55  C   UNL A   1      45.306  27.548  28.266  1.00  0.00     0.029 A 
ATOM     56  C   UNL A   1      45.046  28.927  28.671  1.00  0.00     0.049 A 
ATOM     57  H   UNL A   1      43.213  29.757  29.213  1.00  0.00     0.167 HD
ATOM     58  C   UNL A   1      39.309  31.440  30.175  1.00  0.00     0.031 A 
ATOM     59  C   UNL A   1      45.970  29.904  28.767  1.00  0.00     0.031 A 
ATOM     60  C   UNL A   1      40.222  32.543  30.313  1.00  0.00     0.049 A 
ATOM     61  C   UNL A   1      45.536  31.304  29.111  1.00  0.00     0.074 A 
ATOM     62  C   UNL A   1      39.960  33.833  30.737  1.00  0.00     0.029 A 
ATOM     63  N   UNL A   1      41.577  32.482  30.026  1.00  0.00    -0.354 N 
ATOM     64  N   UNL A   1      44.344  31.746  29.432  1.00  0.00    -0.248 NA
ATOM     65  C   UNL A   1      46.576  32.345  29.086  1.00  0.00     0.031 C 
ATOM     66  C   UNL A   1      41.148  34.570  30.652  1.00  0.00     0.029 A 
ATOM     67  C   UNL A   1      42.159  33.722  30.228  1.00  0.00     0.049 A 
ATOM     68  H   UNL A   1      42.055  31.676  29.723  1.00  0.00     0.167 HD
ATOM     69  C   UNL A   1      44.491  33.108  29.660  1.00  0.00     0.074 A 
ATOM     70  C   UNL A   1      45.892  33.420  29.456  1.00  0.00     0.031 C 
ATOM     71  C   UNL A   1      43.550  34.020  30.009  1.00  0.00     0.031 A 
BRANCH  58  72
ATOM     72  C   UNL A   1      37.853  31.669  30.467  1.00  0.00    -0.014 A 
ATOM     73  C   UNL A   1      37.315  31.458  31.746  1.00  0.00     0.009 A 
ATOM     74  C   UNL A   1      37.004  32.098  29.434  1.00  0.00     0.009 A 
ATOM     75  C   UNL A   1      35.948  31.631  31.974  1.00  0.00     0.001 A 
ATOM     76  C   UNL A   1      35.643  32.297  29.671  1.00  0.00     0.001 A 
ATOM     77  C   UNL A   1      35.115  32.051  30.937  1.00  0.00     0.000 A 
ENDBRANCH  58  72
BRANCH  59  78
ATOM     78  C   UNL A   1      47.396  29.610  28.465  1.00  0.00    -0.014 A 
ATOM     79  C   UNL A   1      48.297  29.318  29.500  1.00  0.00     0.009 A 
ATOM     80  C   UNL A   1      47.864  29.628  27.142  1.00  0.00     0.009 A 
ATOM     81  C   UNL A   1      49.640  29.056  29.215  1.00  0.00     0.001 A 
ATOM     82  C   UNL A   1      49.201  29.341  26.857  1.00  0.00     0.001 A 
ATOM     83  C   UNL A   1      50.089  29.061  27.894  1.00  0.00     0.000 A 
ENDBRANCH  59  78
BRANCH  71  84
ATOM     84  C   UNL A   1      44.006  35.438  30.212  1.00  0.00    -0.014 A 
ATOM     85  C   UNL A   1      44.474  35.879  31.458  1.00  0.00     0.009 A 
ATOM     86  C   UNL A   1      44.012  36.329  29.127  1.00  0.00     0.009 A 
ATOM     87  C   UNL A   1      44.918  37.193  31.621  1.00  0.00     0.001 A 
ATOM     88  C   UNL A   1      44.480  37.635  29.286  1.00  0.00     0.001 A 
ATOM     89  C   UNL A   1      44.926  38.067  30.534  1.00  0.00     0.000 A 
ENDBRANCH  71  84
ENDBRANCH  45  46
ENDBRANCH  38  40
ENDBRANCH  37  38
ENDBRANCH  36  37
ENDBRANCH  35  36
ENDBRANCH  34  35
ENDBRANCH  33  34
ENDBRANCH  32  33
ENDBRANCH  31  32
ENDBRANCH   1  31
TORSDOF 23
ENDMDL
MODEL 3
REMARK VINA RESULT:      -8.6      4.328      7.758
REMARK SMILES CCCOC(=O)c1c(NC(=O)[C@@H]2CC=CC[C@H]2C(=O)OCCOCCOCCOC(=O)c2ccc(-c3c4nc(c(-c5ccccc5)c5ccc([nH]5)c(-c5ccccc5)c5nc(c(-c6ccccc6)c6ccc3[nH]6)C=C5)C=C4)cc2)sc2c1CCCC2
REMARK SMILES IDX 22 1 21 2 20 3 18 4 19 5 17 6 12 7 13 8 14 9 16 10 15 11
REMARK SMILES IDX 10 12 9 13 11 15 8 16 7 17 82 18 80 19 81 20 83 21 86 22
REMARK SMILES IDX 84 23 85 24 5 25 6 26 4 27 3 28 2 29 1 30 23 31 24 32 25 33
REMARK SMILES IDX 26 34 27 35 28 36 29 37 30 38 31 39 32 40 33 41 79 42 34 43
REMARK SMILES IDX 78 44 35 45 36 46 37 47 72 48 38 49 77 50 71 51 73 52 39 53
REMARK SMILES IDX 76 54 70 55 69 56 40 58 62 59 47 60 61 61 48 62 51 63 60 64
REMARK SMILES IDX 74 65 49 66 50 67 59 69 75 70 52 71 41 72 42 73 46 74 43 75
REMARK SMILES IDX 45 76 44 77 63 78 64 79 68 80 65 81 67 82 66 83 53 84 54 85
REMARK SMILES IDX 58 86 55 87 57 88 56 89
REMARK H PARENT 9 14 73 57 51 68
REMARK Flexibility Score: inf
ROOT
ATOM      1  C   UNL A   1      32.771  23.375  27.264  1.00  0.00     0.202 C 
ENDROOT
BRANCH   1   2
ATOM      2  C   UNL A   1      32.339  24.299  26.121  1.00  0.00     0.261 C 
BRANCH   2   3
ATOM      3  O   UNL A   1      30.957  24.168  25.712  1.00  0.00    -0.463 OA
BRANCH   3   4
ATOM      4  C   UNL A   1      30.582  24.974  24.686  1.00  0.00     0.310 C 
ATOM      5  O   UNL A   1      29.943  26.012  24.838  1.00  0.00    -0.252 OA
BRANCH   4   6
ATOM      6  C   UNL A   1      30.974  24.483  23.289  1.00  0.00     0.116 C 
ATOM      7  C   UNL A   1      32.207  25.162  22.611  1.00  0.00     0.097 C 
ATOM      8  C   UNL A   1      32.931  24.265  21.580  1.00  0.00     0.041 C 
ATOM      9  C   UNL A   1      33.009  22.818  21.910  1.00  0.00    -0.030 C 
ATOM     10  C   UNL A   1      31.066  22.944  23.461  1.00  0.00     0.043 C 
ATOM     11  C   UNL A   1      32.153  22.225  22.741  1.00  0.00    -0.030 C 
BRANCH   7  12
ATOM     12  C   UNL A   1      31.784  26.333  21.752  1.00  0.00     0.229 C 
ATOM     13  N   UNL A   1      31.711  27.626  22.144  1.00  0.00    -0.317 N 
ATOM     14  H   UNL A   1      31.472  28.218  21.395  1.00  0.00     0.170 HD
ATOM     15  O   UNL A   1      31.569  26.129  20.550  1.00  0.00    -0.274 OA
BRANCH  13  16
ATOM     16  C   UNL A   1      31.883  28.330  23.311  1.00  0.00     0.110 A 
ATOM     17  C   UNL A   1      31.271  29.298  24.083  1.00  0.00     0.098 A 
ATOM     18  C   UNL A   1      32.105  29.667  25.216  1.00  0.00    -0.017 A 
ATOM     19  S   UNL A   1      33.365  27.801  24.024  1.00  0.00    -0.122 S 
ATOM     20  C   UNL A   1      33.273  28.939  25.269  1.00  0.00     0.011 A 
ATOM     21  C   UNL A   1      31.755  30.667  26.285  1.00  0.00     0.038 C 
ATOM     22  C   UNL A   1      34.352  29.102  26.295  1.00  0.00     0.047 C 
ATOM     23  C   UNL A   1      32.970  31.058  27.138  1.00  0.00     0.005 C 
ATOM     24  C   UNL A   1      33.808  29.836  27.531  1.00  0.00     0.006 C 
BRANCH  17  25
ATOM     25  C   UNL A   1      29.956  29.887  23.917  1.00  0.00     0.341 C 
ATOM     26  O   UNL A   1      29.707  31.049  24.199  1.00  0.00    -0.246 OA
BRANCH  25  27
ATOM     27  O   UNL A   1      29.111  29.037  23.268  1.00  0.00    -0.462 OA
BRANCH  27  28
ATOM     28  C   UNL A   1      28.181  29.645  22.361  1.00  0.00     0.233 C 
BRANCH  28  29
ATOM     29  C   UNL A   1      28.869  30.455  21.272  1.00  0.00     0.038 C 
ATOM     30  C   UNL A   1      28.161  31.759  20.967  1.00  0.00     0.007 C 
ENDBRANCH  28  29
ENDBRANCH  27  28
ENDBRANCH  25  27
ENDBRANCH  17  25
ENDBRANCH  13  16
ENDBRANCH   7  12
ENDBRANCH   4   6
ENDBRANCH   3   4
ENDBRANCH   2   3
ENDBRANCH   1   2
BRANCH   1  31
ATOM     31  O   UNL A   1      33.408  22.168  26.873  1.00  0.00    -0.376 OA
BRANCH  31  32
ATOM     32  C   UNL A   1      34.291  22.209  25.751  1.00  0.00     0.188 C 
BRANCH  32  33
ATOM     33  C   UNL A   1      35.773  22.478  26.017  1.00  0.00     0.188 C 
BRANCH  33  34
ATOM     34  O   UNL A   1      36.046  23.875  25.897  1.00  0.00    -0.376 OA
BRANCH  34  35
ATOM     35  C   UNL A   1      37.437  24.169  25.880  1.00  0.00     0.202 C 
BRANCH  35  36
ATOM     36  C   UNL A   1      38.227  23.146  26.705  1.00  0.00     0.261 C 
BRANCH  36  37
ATOM     37  O   UNL A   1      39.623  23.462  26.880  1.00  0.00    -0.460 OA
BRANCH  37  38
ATOM     38  C   UNL A   1      40.405  22.487  27.394  1.00  0.00     0.338 C 
ATOM     39  O   UNL A   1      40.218  21.286  27.318  1.00  0.00    -0.246 OA
BRANCH  38  40
ATOM     40  C   UNL A   1      41.658  23.105  27.883  1.00  0.00     0.060 A 
ATOM     41  C   UNL A   1      42.670  22.253  28.325  1.00  0.00     0.016 A 
ATOM     42  C   UNL A   1      41.852  24.483  27.926  1.00  0.00     0.016 A 
ATOM     43  C   UNL A   1      43.878  22.749  28.815  1.00  0.00     0.010 A 
ATOM     44  C   UNL A   1      43.059  24.991  28.432  1.00  0.00     0.010 A 
ATOM     45  C   UNL A   1      44.075  24.128  28.890  1.00  0.00    -0.014 A 
BRANCH  45  46
ATOM     46  C   UNL A   1      45.285  24.683  29.546  1.00  0.00     0.031 A 
ATOM     47  C   UNL A   1      45.237  25.006  31.012  1.00  0.00     0.074 A 
ATOM     48  C   UNL A   1      46.422  24.896  28.859  1.00  0.00     0.049 A 
ATOM     49  N   UNL A   1      46.089  25.674  31.746  1.00  0.00    -0.248 NA
ATOM     50  C   UNL A   1      44.066  24.502  31.747  1.00  0.00     0.031 C 
ATOM     51  C   UNL A   1      46.658  24.521  27.465  1.00  0.00     0.029 A 
ATOM     52  N   UNL A   1      47.596  25.494  29.251  1.00  0.00    -0.354 N 
ATOM     53  C   UNL A   1      45.542  25.701  33.024  1.00  0.00     0.074 A 
ATOM     54  C   UNL A   1      44.284  24.985  32.961  1.00  0.00     0.031 C 
ATOM     55  C   UNL A   1      47.896  24.910  27.115  1.00  0.00     0.029 A 
ATOM     56  C   UNL A   1      48.512  25.617  28.235  1.00  0.00     0.049 A 
ATOM     57  H   UNL A   1      47.763  25.805  30.170  1.00  0.00     0.167 HD
ATOM     58  C   UNL A   1      46.038  26.278  34.144  1.00  0.00     0.031 A 
ATOM     59  C   UNL A   1      49.691  26.269  28.198  1.00  0.00     0.031 A 
ATOM     60  C   UNL A   1      47.285  26.992  34.205  1.00  0.00     0.049 A 
ATOM     61  C   UNL A   1      50.156  27.029  29.411  1.00  0.00     0.074 A 
ATOM     62  C   UNL A   1      47.869  27.621  35.289  1.00  0.00     0.029 A 
ATOM     63  N   UNL A   1      48.140  27.171  33.129  1.00  0.00    -0.354 N 
ATOM     64  N   UNL A   1      49.610  27.103  30.601  1.00  0.00    -0.248 NA
ATOM     65  C   UNL A   1      51.392  27.814  29.268  1.00  0.00     0.031 C 
ATOM     66  C   UNL A   1      49.052  28.231  34.855  1.00  0.00     0.029 A 
ATOM     67  C   UNL A   1      49.230  27.933  33.513  1.00  0.00     0.049 A 
ATOM     68  H   UNL A   1      47.994  26.810  32.224  1.00  0.00     0.167 HD
ATOM     69  C   UNL A   1      50.439  27.928  31.351  1.00  0.00     0.074 A 
ATOM     70  C   UNL A   1      51.535  28.319  30.487  1.00  0.00     0.031 C 
ATOM     71  C   UNL A   1      50.306  28.325  32.641  1.00  0.00     0.031 A 
BRANCH  58  72
ATOM     72  C   UNL A   1      45.183  26.214  35.379  1.00  0.00    -0.014 A 
ATOM     73  C   UNL A   1      44.170  27.154  35.624  1.00  0.00     0.009 A 
ATOM     74  C   UNL A   1      45.406  25.194  36.317  1.00  0.00     0.009 A 
ATOM     75  C   UNL A   1      43.427  27.098  36.805  1.00  0.00     0.001 A 
ATOM     76  C   UNL A   1      44.643  25.124  37.484  1.00  0.00     0.001 A 
ATOM     77  C   UNL A   1      43.663  26.083  37.732  1.00  0.00     0.000 A 
ENDBRANCH  58  72
BRANCH  59  78
ATOM     78  C   UNL A   1      50.489  26.292  26.944  1.00  0.00    -0.014 A 
ATOM     79  C   UNL A   1      51.546  25.389  26.754  1.00  0.00     0.009 A 
ATOM     80  C   UNL A   1      50.202  27.222  25.932  1.00  0.00     0.009 A 
ATOM     81  C   UNL A   1      52.303  25.423  25.581  1.00  0.00     0.001 A 
ATOM     82  C   UNL A   1      50.944  27.237  24.749  1.00  0.00     0.001 A 
ATOM     83  C   UNL A   1      51.997  26.341  24.577  1.00  0.00     0.000 A 
ENDBRANCH  59  78
BRANCH  71  84
ATOM     84  C   UNL A   1      51.381  29.212  33.203  1.00  0.00    -0.014 A 
ATOM     85  C   UNL A   1      52.486  28.675  33.878  1.00  0.00     0.009 A 
ATOM     86  C   UNL A   1      51.309  30.601  33.011  1.00  0.00     0.009 A 
ATOM     87  C   UNL A   1      53.489  29.513  34.371  1.00  0.00     0.001 A 
ATOM     88  C   UNL A   1      52.324  31.435  33.483  1.00  0.00     0.001 A 
ATOM     89  C   UNL A   1      53.409  30.891  34.168  1.00  0.00     0.000 A 
ENDBRANCH  71  84
ENDBRANCH  45  46
ENDBRANCH  38  40
ENDBRANCH  37  38
ENDBRANCH  36  37
ENDBRANCH  35  36
ENDBRANCH  34  35
ENDBRANCH  33  34
ENDBRANCH  32  33
ENDBRANCH  31  32
ENDBRANCH   1  31
TORSDOF 23
ENDMDL
