MODEL 1
REMARK VINA RESULT:     -10.4      0.000      0.000
REMARK SMILES O=C1C[C@H](C(=O)OCCOCCOCCOC(=O)c2ccc(-c3c4nc(c(-c5ccccc5)c5ccc([nH]5)c(-c5ccccc5)c5nc(c(-c6ccccc6)c6ccc3[nH]6)C=C5)C=C4)cc2)c2c(nc(N3CCSCC3)[nH]c2=O)N1
REMARK SMILES IDX 12 1 11 2 10 3 9 4 8 5 7 6 5 7 6 8 4 9 1 10 2 11 3 12 80 13
REMARK SMILES IDX 68 14 67 16 69 17 78 18 70 19 77 20 79 21 71 23 72 24 76 25
REMARK SMILES IDX 73 26 75 27 74 28 13 29 14 30 15 31 16 32 17 33 18 34 19 35
REMARK SMILES IDX 20 36 66 37 21 38 65 39 22 40 23 41 24 42 59 43 25 44 64 45
REMARK SMILES IDX 58 46 60 47 26 48 63 49 57 50 56 51 27 53 49 54 34 55 48 56
REMARK SMILES IDX 35 57 38 58 47 59 61 60 36 61 37 62 46 64 62 65 39 66 28 67
REMARK SMILES IDX 29 68 33 69 30 70 32 71 31 72 50 73 51 74 55 75 52 76 54 77
REMARK SMILES IDX 53 78 40 79 41 80 45 81 42 82 44 83 43 84
REMARK H PARENT 80 15 77 22 60 52 38 63
REMARK Flexibility Score: inf
ROOT
ATOM      1  C   UNL A   1      33.891  32.627  28.543  1.00  0.00     0.188 C 
ENDROOT
BRANCH   1   2
ATOM      2  C   UNL A   1      34.983  31.781  27.870  1.00  0.00     0.188 C 
BRANCH   2   3
ATOM      3  O   UNL A   1      35.316  30.494  28.373  1.00  0.00    -0.376 OA
BRANCH   3   4
ATOM      4  C   UNL A   1      34.914  29.318  27.694  1.00  0.00     0.202 C 
BRANCH   4   5
ATOM      5  C   UNL A   1      33.520  29.268  27.046  1.00  0.00     0.261 C 
BRANCH   5   6
ATOM      6  O   UNL A   1      33.071  28.014  26.488  1.00  0.00    -0.463 OA
BRANCH   6   7
ATOM      7  C   UNL A   1      31.755  27.724  26.689  1.00  0.00     0.314 C 
ATOM      8  O   UNL A   1      31.208  27.826  27.780  1.00  0.00    -0.252 OA
BRANCH   7   9
ATOM      9  C   UNL A   1      31.018  27.216  25.434  1.00  0.00     0.148 C 
ATOM     10  O   UNL A   1      30.247  28.271  22.000  1.00  0.00    -0.275 OA
ATOM     11  C   UNL A   1      30.820  27.693  22.920  1.00  0.00     0.226 C 
ATOM     12  C   UNL A   1      30.860  28.255  24.318  1.00  0.00     0.121 C 
ATOM     13  N   UNL A   1      31.564  26.569  22.711  1.00  0.00    -0.310 N 
ATOM     14  C   UNL A   1      32.050  25.756  23.688  1.00  0.00     0.146 A 
ATOM     15  H   UNL A   1      31.767  26.328  21.779  1.00  0.00     0.171 HD
ATOM     16  C   UNL A   1      31.722  25.989  24.964  1.00  0.00     0.075 A 
ATOM     17  N   UNL A   1      32.804  24.711  23.244  1.00  0.00    -0.196 NA
ATOM     18  C   UNL A   1      32.029  24.905  25.907  1.00  0.00     0.258 A 
ATOM     19  C   UNL A   1      33.236  23.873  24.133  1.00  0.00     0.207 A 
ATOM     20  N   UNL A   1      32.908  23.988  25.449  1.00  0.00    -0.292 N 
ATOM     21  O   UNL A   1      31.489  24.787  26.996  1.00  0.00    -0.269 OA
ATOM     22  H   UNL A   1      33.331  23.376  26.095  1.00  0.00     0.173 HD
BRANCH  19  23
ATOM     23  N   UNL A   1      34.049  22.817  23.839  1.00  0.00    -0.341 N 
ATOM     24  C   UNL A   1      35.387  23.025  23.277  1.00  0.00     0.130 C 
ATOM     25  C   UNL A   1      33.759  21.479  24.363  1.00  0.00     0.130 C 
ATOM     26  C   UNL A   1      36.472  22.818  24.335  1.00  0.00     0.091 C 
ATOM     27  C   UNL A   1      34.698  21.076  25.497  1.00  0.00     0.091 C 
ATOM     28  S   UNL A   1      36.452  21.114  24.986  1.00  0.00    -0.158 SA
ENDBRANCH  19  23
ENDBRANCH   7   9
ENDBRANCH   6   7
ENDBRANCH   5   6
ENDBRANCH   4   5
ENDBRANCH   3   4
ENDBRANCH   2   3
ENDBRANCH   1   2
BRANCH   1  29
ATOM     29  O   UNL A   1      34.345  33.756  29.236  1.00  0.00    -0.376 OA
BRANCH  29  30
ATOM     30  C   UNL A   1      33.979  35.046  28.801  1.00  0.00     0.202 C 
BRANCH  30  31
ATOM     31  C   UNL A   1      32.901  35.903  29.494  1.00  0.00     0.261 C 
BRANCH  31  32
ATOM     32  O   UNL A   1      33.173  36.410  30.807  1.00  0.00    -0.460 OA
BRANCH  32  33
ATOM     33  C   UNL A   1      32.718  35.689  31.862  1.00  0.00     0.338 C 
ATOM     34  O   UNL A   1      31.567  35.498  32.179  1.00  0.00    -0.246 OA
BRANCH  33  35
ATOM     35  C   UNL A   1      33.884  34.990  32.461  1.00  0.00     0.060 A 
ATOM     36  C   UNL A   1      35.156  35.575  32.375  1.00  0.00     0.016 A 
ATOM     37  C   UNL A   1      33.716  33.757  33.089  1.00  0.00     0.016 A 
ATOM     38  C   UNL A   1      36.268  34.918  32.905  1.00  0.00     0.010 A 
ATOM     39  C   UNL A   1      34.836  33.080  33.580  1.00  0.00     0.010 A 
ATOM     40  C   UNL A   1      36.120  33.643  33.463  1.00  0.00    -0.014 A 
BRANCH  40  41
ATOM     41  C   UNL A   1      37.310  32.790  33.693  1.00  0.00     0.031 A 
ATOM     42  C   UNL A   1      38.098  33.008  34.956  1.00  0.00     0.074 A 
ATOM     43  C   UNL A   1      37.701  31.853  32.812  1.00  0.00     0.049 A 
ATOM     44  N   UNL A   1      39.231  32.471  35.328  1.00  0.00    -0.248 NA
ATOM     45  C   UNL A   1      37.530  33.956  35.931  1.00  0.00     0.031 C 
ATOM     46  C   UNL A   1      36.991  31.484  31.590  1.00  0.00     0.029 A 
ATOM     47  N   UNL A   1      38.811  31.043  32.816  1.00  0.00    -0.354 N 
ATOM     48  C   UNL A   1      39.512  33.020  36.572  1.00  0.00     0.074 A 
ATOM     49  C   UNL A   1      38.443  33.939  36.890  1.00  0.00     0.031 C 
ATOM     50  C   UNL A   1      37.692  30.530  30.953  1.00  0.00     0.029 A 
ATOM     51  C   UNL A   1      38.917  30.247  31.703  1.00  0.00     0.049 A 
ATOM     52  H   UNL A   1      39.469  31.035  33.550  1.00  0.00     0.167 HD
ATOM     53  C   UNL A   1      40.567  32.780  37.382  1.00  0.00     0.031 A 
ATOM     54  C   UNL A   1      39.900  29.407  31.320  1.00  0.00     0.031 A 
ATOM     55  C   UNL A   1      41.642  31.881  37.068  1.00  0.00     0.049 A 
ATOM     56  C   UNL A   1      41.121  29.236  32.185  1.00  0.00     0.074 A 
ATOM     57  C   UNL A   1      42.756  31.582  37.829  1.00  0.00     0.029 A 
ATOM     58  N   UNL A   1      41.738  31.143  35.900  1.00  0.00    -0.354 N 
ATOM     59  N   UNL A   1      41.385  29.772  33.352  1.00  0.00    -0.248 NA
ATOM     60  C   UNL A   1      42.181  28.348  31.680  1.00  0.00     0.031 C 
ATOM     61  C   UNL A   1      43.556  30.700  37.100  1.00  0.00     0.029 A 
ATOM     62  C   UNL A   1      42.909  30.407  35.910  1.00  0.00     0.049 A 
ATOM     63  H   UNL A   1      41.075  31.143  35.173  1.00  0.00     0.167 HD
ATOM     64  C   UNL A   1      42.628  29.273  33.728  1.00  0.00     0.074 A 
ATOM     65  C   UNL A   1      43.063  28.387  32.671  1.00  0.00     0.031 C 
ATOM     66  C   UNL A   1      43.337  29.528  34.854  1.00  0.00     0.031 A 
BRANCH  53  67
ATOM     67  C   UNL A   1      40.631  33.515  38.686  1.00  0.00    -0.014 A 
ATOM     68  C   UNL A   1      41.345  34.716  38.800  1.00  0.00     0.009 A 
ATOM     69  C   UNL A   1      39.892  33.049  39.783  1.00  0.00     0.009 A 
ATOM     70  C   UNL A   1      41.317  35.439  39.994  1.00  0.00     0.001 A 
ATOM     71  C   UNL A   1      39.848  33.785  40.968  1.00  0.00     0.001 A 
ATOM     72  C   UNL A   1      40.560  34.979  41.072  1.00  0.00     0.000 A 
ENDBRANCH  53  67
BRANCH  54  73
ATOM     73  C   UNL A   1      39.772  28.668  30.037  1.00  0.00    -0.014 A 
ATOM     74  C   UNL A   1      40.109  29.288  28.825  1.00  0.00     0.009 A 
ATOM     75  C   UNL A   1      39.342  27.331  30.020  1.00  0.00     0.009 A 
ATOM     76  C   UNL A   1      40.020  28.584  27.622  1.00  0.00     0.001 A 
ATOM     77  C   UNL A   1      39.275  26.624  28.818  1.00  0.00     0.001 A 
ATOM     78  C   UNL A   1      39.613  27.252  27.620  1.00  0.00     0.000 A 
ENDBRANCH  54  73
BRANCH  66  79
ATOM     79  C   UNL A   1      44.660  28.841  35.035  1.00  0.00    -0.014 A 
ATOM     80  C   UNL A   1      44.735  27.564  35.610  1.00  0.00     0.009 A 
ATOM     81  C   UNL A   1      45.823  29.420  34.503  1.00  0.00     0.009 A 
ATOM     82  C   UNL A   1      45.954  26.883  35.652  1.00  0.00     0.001 A 
ATOM     83  C   UNL A   1      47.034  28.727  34.526  1.00  0.00     0.001 A 
ATOM     84  C   UNL A   1      47.099  27.459  35.101  1.00  0.00     0.000 A 
ENDBRANCH  66  79
ENDBRANCH  40  41
ENDBRANCH  33  35
ENDBRANCH  32  33
ENDBRANCH  31  32
ENDBRANCH  30  31
ENDBRANCH  29  30
ENDBRANCH   1  29
TORSDOF 18
ENDMDL
MODEL 2
REMARK VINA RESULT:     -10.3      3.412      9.069
REMARK SMILES O=C1C[C@H](C(=O)OCCOCCOCCOC(=O)c2ccc(-c3c4nc(c(-c5ccccc5)c5ccc([nH]5)c(-c5ccccc5)c5nc(c(-c6ccccc6)c6ccc3[nH]6)C=C5)C=C4)cc2)c2c(nc(N3CCSCC3)[nH]c2=O)N1
REMARK SMILES IDX 12 1 11 2 10 3 9 4 8 5 7 6 5 7 6 8 4 9 1 10 2 11 3 12 80 13
REMARK SMILES IDX 68 14 67 16 69 17 78 18 70 19 77 20 79 21 71 23 72 24 76 25
REMARK SMILES IDX 73 26 75 27 74 28 13 29 14 30 15 31 16 32 17 33 18 34 19 35
REMARK SMILES IDX 20 36 66 37 21 38 65 39 22 40 23 41 24 42 59 43 25 44 64 45
REMARK SMILES IDX 58 46 60 47 26 48 63 49 57 50 56 51 27 53 49 54 34 55 48 56
REMARK SMILES IDX 35 57 38 58 47 59 61 60 36 61 37 62 46 64 62 65 39 66 28 67
REMARK SMILES IDX 29 68 33 69 30 70 32 71 31 72 50 73 51 74 55 75 52 76 54 77
REMARK SMILES IDX 53 78 40 79 41 80 45 81 42 82 44 83 43 84
REMARK H PARENT 80 15 77 22 60 52 38 63
REMARK Flexibility Score: inf
ROOT
ATOM      1  C   UNL A   1      39.053  22.484  26.242  1.00  0.00     0.188 C 
ENDROOT
BRANCH   1   2
ATOM      2  C   UNL A   1      37.761  22.024  25.547  1.00  0.00     0.188 C 
BRANCH   2   3
ATOM      3  O   UNL A   1      36.790  22.972  25.123  1.00  0.00    -0.376 OA
BRANCH   3   4
ATOM      4  C   UNL A   1      36.037  23.717  26.063  1.00  0.00     0.202 C 
BRANCH   4   5
ATOM      5  C   UNL A   1      34.568  24.049  25.751  1.00  0.00     0.261 C 
BRANCH   5   6
ATOM      6  O   UNL A   1      34.173  25.437  25.726  1.00  0.00    -0.463 OA
BRANCH   6   7
ATOM      7  C   UNL A   1      33.016  25.703  25.057  1.00  0.00     0.314 C 
ATOM      8  O   UNL A   1      31.907  25.493  25.532  1.00  0.00    -0.252 OA
BRANCH   7   9
ATOM      9  C   UNL A   1      33.219  26.253  23.631  1.00  0.00     0.148 C 
ATOM     10  O   UNL A   1      33.091  25.129  20.135  1.00  0.00    -0.275 OA
ATOM     11  C   UNL A   1      32.726  25.652  21.185  1.00  0.00     0.226 C 
ATOM     12  C   UNL A   1      33.227  25.187  22.528  1.00  0.00     0.121 C 
ATOM     13  N   UNL A   1      31.748  26.603  21.213  1.00  0.00    -0.310 N 
ATOM     14  C   UNL A   1      31.436  27.376  22.288  1.00  0.00     0.146 A 
ATOM     15  H   UNL A   1      31.226  26.740  20.390  1.00  0.00     0.171 HD
ATOM     16  C   UNL A   1      32.178  27.294  23.399  1.00  0.00     0.075 A 
ATOM     17  N   UNL A   1      30.392  28.232  22.097  1.00  0.00    -0.196 NA
ATOM     18  C   UNL A   1      31.969  28.364  24.383  1.00  0.00     0.258 A 
ATOM     19  C   UNL A   1      30.099  29.034  23.072  1.00  0.00     0.207 A 
ATOM     20  N   UNL A   1      30.830  29.070  24.219  1.00  0.00    -0.292 N 
ATOM     21  O   UNL A   1      32.783  28.652  25.247  1.00  0.00    -0.269 OA
ATOM     22  H   UNL A   1      30.514  29.636  24.961  1.00  0.00     0.173 HD
BRANCH  19  23
ATOM     23  N   UNL A   1      29.044  29.900  23.041  1.00  0.00    -0.341 N 
ATOM     24  C   UNL A   1      29.098  31.184  23.748  1.00  0.00     0.130 C 
ATOM     25  C   UNL A   1      27.968  29.737  22.060  1.00  0.00     0.130 C 
ATOM     26  C   UNL A   1      29.328  32.342  22.777  1.00  0.00     0.091 C 
ATOM     27  C   UNL A   1      28.036  30.769  20.937  1.00  0.00     0.091 C 
ATOM     28  S   UNL A   1      27.968  32.482  21.570  1.00  0.00    -0.158 SA
ENDBRANCH  19  23
ENDBRANCH   7   9
ENDBRANCH   6   7
ENDBRANCH   5   6
ENDBRANCH   4   5
ENDBRANCH   3   4
ENDBRANCH   2   3
ENDBRANCH   1   2
BRANCH   1  29
ATOM     29  O   UNL A   1      39.782  21.475  26.885  1.00  0.00    -0.376 OA
BRANCH  29  30
ATOM     30  C   UNL A   1      41.143  21.281  26.573  1.00  0.00     0.202 C 
BRANCH  30  31
ATOM     31  C   UNL A   1      42.018  22.350  25.888  1.00  0.00     0.261 C 
BRANCH  31  32
ATOM     32  O   UNL A   1      42.543  23.418  26.687  1.00  0.00    -0.460 OA
BRANCH  32  33
ATOM     33  C   UNL A   1      42.716  24.621  26.087  1.00  0.00     0.338 C 
ATOM     34  O   UNL A   1      43.072  24.830  24.949  1.00  0.00    -0.246 OA
BRANCH  33  35
ATOM     35  C   UNL A   1      42.195  25.660  27.010  1.00  0.00     0.060 A 
ATOM     36  C   UNL A   1      42.869  26.885  27.120  1.00  0.00     0.016 A 
ATOM     37  C   UNL A   1      41.053  25.414  27.771  1.00  0.00     0.016 A 
ATOM     38  C   UNL A   1      42.411  27.863  28.006  1.00  0.00     0.010 A 
ATOM     39  C   UNL A   1      40.621  26.375  28.689  1.00  0.00     0.010 A 
ATOM     40  C   UNL A   1      41.315  27.590  28.833  1.00  0.00    -0.014 A 
BRANCH  40  41
ATOM     41  C   UNL A   1      41.043  28.447  30.011  1.00  0.00     0.031 A 
ATOM     42  C   UNL A   1      39.918  29.441  29.913  1.00  0.00     0.074 A 
ATOM     43  C   UNL A   1      41.770  28.367  31.139  1.00  0.00     0.049 A 
ATOM     44  N   UNL A   1      39.559  30.372  30.759  1.00  0.00    -0.248 NA
ATOM     45  C   UNL A   1      39.085  29.375  28.699  1.00  0.00     0.031 C 
ATOM     46  C   UNL A   1      42.835  27.400  31.399  1.00  0.00     0.029 A 
ATOM     47  N   UNL A   1      41.719  29.129  32.281  1.00  0.00    -0.354 N 
ATOM     48  C   UNL A   1      38.467  31.002  30.177  1.00  0.00     0.074 A 
ATOM     49  C   UNL A   1      38.227  30.362  28.904  1.00  0.00     0.031 C 
ATOM     50  C   UNL A   1      43.347  27.639  32.619  1.00  0.00     0.029 A 
ATOM     51  C   UNL A   1      42.673  28.796  33.209  1.00  0.00     0.049 A 
ATOM     52  H   UNL A   1      41.059  29.848  32.419  1.00  0.00     0.167 HD
ATOM     53  C   UNL A   1      37.727  32.024  30.661  1.00  0.00     0.031 A 
ATOM     54  C   UNL A   1      42.984  29.373  34.388  1.00  0.00     0.031 A 
ATOM     55  C   UNL A   1      37.968  32.677  31.916  1.00  0.00     0.049 A 
ATOM     56  C   UNL A   1      42.217  30.581  34.858  1.00  0.00     0.074 A 
ATOM     57  C   UNL A   1      37.269  33.728  32.482  1.00  0.00     0.029 A 
ATOM     58  N   UNL A   1      38.985  32.346  32.795  1.00  0.00    -0.354 N 
ATOM     59  N   UNL A   1      41.197  31.180  34.294  1.00  0.00    -0.248 NA
ATOM     60  C   UNL A   1      42.646  31.195  36.125  1.00  0.00     0.031 C 
ATOM     61  C   UNL A   1      37.895  34.069  33.682  1.00  0.00     0.029 A 
ATOM     62  C   UNL A   1      38.947  33.192  33.890  1.00  0.00     0.049 A 
ATOM     63  H   UNL A   1      39.636  31.620  32.662  1.00  0.00     0.167 HD
ATOM     64  C   UNL A   1      40.850  32.225  35.143  1.00  0.00     0.074 A 
ATOM     65  C   UNL A   1      41.763  32.177  36.264  1.00  0.00     0.031 C 
ATOM     66  C   UNL A   1      39.860  33.138  35.001  1.00  0.00     0.031 A 
BRANCH  53  67
ATOM     67  C   UNL A   1      36.590  32.524  29.822  1.00  0.00    -0.014 A 
ATOM     68  C   UNL A   1      36.808  33.454  28.795  1.00  0.00     0.009 A 
ATOM     69  C   UNL A   1      35.306  31.986  29.999  1.00  0.00     0.009 A 
ATOM     70  C   UNL A   1      35.757  33.837  27.960  1.00  0.00     0.001 A 
ATOM     71  C   UNL A   1      34.264  32.355  29.149  1.00  0.00     0.001 A 
ATOM     72  C   UNL A   1      34.490  33.279  28.130  1.00  0.00     0.000 A 
ENDBRANCH  53  67
BRANCH  54  73
ATOM     73  C   UNL A   1      44.093  28.816  35.205  1.00  0.00    -0.014 A 
ATOM     74  C   UNL A   1      43.953  27.572  35.838  1.00  0.00     0.009 A 
ATOM     75  C   UNL A   1      45.307  29.510  35.332  1.00  0.00     0.009 A 
ATOM     76  C   UNL A   1      45.007  27.033  36.579  1.00  0.00     0.001 A 
ATOM     77  C   UNL A   1      46.366  28.959  36.057  1.00  0.00     0.001 A 
ATOM     78  C   UNL A   1      46.215  27.722  36.680  1.00  0.00     0.000 A 
ENDBRANCH  54  73
BRANCH  66  79
ATOM     79  C   UNL A   1      39.677  34.166  36.080  1.00  0.00    -0.014 A 
ATOM     80  C   UNL A   1      38.971  33.863  37.253  1.00  0.00     0.009 A 
ATOM     81  C   UNL A   1      40.333  35.404  35.980  1.00  0.00     0.009 A 
ATOM     82  C   UNL A   1      38.921  34.783  38.303  1.00  0.00     0.001 A 
ATOM     83  C   UNL A   1      40.301  36.311  37.040  1.00  0.00     0.001 A 
ATOM     84  C   UNL A   1      39.594  36.000  38.200  1.00  0.00     0.000 A 
ENDBRANCH  66  79
ENDBRANCH  40  41
ENDBRANCH  33  35
ENDBRANCH  32  33
ENDBRANCH  31  32
ENDBRANCH  30  31
ENDBRANCH  29  30
ENDBRANCH   1  29
TORSDOF 18
ENDMDL
MODEL 3
REMARK VINA RESULT:     -10.1      3.577      8.947
REMARK SMILES O=C1C[C@H](C(=O)OCCOCCOCCOC(=O)c2ccc(-c3c4nc(c(-c5ccccc5)c5ccc([nH]5)c(-c5ccccc5)c5nc(c(-c6ccccc6)c6ccc3[nH]6)C=C5)C=C4)cc2)c2c(nc(N3CCSCC3)[nH]c2=O)N1
REMARK SMILES IDX 12 1 11 2 10 3 9 4 8 5 7 6 5 7 6 8 4 9 1 10 2 11 3 12 80 13
REMARK SMILES IDX 68 14 67 16 69 17 78 18 70 19 77 20 79 21 71 23 72 24 76 25
REMARK SMILES IDX 73 26 75 27 74 28 13 29 14 30 15 31 16 32 17 33 18 34 19 35
REMARK SMILES IDX 20 36 66 37 21 38 65 39 22 40 23 41 24 42 59 43 25 44 64 45
REMARK SMILES IDX 58 46 60 47 26 48 63 49 57 50 56 51 27 53 49 54 34 55 48 56
REMARK SMILES IDX 35 57 38 58 47 59 61 60 36 61 37 62 46 64 62 65 39 66 28 67
REMARK SMILES IDX 29 68 33 69 30 70 32 71 31 72 50 73 51 74 55 75 52 76 54 77
REMARK SMILES IDX 53 78 40 79 41 80 45 81 42 82 44 83 43 84
REMARK H PARENT 80 15 77 22 60 52 38 63
REMARK Flexibility Score: inf
ROOT
ATOM      1  C   UNL A   1      40.983  20.999  26.124  1.00  0.00     0.188 C 
ENDROOT
BRANCH   1   2
ATOM      2  C   UNL A   1      40.038  21.905  26.928  1.00  0.00     0.188 C 
BRANCH   2   3
ATOM      3  O   UNL A   1      39.573  23.133  26.382  1.00  0.00    -0.376 OA
BRANCH   3   4
ATOM      4  C   UNL A   1      38.199  23.474  26.419  1.00  0.00     0.202 C 
BRANCH   4   5
ATOM      5  C   UNL A   1      37.451  23.709  25.095  1.00  0.00     0.261 C 
BRANCH   5   6
ATOM      6  O   UNL A   1      36.096  23.224  24.982  1.00  0.00    -0.463 OA
BRANCH   6   7
ATOM      7  C   UNL A   1      35.673  22.966  23.713  1.00  0.00     0.314 C 
ATOM      8  O   UNL A   1      36.399  23.076  22.732  1.00  0.00    -0.252 OA
BRANCH   7   9
ATOM      9  C   UNL A   1      34.189  22.562  23.607  1.00  0.00     0.148 C 
ATOM     10  O   UNL A   1      31.790  20.233  25.129  1.00  0.00    -0.275 OA
ATOM     11  C   UNL A   1      32.383  21.286  24.910  1.00  0.00     0.226 C 
ATOM     12  C   UNL A   1      33.805  21.314  24.412  1.00  0.00     0.121 C 
ATOM     13  N   UNL A   1      31.839  22.497  25.220  1.00  0.00    -0.310 N 
ATOM     14  C   UNL A   1      32.328  23.703  24.822  1.00  0.00     0.146 A 
ATOM     15  H   UNL A   1      31.028  22.499  25.778  1.00  0.00     0.171 HD
ATOM     16  C   UNL A   1      33.371  23.749  23.986  1.00  0.00     0.075 A 
ATOM     17  N   UNL A   1      31.641  24.784  25.289  1.00  0.00    -0.196 NA
ATOM     18  C   UNL A   1      33.637  25.056  23.372  1.00  0.00     0.258 A 
ATOM     19  C   UNL A   1      32.031  25.952  24.885  1.00  0.00     0.207 A 
ATOM     20  N   UNL A   1      33.043  26.102  23.988  1.00  0.00    -0.292 N 
ATOM     21  O   UNL A   1      34.283  25.200  22.346  1.00  0.00    -0.269 OA
ATOM     22  H   UNL A   1      33.357  27.013  23.779  1.00  0.00     0.173 HD
BRANCH  19  23
ATOM     23  N   UNL A   1      31.475  27.122  25.317  1.00  0.00    -0.341 N 
ATOM     24  C   UNL A   1      31.103  27.309  26.722  1.00  0.00     0.130 C 
ATOM     25  C   UNL A   1      31.525  28.327  24.485  1.00  0.00     0.130 C 
ATOM     26  C   UNL A   1      32.113  28.197  27.450  1.00  0.00     0.091 C 
ATOM     27  C   UNL A   1      32.537  29.351  24.996  1.00  0.00     0.091 C 
ATOM     28  S   UNL A   1      32.188  29.864  26.715  1.00  0.00    -0.158 SA
ENDBRANCH  19  23
ENDBRANCH   7   9
ENDBRANCH   6   7
ENDBRANCH   5   6
ENDBRANCH   4   5
ENDBRANCH   3   4
ENDBRANCH   2   3
ENDBRANCH   1   2
BRANCH   1  29
ATOM     29  O   UNL A   1      42.296  20.918  26.607  1.00  0.00    -0.376 OA
BRANCH  29  30
ATOM     30  C   UNL A   1      43.310  21.708  26.026  1.00  0.00     0.202 C 
BRANCH  30  31
ATOM     31  C   UNL A   1      43.059  23.101  25.417  1.00  0.00     0.261 C 
BRANCH  31  32
ATOM     32  O   UNL A   1      42.705  24.176  26.296  1.00  0.00    -0.460 OA
BRANCH  32  33
ATOM     33  C   UNL A   1      42.671  25.427  25.773  1.00  0.00     0.338 C 
ATOM     34  O   UNL A   1      42.919  25.754  24.635  1.00  0.00    -0.246 OA
BRANCH  33  35
ATOM     35  C   UNL A   1      42.072  26.322  26.795  1.00  0.00     0.060 A 
ATOM     36  C   UNL A   1      42.494  27.658  26.874  1.00  0.00     0.016 A 
ATOM     37  C   UNL A   1      41.108  25.835  27.677  1.00  0.00     0.016 A 
ATOM     38  C   UNL A   1      41.964  28.506  27.848  1.00  0.00     0.010 A 
ATOM     39  C   UNL A   1      40.611  26.673  28.680  1.00  0.00     0.010 A 
ATOM     40  C   UNL A   1      41.059  28.002  28.789  1.00  0.00    -0.014 A 
BRANCH  40  41
ATOM     41  C   UNL A   1      40.771  28.765  30.026  1.00  0.00     0.031 A 
ATOM     42  C   UNL A   1      39.655  29.774  29.986  1.00  0.00     0.074 A 
ATOM     43  C   UNL A   1      41.477  28.591  31.157  1.00  0.00     0.049 A 
ATOM     44  N   UNL A   1      39.287  30.638  30.896  1.00  0.00    -0.248 NA
ATOM     45  C   UNL A   1      38.844  29.810  28.756  1.00  0.00     0.031 C 
ATOM     46  C   UNL A   1      42.530  27.599  31.358  1.00  0.00     0.029 A 
ATOM     47  N   UNL A   1      41.410  29.262  32.353  1.00  0.00    -0.354 N 
ATOM     48  C   UNL A   1      38.210  31.321  30.346  1.00  0.00     0.074 A 
ATOM     49  C   UNL A   1      37.989  30.785  29.023  1.00  0.00     0.031 C 
ATOM     50  C   UNL A   1      43.021  27.737  32.602  1.00  0.00     0.029 A 
ATOM     51  C   UNL A   1      42.344  28.849  33.270  1.00  0.00     0.049 A 
ATOM     52  H   UNL A   1      40.753  29.973  32.536  1.00  0.00     0.167 HD
ATOM     53  C   UNL A   1      37.468  32.309  30.895  1.00  0.00     0.031 A 
ATOM     54  C   UNL A   1      42.638  29.329  34.496  1.00  0.00     0.031 A 
ATOM     55  C   UNL A   1      37.691  32.859  32.202  1.00  0.00     0.049 A 
ATOM     56  C   UNL A   1      41.870  30.503  35.046  1.00  0.00     0.074 A 
ATOM     57  C   UNL A   1      36.989  33.868  32.836  1.00  0.00     0.029 A 
ATOM     58  N   UNL A   1      38.689  32.451  33.070  1.00  0.00    -0.354 N 
ATOM     59  N   UNL A   1      40.865  31.153  34.512  1.00  0.00    -0.248 NA
ATOM     60  C   UNL A   1      42.281  31.013  36.364  1.00  0.00     0.031 C 
ATOM     61  C   UNL A   1      37.595  34.108  34.070  1.00  0.00     0.029 A 
ATOM     62  C   UNL A   1      38.637  33.209  34.227  1.00  0.00     0.049 A 
ATOM     63  H   UNL A   1      39.338  31.733  32.892  1.00  0.00     0.167 HD
ATOM     64  C   UNL A   1      40.510  32.131  35.434  1.00  0.00     0.074 A 
ATOM     65  C   UNL A   1      41.402  31.988  36.564  1.00  0.00     0.031 C 
ATOM     66  C   UNL A   1      39.529  33.061  35.347  1.00  0.00     0.031 A 
BRANCH  53  67
ATOM     67  C   UNL A   1      36.351  32.882  30.078  1.00  0.00    -0.014 A 
ATOM     68  C   UNL A   1      36.572  33.966  29.216  1.00  0.00     0.009 A 
ATOM     69  C   UNL A   1      35.088  32.270  30.100  1.00  0.00     0.009 A 
ATOM     70  C   UNL A   1      35.546  34.427  28.390  1.00  0.00     0.001 A 
ATOM     71  C   UNL A   1      34.071  32.720  29.258  1.00  0.00     0.001 A 
ATOM     72  C   UNL A   1      34.301  33.797  28.404  1.00  0.00     0.000 A 
ENDBRANCH  53  67
BRANCH  54  73
ATOM     73  C   UNL A   1      43.728  28.701  35.286  1.00  0.00    -0.014 A 
ATOM     74  C   UNL A   1      43.427  27.809  36.326  1.00  0.00     0.009 A 
ATOM     75  C   UNL A   1      45.074  28.966  34.986  1.00  0.00     0.009 A 
ATOM     76  C   UNL A   1      44.452  27.194  37.049  1.00  0.00     0.001 A 
ATOM     77  C   UNL A   1      46.096  28.332  35.696  1.00  0.00     0.001 A 
ATOM     78  C   UNL A   1      45.784  27.448  36.727  1.00  0.00     0.000 A 
ENDBRANCH  54  73
BRANCH  66  79
ATOM     79  C   UNL A   1      39.334  34.003  36.500  1.00  0.00    -0.014 A 
ATOM     80  C   UNL A   1      38.599  33.616  37.630  1.00  0.00     0.009 A 
ATOM     81  C   UNL A   1      40.004  35.237  36.511  1.00  0.00     0.009 A 
ATOM     82  C   UNL A   1      38.536  34.451  38.748  1.00  0.00     0.001 A 
ATOM     83  C   UNL A   1      39.959  36.057  37.639  1.00  0.00     0.001 A 
ATOM     84  C   UNL A   1      39.224  35.664  38.756  1.00  0.00     0.000 A 
ENDBRANCH  66  79
ENDBRANCH  40  41
ENDBRANCH  33  35
ENDBRANCH  32  33
ENDBRANCH  31  32
ENDBRANCH  30  31
ENDBRANCH  29  30
ENDBRANCH   1  29
TORSDOF 18
ENDMDL
