MODEL 1
REMARK VINA RESULT:      -8.2      0.000      0.000
REMARK SMILES CCCCCCNC(=O)Oc1cccc(-c2ccc([C@@H](C)C(=O)OCCOCCOCCOC(=O)c3ccc(-c4c5nc(c(-c6ccccc6)c6ccc([nH]6)c(-c6ccccc6)c6nc(c(-c7ccccc7)c7ccc4[nH]7)C=C6)C=C5)cc3)cc2[N+](=O)[O-])c1
REMARK SMILES IDX 25 1 24 2 22 3 23 4 20 5 21 6 19 7 16 8 17 9 85 10 18 11
REMARK SMILES IDX 84 12 15 13 11 14 12 15 89 16 13 17 14 18 10 19 8 20 7 21
REMARK SMILES IDX 9 23 6 24 5 25 4 26 3 27 2 28 1 29 86 30 87 31 88 32 26 33
REMARK SMILES IDX 27 34 28 35 29 36 30 37 31 38 32 39 33 40 34 41 35 42 36 43
REMARK SMILES IDX 37 44 83 45 38 46 82 47 39 48 40 49 41 50 76 51 42 52 81 53
REMARK SMILES IDX 75 54 77 55 43 56 80 57 74 58 73 59 44 61 66 62 51 63 65 64
REMARK SMILES IDX 52 65 55 66 64 67 78 68 53 69 54 70 63 72 79 73 56 74 45 75
REMARK SMILES IDX 46 76 50 77 47 78 49 79 48 80 67 81 68 82 72 83 69 84 71 85
REMARK SMILES IDX 70 86 57 87 58 88 62 89 59 90 61 91 60 92
REMARK H PARENT 7 22 77 60 55 71
REMARK Flexibility Score: inf
ROOT
ATOM      1  C   UNL A   1      43.210  22.942  27.189  1.00  0.00     0.261 C 
ENDROOT
BRANCH   1   2
ATOM      2  O   UNL A   1      42.679  22.378  25.966  1.00  0.00    -0.463 OA
BRANCH   2   3
ATOM      3  C   UNL A   1      42.659  21.022  25.885  1.00  0.00     0.313 C 
ATOM      4  O   UNL A   1      43.593  20.360  25.437  1.00  0.00    -0.252 OA
BRANCH   3   5
ATOM      5  C   UNL A   1      41.398  20.325  26.408  1.00  0.00     0.126 C 
ATOM      6  C   UNL A   1      41.560  18.817  26.223  1.00  0.00     0.025 C 
BRANCH   5   7
ATOM      7  C   UNL A   1      39.995  20.764  25.986  1.00  0.00    -0.027 A 
ATOM      8  C   UNL A   1      37.372  21.717  25.230  1.00  0.00     0.060 A 
ATOM      9  C   UNL A   1      37.791  20.389  24.995  1.00  0.00     0.016 A 
ATOM     10  C   UNL A   1      38.300  22.550  25.877  1.00  0.00     0.277 A 
ATOM     11  C   UNL A   1      39.065  19.917  25.375  1.00  0.00     0.006 A 
ATOM     12  C   UNL A   1      39.585  22.088  26.247  1.00  0.00     0.091 A 
BRANCH   8  13
ATOM     13  C   UNL A   1      36.010  22.131  24.827  1.00  0.00    -0.008 A 
ATOM     14  C   UNL A   1      33.619  22.327  25.220  1.00  0.00     0.133 A 
ATOM     15  C   UNL A   1      33.414  22.807  23.929  1.00  0.00     0.047 A 
ATOM     16  C   UNL A   1      34.899  21.995  25.680  1.00  0.00     0.056 A 
ATOM     17  C   UNL A   1      34.507  22.973  23.084  1.00  0.00     0.004 A 
ATOM     18  C   UNL A   1      35.789  22.634  23.528  1.00  0.00     0.009 A 
BRANCH  14  19
ATOM     19  O   UNL A   1      32.466  22.040  25.974  1.00  0.00    -0.410 OA
BRANCH  19  20
ATOM     20  C   UNL A   1      32.229  22.759  27.132  1.00  0.00     0.412 C 
ATOM     21  N   UNL A   1      31.324  23.771  26.968  1.00  0.00    -0.321 N 
ATOM     22  H   UNL A   1      31.082  24.278  27.776  1.00  0.00     0.167 HD
ATOM     23  O   UNL A   1      32.771  22.567  28.221  1.00  0.00    -0.224 OA
BRANCH  21  24
ATOM     24  C   UNL A   1      30.683  24.180  25.731  1.00  0.00     0.119 C 
BRANCH  24  25
ATOM     25  C   UNL A   1      30.070  25.579  25.820  1.00  0.00     0.021 C 
BRANCH  25  26
ATOM     26  C   UNL A   1      31.001  26.726  25.411  1.00  0.00     0.002 C 
BRANCH  26  27
ATOM     27  C   UNL A   1      31.906  27.277  26.520  1.00  0.00    -0.000 C 
BRANCH  27  28
ATOM     28  C   UNL A   1      33.401  27.319  26.192  1.00  0.00    -0.003 C 
ATOM     29  C   UNL A   1      34.096  28.573  26.700  1.00  0.00     0.004 C 
ENDBRANCH  27  28
ENDBRANCH  26  27
ENDBRANCH  25  26
ENDBRANCH  24  25
ENDBRANCH  21  24
ENDBRANCH  19  20
ENDBRANCH  14  19
ENDBRANCH   8  13
BRANCH  10  30
ATOM     30  N   UNL A   1      37.975  23.935  26.230  1.00  0.00     0.063 N 
ATOM     31  O   UNL A   1      38.924  24.731  26.286  1.00  0.00    -0.258 OA
ATOM     32  O   UNL A   1      36.802  24.213  26.504  1.00  0.00    -0.258 OA
ENDBRANCH  10  30
ENDBRANCH   5   7
ENDBRANCH   3   5
ENDBRANCH   2   3
ENDBRANCH   1   2
BRANCH   1  33
ATOM     33  C   UNL A   1      42.171  23.317  28.259  1.00  0.00     0.202 C 
BRANCH  33  34
ATOM     34  O   UNL A   1      41.844  24.691  28.431  1.00  0.00    -0.376 OA
BRANCH  34  35
ATOM     35  C   UNL A   1      42.782  25.686  28.041  1.00  0.00     0.188 C 
BRANCH  35  36
ATOM     36  C   UNL A   1      42.752  27.061  28.723  1.00  0.00     0.188 C 
BRANCH  36  37
ATOM     37  O   UNL A   1      41.925  28.011  28.092  1.00  0.00    -0.376 OA
BRANCH  37  38
ATOM     38  C   UNL A   1      42.564  29.004  27.312  1.00  0.00     0.202 C 
BRANCH  38  39
ATOM     39  C   UNL A   1      44.062  29.196  27.592  1.00  0.00     0.261 C 
BRANCH  39  40
ATOM     40  O   UNL A   1      44.967  28.649  26.615  1.00  0.00    -0.460 OA
BRANCH  40  41
ATOM     41  C   UNL A   1      46.271  28.976  26.736  1.00  0.00     0.338 C 
ATOM     42  O   UNL A   1      46.868  29.859  26.135  1.00  0.00    -0.246 OA
BRANCH  41  43
ATOM     43  C   UNL A   1      46.824  28.264  27.906  1.00  0.00     0.060 A 
ATOM     44  C   UNL A   1      46.817  26.864  27.900  1.00  0.00     0.016 A 
ATOM     45  C   UNL A   1      47.337  28.956  29.004  1.00  0.00     0.016 A 
ATOM     46  C   UNL A   1      47.275  26.147  29.004  1.00  0.00     0.010 A 
ATOM     47  C   UNL A   1      47.782  28.239  30.120  1.00  0.00     0.010 A 
ATOM     48  C   UNL A   1      47.717  26.833  30.141  1.00  0.00    -0.014 A 
BRANCH  48  49
ATOM     49  C   UNL A   1      47.917  26.095  31.412  1.00  0.00     0.031 A 
ATOM     50  C   UNL A   1      49.288  25.558  31.720  1.00  0.00     0.074 A 
ATOM     51  C   UNL A   1      46.915  25.916  32.291  1.00  0.00     0.049 A 
ATOM     52  N   UNL A   1      49.693  24.837  32.735  1.00  0.00    -0.248 NA
ATOM     53  C   UNL A   1      50.345  25.872  30.744  1.00  0.00     0.031 C 
ATOM     54  C   UNL A   1      45.554  26.424  32.139  1.00  0.00     0.029 A 
ATOM     55  N   UNL A   1      46.894  25.242  33.487  1.00  0.00    -0.354 N 
ATOM     56  C   UNL A   1      51.044  24.600  32.511  1.00  0.00     0.074 A 
ATOM     57  C   UNL A   1      51.381  25.223  31.250  1.00  0.00     0.031 C 
ATOM     58  C   UNL A   1      44.824  26.032  33.199  1.00  0.00     0.029 A 
ATOM     59  C   UNL A   1      45.657  25.216  34.082  1.00  0.00     0.049 A 
ATOM     60  H   UNL A   1      47.691  24.818  33.881  1.00  0.00     0.167 HD
ATOM     61  C   UNL A   1      51.928  23.929  33.287  1.00  0.00     0.031 A 
ATOM     62  C   UNL A   1      45.239  24.584  35.197  1.00  0.00     0.031 A 
ATOM     63  C   UNL A   1      51.592  23.296  34.535  1.00  0.00     0.049 A 
ATOM     64  C   UNL A   1      46.221  23.777  36.006  1.00  0.00     0.074 A 
ATOM     65  C   UNL A   1      52.420  22.608  35.403  1.00  0.00     0.029 A 
ATOM     66  N   UNL A   1      50.320  23.268  35.087  1.00  0.00    -0.354 N 
ATOM     67  N   UNL A   1      47.501  23.581  35.800  1.00  0.00    -0.248 NA
ATOM     68  C   UNL A   1      45.699  23.111  37.210  1.00  0.00     0.031 C 
ATOM     69  C   UNL A   1      51.637  22.104  36.447  1.00  0.00     0.029 A 
ATOM     70  C   UNL A   1      50.335  22.544  36.268  1.00  0.00     0.049 A 
ATOM     71  H   UNL A   1      49.524  23.698  34.697  1.00  0.00     0.167 HD
ATOM     72  C   UNL A   1      47.943  22.800  36.862  1.00  0.00     0.074 A 
ATOM     73  C   UNL A   1      46.798  22.570  37.717  1.00  0.00     0.031 C 
ATOM     74  C   UNL A   1      49.187  22.320  37.109  1.00  0.00     0.031 A 
BRANCH  61  75
ATOM     75  C   UNL A   1      53.337  23.807  32.776  1.00  0.00    -0.014 A 
ATOM     76  C   UNL A   1      54.204  24.910  32.735  1.00  0.00     0.009 A 
ATOM     77  C   UNL A   1      53.810  22.559  32.339  1.00  0.00     0.009 A 
ATOM     78  C   UNL A   1      55.498  24.776  32.226  1.00  0.00     0.001 A 
ATOM     79  C   UNL A   1      55.114  22.420  31.863  1.00  0.00     0.001 A 
ATOM     80  C   UNL A   1      55.953  23.531  31.795  1.00  0.00     0.000 A 
ENDBRANCH  61  75
BRANCH  62  81
ATOM     81  C   UNL A   1      43.811  24.665  35.603  1.00  0.00    -0.014 A 
ATOM     82  C   UNL A   1      42.875  23.725  35.141  1.00  0.00     0.009 A 
ATOM     83  C   UNL A   1      43.370  25.698  36.445  1.00  0.00     0.009 A 
ATOM     84  C   UNL A   1      41.527  23.835  35.494  1.00  0.00     0.001 A 
ATOM     85  C   UNL A   1      42.029  25.786  36.823  1.00  0.00     0.001 A 
ATOM     86  C   UNL A   1      41.107  24.861  36.339  1.00  0.00     0.000 A 
ENDBRANCH  62  81
BRANCH  74  87
ATOM     87  C   UNL A   1      49.390  21.533  38.377  1.00  0.00    -0.014 A 
ATOM     88  C   UNL A   1      49.175  20.147  38.427  1.00  0.00     0.009 A 
ATOM     89  C   UNL A   1      49.848  22.189  39.532  1.00  0.00     0.009 A 
ATOM     90  C   UNL A   1      49.380  19.442  39.616  1.00  0.00     0.001 A 
ATOM     91  C   UNL A   1      50.084  21.477  40.709  1.00  0.00     0.001 A 
ATOM     92  C   UNL A   1      49.839  20.105  40.753  1.00  0.00     0.000 A 
ENDBRANCH  74  87
ENDBRANCH  48  49
ENDBRANCH  41  43
ENDBRANCH  40  41
ENDBRANCH  39  40
ENDBRANCH  38  39
ENDBRANCH  37  38
ENDBRANCH  36  37
ENDBRANCH  35  36
ENDBRANCH  34  35
ENDBRANCH  33  34
ENDBRANCH   1  33
TORSDOF 27
ENDMDL
MODEL 2
REMARK VINA RESULT:      -8.0      6.809     12.266
REMARK SMILES CCCCCCNC(=O)Oc1cccc(-c2ccc([C@@H](C)C(=O)OCCOCCOCCOC(=O)c3ccc(-c4c5nc(c(-c6ccccc6)c6ccc([nH]6)c(-c6ccccc6)c6nc(c(-c7ccccc7)c7ccc4[nH]7)C=C6)C=C5)cc3)cc2[N+](=O)[O-])c1
REMARK SMILES IDX 25 1 24 2 22 3 23 4 20 5 21 6 19 7 16 8 17 9 85 10 18 11
REMARK SMILES IDX 84 12 15 13 11 14 12 15 89 16 13 17 14 18 10 19 8 20 7 21
REMARK SMILES IDX 9 23 6 24 5 25 4 26 3 27 2 28 1 29 86 30 87 31 88 32 26 33
REMARK SMILES IDX 27 34 28 35 29 36 30 37 31 38 32 39 33 40 34 41 35 42 36 43
REMARK SMILES IDX 37 44 83 45 38 46 82 47 39 48 40 49 41 50 76 51 42 52 81 53
REMARK SMILES IDX 75 54 77 55 43 56 80 57 74 58 73 59 44 61 66 62 51 63 65 64
REMARK SMILES IDX 52 65 55 66 64 67 78 68 53 69 54 70 63 72 79 73 56 74 45 75
REMARK SMILES IDX 46 76 50 77 47 78 49 79 48 80 67 81 68 82 72 83 69 84 71 85
REMARK SMILES IDX 70 86 57 87 58 88 62 89 59 90 61 91 60 92
REMARK H PARENT 7 22 77 60 55 71
REMARK Flexibility Score: inf
ROOT
ATOM      1  C   UNL A   1      51.315  36.181  26.842  1.00  0.00     0.261 C 
ENDROOT
BRANCH   1   2
ATOM      2  O   UNL A   1      51.014  35.394  28.020  1.00  0.00    -0.463 OA
BRANCH   2   3
ATOM      3  C   UNL A   1      49.827  35.648  28.629  1.00  0.00     0.313 C 
ATOM      4  O   UNL A   1      49.727  35.901  29.828  1.00  0.00    -0.252 OA
BRANCH   3   5
ATOM      5  C   UNL A   1      48.581  35.628  27.736  1.00  0.00     0.126 C 
ATOM      6  C   UNL A   1      47.835  36.950  27.907  1.00  0.00     0.025 C 
BRANCH   5   7
ATOM      7  C   UNL A   1      47.597  34.456  27.746  1.00  0.00    -0.027 A 
ATOM      8  C   UNL A   1      45.679  32.295  27.658  1.00  0.00     0.060 A 
ATOM      9  C   UNL A   1      46.724  32.340  28.607  1.00  0.00     0.016 A 
ATOM     10  C   UNL A   1      45.608  33.379  26.767  1.00  0.00     0.277 A 
ATOM     11  C   UNL A   1      47.654  33.400  28.660  1.00  0.00     0.006 A 
ATOM     12  C   UNL A   1      46.546  34.437  26.806  1.00  0.00     0.091 A 
BRANCH   8  13
ATOM     13  C   UNL A   1      44.726  31.163  27.682  1.00  0.00    -0.008 A 
ATOM     14  C   UNL A   1      43.977  28.971  26.945  1.00  0.00     0.133 A 
ATOM     15  C   UNL A   1      42.788  29.103  27.659  1.00  0.00     0.047 A 
ATOM     16  C   UNL A   1      44.948  29.980  26.953  1.00  0.00     0.056 A 
ATOM     17  C   UNL A   1      42.569  30.255  28.407  1.00  0.00     0.004 A 
ATOM     18  C   UNL A   1      43.527  31.275  28.413  1.00  0.00     0.009 A 
BRANCH  14  19
ATOM     19  O   UNL A   1      44.076  27.856  26.092  1.00  0.00    -0.410 OA
BRANCH  19  20
ATOM     20  C   UNL A   1      42.929  27.373  25.488  1.00  0.00     0.412 C 
ATOM     21  N   UNL A   1      42.544  26.146  25.953  1.00  0.00    -0.321 N 
ATOM     22  H   UNL A   1      41.703  25.785  25.592  1.00  0.00     0.167 HD
ATOM     23  O   UNL A   1      42.295  27.939  24.596  1.00  0.00    -0.224 OA
BRANCH  21  24
ATOM     24  C   UNL A   1      43.241  25.319  26.922  1.00  0.00     0.119 C 
BRANCH  24  25
ATOM     25  C   UNL A   1      42.667  25.455  28.333  1.00  0.00     0.021 C 
BRANCH  25  26
ATOM     26  C   UNL A   1      43.701  25.707  29.438  1.00  0.00     0.002 C 
BRANCH  26  27
ATOM     27  C   UNL A   1      43.374  26.848  30.409  1.00  0.00    -0.000 C 
BRANCH  27  28
ATOM     28  C   UNL A   1      44.395  27.987  30.455  1.00  0.00    -0.003 C 
ATOM     29  C   UNL A   1      45.823  27.530  30.204  1.00  0.00     0.004 C 
ENDBRANCH  27  28
ENDBRANCH  26  27
ENDBRANCH  25  26
ENDBRANCH  24  25
ENDBRANCH  21  24
ENDBRANCH  19  20
ENDBRANCH  14  19
ENDBRANCH   8  13
BRANCH  10  30
ATOM     30  N   UNL A   1      44.541  33.484  25.769  1.00  0.00     0.063 N 
ATOM     31  O   UNL A   1      44.800  33.058  24.633  1.00  0.00    -0.258 OA
ATOM     32  O   UNL A   1      43.483  34.037  26.092  1.00  0.00    -0.258 OA
ENDBRANCH  10  30
ENDBRANCH   5   7
ENDBRANCH   3   5
ENDBRANCH   2   3
ENDBRANCH   1   2
BRANCH   1  33
ATOM     33  C   UNL A   1      51.871  37.591  27.104  1.00  0.00     0.202 C 
BRANCH  33  34
ATOM     34  O   UNL A   1      50.950  38.667  27.241  1.00  0.00    -0.376 OA
BRANCH  34  35
ATOM     35  C   UNL A   1      50.723  39.231  28.526  1.00  0.00     0.188 C 
BRANCH  35  36
ATOM     36  C   UNL A   1      50.577  40.753  28.668  1.00  0.00     0.188 C 
BRANCH  36  37
ATOM     37  O   UNL A   1      49.277  41.191  28.987  1.00  0.00    -0.376 OA
BRANCH  37  38
ATOM     38  C   UNL A   1      48.342  41.259  27.927  1.00  0.00     0.202 C 
BRANCH  38  39
ATOM     39  C   UNL A   1      47.049  40.458  28.140  1.00  0.00     0.261 C 
BRANCH  39  40
ATOM     40  O   UNL A   1      46.222  40.266  26.977  1.00  0.00    -0.460 OA
BRANCH  40  41
ATOM     41  C   UNL A   1      44.888  40.383  27.147  1.00  0.00     0.338 C 
ATOM     42  O   UNL A   1      44.161  41.257  26.692  1.00  0.00    -0.246 OA
BRANCH  41  43
ATOM     43  C   UNL A   1      44.385  39.141  27.768  1.00  0.00     0.060 A 
ATOM     44  C   UNL A   1      43.828  39.214  29.051  1.00  0.00     0.016 A 
ATOM     45  C   UNL A   1      44.464  37.914  27.108  1.00  0.00     0.016 A 
ATOM     46  C   UNL A   1      43.392  38.061  29.702  1.00  0.00     0.010 A 
ATOM     47  C   UNL A   1      44.042  36.753  27.766  1.00  0.00     0.010 A 
ATOM     48  C   UNL A   1      43.540  36.817  29.080  1.00  0.00    -0.014 A 
BRANCH  48  49
ATOM     49  C   UNL A   1      43.363  35.574  29.872  1.00  0.00     0.031 A 
ATOM     50  C   UNL A   1      44.527  35.066  30.677  1.00  0.00     0.074 A 
ATOM     51  C   UNL A   1      42.191  34.914  29.898  1.00  0.00     0.049 A 
ATOM     52  N   UNL A   1      44.631  33.979  31.398  1.00  0.00    -0.248 NA
ATOM     53  C   UNL A   1      45.743  35.896  30.658  1.00  0.00     0.031 C 
ATOM     54  C   UNL A   1      40.972  35.322  29.204  1.00  0.00     0.029 A 
ATOM     55  N   UNL A   1      41.846  33.746  30.532  1.00  0.00    -0.354 N 
ATOM     56  C   UNL A   1      45.925  33.988  31.905  1.00  0.00     0.074 A 
ATOM     57  C   UNL A   1      46.578  35.168  31.382  1.00  0.00     0.031 C 
ATOM     58  C   UNL A   1      40.013  34.409  29.440  1.00  0.00     0.029 A 
ATOM     59  C   UNL A   1      40.562  33.337  30.271  1.00  0.00     0.049 A 
ATOM     60  H   UNL A   1      42.461  33.249  31.119  1.00  0.00     0.167 HD
ATOM     61  C   UNL A   1      46.518  33.098  32.736  1.00  0.00     0.031 A 
ATOM     62  C   UNL A   1      39.912  32.214  30.636  1.00  0.00     0.031 A 
ATOM     63  C   UNL A   1      45.875  31.916  33.247  1.00  0.00     0.049 A 
ATOM     64  C   UNL A   1      40.616  31.197  31.498  1.00  0.00     0.074 A 
ATOM     65  C   UNL A   1      46.385  30.962  34.109  1.00  0.00     0.029 A 
ATOM     66  N   UNL A   1      44.583  31.524  32.933  1.00  0.00    -0.354 N 
ATOM     67  N   UNL A   1      41.830  31.227  31.993  1.00  0.00    -0.248 NA
ATOM     68  C   UNL A   1      39.851  29.993  31.859  1.00  0.00     0.031 C 
ATOM     69  C   UNL A   1      45.425  29.956  34.263  1.00  0.00     0.029 A 
ATOM     70  C   UNL A   1      44.290  30.323  33.558  1.00  0.00     0.049 A 
ATOM     71  H   UNL A   1      43.965  32.024  32.351  1.00  0.00     0.167 HD
ATOM     72  C   UNL A   1      41.962  30.068  32.749  1.00  0.00     0.074 A 
ATOM     73  C   UNL A   1      40.701  29.362  32.658  1.00  0.00     0.031 C 
ATOM     74  C   UNL A   1      43.032  29.628  33.458  1.00  0.00     0.031 A 
BRANCH  61  75
ATOM     75  C   UNL A   1      47.954  33.351  33.104  1.00  0.00    -0.014 A 
ATOM     76  C   UNL A   1      48.306  34.000  34.298  1.00  0.00     0.009 A 
ATOM     77  C   UNL A   1      48.976  32.918  32.243  1.00  0.00     0.009 A 
ATOM     78  C   UNL A   1      49.646  34.251  34.600  1.00  0.00     0.001 A 
ATOM     79  C   UNL A   1      50.316  33.139  32.563  1.00  0.00     0.001 A 
ATOM     80  C   UNL A   1      50.650  33.817  33.735  1.00  0.00     0.000 A 
ENDBRANCH  61  75
BRANCH  62  81
ATOM     81  C   UNL A   1      38.522  31.974  30.165  1.00  0.00    -0.014 A 
ATOM     82  C   UNL A   1      38.274  31.235  28.997  1.00  0.00     0.009 A 
ATOM     83  C   UNL A   1      37.432  32.501  30.875  1.00  0.00     0.009 A 
ATOM     84  C   UNL A   1      36.966  31.052  28.540  1.00  0.00     0.001 A 
ATOM     85  C   UNL A   1      36.125  32.288  30.434  1.00  0.00     0.001 A 
ATOM     86  C   UNL A   1      35.893  31.573  29.261  1.00  0.00     0.000 A 
ENDBRANCH  62  81
BRANCH  74  87
ATOM     87  C   UNL A   1      42.874  28.345  34.230  1.00  0.00    -0.014 A 
ATOM     88  C   UNL A   1      43.325  27.118  33.721  1.00  0.00     0.009 A 
ATOM     89  C   UNL A   1      42.303  28.377  35.513  1.00  0.00     0.009 A 
ATOM     90  C   UNL A   1      43.174  25.945  34.465  1.00  0.00     0.001 A 
ATOM     91  C   UNL A   1      42.183  27.209  36.268  1.00  0.00     0.001 A 
ATOM     92  C   UNL A   1      42.609  25.992  35.738  1.00  0.00     0.000 A 
ENDBRANCH  74  87
ENDBRANCH  48  49
ENDBRANCH  41  43
ENDBRANCH  40  41
ENDBRANCH  39  40
ENDBRANCH  38  39
ENDBRANCH  37  38
ENDBRANCH  36  37
ENDBRANCH  35  36
ENDBRANCH  34  35
ENDBRANCH  33  34
ENDBRANCH   1  33
TORSDOF 27
ENDMDL
MODEL 3
REMARK VINA RESULT:      -7.5      4.548     10.614
REMARK SMILES CCCCCCNC(=O)Oc1cccc(-c2ccc([C@@H](C)C(=O)OCCOCCOCCOC(=O)c3ccc(-c4c5nc(c(-c6ccccc6)c6ccc([nH]6)c(-c6ccccc6)c6nc(c(-c7ccccc7)c7ccc4[nH]7)C=C6)C=C5)cc3)cc2[N+](=O)[O-])c1
REMARK SMILES IDX 25 1 24 2 22 3 23 4 20 5 21 6 19 7 16 8 17 9 85 10 18 11
REMARK SMILES IDX 84 12 15 13 11 14 12 15 89 16 13 17 14 18 10 19 8 20 7 21
REMARK SMILES IDX 9 23 6 24 5 25 4 26 3 27 2 28 1 29 86 30 87 31 88 32 26 33
REMARK SMILES IDX 27 34 28 35 29 36 30 37 31 38 32 39 33 40 34 41 35 42 36 43
REMARK SMILES IDX 37 44 83 45 38 46 82 47 39 48 40 49 41 50 76 51 42 52 81 53
REMARK SMILES IDX 75 54 77 55 43 56 80 57 74 58 73 59 44 61 66 62 51 63 65 64
REMARK SMILES IDX 52 65 55 66 64 67 78 68 53 69 54 70 63 72 79 73 56 74 45 75
REMARK SMILES IDX 46 76 50 77 47 78 49 79 48 80 67 81 68 82 72 83 69 84 71 85
REMARK SMILES IDX 70 86 57 87 58 88 62 89 59 90 61 91 60 92
REMARK H PARENT 7 22 77 60 55 71
REMARK Flexibility Score: inf
ROOT
ATOM      1  C   UNL A   1      52.410  31.801  25.690  1.00  0.00     0.261 C 
ENDROOT
BRANCH   1   2
ATOM      2  O   UNL A   1      51.318  30.858  25.566  1.00  0.00    -0.463 OA
BRANCH   2   3
ATOM      3  C   UNL A   1      51.394  29.742  26.336  1.00  0.00     0.313 C 
ATOM      4  O   UNL A   1      51.684  29.767  27.532  1.00  0.00    -0.252 OA
BRANCH   3   5
ATOM      5  C   UNL A   1      51.077  28.411  25.646  1.00  0.00     0.126 C 
ATOM      6  C   UNL A   1      51.259  28.585  24.139  1.00  0.00     0.025 C 
BRANCH   5   7
ATOM      7  C   UNL A   1      49.793  27.632  25.940  1.00  0.00    -0.027 A 
ATOM      8  C   UNL A   1      47.303  26.274  26.502  1.00  0.00     0.060 A 
ATOM      9  C   UNL A   1      48.507  25.576  26.262  1.00  0.00     0.016 A 
ATOM     10  C   UNL A   1      47.387  27.676  26.475  1.00  0.00     0.277 A 
ATOM     11  C   UNL A   1      49.727  26.236  26.001  1.00  0.00     0.006 A 
ATOM     12  C   UNL A   1      48.604  28.344  26.199  1.00  0.00     0.091 A 
BRANCH   8  13
ATOM     13  C   UNL A   1      46.069  25.513  26.795  1.00  0.00    -0.008 A 
ATOM     14  C   UNL A   1      43.854  24.701  26.206  1.00  0.00     0.133 A 
ATOM     15  C   UNL A   1      43.677  24.167  27.480  1.00  0.00     0.047 A 
ATOM     16  C   UNL A   1      45.036  25.363  25.851  1.00  0.00     0.056 A 
ATOM     17  C   UNL A   1      44.701  24.283  28.415  1.00  0.00     0.004 A 
ATOM     18  C   UNL A   1      45.882  24.953  28.075  1.00  0.00     0.009 A 
BRANCH  14  19
ATOM     19  O   UNL A   1      42.732  24.685  25.357  1.00  0.00    -0.410 OA
BRANCH  19  20
ATOM     20  C   UNL A   1      41.844  25.745  25.405  1.00  0.00     0.412 C 
ATOM     21  N   UNL A   1      40.590  25.385  25.816  1.00  0.00    -0.321 N 
ATOM     22  H   UNL A   1      39.936  26.113  25.919  1.00  0.00     0.167 HD
ATOM     23  O   UNL A   1      42.097  26.910  25.094  1.00  0.00    -0.224 OA
BRANCH  21  24
ATOM     24  C   UNL A   1      40.119  24.045  26.119  1.00  0.00     0.119 C 
BRANCH  24  25
ATOM     25  C   UNL A   1      38.931  24.042  27.083  1.00  0.00     0.021 C 
BRANCH  25  26
ATOM     26  C   UNL A   1      37.550  24.055  26.417  1.00  0.00     0.002 C 
BRANCH  26  27
ATOM     27  C   UNL A   1      36.987  22.684  26.024  1.00  0.00    -0.000 C 
BRANCH  27  28
ATOM     28  C   UNL A   1      37.412  22.166  24.648  1.00  0.00    -0.003 C 
ATOM     29  C   UNL A   1      36.513  22.644  23.518  1.00  0.00     0.004 C 
ENDBRANCH  27  28
ENDBRANCH  26  27
ENDBRANCH  25  26
ENDBRANCH  24  25
ENDBRANCH  21  24
ENDBRANCH  19  20
ENDBRANCH  14  19
ENDBRANCH   8  13
BRANCH  10  30
ATOM     30  N   UNL A   1      46.226  28.522  26.760  1.00  0.00     0.063 N 
ATOM     31  O   UNL A   1      45.607  28.281  27.808  1.00  0.00    -0.258 OA
ATOM     32  O   UNL A   1      45.897  29.374  25.926  1.00  0.00    -0.258 OA
ENDBRANCH  10  30
ENDBRANCH   5   7
ENDBRANCH   3   5
ENDBRANCH   2   3
ENDBRANCH   1   2
BRANCH   1  33
ATOM     33  C   UNL A   1      52.064  33.269  25.392  1.00  0.00     0.202 C 
BRANCH  33  34
ATOM     34  O   UNL A   1      50.729  33.586  25.016  1.00  0.00    -0.376 OA
BRANCH  34  35
ATOM     35  C   UNL A   1      49.856  34.178  25.971  1.00  0.00     0.188 C 
BRANCH  35  36
ATOM     36  C   UNL A   1      50.442  34.784  27.254  1.00  0.00     0.188 C 
BRANCH  36  37
ATOM     37  O   UNL A   1      51.027  36.055  27.089  1.00  0.00    -0.376 OA
BRANCH  37  38
ATOM     38  C   UNL A   1      50.378  37.148  27.711  1.00  0.00     0.202 C 
BRANCH  38  39
ATOM     39  C   UNL A   1      49.371  37.903  26.830  1.00  0.00     0.261 C 
BRANCH  39  40
ATOM     40  O   UNL A   1      47.985  37.776  27.198  1.00  0.00    -0.460 OA
BRANCH  40  41
ATOM     41  C   UNL A   1      47.182  37.113  26.339  1.00  0.00     0.338 C 
ATOM     42  O   UNL A   1      47.070  37.308  25.135  1.00  0.00    -0.246 OA
BRANCH  41  43
ATOM     43  C   UNL A   1      46.632  35.930  27.031  1.00  0.00     0.060 A 
ATOM     44  C   UNL A   1      46.631  35.916  28.431  1.00  0.00     0.016 A 
ATOM     45  C   UNL A   1      46.131  34.839  26.320  1.00  0.00     0.016 A 
ATOM     46  C   UNL A   1      46.176  34.799  29.130  1.00  0.00     0.010 A 
ATOM     47  C   UNL A   1      45.689  33.709  27.019  1.00  0.00     0.010 A 
ATOM     48  C   UNL A   1      45.745  33.670  28.425  1.00  0.00    -0.014 A 
BRANCH  48  49
ATOM     49  C   UNL A   1      45.549  32.386  29.144  1.00  0.00     0.031 A 
ATOM     50  C   UNL A   1      44.193  32.090  29.723  1.00  0.00     0.074 A 
ATOM     51  C   UNL A   1      46.542  31.488  29.269  1.00  0.00     0.049 A 
ATOM     52  N   UNL A   1      43.797  31.068  30.437  1.00  0.00    -0.248 NA
ATOM     53  C   UNL A   1      43.143  33.090  29.466  1.00  0.00     0.031 C 
ATOM     54  C   UNL A   1      47.887  31.627  28.716  1.00  0.00     0.029 A 
ATOM     55  N   UNL A   1      46.566  30.278  29.917  1.00  0.00    -0.354 N 
ATOM     56  C   UNL A   1      42.458  31.308  30.725  1.00  0.00     0.074 A 
ATOM     57  C   UNL A   1      42.121  32.588  30.141  1.00  0.00     0.031 C 
ATOM     58  C   UNL A   1      48.611  30.548  29.061  1.00  0.00     0.029 A 
ATOM     59  C   UNL A   1      47.792  29.661  29.888  1.00  0.00     0.049 A 
ATOM     60  H   UNL A   1      45.777  29.888  30.361  1.00  0.00     0.167 HD
ATOM     61  C   UNL A   1      41.585  30.533  31.412  1.00  0.00     0.031 A 
ATOM     62  C   UNL A   1      48.213  28.527  30.482  1.00  0.00     0.031 A 
ATOM     63  C   UNL A   1      41.922  29.267  32.007  1.00  0.00     0.049 A 
ATOM     64  C   UNL A   1      47.246  27.718  31.307  1.00  0.00     0.074 A 
ATOM     65  C   UNL A   1      41.103  28.399  32.706  1.00  0.00     0.029 A 
ATOM     66  N   UNL A   1      43.184  28.694  31.979  1.00  0.00    -0.354 N 
ATOM     67  N   UNL A   1      45.977  27.941  31.552  1.00  0.00    -0.248 NA
ATOM     68  C   UNL A   1      47.771  26.492  31.929  1.00  0.00     0.031 C 
ATOM     69  C   UNL A   1      41.886  27.332  33.161  1.00  0.00     0.029 A 
ATOM     70  C   UNL A   1      43.175  27.498  32.678  1.00  0.00     0.049 A 
ATOM     71  H   UNL A   1      43.971  29.079  31.529  1.00  0.00     0.167 HD
ATOM     72  C   UNL A   1      45.545  26.870  32.326  1.00  0.00     0.074 A 
ATOM     73  C   UNL A   1      46.683  25.991  32.499  1.00  0.00     0.031 C 
ATOM     74  C   UNL A   1      44.314  26.634  32.845  1.00  0.00     0.031 A 
BRANCH  61  75
ATOM     75  C   UNL A   1      40.190  31.065  31.594  1.00  0.00    -0.014 A 
ATOM     76  C   UNL A   1      39.207  30.909  30.604  1.00  0.00     0.009 A 
ATOM     77  C   UNL A   1      39.850  31.724  32.787  1.00  0.00     0.009 A 
ATOM     78  C   UNL A   1      37.928  31.440  30.785  1.00  0.00     0.001 A 
ATOM     79  C   UNL A   1      38.562  32.224  32.980  1.00  0.00     0.001 A 
ATOM     80  C   UNL A   1      37.606  32.093  31.975  1.00  0.00     0.000 A 
ENDBRANCH  61  75
BRANCH  62  81
ATOM     81  C   UNL A   1      49.631  28.099  30.342  1.00  0.00    -0.014 A 
ATOM     82  C   UNL A   1      50.001  27.126  29.400  1.00  0.00     0.009 A 
ATOM     83  C   UNL A   1      50.623  28.650  31.168  1.00  0.00     0.009 A 
ATOM     84  C   UNL A   1      51.328  26.699  29.306  1.00  0.00     0.001 A 
ATOM     85  C   UNL A   1      51.954  28.246  31.050  1.00  0.00     0.001 A 
ATOM     86  C   UNL A   1      52.304  27.264  30.126  1.00  0.00     0.000 A 
ENDBRANCH  62  81
BRANCH  74  87
ATOM     87  C   UNL A   1      44.118  25.353  33.613  1.00  0.00    -0.014 A 
ATOM     88  C   UNL A   1      43.878  24.133  32.962  1.00  0.00     0.009 A 
ATOM     89  C   UNL A   1      44.220  25.364  35.014  1.00  0.00     0.009 A 
ATOM     90  C   UNL A   1      43.709  22.959  33.701  1.00  0.00     0.001 A 
ATOM     91  C   UNL A   1      44.084  24.184  35.747  1.00  0.00     0.001 A 
ATOM     92  C   UNL A   1      43.818  22.984  35.090  1.00  0.00     0.000 A 
ENDBRANCH  74  87
ENDBRANCH  48  49
ENDBRANCH  41  43
ENDBRANCH  40  41
ENDBRANCH  39  40
ENDBRANCH  38  39
ENDBRANCH  37  38
ENDBRANCH  36  37
ENDBRANCH  35  36
ENDBRANCH  34  35
ENDBRANCH  33  34
ENDBRANCH   1  33
TORSDOF 27
ENDMDL
