MODEL 1
REMARK VINA RESULT:     -10.2      0.000      0.000
REMARK SMILES O=C(OCCOCCOCCOC(=O)c1ccc(-c2c3nc(c(-c4ccccc4)c4ccc([nH]4)c(-c4ccccc4)c4nc(c(-c5ccccc5)c5ccc2[nH]5)C=C4)C=C3)cc1)C1=Cc2cc(Cl)cc(Cl)c2O[C@@H]1C(F)(F)F
REMARK SMILES IDX 8 1 7 2 6 3 5 4 4 5 3 6 2 7 1 8 63 9 64 10 74 11 65 12 73 13
REMARK SMILES IDX 66 14 72 15 67 16 70 17 68 18 69 19 71 20 75 21 76 22 77 23
REMARK SMILES IDX 78 24 9 25 10 26 11 27 12 28 13 29 14 30 15 31 16 32 62 33
REMARK SMILES IDX 17 34 61 35 18 36 19 37 20 38 55 39 21 40 60 41 54 42 56 43
REMARK SMILES IDX 22 44 59 45 53 46 52 47 23 49 45 50 30 51 44 52 31 53 34 54
REMARK SMILES IDX 43 55 57 56 32 57 33 58 42 60 58 61 35 62 24 63 25 64 29 65
REMARK SMILES IDX 26 66 28 67 27 68 46 69 47 70 51 71 48 72 50 73 49 74 36 75
REMARK SMILES IDX 37 76 41 77 38 78 40 79 39 80
REMARK H PARENT 56 48 34 59
REMARK Flexibility Score: inf
ROOT
ATOM      1  C   UNL A   1      42.139  19.257  26.175  1.00  0.00     0.188 C 
ENDROOT
BRANCH   1   2
ATOM      2  C   UNL A   1      43.523  18.593  26.080  1.00  0.00     0.188 C 
BRANCH   2   3
ATOM      3  O   UNL A   1      44.251  18.422  24.805  1.00  0.00    -0.376 OA
BRANCH   3   4
ATOM      4  C   UNL A   1      45.010  19.607  23.851  1.00  0.00     0.202 C 
BRANCH   4   5
ATOM      5  C   UNL A   1      45.243  21.701  24.377  1.00  0.00     0.261 C 
BRANCH   5   6
ATOM      6  O   UNL A   1      44.723  22.377  25.640  1.00  0.00    -0.460 OA
BRANCH   6   7
ATOM      7  C   UNL A   1      45.605  23.258  26.135  1.00  0.00     0.338 C 
ATOM      8  O   UNL A   1      46.783  23.097  26.340  1.00  0.00    -0.246 OA
BRANCH   7   9
ATOM      9  C   UNL A   1      44.633  24.113  26.798  1.00  0.00     0.087 C 
ATOM     10  C   UNL A   1      44.050  23.601  28.036  1.00  0.00     0.027 C 
ATOM     11  C   UNL A   1      45.766  25.658  26.674  1.00  0.00     0.316 C 
ATOM     12  C   UNL A   1      44.542  24.147  29.681  1.00  0.00     0.020 A 
ATOM     13  O   UNL A   1      46.454  26.156  28.426  1.00  0.00    -0.474 OA
ATOM     14  C   UNL A   1      43.960  23.573  30.777  1.00  0.00     0.032 A 
ATOM     15  C   UNL A   1      45.768  25.351  29.925  1.00  0.00     0.146 A 
ATOM     16  C   UNL A   1      44.411  24.065  32.014  1.00  0.00     0.043 A 
ATOM     17  C   UNL A   1      46.176  25.721  31.178  1.00  0.00     0.085 A 
ATOM     18  Cl  UNL A   1      43.657  23.402  33.430  1.00  0.00    -0.084 Cl
ATOM     19  C   UNL A   1      45.452  25.067  32.206  1.00  0.00     0.045 A 
ATOM     20  Cl  UNL A   1      47.464  26.763  31.546  1.00  0.00    -0.080 Cl
BRANCH  11  21
ATOM     21  C   UNL A   1      44.744  26.451  25.605  1.00  0.00     0.430 C 
ATOM     22  F   UNL A   1      43.758  25.806  24.980  1.00  0.00    -0.167 F 
ATOM     23  F   UNL A   1      44.181  27.514  26.230  1.00  0.00    -0.167 F 
ATOM     24  F   UNL A   1      45.455  26.996  24.566  1.00  0.00    -0.167 F 
ENDBRANCH  11  21
ENDBRANCH   7   9
ENDBRANCH   6   7
ENDBRANCH   5   6
ENDBRANCH   4   5
ENDBRANCH   3   4
ENDBRANCH   2   3
ENDBRANCH   1   2
BRANCH   1  25
ATOM     25  O   UNL A   1      41.576  19.550  27.426  1.00  0.00    -0.376 OA
BRANCH  25  26
ATOM     26  C   UNL A   1      41.180  20.892  27.651  1.00  0.00     0.202 C 
BRANCH  26  27
ATOM     27  C   UNL A   1      40.067  21.467  26.770  1.00  0.00     0.261 C 
BRANCH  27  28
ATOM     28  O   UNL A   1      39.825  22.871  26.979  1.00  0.00    -0.460 OA
BRANCH  28  29
ATOM     29  C   UNL A   1      40.750  23.744  26.511  1.00  0.00     0.338 C 
ATOM     30  O   UNL A   1      41.585  23.559  25.645  1.00  0.00    -0.246 OA
BRANCH  29  31
ATOM     31  C   UNL A   1      40.526  25.050  27.161  1.00  0.00     0.060 A 
ATOM     32  C   UNL A   1      41.161  26.203  26.674  1.00  0.00     0.016 A 
ATOM     33  C   UNL A   1      39.690  25.112  28.274  1.00  0.00     0.016 A 
ATOM     34  C   UNL A   1      40.929  27.439  27.283  1.00  0.00     0.010 A 
ATOM     35  C   UNL A   1      39.501  26.332  28.915  1.00  0.00     0.010 A 
ATOM     36  C   UNL A   1      40.132  27.495  28.433  1.00  0.00    -0.014 A 
BRANCH  36  37
ATOM     37  C   UNL A   1      40.170  28.673  29.324  1.00  0.00     0.031 A 
ATOM     38  C   UNL A   1      41.163  28.643  30.447  1.00  0.00     0.074 A 
ATOM     39  C   UNL A   1      39.282  29.674  29.217  1.00  0.00     0.049 A 
ATOM     40  N   UNL A   1      41.276  29.432  31.481  1.00  0.00    -0.248 NA
ATOM     41  C   UNL A   1      42.144  27.545  30.408  1.00  0.00     0.031 C 
ATOM     42  C   UNL A   1      38.297  29.823  28.149  1.00  0.00     0.029 A 
ATOM     43  N   UNL A   1      39.050  30.738  30.051  1.00  0.00    -0.354 N 
ATOM     44  C   UNL A   1      42.322  28.908  32.231  1.00  0.00     0.074 A 
ATOM     45  C   UNL A   1      42.789  27.724  31.548  1.00  0.00     0.031 C 
ATOM     46  C   UNL A   1      37.539  30.903  28.411  1.00  0.00     0.029 A 
ATOM     47  C   UNL A   1      37.958  31.487  29.687  1.00  0.00     0.049 A 
ATOM     48  H   UNL A   1      39.609  30.944  30.833  1.00  0.00     0.167 HD
ATOM     49  C   UNL A   1      42.838  29.367  33.395  1.00  0.00     0.031 A 
ATOM     50  C   UNL A   1      37.343  32.496  30.334  1.00  0.00     0.031 A 
ATOM     51  C   UNL A   1      42.324  30.512  34.093  1.00  0.00     0.049 A 
ATOM     52  C   UNL A   1      37.881  32.951  31.668  1.00  0.00     0.074 A 
ATOM     53  C   UNL A   1      42.777  31.079  35.268  1.00  0.00     0.029 A 
ATOM     54  N   UNL A   1      41.217  31.247  33.690  1.00  0.00    -0.354 N 
ATOM     55  N   UNL A   1      38.896  32.481  32.355  1.00  0.00    -0.248 NA
ATOM     56  C   UNL A   1      37.193  34.080  32.312  1.00  0.00     0.031 C 
ATOM     57  C   UNL A   1      41.893  32.103  35.622  1.00  0.00     0.029 A 
ATOM     58  C   UNL A   1      40.949  32.239  34.616  1.00  0.00     0.049 A 
ATOM     59  H   UNL A   1      40.701  31.085  32.867  1.00  0.00     0.167 HD
ATOM     60  C   UNL A   1      38.992  33.277  33.492  1.00  0.00     0.074 A 
ATOM     61  C   UNL A   1      37.930  34.260  33.401  1.00  0.00     0.031 C 
ATOM     62  C   UNL A   1      39.885  33.208  34.509  1.00  0.00     0.031 A 
BRANCH  49  63
ATOM     63  C   UNL A   1      43.958  28.567  34.005  1.00  0.00    -0.014 A 
ATOM     64  C   UNL A   1      43.711  27.435  34.800  1.00  0.00     0.009 A 
ATOM     65  C   UNL A   1      45.285  28.981  33.813  1.00  0.00     0.009 A 
ATOM     66  C   UNL A   1      44.763  26.779  35.444  1.00  0.00     0.001 A 
ATOM     67  C   UNL A   1      46.338  28.297  34.422  1.00  0.00     0.001 A 
ATOM     68  C   UNL A   1      46.074  27.209  35.252  1.00  0.00     0.000 A 
ENDBRANCH  49  63
BRANCH  50  69
ATOM     69  C   UNL A   1      36.136  33.125  29.734  1.00  0.00    -0.014 A 
ATOM     70  C   UNL A   1      36.254  34.185  28.823  1.00  0.00     0.009 A 
ATOM     71  C   UNL A   1      34.853  32.643  30.047  1.00  0.00     0.009 A 
ATOM     72  C   UNL A   1      35.116  34.754  28.245  1.00  0.00     0.001 A 
ATOM     73  C   UNL A   1      33.720  33.192  29.444  1.00  0.00     0.001 A 
ATOM     74  C   UNL A   1      33.852  34.250  28.546  1.00  0.00     0.000 A 
ENDBRANCH  50  69
BRANCH  62  75
ATOM     75  C   UNL A   1      39.807  34.256  35.588  1.00  0.00    -0.014 A 
ATOM     76  C   UNL A   1      39.138  34.027  36.800  1.00  0.00     0.009 A 
ATOM     77  C   UNL A   1      40.499  35.466  35.415  1.00  0.00     0.009 A 
ATOM     78  C   UNL A   1      39.146  35.000  37.803  1.00  0.00     0.001 A 
ATOM     79  C   UNL A   1      40.537  36.419  36.433  1.00  0.00     0.001 A 
ATOM     80  C   UNL A   1      39.853  36.188  37.623  1.00  0.00     0.000 A 
ENDBRANCH  62  75
ENDBRANCH  36  37
ENDBRANCH  29  31
ENDBRANCH  28  29
ENDBRANCH  27  28
ENDBRANCH  26  27
ENDBRANCH  25  26
ENDBRANCH   1  25
TORSDOF 18
ENDMDL
MODEL 2
REMARK VINA RESULT:     -10.1      5.932      9.370
REMARK SMILES O=C(OCCOCCOCCOC(=O)c1ccc(-c2c3nc(c(-c4ccccc4)c4ccc([nH]4)c(-c4ccccc4)c4nc(c(-c5ccccc5)c5ccc2[nH]5)C=C4)C=C3)cc1)C1=Cc2cc(Cl)cc(Cl)c2O[C@@H]1C(F)(F)F
REMARK SMILES IDX 8 1 7 2 6 3 5 4 4 5 3 6 2 7 1 8 63 9 64 10 74 11 65 12 73 13
REMARK SMILES IDX 66 14 72 15 67 16 70 17 68 18 69 19 71 20 75 21 76 22 77 23
REMARK SMILES IDX 78 24 9 25 10 26 11 27 12 28 13 29 14 30 15 31 16 32 62 33
REMARK SMILES IDX 17 34 61 35 18 36 19 37 20 38 55 39 21 40 60 41 54 42 56 43
REMARK SMILES IDX 22 44 59 45 53 46 52 47 23 49 45 50 30 51 44 52 31 53 34 54
REMARK SMILES IDX 43 55 57 56 32 57 33 58 42 60 58 61 35 62 24 63 25 64 29 65
REMARK SMILES IDX 26 66 28 67 27 68 46 69 47 70 51 71 48 72 50 73 49 74 36 75
REMARK SMILES IDX 37 76 41 77 38 78 40 79 39 80
REMARK H PARENT 56 48 34 59
REMARK Flexibility Score: inf
ROOT
ATOM      1  C   UNL A   1      36.781  20.670  24.994  1.00  0.00     0.188 C 
ENDROOT
BRANCH   1   2
ATOM      2  C   UNL A   1      35.294  20.754  25.380  1.00  0.00     0.188 C 
BRANCH   2   3
ATOM      3  O   UNL A   1      34.220  20.102  24.601  1.00  0.00    -0.376 OA
BRANCH   3   4
ATOM      4  C   UNL A   1      32.538  20.316  24.731  1.00  0.00     0.202 C 
BRANCH   4   5
ATOM      5  C   UNL A   1      31.542  21.947  25.763  1.00  0.00     0.261 C 
BRANCH   5   6
ATOM      6  O   UNL A   1      30.684  23.030  25.121  1.00  0.00    -0.460 OA
BRANCH   6   7
ATOM      7  C   UNL A   1      30.847  24.218  25.720  1.00  0.00     0.338 C 
ATOM      8  O   UNL A   1      30.264  24.653  26.683  1.00  0.00    -0.246 OA
BRANCH   7   9
ATOM      9  C   UNL A   1      31.441  24.900  24.581  1.00  0.00     0.087 C 
ATOM     10  C   UNL A   1      30.522  25.607  23.692  1.00  0.00     0.027 C 
ATOM     11  C   UNL A   1      32.785  25.740  25.664  1.00  0.00     0.316 C 
ATOM     12  C   UNL A   1      30.293  27.394  23.695  1.00  0.00     0.020 A 
ATOM     13  O   UNL A   1      32.449  27.652  25.828  1.00  0.00    -0.474 OA
ATOM     14  C   UNL A   1      29.376  27.951  22.847  1.00  0.00     0.032 A 
ATOM     15  C   UNL A   1      31.167  28.434  24.774  1.00  0.00     0.146 A 
ATOM     16  C   UNL A   1      29.270  29.350  22.926  1.00  0.00     0.043 A 
ATOM     17  C   UNL A   1      30.948  29.785  24.810  1.00  0.00     0.085 A 
ATOM     18  Cl  UNL A   1      28.156  30.104  21.827  1.00  0.00    -0.084 Cl
ATOM     19  C   UNL A   1      30.000  30.212  23.847  1.00  0.00     0.045 A 
ATOM     20  Cl  UNL A   1      31.619  30.880  25.919  1.00  0.00    -0.080 Cl
BRANCH  11  21
ATOM     21  C   UNL A   1      34.041  24.880  24.957  1.00  0.00     0.430 C 
ATOM     22  F   UNL A   1      34.051  23.547  24.951  1.00  0.00    -0.167 F 
ATOM     23  F   UNL A   1      34.188  25.280  23.671  1.00  0.00    -0.167 F 
ATOM     24  F   UNL A   1      35.237  25.187  25.556  1.00  0.00    -0.167 F 
ENDBRANCH  11  21
ENDBRANCH   7   9
ENDBRANCH   6   7
ENDBRANCH   5   6
ENDBRANCH   4   5
ENDBRANCH   3   4
ENDBRANCH   2   3
ENDBRANCH   1   2
BRANCH   1  25
ATOM     25  O   UNL A   1      37.634  21.762  25.213  1.00  0.00    -0.376 OA
BRANCH  25  26
ATOM     26  C   UNL A   1      38.909  21.478  25.765  1.00  0.00     0.202 C 
BRANCH  26  27
ATOM     27  C   UNL A   1      39.412  20.034  25.697  1.00  0.00     0.261 C 
BRANCH  27  28
ATOM     28  O   UNL A   1      40.540  19.769  26.553  1.00  0.00    -0.460 OA
BRANCH  28  29
ATOM     29  C   UNL A   1      41.778  19.938  26.029  1.00  0.00     0.338 C 
ATOM     30  O   UNL A   1      42.376  19.205  25.263  1.00  0.00    -0.246 OA
BRANCH  29  31
ATOM     31  C   UNL A   1      42.286  21.256  26.458  1.00  0.00     0.060 A 
ATOM     32  C   UNL A   1      42.296  21.603  27.818  1.00  0.00     0.016 A 
ATOM     33  C   UNL A   1      42.735  22.152  25.489  1.00  0.00     0.016 A 
ATOM     34  C   UNL A   1      42.796  22.845  28.218  1.00  0.00     0.010 A 
ATOM     35  C   UNL A   1      43.181  23.409  25.882  1.00  0.00     0.010 A 
ATOM     36  C   UNL A   1      43.197  23.767  27.243  1.00  0.00    -0.014 A 
BRANCH  36  37
ATOM     37  C   UNL A   1      43.357  25.198  27.574  1.00  0.00     0.031 A 
ATOM     38  C   UNL A   1      44.749  25.675  27.866  1.00  0.00     0.074 A 
ATOM     39  C   UNL A   1      42.303  26.014  27.727  1.00  0.00     0.049 A 
ATOM     40  N   UNL A   1      45.152  26.810  28.372  1.00  0.00    -0.248 NA
ATOM     41  C   UNL A   1      45.831  24.720  27.574  1.00  0.00     0.031 C 
ATOM     42  C   UNL A   1      40.914  25.668  27.441  1.00  0.00     0.029 A 
ATOM     43  N   UNL A   1      42.246  27.300  28.204  1.00  0.00    -0.354 N 
ATOM     44  C   UNL A   1      46.531  26.692  28.485  1.00  0.00     0.074 A 
ATOM     45  C   UNL A   1      46.890  25.372  28.022  1.00  0.00     0.031 C 
ATOM     46  C   UNL A   1      40.132  26.709  27.779  1.00  0.00     0.029 A 
ATOM     47  C   UNL A   1      40.965  27.770  28.349  1.00  0.00     0.049 A 
ATOM     48  H   UNL A   1      43.044  27.832  28.421  1.00  0.00     0.167 HD
ATOM     49  C   UNL A   1      47.420  27.602  28.948  1.00  0.00     0.031 A 
ATOM     50  C   UNL A   1      40.517  28.906  28.919  1.00  0.00     0.031 A 
ATOM     51  C   UNL A   1      47.042  28.889  29.462  1.00  0.00     0.049 A 
ATOM     52  C   UNL A   1      41.511  29.879  29.501  1.00  0.00     0.074 A 
ATOM     53  C   UNL A   1      47.856  29.898  29.940  1.00  0.00     0.029 A 
ATOM     54  N   UNL A   1      45.732  29.330  29.590  1.00  0.00    -0.354 N 
ATOM     55  N   UNL A   1      42.819  29.785  29.570  1.00  0.00    -0.248 NA
ATOM     56  C   UNL A   1      40.969  31.118  30.079  1.00  0.00     0.031 C 
ATOM     57  C   UNL A   1      47.035  30.914  30.438  1.00  0.00     0.029 A 
ATOM     58  C   UNL A   1      45.713  30.583  30.177  1.00  0.00     0.049 A 
ATOM     59  H   UNL A   1      44.936  28.826  29.305  1.00  0.00     0.167 HD
ATOM     60  C   UNL A   1      43.259  30.964  30.162  1.00  0.00     0.074 A 
ATOM     61  C   UNL A   1      42.076  31.757  30.434  1.00  0.00     0.031 C 
ATOM     62  C   UNL A   1      44.525  31.358  30.442  1.00  0.00     0.031 A 
BRANCH  49  63
ATOM     63  C   UNL A   1      48.865  27.182  28.990  1.00  0.00    -0.014 A 
ATOM     64  C   UNL A   1      49.738  27.424  27.916  1.00  0.00     0.009 A 
ATOM     65  C   UNL A   1      49.350  26.493  30.112  1.00  0.00     0.009 A 
ATOM     66  C   UNL A   1      51.042  26.924  27.937  1.00  0.00     0.001 A 
ATOM     67  C   UNL A   1      50.667  26.033  30.149  1.00  0.00     0.001 A 
ATOM     68  C   UNL A   1      51.505  26.232  29.054  1.00  0.00     0.000 A 
ENDBRANCH  49  63
BRANCH  50  69
ATOM     69  C   UNL A   1      39.054  29.167  28.985  1.00  0.00    -0.014 A 
ATOM     70  C   UNL A   1      38.323  28.878  30.146  1.00  0.00     0.009 A 
ATOM     71  C   UNL A   1      38.384  29.739  27.890  1.00  0.00     0.009 A 
ATOM     72  C   UNL A   1      36.953  29.150  30.209  1.00  0.00     0.001 A 
ATOM     73  C   UNL A   1      37.023  30.039  27.966  1.00  0.00     0.001 A 
ATOM     74  C   UNL A   1      36.307  29.739  29.124  1.00  0.00     0.000 A 
ENDBRANCH  50  69
BRANCH  62  75
ATOM     75  C   UNL A   1      44.724  32.734  31.021  1.00  0.00    -0.014 A 
ATOM     76  C   UNL A   1      44.790  32.957  32.404  1.00  0.00     0.009 A 
ATOM     77  C   UNL A   1      44.939  33.815  30.150  1.00  0.00     0.009 A 
ATOM     78  C   UNL A   1      45.044  34.238  32.900  1.00  0.00     0.001 A 
ATOM     79  C   UNL A   1      45.230  35.085  30.647  1.00  0.00     0.001 A 
ATOM     80  C   UNL A   1      45.273  35.298  32.023  1.00  0.00     0.000 A 
ENDBRANCH  62  75
ENDBRANCH  36  37
ENDBRANCH  29  31
ENDBRANCH  28  29
ENDBRANCH  27  28
ENDBRANCH  26  27
ENDBRANCH  25  26
ENDBRANCH   1  25
TORSDOF 18
ENDMDL
MODEL 3
REMARK VINA RESULT:      -9.9      5.560     10.372
REMARK SMILES O=C(OCCOCCOCCOC(=O)c1ccc(-c2c3nc(c(-c4ccccc4)c4ccc([nH]4)c(-c4ccccc4)c4nc(c(-c5ccccc5)c5ccc2[nH]5)C=C4)C=C3)cc1)C1=Cc2cc(Cl)cc(Cl)c2O[C@@H]1C(F)(F)F
REMARK SMILES IDX 8 1 7 2 6 3 5 4 4 5 3 6 2 7 1 8 63 9 64 10 74 11 65 12 73 13
REMARK SMILES IDX 66 14 72 15 67 16 70 17 68 18 69 19 71 20 75 21 76 22 77 23
REMARK SMILES IDX 78 24 9 25 10 26 11 27 12 28 13 29 14 30 15 31 16 32 62 33
REMARK SMILES IDX 17 34 61 35 18 36 19 37 20 38 55 39 21 40 60 41 54 42 56 43
REMARK SMILES IDX 22 44 59 45 53 46 52 47 23 49 45 50 30 51 44 52 31 53 34 54
REMARK SMILES IDX 43 55 57 56 32 57 33 58 42 60 58 61 35 62 24 63 25 64 29 65
REMARK SMILES IDX 26 66 28 67 27 68 46 69 47 70 51 71 48 72 50 73 49 74 36 75
REMARK SMILES IDX 37 76 41 77 38 78 40 79 39 80
REMARK H PARENT 56 48 34 59
REMARK Flexibility Score: inf
ROOT
ATOM      1  C   UNL A   1      32.825  29.675  25.702  1.00  0.00     0.188 C 
ENDROOT
BRANCH   1   2
ATOM      2  C   UNL A   1      31.463  29.318  25.084  1.00  0.00     0.188 C 
BRANCH   2   3
ATOM      3  O   UNL A   1      31.204  29.343  23.628  1.00  0.00    -0.376 OA
BRANCH   3   4
ATOM      4  C   UNL A   1      30.512  28.133  22.654  1.00  0.00     0.202 C 
BRANCH   4   5
ATOM      5  C   UNL A   1      31.550  26.406  21.846  1.00  0.00     0.261 C 
BRANCH   5   6
ATOM      6  O   UNL A   1      31.437  24.970  22.346  1.00  0.00    -0.460 OA
BRANCH   6   7
ATOM      7  C   UNL A   1      32.636  24.382  22.455  1.00  0.00     0.338 C 
ATOM      8  O   UNL A   1      33.399  24.076  21.571  1.00  0.00    -0.246 OA
BRANCH   7   9
ATOM      9  C   UNL A   1      32.416  23.793  23.766  1.00  0.00     0.087 C 
ATOM     10  C   UNL A   1      31.983  22.398  23.791  1.00  0.00     0.027 C 
ATOM     11  C   UNL A   1      34.095  24.435  24.442  1.00  0.00     0.316 C 
ATOM     12  C   UNL A   1      33.071  21.014  24.175  1.00  0.00     0.020 A 
ATOM     13  O   UNL A   1      35.348  22.965  24.693  1.00  0.00    -0.474 OA
ATOM     14  C   UNL A   1      32.571  19.741  24.131  1.00  0.00     0.032 A 
ATOM     15  C   UNL A   1      34.748  21.237  24.557  1.00  0.00     0.146 A 
ATOM     16  C   UNL A   1      33.497  18.731  24.444  1.00  0.00     0.043 A 
ATOM     17  C   UNL A   1      35.581  20.177  24.794  1.00  0.00     0.085 A 
ATOM     18  Cl  UNL A   1      32.891  17.104  24.454  1.00  0.00    -0.084 Cl
ATOM     19  C   UNL A   1      34.908  18.930  24.750  1.00  0.00     0.045 A 
ATOM     20  Cl  UNL A   1      37.261  20.254  25.022  1.00  0.00    -0.080 Cl
BRANCH  11  21
ATOM     21  C   UNL A   1      33.373  25.490  25.529  1.00  0.00     0.430 C 
ATOM     22  F   UNL A   1      32.213  26.085  25.252  1.00  0.00    -0.167 F 
ATOM     23  F   UNL A   1      33.219  24.866  26.723  1.00  0.00    -0.167 F 
ATOM     24  F   UNL A   1      34.200  26.552  25.797  1.00  0.00    -0.167 F 
ENDBRANCH  11  21
ENDBRANCH   7   9
ENDBRANCH   6   7
ENDBRANCH   5   6
ENDBRANCH   4   5
ENDBRANCH   3   4
ENDBRANCH   2   3
ENDBRANCH   1   2
BRANCH   1  25
ATOM     25  O   UNL A   1      32.934  30.732  26.618  1.00  0.00    -0.376 OA
BRANCH  25  26
ATOM     26  C   UNL A   1      31.737  31.409  26.959  1.00  0.00     0.202 C 
BRANCH  26  27
ATOM     27  C   UNL A   1      31.794  32.932  27.109  1.00  0.00     0.261 C 
BRANCH  27  28
ATOM     28  O   UNL A   1      33.123  33.448  27.320  1.00  0.00    -0.460 OA
BRANCH  28  29
ATOM     29  C   UNL A   1      33.322  34.243  28.399  1.00  0.00     0.338 C 
ATOM     30  O   UNL A   1      32.624  35.158  28.797  1.00  0.00    -0.246 OA
BRANCH  29  31
ATOM     31  C   UNL A   1      34.513  33.755  29.121  1.00  0.00     0.060 A 
ATOM     32  C   UNL A   1      35.801  34.073  28.661  1.00  0.00     0.016 A 
ATOM     33  C   UNL A   1      34.335  32.960  30.251  1.00  0.00     0.016 A 
ATOM     34  C   UNL A   1      36.923  33.621  29.360  1.00  0.00     0.010 A 
ATOM     35  C   UNL A   1      35.452  32.465  30.916  1.00  0.00     0.010 A 
ATOM     36  C   UNL A   1      36.748  32.779  30.464  1.00  0.00    -0.014 A 
BRANCH  36  37
ATOM     37  C   UNL A   1      37.870  31.974  30.989  1.00  0.00     0.031 A 
ATOM     38  C   UNL A   1      38.662  32.567  32.116  1.00  0.00     0.074 A 
ATOM     39  C   UNL A   1      38.248  30.821  30.414  1.00  0.00     0.049 A 
ATOM     40  N   UNL A   1      39.801  32.184  32.627  1.00  0.00    -0.248 NA
ATOM     41  C   UNL A   1      38.100  33.785  32.725  1.00  0.00     0.031 C 
ATOM     42  C   UNL A   1      37.536  30.137  29.338  1.00  0.00     0.029 A 
ATOM     43  N   UNL A   1      39.357  30.046  30.642  1.00  0.00    -0.354 N 
ATOM     44  C   UNL A   1      40.105  33.129  33.599  1.00  0.00     0.074 A 
ATOM     45  C   UNL A   1      39.048  34.114  33.585  1.00  0.00     0.031 C 
ATOM     46  C   UNL A   1      38.246  29.054  28.974  1.00  0.00     0.029 A 
ATOM     47  C   UNL A   1      39.481  29.002  29.759  1.00  0.00     0.049 A 
ATOM     48  H   UNL A   1      39.999  30.220  31.366  1.00  0.00     0.167 HD
ATOM     49  C   UNL A   1      41.179  33.178  34.420  1.00  0.00     0.031 A 
ATOM     50  C   UNL A   1      40.497  28.135  29.577  1.00  0.00     0.031 A 
ATOM     51  C   UNL A   1      42.252  32.224  34.380  1.00  0.00     0.049 A 
ATOM     52  C   UNL A   1      41.723  28.246  30.447  1.00  0.00     0.074 A 
ATOM     53  C   UNL A   1      43.381  32.164  35.175  1.00  0.00     0.029 A 
ATOM     54  N   UNL A   1      42.340  31.178  33.472  1.00  0.00    -0.354 N 
ATOM     55  N   UNL A   1      41.991  29.115  31.394  1.00  0.00    -0.248 NA
ATOM     56  C   UNL A   1      42.785  27.253  30.230  1.00  0.00     0.031 C 
ATOM     57  C   UNL A   1      44.194  31.134  34.692  1.00  0.00     0.029 A 
ATOM     58  C   UNL A   1      43.525  30.490  33.661  1.00  0.00     0.049 A 
ATOM     59  H   UNL A   1      41.661  30.960  32.794  1.00  0.00     0.167 HD
ATOM     60  C   UNL A   1      43.231  28.754  31.909  1.00  0.00     0.074 A 
ATOM     61  C   UNL A   1      43.663  27.585  31.168  1.00  0.00     0.031 C 
ATOM     62  C   UNL A   1      43.940  29.328  32.912  1.00  0.00     0.031 A 
BRANCH  49  63
ATOM     63  C   UNL A   1      41.265  34.352  35.359  1.00  0.00    -0.014 A 
ATOM     64  C   UNL A   1      42.058  35.475  35.069  1.00  0.00     0.009 A 
ATOM     65  C   UNL A   1      40.569  34.313  36.576  1.00  0.00     0.009 A 
ATOM     66  C   UNL A   1      42.205  36.498  36.009  1.00  0.00     0.001 A 
ATOM     67  C   UNL A   1      40.682  35.357  37.494  1.00  0.00     0.001 A 
ATOM     68  C   UNL A   1      41.516  36.440  37.218  1.00  0.00     0.000 A 
ENDBRANCH  49  63
BRANCH  50  69
ATOM     69  C   UNL A   1      40.399  27.104  28.510  1.00  0.00    -0.014 A 
ATOM     70  C   UNL A   1      39.807  25.859  28.764  1.00  0.00     0.009 A 
ATOM     71  C   UNL A   1      40.873  27.375  27.214  1.00  0.00     0.009 A 
ATOM     72  C   UNL A   1      39.697  24.905  27.748  1.00  0.00     0.001 A 
ATOM     73  C   UNL A   1      40.733  26.433  26.194  1.00  0.00     0.001 A 
ATOM     74  C   UNL A   1      40.149  25.196  26.462  1.00  0.00     0.000 A 
ENDBRANCH  50  69
BRANCH  62  75
ATOM     75  C   UNL A   1      45.234  28.677  33.324  1.00  0.00    -0.014 A 
ATOM     76  C   UNL A   1      46.469  29.074  32.790  1.00  0.00     0.009 A 
ATOM     77  C   UNL A   1      45.215  27.705  34.337  1.00  0.00     0.009 A 
ATOM     78  C   UNL A   1      47.654  28.493  33.247  1.00  0.00     0.001 A 
ATOM     79  C   UNL A   1      46.403  27.153  34.819  1.00  0.00     0.001 A 
ATOM     80  C   UNL A   1      47.621  27.542  34.268  1.00  0.00     0.000 A 
ENDBRANCH  62  75
ENDBRANCH  36  37
ENDBRANCH  29  31
ENDBRANCH  28  29
ENDBRANCH  27  28
ENDBRANCH  26  27
ENDBRANCH  25  26
ENDBRANCH   1  25
TORSDOF 18
ENDMDL
