MODEL 1
REMARK VINA RESULT:      -9.2      0.000      0.000
REMARK SMILES CC(C)[NH2+][C@@]1(C(=O)OCCOCCOCCOC(=O)c2ccc(-c3c4nc(c(-c5ccccc5)c5ccc([nH]5)c(-c5ccccc5)c5nc(c(-c6ccccc6)c6ccc3[nH]6)C=C5)C=C4)cc2)CC[C@@H](Sc2cccc(Br)c2)C1
REMARK SMILES IDX 12 1 11 2 10 3 9 4 8 5 6 6 7 7 5 8 68 9 79 10 69 11 70 12
REMARK SMILES IDX 4 13 2 16 1 17 3 18 71 19 72 20 73 21 78 22 74 23 76 24
REMARK SMILES IDX 75 25 77 26 13 27 14 28 15 29 16 30 17 31 18 32 19 33 20 34
REMARK SMILES IDX 21 35 67 36 22 37 66 38 23 39 24 40 25 41 60 42 26 43 65 44
REMARK SMILES IDX 59 45 61 46 27 47 64 48 58 49 57 50 28 52 50 53 35 54 49 55
REMARK SMILES IDX 36 56 39 57 48 58 62 59 37 60 38 61 47 63 63 64 40 65 29 66
REMARK SMILES IDX 30 67 34 68 31 69 33 70 32 71 51 72 52 73 56 74 53 75 55 76
REMARK SMILES IDX 54 77 41 78 42 79 46 80 43 81 45 82 44 83
REMARK H PARENT 4 14 4 15 61 51 39 62
REMARK Flexibility Score: inf
ROOT
ATOM      1  C   UNL A   1      40.184  21.290  25.825  1.00  0.00     0.188 C 
ENDROOT
BRANCH   1   2
ATOM      2  O   UNL A   1      38.797  21.104  25.593  1.00  0.00    -0.376 OA
BRANCH   2   3
ATOM      3  C   UNL A   1      37.940  22.240  25.718  1.00  0.00     0.202 C 
BRANCH   3   4
ATOM      4  C   UNL A   1      36.412  22.030  25.764  1.00  0.00     0.261 C 
BRANCH   4   5
ATOM      5  O   UNL A   1      35.623  23.098  25.186  1.00  0.00    -0.459 OA
BRANCH   5   6
ATOM      6  C   UNL A   1      35.077  22.846  23.965  1.00  0.00     0.368 C 
ATOM      7  O   UNL A   1      35.748  22.802  22.934  1.00  0.00    -0.245 OA
BRANCH   6   8
ATOM      8  C   UNL A   1      33.517  22.624  23.967  1.00  0.00     0.195 C 
ATOM      9  C   UNL A   1      33.039  22.824  22.518  1.00  0.00     0.082 C 
ATOM     10  C   UNL A   1      32.647  23.674  24.720  1.00  0.00     0.096 C 
ATOM     11  C   UNL A   1      32.844  24.332  22.389  1.00  0.00     0.022 C 
ATOM     12  C   UNL A   1      32.248  24.759  23.720  1.00  0.00     0.059 C 
BRANCH   8  13
ATOM     13  N   UNL A   1      33.219  21.295  24.588  1.00  0.00    -0.330 N 
ATOM     14  H   UNL A   1      33.753  21.244  25.455  1.00  0.00     0.347 HD
ATOM     15  H   UNL A   1      32.203  21.289  24.675  1.00  0.00     0.347 HD
BRANCH  13  16
ATOM     16  C   UNL A   1      33.513  20.067  23.828  1.00  0.00     0.176 C 
ATOM     17  C   UNL A   1      34.316  19.145  24.759  1.00  0.00     0.075 C 
ATOM     18  C   UNL A   1      32.257  19.318  23.377  1.00  0.00     0.075 C 
ENDBRANCH  13  16
ENDBRANCH   8  13
BRANCH  12  19
ATOM     19  S   UNL A   1      30.441  25.141  23.731  1.00  0.00    -0.122 SA
BRANCH  19  20
ATOM     20  C   UNL A   1      30.362  26.866  23.287  1.00  0.00     0.009 A 
ATOM     21  C   UNL A   1      31.550  27.555  23.016  1.00  0.00     0.015 A 
ATOM     22  C   UNL A   1      29.153  27.570  23.291  1.00  0.00     0.030 A 
ATOM     23  C   UNL A   1      31.528  28.918  22.710  1.00  0.00     0.002 A 
ATOM     24  C   UNL A   1      29.135  28.928  22.970  1.00  0.00     0.019 A 
ATOM     25  C   UNL A   1      30.317  29.606  22.676  1.00  0.00     0.016 A 
ATOM     26  Br  UNL A   1      27.490  29.862  22.936  1.00  0.00    -0.051 Br
ENDBRANCH  19  20
ENDBRANCH  12  19
ENDBRANCH   6   8
ENDBRANCH   5   6
ENDBRANCH   4   5
ENDBRANCH   3   4
ENDBRANCH   2   3
ENDBRANCH   1   2
BRANCH   1  27
ATOM     27  C   UNL A   1      40.703  21.093  27.249  1.00  0.00     0.188 C 
BRANCH  27  28
ATOM     28  O   UNL A   1      40.999  19.762  27.606  1.00  0.00    -0.376 OA
BRANCH  28  29
ATOM     29  C   UNL A   1      42.313  19.251  27.437  1.00  0.00     0.202 C 
BRANCH  29  30
ATOM     30  C   UNL A   1      42.738  18.527  26.143  1.00  0.00     0.261 C 
BRANCH  30  31
ATOM     31  O   UNL A   1      42.976  19.339  24.981  1.00  0.00    -0.460 OA
BRANCH  31  32
ATOM     32  C   UNL A   1      44.263  19.631  24.671  1.00  0.00     0.338 C 
ATOM     33  O   UNL A   1      45.032  18.944  24.021  1.00  0.00    -0.246 OA
BRANCH  32  34
ATOM     34  C   UNL A   1      44.477  21.063  25.008  1.00  0.00     0.060 A 
ATOM     35  C   UNL A   1      44.967  21.389  26.283  1.00  0.00     0.016 A 
ATOM     36  C   UNL A   1      44.298  22.064  24.052  1.00  0.00     0.016 A 
ATOM     37  C   UNL A   1      45.278  22.714  26.604  1.00  0.00     0.010 A 
ATOM     38  C   UNL A   1      44.576  23.394  24.385  1.00  0.00     0.010 A 
ATOM     39  C   UNL A   1      45.051  23.730  25.666  1.00  0.00    -0.014 A 
BRANCH  39  40
ATOM     40  C   UNL A   1      45.157  25.155  26.062  1.00  0.00     0.031 A 
ATOM     41  C   UNL A   1      46.509  25.813  26.016  1.00  0.00     0.074 A 
ATOM     42  C   UNL A   1      44.084  25.859  26.468  1.00  0.00     0.049 A 
ATOM     43  N   UNL A   1      46.865  27.011  26.404  1.00  0.00    -0.248 NA
ATOM     44  C   UNL A   1      47.607  25.008  25.457  1.00  0.00     0.031 C 
ATOM     45  C   UNL A   1      42.709  25.366  26.507  1.00  0.00     0.029 A 
ATOM     46  N   UNL A   1      43.995  27.147  26.940  1.00  0.00    -0.354 N 
ATOM     47  C   UNL A   1      48.228  27.098  26.150  1.00  0.00     0.074 A 
ATOM     48  C   UNL A   1      48.638  25.826  25.594  1.00  0.00     0.031 C 
ATOM     49  C   UNL A   1      41.914  26.335  26.998  1.00  0.00     0.029 A 
ATOM     50  C   UNL A   1      42.731  27.498  27.345  1.00  0.00     0.049 A 
ATOM     51  H   UNL A   1      44.765  27.759  26.984  1.00  0.00     0.167 HD
ATOM     52  C   UNL A   1      49.064  28.141  26.360  1.00  0.00     0.031 A 
ATOM     53  C   UNL A   1      42.289  28.615  27.957  1.00  0.00     0.031 A 
ATOM     54  C   UNL A   1      48.665  29.400  26.931  1.00  0.00     0.049 A 
ATOM     55  C   UNL A   1      43.260  29.724  28.275  1.00  0.00     0.074 A 
ATOM     56  C   UNL A   1      49.440  30.522  27.166  1.00  0.00     0.029 A 
ATOM     57  N   UNL A   1      47.386  29.698  27.368  1.00  0.00    -0.354 N 
ATOM     58  N   UNL A   1      44.541  29.807  28.007  1.00  0.00    -0.248 NA
ATOM     59  C   UNL A   1      42.720  30.897  28.980  1.00  0.00     0.031 C 
ATOM     60  C   UNL A   1      48.645  31.475  27.809  1.00  0.00     0.029 A 
ATOM     61  C   UNL A   1      47.358  30.973  27.908  1.00  0.00     0.049 A 
ATOM     62  H   UNL A   1      46.610  29.094  27.303  1.00  0.00     0.167 HD
ATOM     63  C   UNL A   1      44.951  31.047  28.484  1.00  0.00     0.074 A 
ATOM     64  C   UNL A   1      43.780  31.691  29.041  1.00  0.00     0.031 C 
ATOM     65  C   UNL A   1      46.188  31.604  28.463  1.00  0.00     0.031 A 
BRANCH  52  66
ATOM     66  C   UNL A   1      50.514  27.947  26.010  1.00  0.00    -0.014 A 
ATOM     67  C   UNL A   1      51.434  27.453  26.947  1.00  0.00     0.009 A 
ATOM     68  C   UNL A   1      50.954  28.227  24.707  1.00  0.00     0.009 A 
ATOM     69  C   UNL A   1      52.774  27.272  26.594  1.00  0.00     0.001 A 
ATOM     70  C   UNL A   1      52.287  28.016  24.348  1.00  0.00     0.001 A 
ATOM     71  C   UNL A   1      53.196  27.547  25.293  1.00  0.00     0.000 A 
ENDBRANCH  52  66
BRANCH  53  72
ATOM     72  C   UNL A   1      40.861  28.736  28.358  1.00  0.00    -0.014 A 
ATOM     73  C   UNL A   1      40.426  28.291  29.616  1.00  0.00     0.009 A 
ATOM     74  C   UNL A   1      39.914  29.263  27.465  1.00  0.00     0.009 A 
ATOM     75  C   UNL A   1      39.073  28.342  29.959  1.00  0.00     0.001 A 
ATOM     76  C   UNL A   1      38.567  29.345  27.822  1.00  0.00     0.001 A 
ATOM     77  C   UNL A   1      38.146  28.874  29.064  1.00  0.00     0.000 A 
ENDBRANCH  53  72
BRANCH  65  78
ATOM     78  C   UNL A   1      46.335  32.992  29.027  1.00  0.00    -0.014 A 
ATOM     79  C   UNL A   1      46.686  33.204  30.369  1.00  0.00     0.009 A 
ATOM     80  C   UNL A   1      46.163  34.104  28.187  1.00  0.00     0.009 A 
ATOM     81  C   UNL A   1      46.825  34.502  30.867  1.00  0.00     0.001 A 
ATOM     82  C   UNL A   1      46.336  35.400  28.679  1.00  0.00     0.001 A 
ATOM     83  C   UNL A   1      46.656  35.597  30.021  1.00  0.00     0.000 A 
ENDBRANCH  65  78
ENDBRANCH  39  40
ENDBRANCH  32  34
ENDBRANCH  31  32
ENDBRANCH  30  31
ENDBRANCH  29  30
ENDBRANCH  28  29
ENDBRANCH  27  28
ENDBRANCH   1  27
TORSDOF 21
ENDMDL
MODEL 2
REMARK VINA RESULT:      -9.2      2.025      6.376
REMARK SMILES CC(C)[NH2+][C@@]1(C(=O)OCCOCCOCCOC(=O)c2ccc(-c3c4nc(c(-c5ccccc5)c5ccc([nH]5)c(-c5ccccc5)c5nc(c(-c6ccccc6)c6ccc3[nH]6)C=C5)C=C4)cc2)CC[C@@H](Sc2cccc(Br)c2)C1
REMARK SMILES IDX 12 1 11 2 10 3 9 4 8 5 6 6 7 7 5 8 68 9 79 10 69 11 70 12
REMARK SMILES IDX 4 13 2 16 1 17 3 18 71 19 72 20 73 21 78 22 74 23 76 24
REMARK SMILES IDX 75 25 77 26 13 27 14 28 15 29 16 30 17 31 18 32 19 33 20 34
REMARK SMILES IDX 21 35 67 36 22 37 66 38 23 39 24 40 25 41 60 42 26 43 65 44
REMARK SMILES IDX 59 45 61 46 27 47 64 48 58 49 57 50 28 52 50 53 35 54 49 55
REMARK SMILES IDX 36 56 39 57 48 58 62 59 37 60 38 61 47 63 63 64 40 65 29 66
REMARK SMILES IDX 30 67 34 68 31 69 33 70 32 71 51 72 52 73 56 74 53 75 55 76
REMARK SMILES IDX 54 77 41 78 42 79 46 80 43 81 45 82 44 83
REMARK H PARENT 4 14 4 15 61 51 39 62
REMARK Flexibility Score: inf
ROOT
ATOM      1  C   UNL A   1      39.537  21.683  25.840  1.00  0.00     0.188 C 
ENDROOT
BRANCH   1   2
ATOM      2  O   UNL A   1      38.121  21.592  25.831  1.00  0.00    -0.376 OA
BRANCH   2   3
ATOM      3  C   UNL A   1      37.373  22.800  25.978  1.00  0.00     0.202 C 
BRANCH   3   4
ATOM      4  C   UNL A   1      35.946  22.876  25.395  1.00  0.00     0.261 C 
BRANCH   4   5
ATOM      5  O   UNL A   1      35.696  23.999  24.514  1.00  0.00    -0.459 OA
BRANCH   5   6
ATOM      6  C   UNL A   1      34.672  23.848  23.630  1.00  0.00     0.368 C 
ATOM      7  O   UNL A   1      34.799  23.252  22.563  1.00  0.00    -0.245 OA
BRANCH   6   8
ATOM      8  C   UNL A   1      33.310  24.508  24.073  1.00  0.00     0.195 C 
ATOM      9  C   UNL A   1      33.046  25.671  23.102  1.00  0.00     0.082 C 
ATOM     10  C   UNL A   1      33.286  25.246  25.444  1.00  0.00     0.096 C 
ATOM     11  C   UNL A   1      33.827  26.842  23.693  1.00  0.00     0.022 C 
ATOM     12  C   UNL A   1      33.636  26.713  25.195  1.00  0.00     0.059 C 
BRANCH   8  13
ATOM     13  N   UNL A   1      32.259  23.445  24.139  1.00  0.00    -0.330 N 
ATOM     14  H   UNL A   1      31.356  23.911  24.046  1.00  0.00     0.347 HD
ATOM     15  H   UNL A   1      32.518  22.798  23.395  1.00  0.00     0.347 HD
BRANCH  13  16
ATOM     16  C   UNL A   1      32.180  22.588  25.335  1.00  0.00     0.176 C 
ATOM     17  C   UNL A   1      30.747  22.707  25.879  1.00  0.00     0.075 C 
ATOM     18  C   UNL A   1      32.463  21.113  25.044  1.00  0.00     0.075 C 
ENDBRANCH  13  16
ENDBRANCH   8  13
BRANCH  12  19
ATOM     19  S   UNL A   1      32.457  27.895  25.983  1.00  0.00    -0.122 SA
BRANCH  19  20
ATOM     20  C   UNL A   1      31.035  27.868  24.907  1.00  0.00     0.009 A 
ATOM     21  C   UNL A   1      30.205  26.741  24.903  1.00  0.00     0.015 A 
ATOM     22  C   UNL A   1      30.780  28.904  24.002  1.00  0.00     0.030 A 
ATOM     23  C   UNL A   1      29.109  26.666  24.039  1.00  0.00     0.002 A 
ATOM     24  C   UNL A   1      29.674  28.832  23.152  1.00  0.00     0.019 A 
ATOM     25  C   UNL A   1      28.836  27.718  23.168  1.00  0.00     0.016 A 
ATOM     26  Br  UNL A   1      29.313  30.256  21.962  1.00  0.00    -0.051 Br
ENDBRANCH  19  20
ENDBRANCH  12  19
ENDBRANCH   6   8
ENDBRANCH   5   6
ENDBRANCH   4   5
ENDBRANCH   3   4
ENDBRANCH   2   3
ENDBRANCH   1   2
BRANCH   1  27
ATOM     27  C   UNL A   1      40.251  21.591  27.188  1.00  0.00     0.188 C 
BRANCH  27  28
ATOM     28  O   UNL A   1      40.727  20.310  27.533  1.00  0.00    -0.376 OA
BRANCH  28  29
ATOM     29  C   UNL A   1      42.097  19.982  27.346  1.00  0.00     0.202 C 
BRANCH  29  30
ATOM     30  C   UNL A   1      42.722  19.892  25.939  1.00  0.00     0.261 C 
BRANCH  30  31
ATOM     31  O   UNL A   1      42.960  21.128  25.244  1.00  0.00    -0.460 OA
BRANCH  31  32
ATOM     32  C   UNL A   1      44.223  21.620  25.253  1.00  0.00     0.338 C 
ATOM     33  O   UNL A   1      45.175  21.205  24.613  1.00  0.00    -0.246 OA
BRANCH  32  34
ATOM     34  C   UNL A   1      44.174  22.932  25.950  1.00  0.00     0.060 A 
ATOM     35  C   UNL A   1      44.066  24.102  25.180  1.00  0.00     0.016 A 
ATOM     36  C   UNL A   1      44.128  23.006  27.343  1.00  0.00     0.016 A 
ATOM     37  C   UNL A   1      43.915  25.345  25.800  1.00  0.00     0.010 A 
ATOM     38  C   UNL A   1      44.011  24.255  27.964  1.00  0.00     0.010 A 
ATOM     39  C   UNL A   1      43.920  25.432  27.198  1.00  0.00    -0.014 A 
BRANCH  39  40
ATOM     40  C   UNL A   1      43.991  26.754  27.869  1.00  0.00     0.031 A 
ATOM     41  C   UNL A   1      42.703  27.450  28.216  1.00  0.00     0.074 A 
ATOM     42  C   UNL A   1      45.167  27.340  28.158  1.00  0.00     0.049 A 
ATOM     43  N   UNL A   1      42.512  28.645  28.713  1.00  0.00    -0.248 NA
ATOM     44  C   UNL A   1      41.465  26.693  27.968  1.00  0.00     0.031 C 
ATOM     45  C   UNL A   1      46.487  26.756  27.929  1.00  0.00     0.029 A 
ATOM     46  N   UNL A   1      45.433  28.575  28.698  1.00  0.00    -0.354 N 
ATOM     47  C   UNL A   1      41.134  28.789  28.823  1.00  0.00     0.074 A 
ATOM     48  C   UNL A   1      40.538  27.569  28.323  1.00  0.00     0.031 C 
ATOM     49  C   UNL A   1      47.426  27.642  28.308  1.00  0.00     0.029 A 
ATOM     50  C   UNL A   1      46.773  28.868  28.766  1.00  0.00     0.049 A 
ATOM     51  H   UNL A   1      44.730  29.192  29.006  1.00  0.00     0.167 HD
ATOM     52  C   UNL A   1      40.427  29.841  29.297  1.00  0.00     0.031 A 
ATOM     53  C   UNL A   1      47.400  30.008  29.123  1.00  0.00     0.031 A 
ATOM     54  C   UNL A   1      41.014  31.064  29.776  1.00  0.00     0.049 A 
ATOM     55  C   UNL A   1      46.587  31.204  29.550  1.00  0.00     0.074 A 
ATOM     56  C   UNL A   1      40.377  32.180  30.291  1.00  0.00     0.029 A 
ATOM     57  N   UNL A   1      42.372  31.337  29.787  1.00  0.00    -0.354 N 
ATOM     58  N   UNL A   1      45.287  31.321  29.676  1.00  0.00    -0.248 NA
ATOM     59  C   UNL A   1      47.332  32.426  29.887  1.00  0.00     0.031 C 
ATOM     60  C   UNL A   1      41.346  33.155  30.550  1.00  0.00     0.029 A 
ATOM     61  C   UNL A   1      42.590  32.620  30.263  1.00  0.00     0.049 A 
ATOM     62  H   UNL A   1      43.077  30.713  29.500  1.00  0.00     0.167 HD
ATOM     63  C   UNL A   1      45.063  32.615  30.131  1.00  0.00     0.074 A 
ATOM     64  C   UNL A   1      46.361  33.239  30.279  1.00  0.00     0.031 C 
ATOM     65  C   UNL A   1      43.886  33.233  30.403  1.00  0.00     0.031 A 
BRANCH  52  66
ATOM     66  C   UNL A   1      38.927  29.734  29.277  1.00  0.00    -0.014 A 
ATOM     67  C   UNL A   1      38.205  29.352  30.417  1.00  0.00     0.009 A 
ATOM     68  C   UNL A   1      38.226  30.060  28.105  1.00  0.00     0.009 A 
ATOM     69  C   UNL A   1      36.811  29.270  30.375  1.00  0.00     0.001 A 
ATOM     70  C   UNL A   1      36.832  30.007  28.075  1.00  0.00     0.001 A 
ATOM     71  C   UNL A   1      36.126  29.604  29.207  1.00  0.00     0.000 A 
ENDBRANCH  52  66
BRANCH  53  72
ATOM     72  C   UNL A   1      48.884  30.100  29.055  1.00  0.00    -0.014 A 
ATOM     73  C   UNL A   1      49.676  29.793  30.172  1.00  0.00     0.009 A 
ATOM     74  C   UNL A   1      49.516  30.538  27.880  1.00  0.00     0.009 A 
ATOM     75  C   UNL A   1      51.063  29.949  30.123  1.00  0.00     0.001 A 
ATOM     76  C   UNL A   1      50.905  30.662  27.823  1.00  0.00     0.001 A 
ATOM     77  C   UNL A   1      51.677  30.378  28.947  1.00  0.00     0.000 A 
ENDBRANCH  53  72
BRANCH  65  78
ATOM     78  C   UNL A   1      43.946  34.645  30.922  1.00  0.00    -0.014 A 
ATOM     79  C   UNL A   1      43.894  35.747  30.054  1.00  0.00     0.009 A 
ATOM     80  C   UNL A   1      44.010  34.874  32.306  1.00  0.00     0.009 A 
ATOM     81  C   UNL A   1      43.942  37.048  30.560  1.00  0.00     0.001 A 
ATOM     82  C   UNL A   1      44.025  36.176  32.811  1.00  0.00     0.001 A 
ATOM     83  C   UNL A   1      44.002  37.261  31.937  1.00  0.00     0.000 A 
ENDBRANCH  65  78
ENDBRANCH  39  40
ENDBRANCH  32  34
ENDBRANCH  31  32
ENDBRANCH  30  31
ENDBRANCH  29  30
ENDBRANCH  28  29
ENDBRANCH  27  28
ENDBRANCH   1  27
TORSDOF 21
ENDMDL
MODEL 3
REMARK VINA RESULT:      -8.9      2.837      4.580
REMARK SMILES CC(C)[NH2+][C@@]1(C(=O)OCCOCCOCCOC(=O)c2ccc(-c3c4nc(c(-c5ccccc5)c5ccc([nH]5)c(-c5ccccc5)c5nc(c(-c6ccccc6)c6ccc3[nH]6)C=C5)C=C4)cc2)CC[C@@H](Sc2cccc(Br)c2)C1
REMARK SMILES IDX 12 1 11 2 10 3 9 4 8 5 6 6 7 7 5 8 68 9 79 10 69 11 70 12
REMARK SMILES IDX 4 13 2 16 1 17 3 18 71 19 72 20 73 21 78 22 74 23 76 24
REMARK SMILES IDX 75 25 77 26 13 27 14 28 15 29 16 30 17 31 18 32 19 33 20 34
REMARK SMILES IDX 21 35 67 36 22 37 66 38 23 39 24 40 25 41 60 42 26 43 65 44
REMARK SMILES IDX 59 45 61 46 27 47 64 48 58 49 57 50 28 52 50 53 35 54 49 55
REMARK SMILES IDX 36 56 39 57 48 58 62 59 37 60 38 61 47 63 63 64 40 65 29 66
REMARK SMILES IDX 30 67 34 68 31 69 33 70 32 71 51 72 52 73 56 74 53 75 55 76
REMARK SMILES IDX 54 77 41 78 42 79 46 80 43 81 45 82 44 83
REMARK H PARENT 4 14 4 15 61 51 39 62
REMARK Flexibility Score: inf
ROOT
ATOM      1  C   UNL A   1      35.584  22.272  26.409  1.00  0.00     0.188 C 
ENDROOT
BRANCH   1   2
ATOM      2  O   UNL A   1      34.538  21.322  26.531  1.00  0.00    -0.376 OA
BRANCH   2   3
ATOM      3  C   UNL A   1      33.406  21.673  27.329  1.00  0.00     0.202 C 
BRANCH   3   4
ATOM      4  C   UNL A   1      33.127  23.160  27.627  1.00  0.00     0.261 C 
BRANCH   4   5
ATOM      5  O   UNL A   1      31.738  23.561  27.533  1.00  0.00    -0.459 OA
BRANCH   5   6
ATOM      6  C   UNL A   1      31.145  23.381  26.321  1.00  0.00     0.368 C 
ATOM      7  O   UNL A   1      30.143  22.684  26.170  1.00  0.00    -0.245 OA
BRANCH   6   8
ATOM      8  C   UNL A   1      31.845  24.125  25.121  1.00  0.00     0.195 C 
ATOM      9  C   UNL A   1      32.452  25.416  25.695  1.00  0.00     0.082 C 
ATOM     10  C   UNL A   1      30.926  24.695  24.000  1.00  0.00     0.096 C 
ATOM     11  C   UNL A   1      31.302  26.419  25.670  1.00  0.00     0.022 C 
ATOM     12  C   UNL A   1      30.571  26.135  24.368  1.00  0.00     0.059 C 
BRANCH   8  13
ATOM     13  N   UNL A   1      32.797  23.180  24.457  1.00  0.00    -0.330 N 
ATOM     14  H   UNL A   1      33.592  23.733  24.135  1.00  0.00     0.347 HD
ATOM     15  H   UNL A   1      32.988  22.481  25.175  1.00  0.00     0.347 HD
BRANCH  13  16
ATOM     16  C   UNL A   1      32.333  22.384  23.308  1.00  0.00     0.176 C 
ATOM     17  C   UNL A   1      33.176  22.810  22.096  1.00  0.00     0.075 C 
ATOM     18  C   UNL A   1      32.504  20.876  23.506  1.00  0.00     0.075 C 
ENDBRANCH  13  16
ENDBRANCH   8  13
BRANCH  12  19
ATOM     19  S   UNL A   1      30.840  27.335  22.991  1.00  0.00    -0.122 SA
BRANCH  19  20
ATOM     20  C   UNL A   1      29.462  28.459  23.122  1.00  0.00     0.009 A 
ATOM     21  C   UNL A   1      28.167  27.939  23.228  1.00  0.00     0.015 A 
ATOM     22  C   UNL A   1      29.634  29.844  23.028  1.00  0.00     0.030 A 
ATOM     23  C   UNL A   1      27.061  28.791  23.285  1.00  0.00     0.002 A 
ATOM     24  C   UNL A   1      28.527  30.691  23.102  1.00  0.00     0.019 A 
ATOM     25  C   UNL A   1      27.240  30.171  23.233  1.00  0.00     0.016 A 
ATOM     26  Br  UNL A   1      28.773  32.565  23.018  1.00  0.00    -0.051 Br
ENDBRANCH  19  20
ENDBRANCH  12  19
ENDBRANCH   6   8
ENDBRANCH   5   6
ENDBRANCH   4   5
ENDBRANCH   3   4
ENDBRANCH   2   3
ENDBRANCH   1   2
BRANCH   1  27
ATOM     27  C   UNL A   1      36.695  21.986  25.399  1.00  0.00     0.188 C 
BRANCH  27  28
ATOM     28  O   UNL A   1      37.970  21.751  25.954  1.00  0.00    -0.376 OA
BRANCH  28  29
ATOM     29  C   UNL A   1      38.880  22.826  26.138  1.00  0.00     0.202 C 
BRANCH  29  30
ATOM     30  C   UNL A   1      39.957  22.791  27.242  1.00  0.00     0.261 C 
BRANCH  30  31
ATOM     31  O   UNL A   1      41.056  23.709  27.118  1.00  0.00    -0.460 OA
BRANCH  31  32
ATOM     32  C   UNL A   1      42.003  23.689  28.088  1.00  0.00     0.338 C 
ATOM     33  O   UNL A   1      42.172  22.824  28.930  1.00  0.00    -0.246 OA
BRANCH  32  34
ATOM     34  C   UNL A   1      42.981  24.761  27.762  1.00  0.00     0.060 A 
ATOM     35  C   UNL A   1      43.707  25.353  28.808  1.00  0.00     0.016 A 
ATOM     36  C   UNL A   1      43.257  25.106  26.438  1.00  0.00     0.016 A 
ATOM     37  C   UNL A   1      44.707  26.291  28.533  1.00  0.00     0.010 A 
ATOM     38  C   UNL A   1      44.234  26.070  26.166  1.00  0.00     0.010 A 
ATOM     39  C   UNL A   1      44.952  26.680  27.210  1.00  0.00    -0.014 A 
BRANCH  39  40
ATOM     40  C   UNL A   1      45.842  27.831  26.918  1.00  0.00     0.031 A 
ATOM     41  C   UNL A   1      47.308  27.567  26.707  1.00  0.00     0.074 A 
ATOM     42  C   UNL A   1      45.373  29.090  26.851  1.00  0.00     0.049 A 
ATOM     43  N   UNL A   1      48.289  28.415  26.536  1.00  0.00    -0.248 NA
ATOM     44  C   UNL A   1      47.720  26.154  26.686  1.00  0.00     0.031 C 
ATOM     45  C   UNL A   1      43.971  29.483  26.980  1.00  0.00     0.029 A 
ATOM     46  N   UNL A   1      46.041  30.277  26.671  1.00  0.00    -0.354 N 
ATOM     47  C   UNL A   1      49.435  27.641  26.402  1.00  0.00     0.074 A 
ATOM     48  C   UNL A   1      49.030  26.257  26.532  1.00  0.00     0.031 C 
ATOM     49  C   UNL A   1      43.886  30.823  26.894  1.00  0.00     0.029 A 
ATOM     50  C   UNL A   1      45.230  31.382  26.747  1.00  0.00     0.049 A 
ATOM     51  H   UNL A   1      47.010  30.330  26.505  1.00  0.00     0.167 HD
ATOM     52  C   UNL A   1      50.710  28.042  26.191  1.00  0.00     0.031 A 
ATOM     53  C   UNL A   1      45.539  32.695  26.735  1.00  0.00     0.031 A 
ATOM     54  C   UNL A   1      51.120  29.417  26.082  1.00  0.00     0.049 A 
ATOM     55  C   UNL A   1      46.980  33.120  26.602  1.00  0.00     0.074 A 
ATOM     56  C   UNL A   1      52.389  29.920  25.851  1.00  0.00     0.029 A 
ATOM     57  N   UNL A   1      50.275  30.506  26.208  1.00  0.00    -0.354 N 
ATOM     58  N   UNL A   1      48.052  32.380  26.450  1.00  0.00    -0.248 NA
ATOM     59  C   UNL A   1      47.251  34.565  26.637  1.00  0.00     0.031 C 
ATOM     60  C   UNL A   1      52.322  31.316  25.907  1.00  0.00     0.029 A 
ATOM     61  C   UNL A   1      51.000  31.681  26.100  1.00  0.00     0.049 A 
ATOM     62  H   UNL A   1      49.302  30.453  26.353  1.00  0.00     0.167 HD
ATOM     63  C   UNL A   1      49.116  33.268  26.344  1.00  0.00     0.074 A 
ATOM     64  C   UNL A   1      48.560  34.602  26.429  1.00  0.00     0.031 C 
ATOM     65  C   UNL A   1      50.438  33.004  26.189  1.00  0.00     0.031 A 
BRANCH  52  66
ATOM     66  C   UNL A   1      51.768  26.977  26.110  1.00  0.00    -0.014 A 
ATOM     67  C   UNL A   1      52.050  26.314  24.906  1.00  0.00     0.009 A 
ATOM     68  C   UNL A   1      52.522  26.663  27.252  1.00  0.00     0.009 A 
ATOM     69  C   UNL A   1      53.046  25.335  24.855  1.00  0.00     0.001 A 
ATOM     70  C   UNL A   1      53.536  25.706  27.191  1.00  0.00     0.001 A 
ATOM     71  C   UNL A   1      53.791  25.038  25.996  1.00  0.00     0.000 A 
ENDBRANCH  52  66
BRANCH  53  72
ATOM     72  C   UNL A   1      44.471  33.719  26.896  1.00  0.00    -0.014 A 
ATOM     73  C   UNL A   1      44.047  34.121  28.172  1.00  0.00     0.009 A 
ATOM     74  C   UNL A   1      43.839  34.270  25.771  1.00  0.00     0.009 A 
ATOM     75  C   UNL A   1      42.997  35.030  28.317  1.00  0.00     0.001 A 
ATOM     76  C   UNL A   1      42.811  35.204  25.917  1.00  0.00     0.001 A 
ATOM     77  C   UNL A   1      42.383  35.575  27.190  1.00  0.00     0.000 A 
ENDBRANCH  53  72
BRANCH  65  78
ATOM     78  C   UNL A   1      51.372  34.178  26.067  1.00  0.00    -0.014 A 
ATOM     79  C   UNL A   1      52.021  34.718  27.188  1.00  0.00     0.009 A 
ATOM     80  C   UNL A   1      51.641  34.722  24.801  1.00  0.00     0.009 A 
ATOM     81  C   UNL A   1      52.891  35.802  27.049  1.00  0.00     0.001 A 
ATOM     82  C   UNL A   1      52.536  35.784  24.659  1.00  0.00     0.001 A 
ATOM     83  C   UNL A   1      53.152  36.330  25.784  1.00  0.00     0.000 A 
ENDBRANCH  65  78
ENDBRANCH  39  40
ENDBRANCH  32  34
ENDBRANCH  31  32
ENDBRANCH  30  31
ENDBRANCH  29  30
ENDBRANCH  28  29
ENDBRANCH  27  28
ENDBRANCH   1  27
TORSDOF 21
ENDMDL
