MODEL 1
REMARK VINA RESULT:     -10.4      0.000      0.000
REMARK SMILES C[C@@H]1Cc2ccccc2N1S(=O)(=O)c1c[nH]c(C(=O)OCCOCCOCCOC(=O)c2ccc(-c3c4nc(c(-c5ccccc5)c5ccc([nH]5)c(-c5ccccc5)c5nc(c(-c6ccccc6)c6ccc3[nH]6)C=C5)C=C4)cc2)c1
REMARK SMILES IDX 24 1 23 2 22 3 21 4 20 5 18 6 19 7 17 8 14 9 15 10 80 11
REMARK SMILES IDX 16 12 11 14 12 15 13 16 10 17 1 18 2 19 3 20 4 21 9 22 5 23
REMARK SMILES IDX 8 24 6 25 7 26 25 27 26 28 27 29 28 30 29 31 30 32 31 33
REMARK SMILES IDX 32 34 33 35 79 36 34 37 78 38 35 39 36 40 37 41 72 42 38 43
REMARK SMILES IDX 77 44 71 45 73 46 39 47 76 48 70 49 69 50 40 52 62 53 47 54
REMARK SMILES IDX 61 55 48 56 51 57 60 58 74 59 49 60 50 61 59 63 75 64 52 65
REMARK SMILES IDX 41 66 42 67 46 68 43 69 45 70 44 71 63 72 64 73 68 74 65 75
REMARK SMILES IDX 67 76 66 77 53 78 54 79 58 80 55 81 57 82 56 83
REMARK H PARENT 16 13 73 51 51 62
REMARK Flexibility Score: inf
ROOT
ATOM      1  C   UNL A   1      42.069  19.645  27.358  1.00  0.00     0.188 C 
ENDROOT
BRANCH   1   2
ATOM      2  O   UNL A   1      40.701  20.041  27.372  1.00  0.00    -0.376 OA
BRANCH   2   3
ATOM      3  C   UNL A   1      40.351  20.782  26.193  1.00  0.00     0.202 C 
BRANCH   3   4
ATOM      4  C   UNL A   1      39.621  22.114  26.492  1.00  0.00     0.261 C 
BRANCH   4   5
ATOM      5  O   UNL A   1      38.295  22.307  25.930  1.00  0.00    -0.459 OA
BRANCH   5   6
ATOM      6  C   UNL A   1      37.692  23.460  26.281  1.00  0.00     0.354 C 
ATOM      7  O   UNL A   1      38.302  24.443  26.701  1.00  0.00    -0.244 OA
BRANCH   6   8
ATOM      8  C   UNL A   1      36.284  23.532  26.032  1.00  0.00     0.126 A 
ATOM      9  C   UNL A   1      34.121  24.065  25.634  1.00  0.00     0.106 A 
ATOM     10  C   UNL A   1      34.153  23.028  26.544  1.00  0.00     0.105 A 
ATOM     11  C   UNL A   1      35.470  24.357  25.268  1.00  0.00     0.057 A 
ATOM     12  N   UNL A   1      35.451  22.670  26.719  1.00  0.00    -0.354 N 
ATOM     13  H   UNL A   1      35.754  21.903  27.258  1.00  0.00     0.166 HD
BRANCH   9  14
ATOM     14  S   UNL A   1      32.663  24.796  25.061  1.00  0.00     0.266 S 
ATOM     15  O   UNL A   1      31.812  24.796  26.237  1.00  0.00    -0.201 OA
ATOM     16  O   UNL A   1      32.312  24.005  23.900  1.00  0.00    -0.201 OA
BRANCH  14  17
ATOM     17  N   UNL A   1      32.855  26.416  24.550  1.00  0.00    -0.263 N 
ATOM     18  C   UNL A   1      33.101  26.296  22.055  1.00  0.00     0.032 C 
ATOM     19  C   UNL A   1      32.176  26.655  23.205  1.00  0.00     0.101 C 
ATOM     20  C   UNL A   1      31.758  28.136  23.185  1.00  0.00     0.063 C 
ATOM     21  C   UNL A   1      31.818  28.503  24.630  1.00  0.00    -0.021 A 
ATOM     22  C   UNL A   1      32.454  27.517  25.384  1.00  0.00     0.055 A 
ATOM     23  C   UNL A   1      31.415  29.713  25.184  1.00  0.00     0.006 A 
ATOM     24  C   UNL A   1      32.804  27.786  26.697  1.00  0.00     0.027 A 
ATOM     25  C   UNL A   1      31.699  29.952  26.526  1.00  0.00     0.000 A 
ATOM     26  C   UNL A   1      32.403  29.000  27.273  1.00  0.00     0.002 A 
ENDBRANCH  14  17
ENDBRANCH   9  14
ENDBRANCH   6   8
ENDBRANCH   5   6
ENDBRANCH   4   5
ENDBRANCH   3   4
ENDBRANCH   2   3
ENDBRANCH   1   2
BRANCH   1  27
ATOM     27  C   UNL A   1      42.484  18.587  26.330  1.00  0.00     0.188 C 
BRANCH  27  28
ATOM     28  O   UNL A   1      42.939  19.015  25.062  1.00  0.00    -0.376 OA
BRANCH  28  29
ATOM     29  C   UNL A   1      44.345  18.996  24.828  1.00  0.00     0.202 C 
BRANCH  29  30
ATOM     30  C   UNL A   1      44.958  20.341  24.427  1.00  0.00     0.261 C 
BRANCH  30  31
ATOM     31  O   UNL A   1      44.047  21.406  24.761  1.00  0.00    -0.460 OA
BRANCH  31  32
ATOM     32  C   UNL A   1      44.457  22.658  24.458  1.00  0.00     0.338 C 
ATOM     33  O   UNL A   1      44.882  23.073  23.396  1.00  0.00    -0.246 OA
BRANCH  32  34
ATOM     34  C   UNL A   1      44.084  23.531  25.583  1.00  0.00     0.060 A 
ATOM     35  C   UNL A   1      43.189  23.111  26.567  1.00  0.00     0.016 A 
ATOM     36  C   UNL A   1      44.616  24.824  25.604  1.00  0.00     0.016 A 
ATOM     37  C   UNL A   1      42.851  23.986  27.602  1.00  0.00     0.010 A 
ATOM     38  C   UNL A   1      44.220  25.717  26.598  1.00  0.00     0.010 A 
ATOM     39  C   UNL A   1      43.354  25.297  27.624  1.00  0.00    -0.014 A 
BRANCH  39  40
ATOM     40  C   UNL A   1      43.020  26.211  28.764  1.00  0.00     0.031 A 
ATOM     41  C   UNL A   1      43.881  26.027  30.007  1.00  0.00     0.074 A 
ATOM     42  C   UNL A   1      41.993  27.100  28.600  1.00  0.00     0.049 A 
ATOM     43  N   UNL A   1      43.703  26.524  31.192  1.00  0.00    -0.248 NA
ATOM     44  C   UNL A   1      45.082  25.156  29.953  1.00  0.00     0.031 C 
ATOM     45  C   UNL A   1      41.204  27.160  27.369  1.00  0.00     0.029 A 
ATOM     46  N   UNL A   1      41.398  28.103  29.356  1.00  0.00    -0.354 N 
ATOM     47  C   UNL A   1      44.779  26.106  31.992  1.00  0.00     0.074 A 
ATOM     48  C   UNL A   1      45.598  25.259  31.177  1.00  0.00     0.031 C 
ATOM     49  C   UNL A   1      40.288  28.136  27.415  1.00  0.00     0.029 A 
ATOM     50  C   UNL A   1      40.299  28.744  28.724  1.00  0.00     0.049 A 
ATOM     51  H   UNL A   1      41.712  28.349  30.256  1.00  0.00     0.167 HD
ATOM     52  C   UNL A   1      44.958  26.482  33.287  1.00  0.00     0.031 A 
ATOM     53  C   UNL A   1      39.380  29.645  29.187  1.00  0.00     0.031 A 
ATOM     54  C   UNL A   1      43.833  27.194  33.793  1.00  0.00     0.049 A 
ATOM     55  C   UNL A   1      39.751  30.007  30.567  1.00  0.00     0.074 A 
ATOM     56  C   UNL A   1      42.587  26.791  34.209  1.00  0.00     0.029 A 
ATOM     57  N   UNL A   1      43.821  28.561  33.677  1.00  0.00    -0.354 N 
ATOM     58  N   UNL A   1      40.781  30.730  30.887  1.00  0.00    -0.248 NA
ATOM     59  C   UNL A   1      39.009  29.431  31.695  1.00  0.00     0.031 C 
ATOM     60  C   UNL A   1      41.741  27.895  33.948  1.00  0.00     0.029 A 
ATOM     61  C   UNL A   1      42.515  28.935  33.433  1.00  0.00     0.049 A 
ATOM     62  H   UNL A   1      44.597  29.161  33.754  1.00  0.00     0.167 HD
ATOM     63  C   UNL A   1      41.027  30.362  32.191  1.00  0.00     0.074 A 
ATOM     64  C   UNL A   1      39.795  29.808  32.703  1.00  0.00     0.031 C 
ATOM     65  C   UNL A   1      42.297  30.088  32.584  1.00  0.00     0.031 A 
BRANCH  52  66
ATOM     66  C   UNL A   1      46.151  26.271  34.166  1.00  0.00    -0.014 A 
ATOM     67  C   UNL A   1      46.338  25.127  34.952  1.00  0.00     0.009 A 
ATOM     68  C   UNL A   1      47.244  27.154  34.034  1.00  0.00     0.009 A 
ATOM     69  C   UNL A   1      47.573  24.871  35.568  1.00  0.00     0.001 A 
ATOM     70  C   UNL A   1      48.482  26.887  34.623  1.00  0.00     0.001 A 
ATOM     71  C   UNL A   1      48.647  25.740  35.387  1.00  0.00     0.000 A 
ENDBRANCH  52  66
BRANCH  53  72
ATOM     72  C   UNL A   1      38.076  30.162  28.618  1.00  0.00    -0.014 A 
ATOM     73  C   UNL A   1      37.719  31.521  28.781  1.00  0.00     0.009 A 
ATOM     74  C   UNL A   1      37.126  29.381  27.942  1.00  0.00     0.009 A 
ATOM     75  C   UNL A   1      36.459  32.026  28.426  1.00  0.00     0.001 A 
ATOM     76  C   UNL A   1      35.859  29.876  27.584  1.00  0.00     0.001 A 
ATOM     77  C   UNL A   1      35.515  31.193  27.850  1.00  0.00     0.000 A 
ENDBRANCH  53  72
BRANCH  65  78
ATOM     78  C   UNL A   1      43.377  30.725  31.731  1.00  0.00    -0.014 A 
ATOM     79  C   UNL A   1      44.032  30.019  30.706  1.00  0.00     0.009 A 
ATOM     80  C   UNL A   1      43.721  32.073  31.910  1.00  0.00     0.009 A 
ATOM     81  C   UNL A   1      45.029  30.616  29.928  1.00  0.00     0.001 A 
ATOM     82  C   UNL A   1      44.693  32.684  31.107  1.00  0.00     0.001 A 
ATOM     83  C   UNL A   1      45.355  31.952  30.124  1.00  0.00     0.000 A 
ENDBRANCH  65  78
ENDBRANCH  39  40
ENDBRANCH  32  34
ENDBRANCH  31  32
ENDBRANCH  30  31
ENDBRANCH  29  30
ENDBRANCH  28  29
ENDBRANCH  27  28
ENDBRANCH   1  27
TORSDOF 19
ENDMDL
MODEL 2
REMARK VINA RESULT:      -9.9      4.165      7.451
REMARK SMILES C[C@@H]1Cc2ccccc2N1S(=O)(=O)c1c[nH]c(C(=O)OCCOCCOCCOC(=O)c2ccc(-c3c4nc(c(-c5ccccc5)c5ccc([nH]5)c(-c5ccccc5)c5nc(c(-c6ccccc6)c6ccc3[nH]6)C=C5)C=C4)cc2)c1
REMARK SMILES IDX 24 1 23 2 22 3 21 4 20 5 18 6 19 7 17 8 14 9 15 10 80 11
REMARK SMILES IDX 16 12 11 14 12 15 13 16 10 17 1 18 2 19 3 20 4 21 9 22 5 23
REMARK SMILES IDX 8 24 6 25 7 26 25 27 26 28 27 29 28 30 29 31 30 32 31 33
REMARK SMILES IDX 32 34 33 35 79 36 34 37 78 38 35 39 36 40 37 41 72 42 38 43
REMARK SMILES IDX 77 44 71 45 73 46 39 47 76 48 70 49 69 50 40 52 62 53 47 54
REMARK SMILES IDX 61 55 48 56 51 57 60 58 74 59 49 60 50 61 59 63 75 64 52 65
REMARK SMILES IDX 41 66 42 67 46 68 43 69 45 70 44 71 63 72 64 73 68 74 65 75
REMARK SMILES IDX 67 76 66 77 53 78 54 79 58 80 55 81 57 82 56 83
REMARK H PARENT 16 13 73 51 51 62
REMARK Flexibility Score: inf
ROOT
ATOM      1  C   UNL A   1      42.209  20.083  27.803  1.00  0.00     0.188 C 
ENDROOT
BRANCH   1   2
ATOM      2  O   UNL A   1      41.977  18.727  27.435  1.00  0.00    -0.376 OA
BRANCH   2   3
ATOM      3  C   UNL A   1      43.055  18.198  26.648  1.00  0.00     0.202 C 
BRANCH   3   4
ATOM      4  C   UNL A   1      43.224  18.898  25.277  1.00  0.00     0.261 C 
BRANCH   4   5
ATOM      5  O   UNL A   1      44.354  18.512  24.449  1.00  0.00    -0.459 OA
BRANCH   5   6
ATOM      6  C   UNL A   1      45.539  19.029  24.830  1.00  0.00     0.354 C 
ATOM      7  O   UNL A   1      46.514  18.339  25.125  1.00  0.00    -0.244 OA
BRANCH   6   8
ATOM      8  C   UNL A   1      45.650  20.454  24.767  1.00  0.00     0.126 A 
ATOM      9  C   UNL A   1      45.780  22.691  25.088  1.00  0.00     0.106 A 
ATOM     10  C   UNL A   1      45.025  22.457  23.956  1.00  0.00     0.105 A 
ATOM     11  C   UNL A   1      46.220  21.425  25.580  1.00  0.00     0.057 A 
ATOM     12  N   UNL A   1      45.017  21.117  23.734  1.00  0.00    -0.354 N 
ATOM     13  H   UNL A   1      44.616  20.682  22.946  1.00  0.00     0.166 HD
BRANCH   9  14
ATOM     14  S   UNL A   1      46.116  24.269  25.709  1.00  0.00     0.266 S 
ATOM     15  O   UNL A   1      46.072  25.104  24.524  1.00  0.00    -0.201 OA
ATOM     16  O   UNL A   1      47.352  24.095  26.443  1.00  0.00    -0.201 OA
BRANCH  14  17
ATOM     17  N   UNL A   1      44.937  24.847  26.805  1.00  0.00    -0.263 N 
ATOM     18  C   UNL A   1      44.702  23.045  28.534  1.00  0.00     0.032 C 
ATOM     19  C   UNL A   1      45.258  24.425  28.235  1.00  0.00     0.101 C 
ATOM     20  C   UNL A   1      44.666  25.511  29.153  1.00  0.00     0.063 C 
ATOM     21  C   UNL A   1      44.459  26.647  28.209  1.00  0.00    -0.021 A 
ATOM     22  C   UNL A   1      44.607  26.245  26.881  1.00  0.00     0.055 A 
ATOM     23  C   UNL A   1      44.051  27.932  28.551  1.00  0.00     0.006 A 
ATOM     24  C   UNL A   1      44.228  27.106  25.864  1.00  0.00     0.027 A 
ATOM     25  C   UNL A   1      43.744  28.822  27.526  1.00  0.00     0.000 A 
ATOM     26  C   UNL A   1      43.817  28.406  26.191  1.00  0.00     0.002 A 
ENDBRANCH  14  17
ENDBRANCH   9  14
ENDBRANCH   6   8
ENDBRANCH   5   6
ENDBRANCH   4   5
ENDBRANCH   3   4
ENDBRANCH   2   3
ENDBRANCH   1   2
BRANCH   1  27
ATOM     27  C   UNL A   1      41.352  21.153  27.119  1.00  0.00     0.188 C 
BRANCH  27  28
ATOM     28  O   UNL A   1      41.631  21.488  25.774  1.00  0.00    -0.376 OA
BRANCH  28  29
ATOM     29  C   UNL A   1      42.001  22.836  25.496  1.00  0.00     0.202 C 
BRANCH  29  30
ATOM     30  C   UNL A   1      41.738  23.832  26.630  1.00  0.00     0.261 C 
BRANCH  30  31
ATOM     31  O   UNL A   1      40.935  24.922  26.139  1.00  0.00    -0.460 OA
BRANCH  31  32
ATOM     32  C   UNL A   1      39.699  25.041  26.676  1.00  0.00     0.338 C 
ATOM     33  O   UNL A   1      38.768  24.262  26.598  1.00  0.00    -0.246 OA
BRANCH  32  34
ATOM     34  C   UNL A   1      39.723  26.192  27.594  1.00  0.00     0.060 A 
ATOM     35  C   UNL A   1      40.327  27.398  27.236  1.00  0.00     0.016 A 
ATOM     36  C   UNL A   1      39.166  26.020  28.864  1.00  0.00     0.016 A 
ATOM     37  C   UNL A   1      40.343  28.453  28.151  1.00  0.00     0.010 A 
ATOM     38  C   UNL A   1      39.248  27.051  29.799  1.00  0.00     0.010 A 
ATOM     39  C   UNL A   1      39.813  28.288  29.442  1.00  0.00    -0.014 A 
BRANCH  39  40
ATOM     40  C   UNL A   1      39.794  29.442  30.399  1.00  0.00     0.031 A 
ATOM     41  C   UNL A   1      40.793  29.341  31.544  1.00  0.00     0.074 A 
ATOM     42  C   UNL A   1      38.900  30.452  30.176  1.00  0.00     0.049 A 
ATOM     43  N   UNL A   1      40.871  30.072  32.614  1.00  0.00    -0.248 NA
ATOM     44  C   UNL A   1      41.828  28.276  31.532  1.00  0.00     0.031 C 
ATOM     45  C   UNL A   1      37.954  30.423  29.059  1.00  0.00     0.029 A 
ATOM     46  N   UNL A   1      38.582  31.667  30.772  1.00  0.00    -0.354 N 
ATOM     47  C   UNL A   1      41.979  29.626  33.351  1.00  0.00     0.074 A 
ATOM     48  C   UNL A   1      42.531  28.511  32.640  1.00  0.00     0.031 C 
ATOM     49  C   UNL A   1      37.212  31.536  29.009  1.00  0.00     0.029 A 
ATOM     50  C   UNL A   1      37.510  32.364  30.153  1.00  0.00     0.049 A 
ATOM     51  H   UNL A   1      39.060  32.015  31.558  1.00  0.00     0.167 HD
ATOM     52  C   UNL A   1      42.404  30.197  34.511  1.00  0.00     0.031 A 
ATOM     53  C   UNL A   1      36.815  33.483  30.523  1.00  0.00     0.031 A 
ATOM     54  C   UNL A   1      41.486  31.177  34.986  1.00  0.00     0.049 A 
ATOM     55  C   UNL A   1      37.438  34.022  31.746  1.00  0.00     0.074 A 
ATOM     56  C   UNL A   1      40.271  31.085  35.619  1.00  0.00     0.029 A 
ATOM     57  N   UNL A   1      41.663  32.479  34.593  1.00  0.00    -0.354 N 
ATOM     58  N   UNL A   1      38.601  34.599  31.787  1.00  0.00    -0.248 NA
ATOM     59  C   UNL A   1      36.796  33.805  33.047  1.00  0.00     0.031 C 
ATOM     60  C   UNL A   1      39.570  32.253  35.235  1.00  0.00     0.029 A 
ATOM     61  C   UNL A   1      40.406  33.027  34.430  1.00  0.00     0.049 A 
ATOM     62  H   UNL A   1      42.523  32.936  34.452  1.00  0.00     0.167 HD
ATOM     63  C   UNL A   1      38.981  34.440  33.101  1.00  0.00     0.074 A 
ATOM     64  C   UNL A   1      37.771  34.216  33.856  1.00  0.00     0.031 C 
ATOM     65  C   UNL A   1      40.240  34.023  33.391  1.00  0.00     0.031 A 
BRANCH  52  66
ATOM     66  C   UNL A   1      43.669  29.944  35.269  1.00  0.00    -0.014 A 
ATOM     67  C   UNL A   1      43.789  28.968  36.268  1.00  0.00     0.009 A 
ATOM     68  C   UNL A   1      44.856  30.556  34.813  1.00  0.00     0.009 A 
ATOM     69  C   UNL A   1      45.047  28.612  36.777  1.00  0.00     0.001 A 
ATOM     70  C   UNL A   1      46.111  30.183  35.300  1.00  0.00     0.001 A 
ATOM     71  C   UNL A   1      46.206  29.204  36.279  1.00  0.00     0.000 A 
ENDBRANCH  52  66
BRANCH  53  72
ATOM     72  C   UNL A   1      35.534  34.108  30.015  1.00  0.00    -0.014 A 
ATOM     73  C   UNL A   1      35.443  34.551  28.675  1.00  0.00     0.009 A 
ATOM     74  C   UNL A   1      34.386  34.332  30.789  1.00  0.00     0.009 A 
ATOM     75  C   UNL A   1      34.350  35.285  28.188  1.00  0.00     0.001 A 
ATOM     76  C   UNL A   1      33.286  35.069  30.312  1.00  0.00     0.001 A 
ATOM     77  C   UNL A   1      33.279  35.568  29.019  1.00  0.00     0.000 A 
ENDBRANCH  53  72
BRANCH  65  78
ATOM     78  C   UNL A   1      41.264  34.290  32.306  1.00  0.00    -0.014 A 
ATOM     79  C   UNL A   1      41.275  33.571  31.097  1.00  0.00     0.009 A 
ATOM     80  C   UNL A   1      42.211  35.313  32.458  1.00  0.00     0.009 A 
ATOM     81  C   UNL A   1      42.226  33.825  30.104  1.00  0.00     0.001 A 
ATOM     82  C   UNL A   1      43.140  35.594  31.448  1.00  0.00     0.001 A 
ATOM     83  C   UNL A   1      43.156  34.842  30.277  1.00  0.00     0.000 A 
ENDBRANCH  65  78
ENDBRANCH  39  40
ENDBRANCH  32  34
ENDBRANCH  31  32
ENDBRANCH  30  31
ENDBRANCH  29  30
ENDBRANCH  28  29
ENDBRANCH  27  28
ENDBRANCH   1  27
TORSDOF 19
ENDMDL
MODEL 3
REMARK VINA RESULT:      -9.9      2.858      4.590
REMARK SMILES C[C@@H]1Cc2ccccc2N1S(=O)(=O)c1c[nH]c(C(=O)OCCOCCOCCOC(=O)c2ccc(-c3c4nc(c(-c5ccccc5)c5ccc([nH]5)c(-c5ccccc5)c5nc(c(-c6ccccc6)c6ccc3[nH]6)C=C5)C=C4)cc2)c1
REMARK SMILES IDX 24 1 23 2 22 3 21 4 20 5 18 6 19 7 17 8 14 9 15 10 80 11
REMARK SMILES IDX 16 12 11 14 12 15 13 16 10 17 1 18 2 19 3 20 4 21 9 22 5 23
REMARK SMILES IDX 8 24 6 25 7 26 25 27 26 28 27 29 28 30 29 31 30 32 31 33
REMARK SMILES IDX 32 34 33 35 79 36 34 37 78 38 35 39 36 40 37 41 72 42 38 43
REMARK SMILES IDX 77 44 71 45 73 46 39 47 76 48 70 49 69 50 40 52 62 53 47 54
REMARK SMILES IDX 61 55 48 56 51 57 60 58 74 59 49 60 50 61 59 63 75 64 52 65
REMARK SMILES IDX 41 66 42 67 46 68 43 69 45 70 44 71 63 72 64 73 68 74 65 75
REMARK SMILES IDX 67 76 66 77 53 78 54 79 58 80 55 81 57 82 56 83
REMARK H PARENT 16 13 73 51 51 62
REMARK Flexibility Score: inf
ROOT
ATOM      1  C   UNL A   1      38.042  22.505  25.540  1.00  0.00     0.188 C 
ENDROOT
BRANCH   1   2
ATOM      2  O   UNL A   1      37.184  21.374  25.654  1.00  0.00    -0.376 OA
BRANCH   2   3
ATOM      3  C   UNL A   1      35.814  21.762  25.838  1.00  0.00     0.202 C 
BRANCH   3   4
ATOM      4  C   UNL A   1      34.813  20.920  25.010  1.00  0.00     0.261 C 
BRANCH   4   5
ATOM      5  O   UNL A   1      33.725  20.264  25.715  1.00  0.00    -0.459 OA
BRANCH   5   6
ATOM      6  C   UNL A   1      32.521  20.362  25.118  1.00  0.00     0.354 C 
ATOM      7  O   UNL A   1      31.916  19.397  24.652  1.00  0.00    -0.244 OA
BRANCH   6   8
ATOM      8  C   UNL A   1      31.909  21.656  25.149  1.00  0.00     0.126 A 
ATOM      9  C   UNL A   1      31.234  23.803  24.910  1.00  0.00     0.106 A 
ATOM     10  C   UNL A   1      31.178  23.476  26.250  1.00  0.00     0.105 A 
ATOM     11  C   UNL A   1      31.652  22.636  24.200  1.00  0.00     0.057 A 
ATOM     12  N   UNL A   1      31.514  22.166  26.371  1.00  0.00    -0.354 N 
ATOM     13  H   UNL A   1      31.479  21.653  27.211  1.00  0.00     0.166 HD
BRANCH   9  14
ATOM     14  S   UNL A   1      30.820  25.359  24.283  1.00  0.00     0.266 S 
ATOM     15  O   UNL A   1      29.696  25.758  25.110  1.00  0.00    -0.201 OA
ATOM     16  O   UNL A   1      30.643  25.125  22.864  1.00  0.00    -0.201 OA
BRANCH  14  17
ATOM     17  N   UNL A   1      32.051  26.531  24.468  1.00  0.00    -0.263 N 
ATOM     18  C   UNL A   1      33.401  26.409  22.356  1.00  0.00     0.032 C 
ATOM     19  C   UNL A   1      32.374  27.208  23.139  1.00  0.00     0.101 C 
ATOM     20  C   UNL A   1      32.865  28.626  23.481  1.00  0.00     0.063 C 
ATOM     21  C   UNL A   1      32.379  28.803  24.880  1.00  0.00    -0.021 A 
ATOM     22  C   UNL A   1      31.931  27.599  25.424  1.00  0.00     0.055 A 
ATOM     23  C   UNL A   1      32.454  29.971  25.631  1.00  0.00     0.006 A 
ATOM     24  C   UNL A   1      31.660  27.526  26.780  1.00  0.00     0.027 A 
ATOM     25  C   UNL A   1      32.106  29.913  26.977  1.00  0.00     0.000 A 
ATOM     26  C   UNL A   1      31.727  28.695  27.552  1.00  0.00     0.002 A 
ENDBRANCH  14  17
ENDBRANCH   9  14
ENDBRANCH   6   8
ENDBRANCH   5   6
ENDBRANCH   4   5
ENDBRANCH   3   4
ENDBRANCH   2   3
ENDBRANCH   1   2
BRANCH   1  27
ATOM     27  C   UNL A   1      39.288  22.532  26.431  1.00  0.00     0.188 C 
BRANCH  27  28
ATOM     28  O   UNL A   1      40.456  21.871  25.984  1.00  0.00    -0.376 OA
BRANCH  28  29
ATOM     29  C   UNL A   1      41.712  22.453  26.325  1.00  0.00     0.202 C 
BRANCH  29  30
ATOM     30  C   UNL A   1      41.668  23.480  27.461  1.00  0.00     0.261 C 
BRANCH  30  31
ATOM     31  O   UNL A   1      42.287  24.706  27.027  1.00  0.00    -0.460 OA
BRANCH  31  32
ATOM     32  C   UNL A   1      41.469  25.616  26.452  1.00  0.00     0.338 C 
ATOM     33  O   UNL A   1      40.996  25.599  25.331  1.00  0.00    -0.246 OA
BRANCH  32  34
ATOM     34  C   UNL A   1      41.037  26.552  27.504  1.00  0.00     0.060 A 
ATOM     35  C   UNL A   1      39.926  26.286  28.306  1.00  0.00     0.016 A 
ATOM     36  C   UNL A   1      41.747  27.749  27.638  1.00  0.00     0.016 A 
ATOM     37  C   UNL A   1      39.545  27.217  29.275  1.00  0.00     0.010 A 
ATOM     38  C   UNL A   1      41.319  28.705  28.557  1.00  0.00     0.010 A 
ATOM     39  C   UNL A   1      40.229  28.436  29.405  1.00  0.00    -0.014 A 
BRANCH  39  40
ATOM     40  C   UNL A   1      39.839  29.407  30.479  1.00  0.00     0.031 A 
ATOM     41  C   UNL A   1      40.569  29.224  31.803  1.00  0.00     0.074 A 
ATOM     42  C   UNL A   1      38.881  30.339  30.190  1.00  0.00     0.049 A 
ATOM     43  N   UNL A   1      40.307  29.772  32.950  1.00  0.00    -0.248 NA
ATOM     44  C   UNL A   1      41.721  28.293  31.891  1.00  0.00     0.031 C 
ATOM     45  C   UNL A   1      38.215  30.395  28.888  1.00  0.00     0.029 A 
ATOM     46  N   UNL A   1      38.272  31.398  30.854  1.00  0.00    -0.354 N 
ATOM     47  C   UNL A   1      41.279  29.330  33.861  1.00  0.00     0.074 A 
ATOM     48  C   UNL A   1      42.125  28.414  33.156  1.00  0.00     0.031 C 
ATOM     49  C   UNL A   1      37.352  31.416  28.815  1.00  0.00     0.029 A 
ATOM     50  C   UNL A   1      37.273  32.070  30.100  1.00  0.00     0.049 A 
ATOM     51  H   UNL A   1      38.513  31.660  31.771  1.00  0.00     0.167 HD
ATOM     52  C   UNL A   1      41.356  29.743  35.155  1.00  0.00     0.031 A 
ATOM     53  C   UNL A   1      36.364  33.032  30.444  1.00  0.00     0.031 A 
ATOM     54  C   UNL A   1      40.227  30.528  35.529  1.00  0.00     0.049 A 
ATOM     55  C   UNL A   1      36.622  33.424  31.841  1.00  0.00     0.074 A 
ATOM     56  C   UNL A   1      38.929  30.204  35.836  1.00  0.00     0.029 A 
ATOM     57  N   UNL A   1      40.299  31.889  35.370  1.00  0.00    -0.354 N 
ATOM     58  N   UNL A   1      37.655  34.106  32.235  1.00  0.00    -0.248 NA
ATOM     59  C   UNL A   1      35.749  32.928  32.911  1.00  0.00     0.031 C 
ATOM     60  C   UNL A   1      38.171  31.338  35.461  1.00  0.00     0.029 A 
ATOM     61  C   UNL A   1      39.044  32.319  34.991  1.00  0.00     0.049 A 
ATOM     62  H   UNL A   1      41.096  32.451  35.502  1.00  0.00     0.167 HD
ATOM     63  C   UNL A   1      37.758  33.774  33.568  1.00  0.00     0.074 A 
ATOM     64  C   UNL A   1      36.456  33.300  33.977  1.00  0.00     0.031 C 
ATOM     65  C   UNL A   1      38.969  33.450  34.089  1.00  0.00     0.031 A 
BRANCH  52  66
ATOM     66  C   UNL A   1      42.448  29.504  36.150  1.00  0.00    -0.014 A 
ATOM     67  C   UNL A   1      43.011  28.244  36.392  1.00  0.00     0.009 A 
ATOM     68  C   UNL A   1      43.098  30.624  36.713  1.00  0.00     0.009 A 
ATOM     69  C   UNL A   1      44.183  28.113  37.152  1.00  0.00     0.001 A 
ATOM     70  C   UNL A   1      44.279  30.498  37.447  1.00  0.00     0.001 A 
ATOM     71  C   UNL A   1      44.825  29.240  37.662  1.00  0.00     0.000 A 
ENDBRANCH  52  66
BRANCH  53  72
ATOM     72  C   UNL A   1      35.148  33.593  29.737  1.00  0.00    -0.014 A 
ATOM     73  C   UNL A   1      34.321  32.744  28.965  1.00  0.00     0.009 A 
ATOM     74  C   UNL A   1      34.764  34.941  29.745  1.00  0.00     0.009 A 
ATOM     75  C   UNL A   1      33.281  33.224  28.155  1.00  0.00     0.001 A 
ATOM     76  C   UNL A   1      33.725  35.435  28.935  1.00  0.00     0.001 A 
ATOM     77  C   UNL A   1      33.000  34.579  28.119  1.00  0.00     0.000 A 
ENDBRANCH  53  72
BRANCH  65  78
ATOM     78  C   UNL A   1      40.156  34.001  33.324  1.00  0.00    -0.014 A 
ATOM     79  C   UNL A   1      40.993  34.997  33.859  1.00  0.00     0.009 A 
ATOM     80  C   UNL A   1      40.488  33.488  32.061  1.00  0.00     0.009 A 
ATOM     81  C   UNL A   1      42.083  35.500  33.143  1.00  0.00     0.001 A 
ATOM     82  C   UNL A   1      41.603  33.964  31.358  1.00  0.00     0.001 A 
ATOM     83  C   UNL A   1      42.392  34.978  31.894  1.00  0.00     0.000 A 
ENDBRANCH  65  78
ENDBRANCH  39  40
ENDBRANCH  32  34
ENDBRANCH  31  32
ENDBRANCH  30  31
ENDBRANCH  29  30
ENDBRANCH  28  29
ENDBRANCH  27  28
ENDBRANCH   1  27
TORSDOF 19
ENDMDL
