MODEL 1
REMARK VINA RESULT:     -11.2      0.000      0.000
REMARK SMILES COc1ccc(Cl)c2c1N[C@@H](c1ccc(C(=O)OCCOCCOCCOC(=O)c3ccc(-c4c5nc(c(-c6ccccc6)c6ccc([nH]6)c(-c6ccccc6)c6nc(c(-c7ccccc7)c7ccc4[nH]7)C=C6)C=C5)cc3)cc1)[C@@H]1CC=C[C@H]21
REMARK SMILES IDX 22 1 21 2 20 3 19 4 18 5 16 6 17 7 15 8 12 9 13 10 79 11
REMARK SMILES IDX 14 12 78 13 11 14 3 15 4 16 9 17 5 18 8 19 10 20 6 21 84 22
REMARK SMILES IDX 7 24 80 25 83 26 81 27 82 28 2 29 1 30 23 31 24 32 25 33
REMARK SMILES IDX 26 34 27 35 28 36 29 37 30 38 31 39 77 40 32 41 76 42 33 43
REMARK SMILES IDX 34 44 35 45 70 46 36 47 75 48 69 49 71 50 37 51 74 52 68 53
REMARK SMILES IDX 67 54 38 56 60 57 45 58 59 59 46 60 49 61 58 62 72 63 47 64
REMARK SMILES IDX 48 65 57 67 73 68 50 69 39 70 40 71 44 72 41 73 43 74 42 75
REMARK SMILES IDX 61 76 62 77 66 78 63 79 65 80 64 81 51 82 52 83 56 84 53 85
REMARK SMILES IDX 55 86 54 87
REMARK H PARENT 10 23 71 55 49 66
REMARK Flexibility Score: inf
ROOT
ATOM      1  C   UNL A   1      32.698  36.616  30.792  1.00  0.00     0.188 C 
ENDROOT
BRANCH   1   2
ATOM      2  O   UNL A   1      32.573  35.756  29.679  1.00  0.00    -0.376 OA
BRANCH   2   3
ATOM      3  C   UNL A   1      33.719  35.271  28.999  1.00  0.00     0.202 C 
BRANCH   3   4
ATOM      4  C   UNL A   1      33.686  34.079  28.035  1.00  0.00     0.261 C 
BRANCH   4   5
ATOM      5  O   UNL A   1      33.706  32.792  28.658  1.00  0.00    -0.460 OA
BRANCH   5   6
ATOM      6  C   UNL A   1      34.706  31.971  28.233  1.00  0.00     0.338 C 
ATOM      7  O   UNL A   1      35.879  32.047  28.518  1.00  0.00    -0.246 OA
BRANCH   6   8
ATOM      8  C   UNL A   1      34.133  30.819  27.493  1.00  0.00     0.060 A 
ATOM      9  C   UNL A   1      33.198  28.603  26.029  1.00  0.00    -0.025 A 
ATOM     10  C   UNL A   1      34.464  28.577  26.639  1.00  0.00     0.007 A 
ATOM     11  C   UNL A   1      32.375  29.723  26.257  1.00  0.00     0.007 A 
ATOM     12  C   UNL A   1      34.921  29.670  27.377  1.00  0.00     0.016 A 
ATOM     13  C   UNL A   1      32.849  30.839  26.950  1.00  0.00     0.016 A 
BRANCH   9  14
ATOM     14  C   UNL A   1      32.750  27.521  25.041  1.00  0.00     0.114 C 
ATOM     15  C   UNL A   1      34.009  24.007  24.641  1.00  0.00     0.142 A 
ATOM     16  C   UNL A   1      34.095  22.978  23.702  1.00  0.00     0.050 A 
ATOM     17  C   UNL A   1      33.533  25.288  24.295  1.00  0.00     0.083 A 
ATOM     18  C   UNL A   1      33.674  23.205  22.398  1.00  0.00     0.025 A 
ATOM     19  C   UNL A   1      33.109  25.516  22.974  1.00  0.00     0.005 A 
ATOM     20  N   UNL A   1      33.533  26.311  25.232  1.00  0.00    -0.375 N 
ATOM     21  C   UNL A   1      33.184  24.462  22.035  1.00  0.00     0.047 A 
ATOM     22  C   UNL A   1      32.640  26.886  22.568  1.00  0.00     0.051 C 
ATOM     23  H   UNL A   1      34.077  26.215  26.047  1.00  0.00     0.161 HD
ATOM     24  Cl  UNL A   1      32.717  24.668  20.379  1.00  0.00    -0.084 Cl
ATOM     25  C   UNL A   1      32.908  28.021  23.582  1.00  0.00     0.031 C 
ATOM     26  C   UNL A   1      31.151  27.013  22.362  1.00  0.00    -0.023 C 
ATOM     27  C   UNL A   1      31.860  29.078  23.173  1.00  0.00     0.034 C 
ATOM     28  C   UNL A   1      30.723  28.238  22.689  1.00  0.00    -0.030 C 
BRANCH  15  29
ATOM     29  O   UNL A   1      34.471  23.738  25.908  1.00  0.00    -0.495 OA
ATOM     30  C   UNL A   1      33.402  23.322  26.759  1.00  0.00     0.278 C 
ENDBRANCH  15  29
ENDBRANCH   9  14
ENDBRANCH   6   8
ENDBRANCH   5   6
ENDBRANCH   4   5
ENDBRANCH   3   4
ENDBRANCH   2   3
ENDBRANCH   1   2
BRANCH   1  31
ATOM     31  C   UNL A   1      33.049  36.054  32.186  1.00  0.00     0.188 C 
BRANCH  31  32
ATOM     32  O   UNL A   1      33.191  34.666  32.398  1.00  0.00    -0.376 OA
BRANCH  32  33
ATOM     33  C   UNL A   1      34.487  34.093  32.440  1.00  0.00     0.202 C 
BRANCH  33  34
ATOM     34  C   UNL A   1      35.075  33.461  33.709  1.00  0.00     0.261 C 
BRANCH  34  35
ATOM     35  O   UNL A   1      35.683  32.174  33.546  1.00  0.00    -0.460 OA
BRANCH  35  36
ATOM     36  C   UNL A   1      36.934  32.058  34.052  1.00  0.00     0.338 C 
ATOM     37  O   UNL A   1      37.309  32.321  35.189  1.00  0.00    -0.246 OA
BRANCH  36  38
ATOM     38  C   UNL A   1      37.803  31.410  33.062  1.00  0.00     0.060 A 
ATOM     39  C   UNL A   1      38.932  30.704  33.501  1.00  0.00     0.016 A 
ATOM     40  C   UNL A   1      37.544  31.568  31.701  1.00  0.00     0.016 A 
ATOM     41  C   UNL A   1      39.812  30.151  32.575  1.00  0.00     0.010 A 
ATOM     42  C   UNL A   1      38.447  31.047  30.773  1.00  0.00     0.010 A 
ATOM     43  C   UNL A   1      39.595  30.361  31.207  1.00  0.00    -0.014 A 
BRANCH  43  44
ATOM     44  C   UNL A   1      40.663  30.041  30.235  1.00  0.00     0.031 A 
ATOM     45  C   UNL A   1      40.630  28.700  29.558  1.00  0.00     0.074 A 
ATOM     46  C   UNL A   1      41.638  30.921  29.955  1.00  0.00     0.049 A 
ATOM     47  N   UNL A   1      41.499  28.169  28.738  1.00  0.00    -0.248 NA
ATOM     48  C   UNL A   1      39.460  27.847  29.834  1.00  0.00     0.031 C 
ATOM     49  C   UNL A   1      41.735  32.279  30.485  1.00  0.00     0.029 A 
ATOM     50  N   UNL A   1      42.739  30.793  29.145  1.00  0.00    -0.354 N 
ATOM     51  C   UNL A   1      40.980  26.928  28.398  1.00  0.00     0.074 A 
ATOM     52  C   UNL A   1      39.733  26.770  29.111  1.00  0.00     0.031 C 
ATOM     53  C   UNL A   1      42.841  32.861  29.988  1.00  0.00     0.029 A 
ATOM     54  C   UNL A   1      43.547  31.903  29.137  1.00  0.00     0.049 A 
ATOM     55  H   UNL A   1      42.931  29.983  28.621  1.00  0.00     0.167 HD
ATOM     56  C   UNL A   1      41.499  26.002  27.561  1.00  0.00     0.031 A 
ATOM     57  C   UNL A   1      44.730  32.113  28.527  1.00  0.00     0.031 A 
ATOM     58  C   UNL A   1      42.747  26.144  26.869  1.00  0.00     0.049 A 
ATOM     59  C   UNL A   1      45.343  31.019  27.695  1.00  0.00     0.074 A 
ATOM     60  C   UNL A   1      43.362  25.243  26.018  1.00  0.00     0.029 A 
ATOM     61  N   UNL A   1      43.571  27.254  26.947  1.00  0.00    -0.354 N 
ATOM     62  N   UNL A   1      44.860  29.835  27.405  1.00  0.00    -0.248 NA
ATOM     63  C   UNL A   1      46.668  31.285  27.113  1.00  0.00     0.031 C 
ATOM     64  C   UNL A   1      44.580  25.791  25.614  1.00  0.00     0.029 A 
ATOM     65  C   UNL A   1      44.697  27.054  26.171  1.00  0.00     0.049 A 
ATOM     66  H   UNL A   1      43.383  28.063  27.475  1.00  0.00     0.167 HD
ATOM     67  C   UNL A   1      45.803  29.230  26.583  1.00  0.00     0.074 A 
ATOM     68  C   UNL A   1      46.889  30.174  26.421  1.00  0.00     0.031 C 
ATOM     69  C   UNL A   1      45.766  28.004  26.011  1.00  0.00     0.031 A 
BRANCH  56  70
ATOM     70  C   UNL A   1      40.724  24.737  27.343  1.00  0.00    -0.014 A 
ATOM     71  C   UNL A   1      39.589  24.728  26.519  1.00  0.00     0.009 A 
ATOM     72  C   UNL A   1      41.196  23.529  27.875  1.00  0.00     0.009 A 
ATOM     73  C   UNL A   1      38.944  23.527  26.226  1.00  0.00     0.001 A 
ATOM     74  C   UNL A   1      40.560  22.326  27.564  1.00  0.00     0.001 A 
ATOM     75  C   UNL A   1      39.436  22.326  26.739  1.00  0.00     0.000 A 
ENDBRANCH  56  70
BRANCH  57  76
ATOM     76  C   UNL A   1      45.414  33.422  28.677  1.00  0.00    -0.014 A 
ATOM     77  C   UNL A   1      46.278  33.648  29.760  1.00  0.00     0.009 A 
ATOM     78  C   UNL A   1      45.224  34.444  27.735  1.00  0.00     0.009 A 
ATOM     79  C   UNL A   1      46.932  34.873  29.899  1.00  0.00     0.001 A 
ATOM     80  C   UNL A   1      45.896  35.662  27.866  1.00  0.00     0.001 A 
ATOM     81  C   UNL A   1      46.747  35.876  28.949  1.00  0.00     0.000 A 
ENDBRANCH  57  76
BRANCH  69  82
ATOM     82  C   UNL A   1      46.906  27.598  25.123  1.00  0.00    -0.014 A 
ATOM     83  C   UNL A   1      47.915  26.743  25.589  1.00  0.00     0.009 A 
ATOM     84  C   UNL A   1      46.893  27.967  23.768  1.00  0.00     0.009 A 
ATOM     85  C   UNL A   1      48.895  26.270  24.713  1.00  0.00     0.001 A 
ATOM     86  C   UNL A   1      47.860  27.473  22.891  1.00  0.00     0.001 A 
ATOM     87  C   UNL A   1      48.860  26.626  23.365  1.00  0.00     0.000 A 
ENDBRANCH  69  82
ENDBRANCH  43  44
ENDBRANCH  36  38
ENDBRANCH  35  36
ENDBRANCH  34  35
ENDBRANCH  33  34
ENDBRANCH  32  33
ENDBRANCH  31  32
ENDBRANCH   1  31
TORSDOF 19
ENDMDL
MODEL 2
REMARK VINA RESULT:     -10.9      3.816      7.092
REMARK SMILES COc1ccc(Cl)c2c1N[C@@H](c1ccc(C(=O)OCCOCCOCCOC(=O)c3ccc(-c4c5nc(c(-c6ccccc6)c6ccc([nH]6)c(-c6ccccc6)c6nc(c(-c7ccccc7)c7ccc4[nH]7)C=C6)C=C5)cc3)cc1)[C@@H]1CC=C[C@H]21
REMARK SMILES IDX 22 1 21 2 20 3 19 4 18 5 16 6 17 7 15 8 12 9 13 10 79 11
REMARK SMILES IDX 14 12 78 13 11 14 3 15 4 16 9 17 5 18 8 19 10 20 6 21 84 22
REMARK SMILES IDX 7 24 80 25 83 26 81 27 82 28 2 29 1 30 23 31 24 32 25 33
REMARK SMILES IDX 26 34 27 35 28 36 29 37 30 38 31 39 77 40 32 41 76 42 33 43
REMARK SMILES IDX 34 44 35 45 70 46 36 47 75 48 69 49 71 50 37 51 74 52 68 53
REMARK SMILES IDX 67 54 38 56 60 57 45 58 59 59 46 60 49 61 58 62 72 63 47 64
REMARK SMILES IDX 48 65 57 67 73 68 50 69 39 70 40 71 44 72 41 73 43 74 42 75
REMARK SMILES IDX 61 76 62 77 66 78 63 79 65 80 64 81 51 82 52 83 56 84 53 85
REMARK SMILES IDX 55 86 54 87
REMARK H PARENT 10 23 71 55 49 66
REMARK Flexibility Score: inf
ROOT
ATOM      1  C   UNL A   1      29.576  32.802  23.413  1.00  0.00     0.188 C 
ENDROOT
BRANCH   1   2
ATOM      2  O   UNL A   1      28.388  33.186  22.752  1.00  0.00    -0.376 OA
BRANCH   2   3
ATOM      3  C   UNL A   1      27.955  32.515  21.580  1.00  0.00     0.202 C 
BRANCH   3   4
ATOM      4  C   UNL A   1      28.640  31.259  21.026  1.00  0.00     0.261 C 
BRANCH   4   5
ATOM      5  O   UNL A   1      27.899  30.046  21.178  1.00  0.00    -0.460 OA
BRANCH   5   6
ATOM      6  C   UNL A   1      27.791  29.602  22.461  1.00  0.00     0.338 C 
ATOM      7  O   UNL A   1      26.905  29.855  23.245  1.00  0.00    -0.246 OA
BRANCH   6   8
ATOM      8  C   UNL A   1      28.840  28.589  22.735  1.00  0.00     0.060 A 
ATOM      9  C   UNL A   1      30.758  26.638  23.401  1.00  0.00    -0.025 A 
ATOM     10  C   UNL A   1      29.411  26.474  23.767  1.00  0.00     0.007 A 
ATOM     11  C   UNL A   1      31.099  27.750  22.608  1.00  0.00     0.007 A 
ATOM     12  C   UNL A   1      28.458  27.434  23.424  1.00  0.00     0.016 A 
ATOM     13  C   UNL A   1      30.159  28.740  22.307  1.00  0.00     0.016 A 
BRANCH   9  14
ATOM     14  C   UNL A   1      31.864  25.723  23.938  1.00  0.00     0.114 C 
ATOM     15  C   UNL A   1      32.307  22.023  23.481  1.00  0.00     0.142 A 
ATOM     16  C   UNL A   1      32.912  20.914  24.074  1.00  0.00     0.050 A 
ATOM     17  C   UNL A   1      32.297  23.285  24.107  1.00  0.00     0.083 A 
ATOM     18  C   UNL A   1      33.551  21.057  25.299  1.00  0.00     0.025 A 
ATOM     19  C   UNL A   1      32.943  23.427  25.348  1.00  0.00     0.005 A 
ATOM     20  N   UNL A   1      31.620  24.349  23.528  1.00  0.00    -0.375 N 
ATOM     21  C   UNL A   1      33.567  22.302  25.932  1.00  0.00     0.047 A 
ATOM     22  C   UNL A   1      32.907  24.753  26.059  1.00  0.00     0.051 C 
ATOM     23  H   UNL A   1      30.959  24.168  22.821  1.00  0.00     0.161 HD
ATOM     24  Cl  UNL A   1      34.351  22.381  27.475  1.00  0.00    -0.084 Cl
ATOM     25  C   UNL A   1      31.929  25.802  25.484  1.00  0.00     0.031 C 
ATOM     26  C   UNL A   1      34.208  25.515  26.047  1.00  0.00    -0.023 C 
ATOM     27  C   UNL A   1      32.526  27.125  26.010  1.00  0.00     0.034 C 
ATOM     28  C   UNL A   1      33.992  26.835  26.031  1.00  0.00    -0.030 C 
BRANCH  15  29
ATOM     29  O   UNL A   1      31.661  21.818  22.284  1.00  0.00    -0.495 OA
ATOM     30  C   UNL A   1      31.862  20.481  21.822  1.00  0.00     0.278 C 
ENDBRANCH  15  29
ENDBRANCH   9  14
ENDBRANCH   6   8
ENDBRANCH   5   6
ENDBRANCH   4   5
ENDBRANCH   3   4
ENDBRANCH   2   3
ENDBRANCH   1   2
BRANCH   1  31
ATOM     31  C   UNL A   1      29.545  31.748  24.539  1.00  0.00     0.188 C 
BRANCH  31  32
ATOM     32  O   UNL A   1      30.711  31.052  24.918  1.00  0.00    -0.376 OA
BRANCH  32  33
ATOM     33  C   UNL A   1      31.260  31.255  26.210  1.00  0.00     0.202 C 
BRANCH  33  34
ATOM     34  C   UNL A   1      31.425  32.648  26.833  1.00  0.00     0.261 C 
BRANCH  34  35
ATOM     35  O   UNL A   1      32.740  33.213  26.769  1.00  0.00    -0.460 OA
BRANCH  35  36
ATOM     36  C   UNL A   1      33.192  33.756  27.924  1.00  0.00     0.338 C 
ATOM     37  O   UNL A   1      32.632  34.587  28.630  1.00  0.00    -0.246 OA
BRANCH  36  38
ATOM     38  C   UNL A   1      34.436  33.088  28.324  1.00  0.00     0.060 A 
ATOM     39  C   UNL A   1      34.406  31.726  28.655  1.00  0.00     0.016 A 
ATOM     40  C   UNL A   1      35.613  33.827  28.446  1.00  0.00     0.016 A 
ATOM     41  C   UNL A   1      35.559  31.095  29.114  1.00  0.00     0.010 A 
ATOM     42  C   UNL A   1      36.758  33.202  28.943  1.00  0.00     0.010 A 
ATOM     43  C   UNL A   1      36.727  31.843  29.302  1.00  0.00    -0.014 A 
BRANCH  43  44
ATOM     44  C   UNL A   1      37.859  31.264  30.058  1.00  0.00     0.031 A 
ATOM     45  C   UNL A   1      38.770  30.302  29.350  1.00  0.00     0.074 A 
ATOM     46  C   UNL A   1      38.077  31.587  31.344  1.00  0.00     0.049 A 
ATOM     47  N   UNL A   1      39.771  29.610  29.828  1.00  0.00    -0.248 NA
ATOM     48  C   UNL A   1      38.528  30.098  27.910  1.00  0.00     0.031 C 
ATOM     49  C   UNL A   1      37.314  32.565  32.116  1.00  0.00     0.029 A 
ATOM     50  N   UNL A   1      39.018  31.117  32.226  1.00  0.00    -0.354 N 
ATOM     51  C   UNL A   1      40.278  28.896  28.752  1.00  0.00     0.074 A 
ATOM     52  C   UNL A   1      39.469  29.219  27.600  1.00  0.00     0.031 C 
ATOM     53  C   UNL A   1      37.815  32.620  33.363  1.00  0.00     0.029 A 
ATOM     54  C   UNL A   1      38.908  31.656  33.485  1.00  0.00     0.049 A 
ATOM     55  H   UNL A   1      39.705  30.457  31.981  1.00  0.00     0.167 HD
ATOM     56  C   UNL A   1      41.329  28.047  28.729  1.00  0.00     0.031 A 
ATOM     57  C   UNL A   1      39.599  31.386  34.609  1.00  0.00     0.031 A 
ATOM     58  C   UNL A   1      42.121  27.706  29.876  1.00  0.00     0.049 A 
ATOM     59  C   UNL A   1      40.689  30.348  34.582  1.00  0.00     0.074 A 
ATOM     60  C   UNL A   1      43.193  26.834  29.947  1.00  0.00     0.029 A 
ATOM     61  N   UNL A   1      41.929  28.218  31.148  1.00  0.00    -0.354 N 
ATOM     62  N   UNL A   1      41.141  29.654  33.566  1.00  0.00    -0.248 NA
ATOM     63  C   UNL A   1      41.359  30.049  35.858  1.00  0.00     0.031 C 
ATOM     64  C   UNL A   1      43.623  26.785  31.274  1.00  0.00     0.029 A 
ATOM     65  C   UNL A   1      42.854  27.667  32.015  1.00  0.00     0.049 A 
ATOM     66  H   UNL A   1      41.239  28.874  31.396  1.00  0.00     0.167 HD
ATOM     67  C   UNL A   1      42.166  28.863  34.071  1.00  0.00     0.074 A 
ATOM     68  C   UNL A   1      42.270  29.160  35.485  1.00  0.00     0.031 C 
ATOM     69  C   UNL A   1      42.953  27.977  33.417  1.00  0.00     0.031 A 
BRANCH  56  70
ATOM     70  C   UNL A   1      41.692  27.413  27.420  1.00  0.00    -0.014 A 
ATOM     71  C   UNL A   1      42.645  28.005  26.579  1.00  0.00     0.009 A 
ATOM     72  C   UNL A   1      41.161  26.160  27.081  1.00  0.00     0.009 A 
ATOM     73  C   UNL A   1      43.065  27.349  25.422  1.00  0.00     0.001 A 
ATOM     74  C   UNL A   1      41.597  25.498  25.932  1.00  0.00     0.001 A 
ATOM     75  C   UNL A   1      42.549  26.092  25.105  1.00  0.00     0.000 A 
ENDBRANCH  56  70
BRANCH  57  76
ATOM     76  C   UNL A   1      39.283  32.118  35.862  1.00  0.00    -0.014 A 
ATOM     77  C   UNL A   1      40.001  33.273  36.206  1.00  0.00     0.009 A 
ATOM     78  C   UNL A   1      38.255  31.678  36.710  1.00  0.00     0.009 A 
ATOM     79  C   UNL A   1      39.700  33.970  37.377  1.00  0.00     0.001 A 
ATOM     80  C   UNL A   1      37.943  32.390  37.871  1.00  0.00     0.001 A 
ATOM     81  C   UNL A   1      38.667  33.533  38.205  1.00  0.00     0.000 A 
ENDBRANCH  57  76
BRANCH  69  82
ATOM     82  C   UNL A   1      44.026  27.271  34.192  1.00  0.00    -0.014 A 
ATOM     83  C   UNL A   1      45.284  27.859  34.384  1.00  0.00     0.009 A 
ATOM     84  C   UNL A   1      43.727  26.065  34.849  1.00  0.00     0.009 A 
ATOM     85  C   UNL A   1      46.225  27.249  35.217  1.00  0.00     0.001 A 
ATOM     86  C   UNL A   1      44.661  25.472  35.699  1.00  0.00     0.001 A 
ATOM     87  C   UNL A   1      45.909  26.064  35.881  1.00  0.00     0.000 A 
ENDBRANCH  69  82
ENDBRANCH  43  44
ENDBRANCH  36  38
ENDBRANCH  35  36
ENDBRANCH  34  35
ENDBRANCH  33  34
ENDBRANCH  32  33
ENDBRANCH  31  32
ENDBRANCH   1  31
TORSDOF 19
ENDMDL
MODEL 3
REMARK VINA RESULT:     -10.8      1.185      5.717
REMARK SMILES COc1ccc(Cl)c2c1N[C@@H](c1ccc(C(=O)OCCOCCOCCOC(=O)c3ccc(-c4c5nc(c(-c6ccccc6)c6ccc([nH]6)c(-c6ccccc6)c6nc(c(-c7ccccc7)c7ccc4[nH]7)C=C6)C=C5)cc3)cc1)[C@@H]1CC=C[C@H]21
REMARK SMILES IDX 22 1 21 2 20 3 19 4 18 5 16 6 17 7 15 8 12 9 13 10 79 11
REMARK SMILES IDX 14 12 78 13 11 14 3 15 4 16 9 17 5 18 8 19 10 20 6 21 84 22
REMARK SMILES IDX 7 24 80 25 83 26 81 27 82 28 2 29 1 30 23 31 24 32 25 33
REMARK SMILES IDX 26 34 27 35 28 36 29 37 30 38 31 39 77 40 32 41 76 42 33 43
REMARK SMILES IDX 34 44 35 45 70 46 36 47 75 48 69 49 71 50 37 51 74 52 68 53
REMARK SMILES IDX 67 54 38 56 60 57 45 58 59 59 46 60 49 61 58 62 72 63 47 64
REMARK SMILES IDX 48 65 57 67 73 68 50 69 39 70 40 71 44 72 41 73 43 74 42 75
REMARK SMILES IDX 61 76 62 77 66 78 63 79 65 80 64 81 51 82 52 83 56 84 53 85
REMARK SMILES IDX 55 86 54 87
REMARK H PARENT 10 23 71 55 49 66
REMARK Flexibility Score: inf
ROOT
ATOM      1  C   UNL A   1      33.007  35.707  30.730  1.00  0.00     0.188 C 
ENDROOT
BRANCH   1   2
ATOM      2  O   UNL A   1      33.732  36.160  29.606  1.00  0.00    -0.376 OA
BRANCH   2   3
ATOM      3  C   UNL A   1      33.893  35.338  28.462  1.00  0.00     0.202 C 
BRANCH   3   4
ATOM      4  C   UNL A   1      33.093  34.050  28.230  1.00  0.00     0.261 C 
BRANCH   4   5
ATOM      5  O   UNL A   1      33.761  33.051  27.455  1.00  0.00    -0.460 OA
BRANCH   5   6
ATOM      6  C   UNL A   1      34.124  31.939  28.154  1.00  0.00     0.338 C 
ATOM      7  O   UNL A   1      34.626  31.904  29.253  1.00  0.00    -0.246 OA
BRANCH   6   8
ATOM      8  C   UNL A   1      33.647  30.723  27.450  1.00  0.00     0.060 A 
ATOM      9  C   UNL A   1      32.899  28.388  26.066  1.00  0.00    -0.025 A 
ATOM     10  C   UNL A   1      34.125  28.455  26.748  1.00  0.00     0.007 A 
ATOM     11  C   UNL A   1      32.016  29.479  26.180  1.00  0.00     0.007 A 
ATOM     12  C   UNL A   1      34.490  29.607  27.446  1.00  0.00     0.016 A 
ATOM     13  C   UNL A   1      32.398  30.653  26.834  1.00  0.00     0.016 A 
BRANCH   9  14
ATOM     14  C   UNL A   1      32.558  27.233  25.118  1.00  0.00     0.114 C 
ATOM     15  C   UNL A   1      31.549  23.711  25.939  1.00  0.00     0.142 A 
ATOM     16  C   UNL A   1      31.536  22.425  25.399  1.00  0.00     0.050 A 
ATOM     17  C   UNL A   1      32.179  24.786  25.280  1.00  0.00     0.083 A 
ATOM     18  C   UNL A   1      32.130  22.196  24.164  1.00  0.00     0.025 A 
ATOM     19  C   UNL A   1      32.781  24.551  24.031  1.00  0.00     0.005 A 
ATOM     20  N   UNL A   1      32.242  26.035  25.880  1.00  0.00    -0.375 N 
ATOM     21  C   UNL A   1      32.747  23.248  23.485  1.00  0.00     0.047 A 
ATOM     22  C   UNL A   1      33.499  25.671  23.328  1.00  0.00     0.051 C 
ATOM     23  H   UNL A   1      32.067  26.113  26.846  1.00  0.00     0.161 HD
ATOM     24  Cl  UNL A   1      33.497  22.865  21.970  1.00  0.00    -0.084 Cl
ATOM     25  C   UNL A   1      33.746  26.946  24.164  1.00  0.00     0.031 C 
ATOM     26  C   UNL A   1      32.779  26.232  22.128  1.00  0.00    -0.023 C 
ATOM     27  C   UNL A   1      33.935  28.020  23.072  1.00  0.00     0.034 C 
ATOM     28  C   UNL A   1      33.033  27.538  21.982  1.00  0.00    -0.030 C 
BRANCH  15  29
ATOM     29  O   UNL A   1      30.976  23.875  27.179  1.00  0.00    -0.495 OA
ATOM     30  C   UNL A   1      29.678  23.279  27.220  1.00  0.00     0.278 C 
ENDBRANCH  15  29
ENDBRANCH   9  14
ENDBRANCH   6   8
ENDBRANCH   5   6
ENDBRANCH   4   5
ENDBRANCH   3   4
ENDBRANCH   2   3
ENDBRANCH   1   2
BRANCH   1  31
ATOM     31  C   UNL A   1      32.739  36.646  31.925  1.00  0.00     0.188 C 
BRANCH  31  32
ATOM     32  O   UNL A   1      33.380  36.447  33.166  1.00  0.00    -0.376 OA
BRANCH  32  33
ATOM     33  C   UNL A   1      34.603  35.732  33.216  1.00  0.00     0.202 C 
BRANCH  33  34
ATOM     34  C   UNL A   1      34.692  34.268  33.672  1.00  0.00     0.261 C 
BRANCH  34  35
ATOM     35  O   UNL A   1      35.637  33.449  32.974  1.00  0.00    -0.460 OA
BRANCH  35  36
ATOM     36  C   UNL A   1      36.936  33.781  33.159  1.00  0.00     0.338 C 
ATOM     37  O   UNL A   1      37.396  34.600  33.946  1.00  0.00    -0.246 OA
BRANCH  36  38
ATOM     38  C   UNL A   1      37.786  32.889  32.360  1.00  0.00     0.060 A 
ATOM     39  C   UNL A   1      38.666  32.015  33.014  1.00  0.00     0.016 A 
ATOM     40  C   UNL A   1      37.768  32.975  30.968  1.00  0.00     0.016 A 
ATOM     41  C   UNL A   1      39.536  31.219  32.274  1.00  0.00     0.010 A 
ATOM     42  C   UNL A   1      38.669  32.206  30.229  1.00  0.00     0.010 A 
ATOM     43  C   UNL A   1      39.571  31.347  30.880  1.00  0.00    -0.014 A 
BRANCH  43  44
ATOM     44  C   UNL A   1      40.679  30.738  30.112  1.00  0.00     0.031 A 
ATOM     45  C   UNL A   1      41.922  31.553  29.889  1.00  0.00     0.074 A 
ATOM     46  C   UNL A   1      40.588  29.489  29.626  1.00  0.00     0.049 A 
ATOM     47  N   UNL A   1      42.982  31.262  29.181  1.00  0.00    -0.248 NA
ATOM     48  C   UNL A   1      41.984  32.864  30.558  1.00  0.00     0.031 C 
ATOM     49  C   UNL A   1      39.470  28.573  29.843  1.00  0.00     0.029 A 
ATOM     50  N   UNL A   1      41.464  28.777  28.846  1.00  0.00    -0.354 N 
ATOM     51  C   UNL A   1      43.834  32.347  29.324  1.00  0.00     0.074 A 
ATOM     52  C   UNL A   1      43.168  33.313  30.166  1.00  0.00     0.031 C 
ATOM     53  C   UNL A   1      39.726  27.418  29.204  1.00  0.00     0.029 A 
ATOM     54  C   UNL A   1      41.007  27.528  28.506  1.00  0.00     0.049 A 
ATOM     55  H   UNL A   1      42.336  29.129  28.557  1.00  0.00     0.167 HD
ATOM     56  C   UNL A   1      45.068  32.521  28.799  1.00  0.00     0.031 A 
ATOM     57  C   UNL A   1      41.553  26.591  27.707  1.00  0.00     0.031 A 
ATOM     58  C   UNL A   1      45.724  31.575  27.943  1.00  0.00     0.049 A 
ATOM     59  C   UNL A   1      42.874  26.859  27.039  1.00  0.00     0.074 A 
ATOM     60  C   UNL A   1      46.968  31.681  27.345  1.00  0.00     0.029 A 
ATOM     61  N   UNL A   1      45.195  30.353  27.563  1.00  0.00    -0.354 N 
ATOM     62  N   UNL A   1      43.659  27.902  27.155  1.00  0.00    -0.248 NA
ATOM     63  C   UNL A   1      43.383  25.824  26.124  1.00  0.00     0.031 C 
ATOM     64  C   UNL A   1      47.172  30.539  26.567  1.00  0.00     0.029 A 
ATOM     65  C   UNL A   1      46.080  29.702  26.725  1.00  0.00     0.049 A 
ATOM     66  H   UNL A   1      44.320  30.003  27.847  1.00  0.00     0.167 HD
ATOM     67  C   UNL A   1      44.765  27.638  26.356  1.00  0.00     0.074 A 
ATOM     68  C   UNL A   1      44.551  26.336  25.758  1.00  0.00     0.031 C 
ATOM     69  C   UNL A   1      45.860  28.404  26.144  1.00  0.00     0.031 A 
BRANCH  56  70
ATOM     70  C   UNL A   1      45.799  33.788  29.125  1.00  0.00    -0.014 A 
ATOM     71  C   UNL A   1      45.782  34.872  28.235  1.00  0.00     0.009 A 
ATOM     72  C   UNL A   1      46.414  33.937  30.377  1.00  0.00     0.009 A 
ATOM     73  C   UNL A   1      46.363  36.087  28.597  1.00  0.00     0.001 A 
ATOM     74  C   UNL A   1      46.978  35.159  30.743  1.00  0.00     0.001 A 
ATOM     75  C   UNL A   1      46.951  36.233  29.854  1.00  0.00     0.000 A 
ENDBRANCH  56  70
BRANCH  57  76
ATOM     76  C   UNL A   1      40.848  25.300  27.497  1.00  0.00    -0.014 A 
ATOM     77  C   UNL A   1      39.716  25.240  26.670  1.00  0.00     0.009 A 
ATOM     78  C   UNL A   1      41.309  24.123  28.105  1.00  0.00     0.009 A 
ATOM     79  C   UNL A   1      39.057  24.027  26.461  1.00  0.00     0.001 A 
ATOM     80  C   UNL A   1      40.660  22.907  27.878  1.00  0.00     0.001 A 
ATOM     81  C   UNL A   1      39.532  22.861  27.058  1.00  0.00     0.000 A 
ENDBRANCH  57  76
BRANCH  69  82
ATOM     82  C   UNL A   1      46.945  27.866  25.257  1.00  0.00    -0.014 A 
ATOM     83  C   UNL A   1      47.925  26.999  25.760  1.00  0.00     0.009 A 
ATOM     84  C   UNL A   1      46.903  28.126  23.877  1.00  0.00     0.009 A 
ATOM     85  C   UNL A   1      48.847  26.405  24.895  1.00  0.00     0.001 A 
ATOM     86  C   UNL A   1      47.811  27.511  23.014  1.00  0.00     0.001 A 
ATOM     87  C   UNL A   1      48.782  26.653  23.524  1.00  0.00     0.000 A 
ENDBRANCH  69  82
ENDBRANCH  43  44
ENDBRANCH  36  38
ENDBRANCH  35  36
ENDBRANCH  34  35
ENDBRANCH  33  34
ENDBRANCH  32  33
ENDBRANCH  31  32
ENDBRANCH   1  31
TORSDOF 19
ENDMDL
