MODEL 1
REMARK VINA RESULT:      -9.8      0.000      0.000
REMARK SMILES CC(C)[C@H](NC(=O)[C@H](C)NC(=O)CNC(=O)OCc1ccccc1)C(=O)OCCOCCOCCOC(=O)c1ccc(-c2c3nc(c(-c4ccccc4)c4ccc([nH]4)c(-c4ccccc4)c4nc(c(-c5ccccc5)c5ccc2[nH]5)C=C4)C=C3)cc1
REMARK SMILES IDX 28 1 27 2 25 3 26 4 4 5 2 6 1 7 3 8 5 9 6 10 7 12 8 13 9 14
REMARK SMILES IDX 10 15 11 16 12 18 13 19 14 20 15 21 16 23 17 24 18 25 19 26
REMARK SMILES IDX 20 27 24 28 21 29 23 30 22 31 29 32 30 33 31 34 32 35 33 36
REMARK SMILES IDX 34 37 35 38 36 39 37 40 38 41 39 42 40 43 86 44 41 45 85 46
REMARK SMILES IDX 42 47 43 48 44 49 79 50 45 51 84 52 78 53 80 54 46 55 83 56
REMARK SMILES IDX 77 57 76 58 47 60 69 61 54 62 68 63 55 64 58 65 67 66 81 67
REMARK SMILES IDX 56 68 57 69 66 71 82 72 59 73 48 74 49 75 53 76 50 77 52 78
REMARK SMILES IDX 51 79 70 80 71 81 75 82 72 83 74 84 73 85 60 86 61 87 65 88
REMARK SMILES IDX 62 89 64 90 63 91
REMARK H PARENT 5 11 10 17 14 22 80 59 58 70
REMARK Flexibility Score: inf
ROOT
ATOM      1  C   UNL A   1      35.303  21.218  25.926  1.00  0.00     0.261 C 
ENDROOT
BRANCH   1   2
ATOM      2  O   UNL A   1      33.915  20.863  26.166  1.00  0.00    -0.462 OA
BRANCH   2   3
ATOM      3  C   UNL A   1      32.886  21.282  25.366  1.00  0.00     0.328 C 
ATOM      4  O   UNL A   1      31.794  20.724  25.348  1.00  0.00    -0.250 OA
BRANCH   3   5
ATOM      5  C   UNL A   1      33.247  22.537  24.365  1.00  0.00     0.194 C 
BRANCH   5   6
ATOM      6  C   UNL A   1      32.403  22.603  23.042  1.00  0.00     0.017 C 
ATOM      7  C   UNL A   1      32.176  21.268  22.298  1.00  0.00     0.010 C 
ATOM      8  C   UNL A   1      31.065  23.314  23.209  1.00  0.00     0.010 C 
ENDBRANCH   5   6
BRANCH   5   9
ATOM      9  N   UNL A   1      34.598  23.179  24.139  1.00  0.00    -0.341 N 
ATOM     10  C   UNL A   1      35.132  24.336  24.657  1.00  0.00     0.242 C 
ATOM     11  H   UNL A   1      35.190  22.689  23.524  1.00  0.00     0.164 HD
ATOM     12  O   UNL A   1      36.298  24.394  25.032  1.00  0.00    -0.273 OA
BRANCH  10  13
ATOM     13  C   UNL A   1      34.153  25.472  24.846  1.00  0.00     0.168 C 
ATOM     14  C   UNL A   1      33.247  24.783  25.943  1.00  0.00     0.041 C 
BRANCH  13  15
ATOM     15  N   UNL A   1      33.739  25.762  23.396  1.00  0.00    -0.343 N 
ATOM     16  C   UNL A   1      33.028  26.568  22.574  1.00  0.00     0.240 C 
ATOM     17  H   UNL A   1      34.168  25.080  22.831  1.00  0.00     0.164 HD
ATOM     18  O   UNL A   1      33.748  26.943  21.626  1.00  0.00    -0.273 OA
BRANCH  16  19
ATOM     19  C   UNL A   1      31.567  27.144  22.593  1.00  0.00     0.219 C 
BRANCH  19  20
ATOM     20  N   UNL A   1      30.361  26.438  23.011  1.00  0.00    -0.312 N 
ATOM     21  C   UNL A   1      29.210  26.929  23.580  1.00  0.00     0.407 C 
ATOM     22  H   UNL A   1      30.374  25.465  22.866  1.00  0.00     0.167 HD
ATOM     23  O   UNL A   1      28.315  26.146  23.915  1.00  0.00    -0.225 OA
BRANCH  21  24
ATOM     24  O   UNL A   1      29.150  28.264  23.811  1.00  0.00    -0.445 OA
BRANCH  24  25
ATOM     25  C   UNL A   1      28.042  28.915  23.155  1.00  0.00     0.270 C 
BRANCH  25  26
ATOM     26  C   UNL A   1      28.035  30.333  22.638  1.00  0.00    -0.011 A 
ATOM     27  C   UNL A   1      28.216  31.451  23.441  1.00  0.00     0.007 A 
ATOM     28  C   UNL A   1      27.969  30.508  21.232  1.00  0.00     0.007 A 
ATOM     29  C   UNL A   1      28.340  32.715  22.850  1.00  0.00     0.000 A 
ATOM     30  C   UNL A   1      28.096  31.765  20.646  1.00  0.00     0.000 A 
ATOM     31  C   UNL A   1      28.287  32.871  21.461  1.00  0.00     0.000 A 
ENDBRANCH  25  26
ENDBRANCH  24  25
ENDBRANCH  21  24
ENDBRANCH  19  20
ENDBRANCH  16  19
ENDBRANCH  13  15
ENDBRANCH  10  13
ENDBRANCH   5   9
ENDBRANCH   3   5
ENDBRANCH   2   3
ENDBRANCH   1   2
BRANCH   1  32
ATOM     32  C   UNL A   1      36.154  20.288  24.968  1.00  0.00     0.202 C 
BRANCH  32  33
ATOM     33  O   UNL A   1      37.576  20.206  25.113  1.00  0.00    -0.376 OA
BRANCH  33  34
ATOM     34  C   UNL A   1      38.236  21.418  25.498  1.00  0.00     0.188 C 
BRANCH  34  35
ATOM     35  C   UNL A   1      39.621  21.165  26.161  1.00  0.00     0.188 C 
BRANCH  35  36
ATOM     36  O   UNL A   1      40.431  20.158  25.597  1.00  0.00    -0.376 OA
BRANCH  36  37
ATOM     37  C   UNL A   1      41.534  19.825  26.404  1.00  0.00     0.202 C 
BRANCH  37  38
ATOM     38  C   UNL A   1      42.896  20.257  25.816  1.00  0.00     0.261 C 
BRANCH  38  39
ATOM     39  O   UNL A   1      43.407  21.568  26.256  1.00  0.00    -0.460 OA
BRANCH  39  40
ATOM     40  C   UNL A   1      43.089  22.691  25.535  1.00  0.00     0.338 C 
ATOM     41  O   UNL A   1      43.139  22.781  24.320  1.00  0.00    -0.246 OA
BRANCH  40  42
ATOM     42  C   UNL A   1      42.668  23.856  26.401  1.00  0.00     0.060 A 
ATOM     43  C   UNL A   1      43.070  25.176  26.129  1.00  0.00     0.016 A 
ATOM     44  C   UNL A   1      41.952  23.637  27.584  1.00  0.00     0.016 A 
ATOM     45  C   UNL A   1      42.728  26.250  27.009  1.00  0.00     0.010 A 
ATOM     46  C   UNL A   1      41.565  24.708  28.421  1.00  0.00     0.010 A 
ATOM     47  C   UNL A   1      41.977  26.032  28.179  1.00  0.00    -0.014 A 
BRANCH  47  48
ATOM     48  C   UNL A   1      41.762  27.067  29.268  1.00  0.00     0.031 A 
ATOM     49  C   UNL A   1      40.527  27.952  29.187  1.00  0.00     0.074 A 
ATOM     50  C   UNL A   1      42.642  27.333  30.261  1.00  0.00     0.049 A 
ATOM     51  N   UNL A   1      40.176  28.984  29.918  1.00  0.00    -0.248 NA
ATOM     52  C   UNL A   1      39.575  27.639  28.109  1.00  0.00     0.031 C 
ATOM     53  C   UNL A   1      43.886  26.616  30.516  1.00  0.00     0.029 A 
ATOM     54  N   UNL A   1      42.634  28.317  31.236  1.00  0.00    -0.354 N 
ATOM     55  C   UNL A   1      38.981  29.449  29.376  1.00  0.00     0.074 A 
ATOM     56  C   UNL A   1      38.705  28.630  28.217  1.00  0.00     0.031 C 
ATOM     57  C   UNL A   1      44.529  27.187  31.553  1.00  0.00     0.029 A 
ATOM     58  C   UNL A   1      43.757  28.328  32.040  1.00  0.00     0.049 A 
ATOM     59  H   UNL A   1      41.891  28.955  31.347  1.00  0.00     0.167 HD
ATOM     60  C   UNL A   1      38.161  30.444  29.800  1.00  0.00     0.031 A 
ATOM     61  C   UNL A   1      44.131  29.152  33.046  1.00  0.00     0.031 A 
ATOM     62  C   UNL A   1      38.403  31.279  30.947  1.00  0.00     0.049 A 
ATOM     63  C   UNL A   1      43.233  30.288  33.478  1.00  0.00     0.074 A 
ATOM     64  C   UNL A   1      37.590  32.265  31.482  1.00  0.00     0.029 A 
ATOM     65  N   UNL A   1      39.545  31.236  31.727  1.00  0.00    -0.354 N 
ATOM     66  N   UNL A   1      42.063  30.645  33.007  1.00  0.00    -0.248 NA
ATOM     67  C   UNL A   1      43.700  31.125  34.599  1.00  0.00     0.031 C 
ATOM     68  C   UNL A   1      38.271  32.866  32.545  1.00  0.00     0.029 A 
ATOM     69  C   UNL A   1      39.476  32.205  32.716  1.00  0.00     0.049 A 
ATOM     70  H   UNL A   1      40.296  30.613  31.599  1.00  0.00     0.167 HD
ATOM     71  C   UNL A   1      41.641  31.715  33.794  1.00  0.00     0.074 A 
ATOM     72  C   UNL A   1      42.671  31.941  34.784  1.00  0.00     0.031 C 
ATOM     73  C   UNL A   1      40.498  32.437  33.703  1.00  0.00     0.031 A 
BRANCH  60  74
ATOM     74  C   UNL A   1      36.903  30.687  29.004  1.00  0.00    -0.014 A 
ATOM     75  C   UNL A   1      35.953  29.668  28.815  1.00  0.00     0.009 A 
ATOM     76  C   UNL A   1      36.648  31.956  28.462  1.00  0.00     0.009 A 
ATOM     77  C   UNL A   1      34.805  29.900  28.054  1.00  0.00     0.001 A 
ATOM     78  C   UNL A   1      35.480  32.196  27.733  1.00  0.00     0.001 A 
ATOM     79  C   UNL A   1      34.567  31.164  27.519  1.00  0.00     0.000 A 
ENDBRANCH  60  74
BRANCH  61  80
ATOM     80  C   UNL A   1      45.431  28.943  33.757  1.00  0.00    -0.014 A 
ATOM     81  C   UNL A   1      46.592  29.619  33.343  1.00  0.00     0.009 A 
ATOM     82  C   UNL A   1      45.533  28.029  34.818  1.00  0.00     0.009 A 
ATOM     83  C   UNL A   1      47.825  29.368  33.957  1.00  0.00     0.001 A 
ATOM     84  C   UNL A   1      46.760  27.803  35.452  1.00  0.00     0.001 A 
ATOM     85  C   UNL A   1      47.907  28.466  35.016  1.00  0.00     0.000 A 
ENDBRANCH  61  80
BRANCH  73  86
ATOM     86  C   UNL A   1      40.267  33.525  34.720  1.00  0.00    -0.014 A 
ATOM     87  C   UNL A   1      40.602  34.862  34.456  1.00  0.00     0.009 A 
ATOM     88  C   UNL A   1      39.655  33.213  35.946  1.00  0.00     0.009 A 
ATOM     89  C   UNL A   1      40.360  35.856  35.408  1.00  0.00     0.001 A 
ATOM     90  C   UNL A   1      39.384  34.211  36.883  1.00  0.00     0.001 A 
ATOM     91  C   UNL A   1      39.746  35.531  36.617  1.00  0.00     0.000 A 
ENDBRANCH  73  86
ENDBRANCH  47  48
ENDBRANCH  40  42
ENDBRANCH  39  40
ENDBRANCH  38  39
ENDBRANCH  37  38
ENDBRANCH  36  37
ENDBRANCH  35  36
ENDBRANCH  34  35
ENDBRANCH  33  34
ENDBRANCH  32  33
ENDBRANCH   1  32
TORSDOF 26
ENDMDL
MODEL 2
REMARK VINA RESULT:      -9.7      6.845     11.480
REMARK SMILES CC(C)[C@H](NC(=O)[C@H](C)NC(=O)CNC(=O)OCc1ccccc1)C(=O)OCCOCCOCCOC(=O)c1ccc(-c2c3nc(c(-c4ccccc4)c4ccc([nH]4)c(-c4ccccc4)c4nc(c(-c5ccccc5)c5ccc2[nH]5)C=C4)C=C3)cc1
REMARK SMILES IDX 28 1 27 2 25 3 26 4 4 5 2 6 1 7 3 8 5 9 6 10 7 12 8 13 9 14
REMARK SMILES IDX 10 15 11 16 12 18 13 19 14 20 15 21 16 23 17 24 18 25 19 26
REMARK SMILES IDX 20 27 24 28 21 29 23 30 22 31 29 32 30 33 31 34 32 35 33 36
REMARK SMILES IDX 34 37 35 38 36 39 37 40 38 41 39 42 40 43 86 44 41 45 85 46
REMARK SMILES IDX 42 47 43 48 44 49 79 50 45 51 84 52 78 53 80 54 46 55 83 56
REMARK SMILES IDX 77 57 76 58 47 60 69 61 54 62 68 63 55 64 58 65 67 66 81 67
REMARK SMILES IDX 56 68 57 69 66 71 82 72 59 73 48 74 49 75 53 76 50 77 52 78
REMARK SMILES IDX 51 79 70 80 71 81 75 82 72 83 74 84 73 85 60 86 61 87 65 88
REMARK SMILES IDX 62 89 64 90 63 91
REMARK H PARENT 5 11 10 17 14 22 80 59 58 70
REMARK Flexibility Score: inf
ROOT
ATOM      1  C   UNL A   1      35.041  24.619  25.059  1.00  0.00     0.261 C 
ENDROOT
BRANCH   1   2
ATOM      2  O   UNL A   1      34.233  24.425  23.867  1.00  0.00    -0.462 OA
BRANCH   2   3
ATOM      3  C   UNL A   1      33.480  25.420  23.304  1.00  0.00     0.328 C 
ATOM      4  O   UNL A   1      33.640  25.794  22.147  1.00  0.00    -0.250 OA
BRANCH   3   5
ATOM      5  C   UNL A   1      32.400  26.137  24.317  1.00  0.00     0.194 C 
BRANCH   5   6
ATOM      6  C   UNL A   1      31.053  25.357  24.522  1.00  0.00     0.017 C 
ATOM      7  C   UNL A   1      30.640  25.058  25.981  1.00  0.00     0.010 C 
ATOM      8  C   UNL A   1      29.872  25.979  23.787  1.00  0.00     0.010 C 
ENDBRANCH   5   6
BRANCH   5   9
ATOM      9  N   UNL A   1      32.166  27.618  24.517  1.00  0.00    -0.341 N 
ATOM     10  C   UNL A   1      32.863  28.536  25.268  1.00  0.00     0.242 C 
ATOM     11  H   UNL A   1      31.392  27.983  24.031  1.00  0.00     0.164 HD
ATOM     12  O   UNL A   1      33.101  29.663  24.846  1.00  0.00    -0.273 OA
BRANCH  10  13
ATOM     13  C   UNL A   1      33.414  28.017  26.576  1.00  0.00     0.168 C 
ATOM     14  C   UNL A   1      32.089  28.157  27.427  1.00  0.00     0.041 C 
BRANCH  13  15
ATOM     15  N   UNL A   1      34.677  28.875  26.738  1.00  0.00    -0.343 N 
ATOM     16  C   UNL A   1      35.324  29.781  27.505  1.00  0.00     0.240 C 
ATOM     17  H   UNL A   1      35.254  28.689  25.963  1.00  0.00     0.164 HD
ATOM     18  O   UNL A   1      36.496  29.401  27.709  1.00  0.00    -0.273 OA
BRANCH  16  19
ATOM     19  C   UNL A   1      34.910  31.127  28.203  1.00  0.00     0.219 C 
BRANCH  19  20
ATOM     20  N   UNL A   1      33.851  32.034  27.779  1.00  0.00    -0.312 N 
ATOM     21  C   UNL A   1      33.597  33.329  28.166  1.00  0.00     0.407 C 
ATOM     22  H   UNL A   1      33.223  31.664  27.117  1.00  0.00     0.167 HD
ATOM     23  O   UNL A   1      32.602  33.913  27.723  1.00  0.00    -0.225 OA
BRANCH  21  24
ATOM     24  O   UNL A   1      34.429  33.878  29.085  1.00  0.00    -0.445 OA
BRANCH  24  25
ATOM     25  C   UNL A   1      33.745  34.413  30.238  1.00  0.00     0.270 C 
BRANCH  25  26
ATOM     26  C   UNL A   1      34.303  34.483  31.638  1.00  0.00    -0.011 A 
ATOM     27  C   UNL A   1      34.374  35.649  32.387  1.00  0.00     0.007 A 
ATOM     28  C   UNL A   1      34.650  33.254  32.257  1.00  0.00     0.007 A 
ATOM     29  C   UNL A   1      34.773  35.588  33.728  1.00  0.00     0.000 A 
ATOM     30  C   UNL A   1      35.043  33.195  33.592  1.00  0.00     0.000 A 
ATOM     31  C   UNL A   1      35.098  34.368  34.330  1.00  0.00     0.000 A 
ENDBRANCH  25  26
ENDBRANCH  24  25
ENDBRANCH  21  24
ENDBRANCH  19  20
ENDBRANCH  16  19
ENDBRANCH  13  15
ENDBRANCH  10  13
ENDBRANCH   5   9
ENDBRANCH   3   5
ENDBRANCH   2   3
ENDBRANCH   1   2
BRANCH   1  32
ATOM     32  C   UNL A   1      35.671  23.339  25.747  1.00  0.00     0.202 C 
BRANCH  32  33
ATOM     33  O   UNL A   1      37.086  23.123  25.717  1.00  0.00    -0.376 OA
BRANCH  33  34
ATOM     34  C   UNL A   1      37.510  21.755  25.723  1.00  0.00     0.188 C 
BRANCH  34  35
ATOM     35  C   UNL A   1      39.059  21.604  25.755  1.00  0.00     0.188 C 
BRANCH  35  36
ATOM     36  O   UNL A   1      39.724  22.047  26.916  1.00  0.00    -0.376 OA
BRANCH  36  37
ATOM     37  C   UNL A   1      39.855  23.448  26.973  1.00  0.00     0.202 C 
BRANCH  37  38
ATOM     38  C   UNL A   1      41.316  23.939  27.068  1.00  0.00     0.261 C 
BRANCH  38  39
ATOM     39  O   UNL A   1      41.975  24.267  25.791  1.00  0.00    -0.460 OA
BRANCH  39  40
ATOM     40  C   UNL A   1      42.906  23.402  25.271  1.00  0.00     0.338 C 
ATOM     41  O   UNL A   1      42.686  22.245  24.953  1.00  0.00    -0.246 OA
BRANCH  40  42
ATOM     42  C   UNL A   1      44.278  24.018  25.131  1.00  0.00     0.060 A 
ATOM     43  C   UNL A   1      45.391  23.276  24.697  1.00  0.00     0.016 A 
ATOM     44  C   UNL A   1      44.511  25.334  25.547  1.00  0.00     0.016 A 
ATOM     45  C   UNL A   1      46.697  23.858  24.651  1.00  0.00     0.010 A 
ATOM     46  C   UNL A   1      45.791  25.925  25.446  1.00  0.00     0.010 A 
ATOM     47  C   UNL A   1      46.922  25.193  25.036  1.00  0.00    -0.014 A 
BRANCH  47  48
ATOM     48  C   UNL A   1      48.293  25.814  25.225  1.00  0.00     0.031 A 
ATOM     49  C   UNL A   1      48.889  25.831  26.625  1.00  0.00     0.074 A 
ATOM     50  C   UNL A   1      48.990  26.450  24.255  1.00  0.00     0.049 A 
ATOM     51  N   UNL A   1      49.981  26.405  27.073  1.00  0.00    -0.248 NA
ATOM     52  C   UNL A   1      48.123  25.124  27.664  1.00  0.00     0.031 C 
ATOM     53  C   UNL A   1      48.601  26.560  22.855  1.00  0.00     0.029 A 
ATOM     54  N   UNL A   1      50.178  27.160  24.313  1.00  0.00    -0.354 N 
ATOM     55  C   UNL A   1      50.018  26.144  28.440  1.00  0.00     0.074 A 
ATOM     56  C   UNL A   1      48.807  25.421  28.757  1.00  0.00     0.031 C 
ATOM     57  C   UNL A   1      49.509  27.303  22.192  1.00  0.00     0.029 A 
ATOM     58  C   UNL A   1      50.550  27.744  23.118  1.00  0.00     0.049 A 
ATOM     59  H   UNL A   1      50.713  27.242  25.137  1.00  0.00     0.167 HD
ATOM     60  C   UNL A   1      50.971  26.444  29.358  1.00  0.00     0.031 A 
ATOM     61  C   UNL A   1      51.595  28.541  22.796  1.00  0.00     0.031 A 
ATOM     62  C   UNL A   1      52.187  27.161  29.080  1.00  0.00     0.049 A 
ATOM     63  C   UNL A   1      52.624  28.910  23.840  1.00  0.00     0.074 A 
ATOM     64  C   UNL A   1      53.234  27.448  29.941  1.00  0.00     0.029 A 
ATOM     65  N   UNL A   1      52.514  27.715  27.855  1.00  0.00    -0.354 N 
ATOM     66  N   UNL A   1      52.683  28.569  25.104  1.00  0.00    -0.248 NA
ATOM     67  C   UNL A   1      53.748  29.761  23.403  1.00  0.00     0.031 C 
ATOM     68  C   UNL A   1      54.163  28.236  29.254  1.00  0.00     0.029 A 
ATOM     69  C   UNL A   1      53.729  28.376  27.946  1.00  0.00     0.049 A 
ATOM     70  H   UNL A   1      51.965  27.651  27.040  1.00  0.00     0.167 HD
ATOM     71  C   UNL A   1      53.859  29.127  25.599  1.00  0.00     0.074 A 
ATOM     72  C   UNL A   1      54.494  29.817  24.498  1.00  0.00     0.031 C 
ATOM     73  C   UNL A   1      54.366  29.065  26.855  1.00  0.00     0.031 A 
BRANCH  60  74
ATOM     74  C   UNL A   1      50.730  25.988  30.776  1.00  0.00    -0.014 A 
ATOM     75  C   UNL A   1      50.923  24.648  31.153  1.00  0.00     0.009 A 
ATOM     76  C   UNL A   1      50.334  26.913  31.755  1.00  0.00     0.009 A 
ATOM     77  C   UNL A   1      50.672  24.235  32.463  1.00  0.00     0.001 A 
ATOM     78  C   UNL A   1      50.120  26.505  33.074  1.00  0.00     0.001 A 
ATOM     79  C   UNL A   1      50.276  25.164  33.423  1.00  0.00     0.000 A 
ENDBRANCH  60  74
BRANCH  61  80
ATOM     80  C   UNL A   1      51.758  29.055  21.401  1.00  0.00    -0.014 A 
ATOM     81  C   UNL A   1      52.376  28.268  20.413  1.00  0.00     0.009 A 
ATOM     82  C   UNL A   1      51.345  30.353  21.059  1.00  0.00     0.009 A 
ATOM     83  C   UNL A   1      52.598  28.775  19.128  1.00  0.00     0.001 A 
ATOM     84  C   UNL A   1      51.540  30.847  19.764  1.00  0.00     0.001 A 
ATOM     85  C   UNL A   1      52.173  30.061  18.801  1.00  0.00     0.000 A 
ENDBRANCH  61  80
BRANCH  73  86
ATOM     86  C   UNL A   1      55.694  29.728  27.114  1.00  0.00    -0.014 A 
ATOM     87  C   UNL A   1      55.778  31.047  27.586  1.00  0.00     0.009 A 
ATOM     88  C   UNL A   1      56.882  29.000  26.932  1.00  0.00     0.009 A 
ATOM     89  C   UNL A   1      57.023  31.633  27.837  1.00  0.00     0.001 A 
ATOM     90  C   UNL A   1      58.122  29.576  27.214  1.00  0.00     0.001 A 
ATOM     91  C   UNL A   1      58.192  30.895  27.657  1.00  0.00     0.000 A 
ENDBRANCH  73  86
ENDBRANCH  47  48
ENDBRANCH  40  42
ENDBRANCH  39  40
ENDBRANCH  38  39
ENDBRANCH  37  38
ENDBRANCH  36  37
ENDBRANCH  35  36
ENDBRANCH  34  35
ENDBRANCH  33  34
ENDBRANCH  32  33
ENDBRANCH   1  32
TORSDOF 26
ENDMDL
MODEL 3
REMARK VINA RESULT:      -9.6      3.386      4.775
REMARK SMILES CC(C)[C@H](NC(=O)[C@H](C)NC(=O)CNC(=O)OCc1ccccc1)C(=O)OCCOCCOCCOC(=O)c1ccc(-c2c3nc(c(-c4ccccc4)c4ccc([nH]4)c(-c4ccccc4)c4nc(c(-c5ccccc5)c5ccc2[nH]5)C=C4)C=C3)cc1
REMARK SMILES IDX 28 1 27 2 25 3 26 4 4 5 2 6 1 7 3 8 5 9 6 10 7 12 8 13 9 14
REMARK SMILES IDX 10 15 11 16 12 18 13 19 14 20 15 21 16 23 17 24 18 25 19 26
REMARK SMILES IDX 20 27 24 28 21 29 23 30 22 31 29 32 30 33 31 34 32 35 33 36
REMARK SMILES IDX 34 37 35 38 36 39 37 40 38 41 39 42 40 43 86 44 41 45 85 46
REMARK SMILES IDX 42 47 43 48 44 49 79 50 45 51 84 52 78 53 80 54 46 55 83 56
REMARK SMILES IDX 77 57 76 58 47 60 69 61 54 62 68 63 55 64 58 65 67 66 81 67
REMARK SMILES IDX 56 68 57 69 66 71 82 72 59 73 48 74 49 75 53 76 50 77 52 78
REMARK SMILES IDX 51 79 70 80 71 81 75 82 72 83 74 84 73 85 60 86 61 87 65 88
REMARK SMILES IDX 62 89 64 90 63 91
REMARK H PARENT 5 11 10 17 14 22 80 59 58 70
REMARK Flexibility Score: inf
ROOT
ATOM      1  C   UNL A   1      34.014  24.063  23.478  1.00  0.00     0.261 C 
ENDROOT
BRANCH   1   2
ATOM      2  O   UNL A   1      33.291  22.830  23.216  1.00  0.00    -0.462 OA
BRANCH   2   3
ATOM      3  C   UNL A   1      32.438  22.257  24.119  1.00  0.00     0.328 C 
ATOM      4  O   UNL A   1      31.605  21.415  23.800  1.00  0.00    -0.250 OA
BRANCH   3   5
ATOM      5  C   UNL A   1      32.552  22.840  25.654  1.00  0.00     0.194 C 
BRANCH   5   6
ATOM      6  C   UNL A   1      33.582  22.097  26.578  1.00  0.00     0.017 C 
ATOM      7  C   UNL A   1      33.517  22.420  28.087  1.00  0.00     0.010 C 
ATOM      8  C   UNL A   1      33.585  20.584  26.392  1.00  0.00     0.010 C 
ENDBRANCH   5   6
BRANCH   5   9
ATOM      9  N   UNL A   1      31.448  23.436  26.499  1.00  0.00    -0.341 N 
ATOM     10  C   UNL A   1      30.735  24.602  26.338  1.00  0.00     0.242 C 
ATOM     11  H   UNL A   1      31.200  22.905  27.289  1.00  0.00     0.164 HD
ATOM     12  O   UNL A   1      29.525  24.647  26.534  1.00  0.00    -0.273 OA
BRANCH  10  13
ATOM     13  C   UNL A   1      31.520  25.769  25.786  1.00  0.00     0.168 C 
ATOM     14  C   UNL A   1      32.220  26.203  27.136  1.00  0.00     0.041 C 
BRANCH  13  15
ATOM     15  N   UNL A   1      30.424  26.556  25.052  1.00  0.00    -0.343 N 
ATOM     16  C   UNL A   1      29.859  26.839  23.857  1.00  0.00     0.240 C 
ATOM     17  H   UNL A   1      29.927  27.063  25.734  1.00  0.00     0.164 HD
ATOM     18  O   UNL A   1      28.621  26.691  23.930  1.00  0.00    -0.273 OA
BRANCH  16  19
ATOM     19  C   UNL A   1      30.417  27.249  22.446  1.00  0.00     0.219 C 
BRANCH  19  20
ATOM     20  N   UNL A   1      31.573  26.673  21.771  1.00  0.00    -0.312 N 
ATOM     21  C   UNL A   1      32.869  27.128  21.708  1.00  0.00     0.407 C 
ATOM     22  H   UNL A   1      31.400  25.834  21.285  1.00  0.00     0.167 HD
ATOM     23  O   UNL A   1      33.697  26.514  21.028  1.00  0.00    -0.225 OA
BRANCH  21  24
ATOM     24  O   UNL A   1      33.153  28.287  22.352  1.00  0.00    -0.445 OA
BRANCH  24  25
ATOM     25  C   UNL A   1      33.683  28.095  23.681  1.00  0.00     0.270 C 
BRANCH  25  26
ATOM     26  C   UNL A   1      33.335  28.922  24.894  1.00  0.00    -0.011 A 
ATOM     27  C   UNL A   1      32.160  29.649  25.026  1.00  0.00     0.007 A 
ATOM     28  C   UNL A   1      34.211  28.836  26.007  1.00  0.00     0.007 A 
ATOM     29  C   UNL A   1      31.861  30.267  26.247  1.00  0.00     0.000 A 
ATOM     30  C   UNL A   1      33.911  29.448  27.221  1.00  0.00     0.000 A 
ATOM     31  C   UNL A   1      32.727  30.162  27.340  1.00  0.00     0.000 A 
ENDBRANCH  25  26
ENDBRANCH  24  25
ENDBRANCH  21  24
ENDBRANCH  19  20
ENDBRANCH  16  19
ENDBRANCH  13  15
ENDBRANCH  10  13
ENDBRANCH   5   9
ENDBRANCH   3   5
ENDBRANCH   2   3
ENDBRANCH   1   2
BRANCH   1  32
ATOM     32  C   UNL A   1      35.585  23.978  23.667  1.00  0.00     0.202 C 
BRANCH  32  33
ATOM     33  O   UNL A   1      36.141  23.456  24.879  1.00  0.00    -0.376 OA
BRANCH  33  34
ATOM     34  C   UNL A   1      36.890  22.243  24.751  1.00  0.00     0.188 C 
BRANCH  34  35
ATOM     35  C   UNL A   1      38.099  22.175  25.729  1.00  0.00     0.188 C 
BRANCH  35  36
ATOM     36  O   UNL A   1      38.966  21.071  25.606  1.00  0.00    -0.376 OA
BRANCH  36  37
ATOM     37  C   UNL A   1      40.018  21.092  26.541  1.00  0.00     0.202 C 
BRANCH  37  38
ATOM     38  C   UNL A   1      41.217  21.971  26.120  1.00  0.00     0.261 C 
BRANCH  38  39
ATOM     39  O   UNL A   1      42.510  21.279  25.976  1.00  0.00    -0.460 OA
BRANCH  39  40
ATOM     40  C   UNL A   1      43.548  21.916  25.343  1.00  0.00     0.338 C 
ATOM     41  O   UNL A   1      44.135  21.493  24.362  1.00  0.00    -0.246 OA
BRANCH  40  42
ATOM     42  C   UNL A   1      43.927  23.227  25.991  1.00  0.00     0.060 A 
ATOM     43  C   UNL A   1      44.298  23.315  27.345  1.00  0.00     0.016 A 
ATOM     44  C   UNL A   1      43.804  24.429  25.285  1.00  0.00     0.016 A 
ATOM     45  C   UNL A   1      44.571  24.577  27.959  1.00  0.00     0.010 A 
ATOM     46  C   UNL A   1      44.131  25.670  25.876  1.00  0.00     0.010 A 
ATOM     47  C   UNL A   1      44.482  25.781  27.235  1.00  0.00    -0.014 A 
BRANCH  47  48
ATOM     48  C   UNL A   1      44.539  27.164  27.856  1.00  0.00     0.031 A 
ATOM     49  C   UNL A   1      43.235  27.809  28.301  1.00  0.00     0.074 A 
ATOM     50  C   UNL A   1      45.660  27.917  27.955  1.00  0.00     0.049 A 
ATOM     51  N   UNL A   1      42.998  29.021  28.746  1.00  0.00    -0.248 NA
ATOM     52  C   UNL A   1      42.029  26.970  28.199  1.00  0.00     0.031 C 
ATOM     53  C   UNL A   1      47.005  27.501  27.582  1.00  0.00     0.029 A 
ATOM     54  N   UNL A   1      45.835  29.224  28.380  1.00  0.00    -0.354 N 
ATOM     55  C   UNL A   1      41.623  29.091  28.954  1.00  0.00     0.074 A 
ATOM     56  C   UNL A   1      41.073  27.825  28.523  1.00  0.00     0.031 C 
ATOM     57  C   UNL A   1      47.861  28.524  27.770  1.00  0.00     0.029 A 
ATOM     58  C   UNL A   1      47.131  29.688  28.267  1.00  0.00     0.049 A 
ATOM     59  H   UNL A   1      45.099  29.776  28.732  1.00  0.00     0.167 HD
ATOM     60  C   UNL A   1      40.872  30.092  29.478  1.00  0.00     0.031 A 
ATOM     61  C   UNL A   1      47.675  30.900  28.524  1.00  0.00     0.031 A 
ATOM     62  C   UNL A   1      41.383  31.364  29.916  1.00  0.00     0.049 A 
ATOM     63  C   UNL A   1      46.819  32.025  29.059  1.00  0.00     0.074 A 
ATOM     64  C   UNL A   1      40.698  32.407  30.519  1.00  0.00     0.029 A 
ATOM     65  N   UNL A   1      42.700  31.771  29.789  1.00  0.00    -0.354 N 
ATOM     66  N   UNL A   1      45.538  32.031  29.337  1.00  0.00    -0.248 NA
ATOM     67  C   UNL A   1      47.492  33.307  29.340  1.00  0.00     0.031 C 
ATOM     68  C   UNL A   1      41.587  33.472  30.694  1.00  0.00     0.029 A 
ATOM     69  C   UNL A   1      42.840  33.065  30.267  1.00  0.00     0.049 A 
ATOM     70  H   UNL A   1      43.428  31.225  29.415  1.00  0.00     0.167 HD
ATOM     71  C   UNL A   1      45.263  33.295  29.854  1.00  0.00     0.074 A 
ATOM     72  C   UNL A   1      46.511  34.025  29.870  1.00  0.00     0.031 C 
ATOM     73  C   UNL A   1      44.079  33.798  30.284  1.00  0.00     0.031 A 
BRANCH  60  74
ATOM     74  C   UNL A   1      39.389  29.847  29.606  1.00  0.00    -0.014 A 
ATOM     75  C   UNL A   1      38.833  29.351  30.798  1.00  0.00     0.009 A 
ATOM     76  C   UNL A   1      38.532  30.142  28.535  1.00  0.00     0.009 A 
ATOM     77  C   UNL A   1      37.462  29.105  30.894  1.00  0.00     0.001 A 
ATOM     78  C   UNL A   1      37.155  29.931  28.646  1.00  0.00     0.001 A 
ATOM     79  C   UNL A   1      36.624  29.399  29.820  1.00  0.00     0.000 A 
ENDBRANCH  60  74
BRANCH  61  80
ATOM     80  C   UNL A   1      49.134  31.142  28.298  1.00  0.00    -0.014 A 
ATOM     81  C   UNL A   1      50.051  31.044  29.360  1.00  0.00     0.009 A 
ATOM     82  C   UNL A   1      49.615  31.524  27.035  1.00  0.00     0.009 A 
ATOM     83  C   UNL A   1      51.404  31.345  29.169  1.00  0.00     0.001 A 
ATOM     84  C   UNL A   1      50.974  31.793  26.839  1.00  0.00     0.001 A 
ATOM     85  C   UNL A   1      51.867  31.711  27.907  1.00  0.00     0.000 A 
ENDBRANCH  61  80
BRANCH  73  86
ATOM     86  C   UNL A   1      44.068  35.196  30.846  1.00  0.00    -0.014 A 
ATOM     87  C   UNL A   1      44.279  35.442  32.211  1.00  0.00     0.009 A 
ATOM     88  C   UNL A   1      43.895  36.291  29.982  1.00  0.00     0.009 A 
ATOM     89  C   UNL A   1      44.283  36.750  32.704  1.00  0.00     0.001 A 
ATOM     90  C   UNL A   1      43.932  37.598  30.471  1.00  0.00     0.001 A 
ATOM     91  C   UNL A   1      44.116  37.826  31.834  1.00  0.00     0.000 A 
ENDBRANCH  73  86
ENDBRANCH  47  48
ENDBRANCH  40  42
ENDBRANCH  39  40
ENDBRANCH  38  39
ENDBRANCH  37  38
ENDBRANCH  36  37
ENDBRANCH  35  36
ENDBRANCH  34  35
ENDBRANCH  33  34
ENDBRANCH  32  33
ENDBRANCH   1  32
TORSDOF 26
ENDMDL
