MODEL 1
REMARK VINA RESULT:      -8.9      0.000      0.000
REMARK SMILES C=CCSc1ccccc1C(=O)OCCOCCOCCOC(=O)c1ccc(-c2c3nc(c(-c4ccccc4)c4ccc([nH]4)c(-c4ccccc4)c4nc(c(-c5ccccc5)c5ccc2[nH]5)C=C4)C=C3)cc1
REMARK SMILES IDX 17 1 16 2 15 3 14 4 13 5 11 6 12 7 10 8 5 9 6 10 7 11 9 12
REMARK SMILES IDX 8 13 4 14 3 15 2 16 1 17 18 18 19 19 20 20 21 21 22 22 23 23
REMARK SMILES IDX 24 24 25 25 26 26 72 27 27 28 71 29 28 30 29 31 30 32 65 33
REMARK SMILES IDX 31 34 70 35 64 36 66 37 32 38 69 39 63 40 62 41 33 43 55 44
REMARK SMILES IDX 40 45 54 46 41 47 44 48 53 49 67 50 42 51 43 52 52 54 68 55
REMARK SMILES IDX 45 56 34 57 35 58 39 59 36 60 38 61 37 62 56 63 57 64 61 65
REMARK SMILES IDX 58 66 60 67 59 68 46 69 47 70 51 71 48 72 50 73 49 74
REMARK H PARENT 66 42 44 53
REMARK Flexibility Score: inf
ROOT
ATOM      1  C   UNL A   1      31.194  27.039  24.383  1.00  0.00     0.188 C 
ENDROOT
BRANCH   1   2
ATOM      2  O   UNL A   1      31.331  25.935  23.504  1.00  0.00    -0.376 OA
BRANCH   2   3
ATOM      3  C   UNL A   1      30.541  24.764  23.692  1.00  0.00     0.202 C 
BRANCH   3   4
ATOM      4  C   UNL A   1      31.285  23.427  23.669  1.00  0.00     0.261 C 
BRANCH   4   5
ATOM      5  O   UNL A   1      32.691  23.696  23.764  1.00  0.00    -0.460 OA
BRANCH   5   6
ATOM      6  C   UNL A   1      33.493  23.138  22.836  1.00  0.00     0.339 C 
ATOM      7  O   UNL A   1      33.528  23.396  21.646  1.00  0.00    -0.246 OA
BRANCH   6   8
ATOM      8  C   UNL A   1      34.556  22.435  23.575  1.00  0.00     0.073 A 
ATOM      9  C   UNL A   1      34.382  21.352  24.456  1.00  0.00     0.022 A 
ATOM     10  C   UNL A   1      35.542  20.877  25.111  1.00  0.00     0.016 A 
ATOM     11  C   UNL A   1      36.810  21.433  24.897  1.00  0.00     0.001 A 
ATOM     12  C   UNL A   1      35.842  22.986  23.354  1.00  0.00     0.017 A 
ATOM     13  C   UNL A   1      36.963  22.483  24.006  1.00  0.00     0.001 A 
BRANCH   9  14
ATOM     14  S   UNL A   1      32.981  20.248  24.693  1.00  0.00    -0.121 SA
BRANCH  14  15
ATOM     15  C   UNL A   1      33.501  18.509  24.634  1.00  0.00     0.101 C 
BRANCH  15  16
ATOM     16  C   UNL A   1      32.505  17.485  25.071  1.00  0.00    -0.024 C 
ATOM     17  C   UNL A   1      32.794  16.336  25.678  1.00  0.00     0.005 C 
ENDBRANCH  15  16
ENDBRANCH  14  15
ENDBRANCH   9  14
ENDBRANCH   6   8
ENDBRANCH   5   6
ENDBRANCH   4   5
ENDBRANCH   3   4
ENDBRANCH   2   3
ENDBRANCH   1   2
BRANCH   1  18
ATOM     18  C   UNL A   1      31.525  28.477  23.939  1.00  0.00     0.188 C 
BRANCH  18  19
ATOM     19  O   UNL A   1      32.302  29.378  24.709  1.00  0.00    -0.376 OA
BRANCH  19  20
ATOM     20  C   UNL A   1      32.270  29.338  26.123  1.00  0.00     0.202 C 
BRANCH  20  21
ATOM     21  C   UNL A   1      33.008  30.452  26.864  1.00  0.00     0.261 C 
BRANCH  21  22
ATOM     22  O   UNL A   1      34.070  29.938  27.669  1.00  0.00    -0.460 OA
BRANCH  22  23
ATOM     23  C   UNL A   1      34.833  30.875  28.279  1.00  0.00     0.338 C 
ATOM     24  O   UNL A   1      34.491  31.962  28.717  1.00  0.00    -0.246 OA
BRANCH  23  25
ATOM     25  C   UNL A   1      36.153  30.272  28.518  1.00  0.00     0.060 A 
ATOM     26  C   UNL A   1      36.376  29.617  29.736  1.00  0.00     0.016 A 
ATOM     27  C   UNL A   1      37.134  30.301  27.525  1.00  0.00     0.016 A 
ATOM     28  C   UNL A   1      37.579  28.958  29.956  1.00  0.00     0.010 A 
ATOM     29  C   UNL A   1      38.351  29.675  27.761  1.00  0.00     0.010 A 
ATOM     30  C   UNL A   1      38.578  29.011  28.979  1.00  0.00    -0.014 A 
BRANCH  30  31
ATOM     31  C   UNL A   1      39.938  28.533  29.284  1.00  0.00     0.031 A 
ATOM     32  C   UNL A   1      40.871  29.472  29.982  1.00  0.00     0.074 A 
ATOM     33  C   UNL A   1      40.334  27.307  28.909  1.00  0.00     0.049 A 
ATOM     34  N   UNL A   1      42.144  29.335  30.242  1.00  0.00    -0.248 NA
ATOM     35  C   UNL A   1      40.288  30.743  30.445  1.00  0.00     0.031 C 
ATOM     36  C   UNL A   1      39.488  26.295  28.280  1.00  0.00     0.029 A 
ATOM     37  N   UNL A   1      41.568  26.716  28.993  1.00  0.00    -0.354 N 
ATOM     38  C   UNL A   1      42.518  30.507  30.884  1.00  0.00     0.074 A 
ATOM     39  C   UNL A   1      41.346  31.352  30.954  1.00  0.00     0.031 C 
ATOM     40  C   UNL A   1      40.235  25.208  28.019  1.00  0.00     0.029 A 
ATOM     41  C   UNL A   1      41.616  25.473  28.417  1.00  0.00     0.049 A 
ATOM     42  H   UNL A   1      42.343  27.143  29.424  1.00  0.00     0.167 HD
ATOM     43  C   UNL A   1      43.734  30.847  31.368  1.00  0.00     0.031 A 
ATOM     44  C   UNL A   1      42.669  24.660  28.207  1.00  0.00     0.031 A 
ATOM     45  C   UNL A   1      44.899  30.013  31.255  1.00  0.00     0.049 A 
ATOM     46  C   UNL A   1      44.037  25.113  28.642  1.00  0.00     0.074 A 
ATOM     47  C   UNL A   1      46.181  30.252  31.716  1.00  0.00     0.029 A 
ATOM     48  N   UNL A   1      44.924  28.783  30.612  1.00  0.00    -0.354 N 
ATOM     49  N   UNL A   1      44.386  26.210  29.271  1.00  0.00    -0.248 NA
ATOM     50  C   UNL A   1      45.159  24.218  28.326  1.00  0.00     0.031 C 
ATOM     51  C   UNL A   1      46.997  29.198  31.289  1.00  0.00     0.029 A 
ATOM     52  C   UNL A   1      46.209  28.271  30.623  1.00  0.00     0.049 A 
ATOM     53  H   UNL A   1      44.143  28.341  30.207  1.00  0.00     0.167 HD
ATOM     54  C   UNL A   1      45.762  26.130  29.445  1.00  0.00     0.074 A 
ATOM     55  C   UNL A   1      46.181  24.866  28.870  1.00  0.00     0.031 C 
ATOM     56  C   UNL A   1      46.604  27.019  30.028  1.00  0.00     0.031 A 
BRANCH  43  57
ATOM     57  C   UNL A   1      43.861  32.204  32.003  1.00  0.00    -0.014 A 
ATOM     58  C   UNL A   1      44.195  33.340  31.247  1.00  0.00     0.009 A 
ATOM     59  C   UNL A   1      43.659  32.343  33.384  1.00  0.00     0.009 A 
ATOM     60  C   UNL A   1      44.369  34.578  31.870  1.00  0.00     0.001 A 
ATOM     61  C   UNL A   1      43.802  33.588  34.000  1.00  0.00     0.001 A 
ATOM     62  C   UNL A   1      44.170  34.700  33.246  1.00  0.00     0.000 A 
ENDBRANCH  43  57
BRANCH  44  63
ATOM     63  C   UNL A   1      42.473  23.353  27.528  1.00  0.00    -0.014 A 
ATOM     64  C   UNL A   1      42.693  23.231  26.148  1.00  0.00     0.009 A 
ATOM     65  C   UNL A   1      42.075  22.219  28.254  1.00  0.00     0.009 A 
ATOM     66  C   UNL A   1      42.507  22.003  25.508  1.00  0.00     0.001 A 
ATOM     67  C   UNL A   1      41.918  20.986  27.617  1.00  0.00     0.001 A 
ATOM     68  C   UNL A   1      42.128  20.881  26.243  1.00  0.00     0.000 A 
ENDBRANCH  44  63
BRANCH  56  69
ATOM     69  C   UNL A   1      48.062  26.652  30.081  1.00  0.00    -0.014 A 
ATOM     70  C   UNL A   1      48.571  25.848  31.112  1.00  0.00     0.009 A 
ATOM     71  C   UNL A   1      48.924  27.070  29.054  1.00  0.00     0.009 A 
ATOM     72  C   UNL A   1      49.921  25.491  31.127  1.00  0.00     0.001 A 
ATOM     73  C   UNL A   1      50.265  26.686  29.056  1.00  0.00     0.001 A 
ATOM     74  C   UNL A   1      50.764  25.905  30.096  1.00  0.00     0.000 A 
ENDBRANCH  56  69
ENDBRANCH  30  31
ENDBRANCH  23  25
ENDBRANCH  22  23
ENDBRANCH  21  22
ENDBRANCH  20  21
ENDBRANCH  19  20
ENDBRANCH  18  19
ENDBRANCH   1  18
TORSDOF 20
ENDMDL
MODEL 2
REMARK VINA RESULT:      -8.7      4.213      6.726
REMARK SMILES C=CCSc1ccccc1C(=O)OCCOCCOCCOC(=O)c1ccc(-c2c3nc(c(-c4ccccc4)c4ccc([nH]4)c(-c4ccccc4)c4nc(c(-c5ccccc5)c5ccc2[nH]5)C=C4)C=C3)cc1
REMARK SMILES IDX 17 1 16 2 15 3 14 4 13 5 11 6 12 7 10 8 5 9 6 10 7 11 9 12
REMARK SMILES IDX 8 13 4 14 3 15 2 16 1 17 18 18 19 19 20 20 21 21 22 22 23 23
REMARK SMILES IDX 24 24 25 25 26 26 72 27 27 28 71 29 28 30 29 31 30 32 65 33
REMARK SMILES IDX 31 34 70 35 64 36 66 37 32 38 69 39 63 40 62 41 33 43 55 44
REMARK SMILES IDX 40 45 54 46 41 47 44 48 53 49 67 50 42 51 43 52 52 54 68 55
REMARK SMILES IDX 45 56 34 57 35 58 39 59 36 60 38 61 37 62 56 63 57 64 61 65
REMARK SMILES IDX 58 66 60 67 59 68 46 69 47 70 51 71 48 72 50 73 49 74
REMARK H PARENT 66 42 44 53
REMARK Flexibility Score: inf
ROOT
ATOM      1  C   UNL A   1      34.881  32.420  28.161  1.00  0.00     0.188 C 
ENDROOT
BRANCH   1   2
ATOM      2  O   UNL A   1      33.759  31.725  27.644  1.00  0.00    -0.376 OA
BRANCH   2   3
ATOM      3  C   UNL A   1      33.801  30.310  27.482  1.00  0.00     0.202 C 
BRANCH   3   4
ATOM      4  C   UNL A   1      33.343  29.763  26.127  1.00  0.00     0.261 C 
BRANCH   4   5
ATOM      5  O   UNL A   1      33.691  28.373  26.066  1.00  0.00    -0.460 OA
BRANCH   5   6
ATOM      6  C   UNL A   1      33.629  27.773  24.861  1.00  0.00     0.339 C 
ATOM      7  O   UNL A   1      34.105  28.176  23.814  1.00  0.00    -0.246 OA
BRANCH   6   8
ATOM      8  C   UNL A   1      33.207  26.383  25.112  1.00  0.00     0.073 A 
ATOM      9  C   UNL A   1      31.912  25.861  24.938  1.00  0.00     0.022 A 
ATOM     10  C   UNL A   1      31.720  24.510  25.308  1.00  0.00     0.016 A 
ATOM     11  C   UNL A   1      32.756  23.711  25.810  1.00  0.00     0.001 A 
ATOM     12  C   UNL A   1      34.253  25.568  25.609  1.00  0.00     0.017 A 
ATOM     13  C   UNL A   1      34.030  24.238  25.950  1.00  0.00     0.001 A 
BRANCH   9  14
ATOM     14  S   UNL A   1      30.495  26.518  24.045  1.00  0.00    -0.121 SA
BRANCH  14  15
ATOM     15  C   UNL A   1      30.981  27.138  22.410  1.00  0.00     0.101 C 
BRANCH  15  16
ATOM     16  C   UNL A   1      31.608  26.161  21.469  1.00  0.00    -0.024 C 
ATOM     17  C   UNL A   1      32.869  25.738  21.521  1.00  0.00     0.005 C 
ENDBRANCH  15  16
ENDBRANCH  14  15
ENDBRANCH   9  14
ENDBRANCH   6   8
ENDBRANCH   5   6
ENDBRANCH   4   5
ENDBRANCH   3   4
ENDBRANCH   2   3
ENDBRANCH   1   2
BRANCH   1  18
ATOM     18  C   UNL A   1      35.045  33.942  27.987  1.00  0.00     0.188 C 
BRANCH  18  19
ATOM     19  O   UNL A   1      34.577  34.895  28.927  1.00  0.00    -0.376 OA
BRANCH  19  20
ATOM     20  C   UNL A   1      33.195  35.025  29.201  1.00  0.00     0.202 C 
BRANCH  20  21
ATOM     21  C   UNL A   1      32.747  36.302  29.911  1.00  0.00     0.261 C 
BRANCH  21  22
ATOM     22  O   UNL A   1      33.397  36.459  31.173  1.00  0.00    -0.460 OA
BRANCH  22  23
ATOM     23  C   UNL A   1      32.988  35.602  32.138  1.00  0.00     0.338 C 
ATOM     24  O   UNL A   1      31.850  35.370  32.512  1.00  0.00    -0.246 OA
BRANCH  23  25
ATOM     25  C   UNL A   1      34.163  34.817  32.548  1.00  0.00     0.060 A 
ATOM     26  C   UNL A   1      35.437  35.353  32.317  1.00  0.00     0.016 A 
ATOM     27  C   UNL A   1      34.003  33.596  33.206  1.00  0.00     0.016 A 
ATOM     28  C   UNL A   1      36.563  34.681  32.774  1.00  0.00     0.010 A 
ATOM     29  C   UNL A   1      35.132  32.905  33.628  1.00  0.00     0.010 A 
ATOM     30  C   UNL A   1      36.412  33.442  33.405  1.00  0.00    -0.014 A 
BRANCH  30  31
ATOM     31  C   UNL A   1      37.591  32.602  33.678  1.00  0.00     0.031 A 
ATOM     32  C   UNL A   1      38.356  32.857  34.939  1.00  0.00     0.074 A 
ATOM     33  C   UNL A   1      37.984  31.665  32.802  1.00  0.00     0.049 A 
ATOM     34  N   UNL A   1      39.490  32.346  35.338  1.00  0.00    -0.248 NA
ATOM     35  C   UNL A   1      37.763  33.828  35.874  1.00  0.00     0.031 C 
ATOM     36  C   UNL A   1      37.277  31.296  31.577  1.00  0.00     0.029 A 
ATOM     37  N   UNL A   1      39.097  30.865  32.808  1.00  0.00    -0.354 N 
ATOM     38  C   UNL A   1      39.753  32.943  36.563  1.00  0.00     0.074 A 
ATOM     39  C   UNL A   1      38.676  33.870  36.830  1.00  0.00     0.031 C 
ATOM     40  C   UNL A   1      37.985  30.348  30.938  1.00  0.00     0.029 A 
ATOM     41  C   UNL A   1      39.213  30.085  31.686  1.00  0.00     0.049 A 
ATOM     42  H   UNL A   1      39.748  30.851  33.546  1.00  0.00     0.167 HD
ATOM     43  C   UNL A   1      40.805  32.738  37.388  1.00  0.00     0.031 A 
ATOM     44  C   UNL A   1      40.219  29.279  31.296  1.00  0.00     0.031 A 
ATOM     45  C   UNL A   1      41.890  31.843  37.089  1.00  0.00     0.049 A 
ATOM     46  C   UNL A   1      41.439  29.161  32.171  1.00  0.00     0.074 A 
ATOM     47  C   UNL A   1      43.003  31.549  37.854  1.00  0.00     0.029 A 
ATOM     48  N   UNL A   1      42.004  31.113  35.914  1.00  0.00    -0.354 N 
ATOM     49  N   UNL A   1      41.676  29.707  33.340  1.00  0.00    -0.248 NA
ATOM     50  C   UNL A   1      42.535  28.323  31.665  1.00  0.00     0.031 C 
ATOM     51  C   UNL A   1      43.826  30.695  37.111  1.00  0.00     0.029 A 
ATOM     52  C   UNL A   1      43.192  30.404  35.912  1.00  0.00     0.049 A 
ATOM     53  H   UNL A   1      41.338  31.101  35.189  1.00  0.00     0.167 HD
ATOM     54  C   UNL A   1      42.937  29.264  33.719  1.00  0.00     0.074 A 
ATOM     55  C   UNL A   1      43.406  28.390  32.662  1.00  0.00     0.031 C 
ATOM     56  C   UNL A   1      43.644  29.554  34.840  1.00  0.00     0.031 A 
BRANCH  43  57
ATOM     57  C   UNL A   1      40.848  33.547  38.653  1.00  0.00    -0.014 A 
ATOM     58  C   UNL A   1      40.300  33.065  39.853  1.00  0.00     0.009 A 
ATOM     59  C   UNL A   1      41.433  34.823  38.639  1.00  0.00     0.009 A 
ATOM     60  C   UNL A   1      40.296  33.862  41.000  1.00  0.00     0.001 A 
ATOM     61  C   UNL A   1      41.456  35.606  39.795  1.00  0.00     0.001 A 
ATOM     62  C   UNL A   1      40.875  35.131  40.970  1.00  0.00     0.000 A 
ENDBRANCH  43  57
BRANCH  44  63
ATOM     63  C   UNL A   1      40.126  28.548  30.006  1.00  0.00    -0.014 A 
ATOM     64  C   UNL A   1      40.693  29.089  28.842  1.00  0.00     0.009 A 
ATOM     65  C   UNL A   1      39.480  27.304  29.931  1.00  0.00     0.009 A 
ATOM     66  C   UNL A   1      40.605  28.403  27.628  1.00  0.00     0.001 A 
ATOM     67  C   UNL A   1      39.418  26.608  28.722  1.00  0.00     0.001 A 
ATOM     68  C   UNL A   1      39.975  27.161  27.571  1.00  0.00     0.000 A 
ENDBRANCH  44  63
BRANCH  56  69
ATOM     69  C   UNL A   1      44.996  28.910  34.985  1.00  0.00    -0.014 A 
ATOM     70  C   UNL A   1      46.159  29.555  34.538  1.00  0.00     0.009 A 
ATOM     71  C   UNL A   1      45.112  27.668  35.628  1.00  0.00     0.009 A 
ATOM     72  C   UNL A   1      47.409  28.957  34.709  1.00  0.00     0.001 A 
ATOM     73  C   UNL A   1      46.364  27.086  35.826  1.00  0.00     0.001 A 
ATOM     74  C   UNL A   1      47.510  27.727  35.360  1.00  0.00     0.000 A 
ENDBRANCH  56  69
ENDBRANCH  30  31
ENDBRANCH  23  25
ENDBRANCH  22  23
ENDBRANCH  21  22
ENDBRANCH  20  21
ENDBRANCH  19  20
ENDBRANCH  18  19
ENDBRANCH   1  18
TORSDOF 20
ENDMDL
MODEL 3
REMARK VINA RESULT:      -8.6      2.510      7.004
REMARK SMILES C=CCSc1ccccc1C(=O)OCCOCCOCCOC(=O)c1ccc(-c2c3nc(c(-c4ccccc4)c4ccc([nH]4)c(-c4ccccc4)c4nc(c(-c5ccccc5)c5ccc2[nH]5)C=C4)C=C3)cc1
REMARK SMILES IDX 17 1 16 2 15 3 14 4 13 5 11 6 12 7 10 8 5 9 6 10 7 11 9 12
REMARK SMILES IDX 8 13 4 14 3 15 2 16 1 17 18 18 19 19 20 20 21 21 22 22 23 23
REMARK SMILES IDX 24 24 25 25 26 26 72 27 27 28 71 29 28 30 29 31 30 32 65 33
REMARK SMILES IDX 31 34 70 35 64 36 66 37 32 38 69 39 63 40 62 41 33 43 55 44
REMARK SMILES IDX 40 45 54 46 41 47 44 48 53 49 67 50 42 51 43 52 52 54 68 55
REMARK SMILES IDX 45 56 34 57 35 58 39 59 36 60 38 61 37 62 56 63 57 64 61 65
REMARK SMILES IDX 58 66 60 67 59 68 46 69 47 70 51 71 48 72 50 73 49 74
REMARK H PARENT 66 42 44 53
REMARK Flexibility Score: inf
ROOT
ATOM      1  C   UNL A   1      30.765  27.988  25.053  1.00  0.00     0.188 C 
ENDROOT
BRANCH   1   2
ATOM      2  O   UNL A   1      30.814  26.888  24.160  1.00  0.00    -0.376 OA
BRANCH   2   3
ATOM      3  C   UNL A   1      31.503  25.694  24.525  1.00  0.00     0.202 C 
BRANCH   3   4
ATOM      4  C   UNL A   1      31.893  24.754  23.383  1.00  0.00     0.261 C 
BRANCH   4   5
ATOM      5  O   UNL A   1      33.154  24.153  23.710  1.00  0.00    -0.460 OA
BRANCH   5   6
ATOM      6  C   UNL A   1      33.688  23.305  22.808  1.00  0.00     0.339 C 
ATOM      7  O   UNL A   1      33.710  23.440  21.598  1.00  0.00    -0.246 OA
BRANCH   6   8
ATOM      8  C   UNL A   1      34.551  22.383  23.567  1.00  0.00     0.073 A 
ATOM      9  C   UNL A   1      34.128  21.261  24.304  1.00  0.00     0.022 A 
ATOM     10  C   UNL A   1      35.128  20.557  25.013  1.00  0.00     0.016 A 
ATOM     11  C   UNL A   1      36.478  20.932  24.987  1.00  0.00     0.001 A 
ATOM     12  C   UNL A   1      35.918  22.751  23.535  1.00  0.00     0.017 A 
ATOM     13  C   UNL A   1      36.877  22.026  24.235  1.00  0.00     0.001 A 
BRANCH   9  14
ATOM     14  S   UNL A   1      32.568  20.365  24.280  1.00  0.00    -0.121 SA
BRANCH  14  15
ATOM     15  C   UNL A   1      32.826  18.595  24.587  1.00  0.00     0.101 C 
BRANCH  15  16
ATOM     16  C   UNL A   1      32.999  17.714  23.392  1.00  0.00    -0.024 C 
ATOM     17  C   UNL A   1      34.076  16.978  23.125  1.00  0.00     0.005 C 
ENDBRANCH  15  16
ENDBRANCH  14  15
ENDBRANCH   9  14
ENDBRANCH   6   8
ENDBRANCH   5   6
ENDBRANCH   4   5
ENDBRANCH   3   4
ENDBRANCH   2   3
ENDBRANCH   1   2
BRANCH   1  18
ATOM     18  C   UNL A   1      31.005  29.433  24.575  1.00  0.00     0.188 C 
BRANCH  18  19
ATOM     19  O   UNL A   1      31.906  30.329  25.203  1.00  0.00    -0.376 OA
BRANCH  19  20
ATOM     20  C   UNL A   1      32.484  30.016  26.457  1.00  0.00     0.202 C 
BRANCH  20  21
ATOM     21  C   UNL A   1      33.313  31.111  27.128  1.00  0.00     0.261 C 
BRANCH  21  22
ATOM     22  O   UNL A   1      32.486  32.136  27.680  1.00  0.00    -0.460 OA
BRANCH  22  23
ATOM     23  C   UNL A   1      33.118  33.304  27.940  1.00  0.00     0.338 C 
ATOM     24  O   UNL A   1      32.669  34.438  27.879  1.00  0.00    -0.246 OA
BRANCH  23  25
ATOM     25  C   UNL A   1      34.427  32.971  28.522  1.00  0.00     0.060 A 
ATOM     26  C   UNL A   1      35.582  33.406  27.859  1.00  0.00     0.016 A 
ATOM     27  C   UNL A   1      34.507  32.292  29.739  1.00  0.00     0.016 A 
ATOM     28  C   UNL A   1      36.830  33.188  28.429  1.00  0.00     0.010 A 
ATOM     29  C   UNL A   1      35.757  32.040  30.290  1.00  0.00     0.010 A 
ATOM     30  C   UNL A   1      36.919  32.479  29.632  1.00  0.00    -0.014 A 
BRANCH  30  31
ATOM     31  C   UNL A   1      38.230  32.026  30.128  1.00  0.00     0.031 A 
ATOM     32  C   UNL A   1      38.772  30.735  29.599  1.00  0.00     0.074 A 
ATOM     33  C   UNL A   1      38.894  32.734  31.056  1.00  0.00     0.049 A 
ATOM     34  N   UNL A   1      39.830  30.067  29.972  1.00  0.00    -0.248 NA
ATOM     35  C   UNL A   1      38.011  30.111  28.504  1.00  0.00     0.031 C 
ATOM     36  C   UNL A   1      38.484  34.031  31.591  1.00  0.00     0.029 A 
ATOM     37  N   UNL A   1      40.053  32.440  31.724  1.00  0.00    -0.354 N 
ATOM     38  C   UNL A   1      39.855  28.936  29.168  1.00  0.00     0.074 A 
ATOM     39  C   UNL A   1      38.696  28.997  28.306  1.00  0.00     0.031 C 
ATOM     40  C   UNL A   1      39.375  34.415  32.522  1.00  0.00     0.029 A 
ATOM     41  C   UNL A   1      40.382  33.369  32.677  1.00  0.00     0.049 A 
ATOM     42  H   UNL A   1      40.597  31.640  31.537  1.00  0.00     0.167 HD
ATOM     43  C   UNL A   1      40.763  27.934  29.155  1.00  0.00     0.031 A 
ATOM     44  C   UNL A   1      41.369  33.351  33.595  1.00  0.00     0.031 A 
ATOM     45  C   UNL A   1      41.888  27.867  30.047  1.00  0.00     0.049 A 
ATOM     46  C   UNL A   1      42.295  32.165  33.646  1.00  0.00     0.074 A 
ATOM     47  C   UNL A   1      42.878  26.905  30.119  1.00  0.00     0.029 A 
ATOM     48  N   UNL A   1      42.158  28.798  31.042  1.00  0.00    -0.354 N 
ATOM     49  N   UNL A   1      42.332  31.109  32.869  1.00  0.00    -0.248 NA
ATOM     50  C   UNL A   1      43.309  32.166  34.709  1.00  0.00     0.031 C 
ATOM     51  C   UNL A   1      43.706  27.215  31.203  1.00  0.00     0.029 A 
ATOM     52  C   UNL A   1      43.273  28.408  31.763  1.00  0.00     0.049 A 
ATOM     53  H   UNL A   1      41.634  29.614  31.209  1.00  0.00     0.167 HD
ATOM     54  C   UNL A   1      43.383  30.328  33.335  1.00  0.00     0.074 A 
ATOM     55  C   UNL A   1      43.969  31.044  34.452  1.00  0.00     0.031 C 
ATOM     56  C   UNL A   1      43.825  29.129  32.882  1.00  0.00     0.031 A 
BRANCH  43  57
ATOM     57  C   UNL A   1      40.527  26.811  28.186  1.00  0.00    -0.014 A 
ATOM     58  C   UNL A   1      39.771  25.681  28.540  1.00  0.00     0.009 A 
ATOM     59  C   UNL A   1      41.086  26.877  26.901  1.00  0.00     0.009 A 
ATOM     60  C   UNL A   1      39.619  24.622  27.643  1.00  0.00     0.001 A 
ATOM     61  C   UNL A   1      40.906  25.830  25.994  1.00  0.00     0.001 A 
ATOM     62  C   UNL A   1      40.185  24.698  26.370  1.00  0.00     0.000 A 
ENDBRANCH  43  57
BRANCH  44  63
ATOM     63  C   UNL A   1      41.510  34.477  34.554  1.00  0.00    -0.014 A 
ATOM     64  C   UNL A   1      40.950  34.390  35.837  1.00  0.00     0.009 A 
ATOM     65  C   UNL A   1      42.211  35.640  34.197  1.00  0.00     0.009 A 
ATOM     66  C   UNL A   1      41.080  35.448  36.739  1.00  0.00     0.001 A 
ATOM     67  C   UNL A   1      42.364  36.685  35.111  1.00  0.00     0.001 A 
ATOM     68  C   UNL A   1      41.793  36.591  36.379  1.00  0.00     0.000 A 
ENDBRANCH  44  63
BRANCH  56  69
ATOM     69  C   UNL A   1      45.006  28.520  33.588  1.00  0.00    -0.014 A 
ATOM     70  C   UNL A   1      44.831  27.621  34.651  1.00  0.00     0.009 A 
ATOM     71  C   UNL A   1      46.307  28.807  33.145  1.00  0.00     0.009 A 
ATOM     72  C   UNL A   1      45.938  27.042  35.274  1.00  0.00     0.001 A 
ATOM     73  C   UNL A   1      47.409  28.202  33.749  1.00  0.00     0.001 A 
ATOM     74  C   UNL A   1      47.225  27.327  34.817  1.00  0.00     0.000 A 
ENDBRANCH  56  69
ENDBRANCH  30  31
ENDBRANCH  23  25
ENDBRANCH  22  23
ENDBRANCH  21  22
ENDBRANCH  20  21
ENDBRANCH  19  20
ENDBRANCH  18  19
ENDBRANCH   1  18
TORSDOF 20
ENDMDL
