MODEL 1
REMARK VINA RESULT:      -9.2      0.000      0.000
REMARK SMILES CCCC1(C(=O)OCCOCCOCCOC(=O)c2ccc(-c3c4nc(c(-c5ccccc5)c5ccc([nH]5)c(-c5ccccc5)c5nc(c(-c6ccccc6)c6ccc3[nH]6)C=C5)C=C4)cc2)CC[NH+]([C@H](C)[C@H](C)O)CC1
REMARK SMILES IDX 11 1 10 2 9 3 8 4 7 5 5 6 6 7 4 8 67 9 76 10 68 11 75 12
REMARK SMILES IDX 69 13 3 15 2 16 1 17 70 18 71 19 72 20 73 21 74 22 12 24
REMARK SMILES IDX 13 25 14 26 15 27 16 28 17 29 18 30 19 31 20 32 66 33 21 34
REMARK SMILES IDX 65 35 22 36 23 37 24 38 59 39 25 40 64 41 58 42 60 43 26 44
REMARK SMILES IDX 63 45 57 46 56 47 27 49 49 50 34 51 48 52 35 53 38 54 47 55
REMARK SMILES IDX 61 56 36 57 37 58 46 60 62 61 39 62 28 63 29 64 33 65 30 66
REMARK SMILES IDX 32 67 31 68 50 69 51 70 55 71 52 72 54 73 53 74 40 75 41 76
REMARK SMILES IDX 45 77 42 78 44 79 43 80
REMARK H PARENT 69 14 74 23 60 48 38 59
REMARK Flexibility Score: inf
ROOT
ATOM      1  C   UNL A   1      33.827  32.980  27.869  1.00  0.00     0.188 C 
ENDROOT
BRANCH   1   2
ATOM      2  O   UNL A   1      32.909  32.013  27.393  1.00  0.00    -0.376 OA
BRANCH   2   3
ATOM      3  C   UNL A   1      33.321  30.657  27.467  1.00  0.00     0.202 C 
BRANCH   3   4
ATOM      4  C   UNL A   1      33.284  29.671  26.271  1.00  0.00     0.261 C 
BRANCH   4   5
ATOM      5  O   UNL A   1      33.503  28.259  26.466  1.00  0.00    -0.463 OA
BRANCH   5   6
ATOM      6  C   UNL A   1      32.412  27.481  26.683  1.00  0.00     0.312 C 
ATOM      7  O   UNL A   1      31.653  27.682  27.625  1.00  0.00    -0.252 OA
BRANCH   6   8
ATOM      8  C   UNL A   1      32.308  26.249  25.703  1.00  0.00     0.079 C 
ATOM      9  C   UNL A   1      33.624  25.520  25.411  1.00  0.00     0.080 C 
ATOM     10  C   UNL A   1      31.427  25.242  26.499  1.00  0.00     0.080 C 
ATOM     11  C   UNL A   1      33.425  24.161  24.738  1.00  0.00     0.263 C 
ATOM     12  C   UNL A   1      31.444  23.758  26.092  1.00  0.00     0.263 C 
ATOM     13  N   UNL A   1      32.680  23.211  25.535  1.00  0.00    -0.331 N 
ATOM     14  H   UNL A   1      32.343  22.538  24.848  1.00  0.00     0.348 HD
BRANCH   8  15
ATOM     15  C   UNL A   1      31.697  26.876  24.384  1.00  0.00     0.019 C 
BRANCH  15  16
ATOM     16  C   UNL A   1      30.626  26.176  23.528  1.00  0.00    -0.002 C 
ATOM     17  C   UNL A   1      29.207  26.557  23.912  1.00  0.00     0.004 C 
ENDBRANCH  15  16
ENDBRANCH   8  15
BRANCH  13  18
ATOM     18  C   UNL A   1      33.439  22.229  26.336  1.00  0.00     0.209 C 
ATOM     19  C   UNL A   1      33.583  22.552  27.824  1.00  0.00     0.078 C 
BRANCH  18  20
ATOM     20  C   UNL A   1      34.828  21.887  25.684  1.00  0.00     0.169 C 
ATOM     21  C   UNL A   1      34.938  20.620  24.835  1.00  0.00     0.045 C 
BRANCH  20  22
ATOM     22  O   UNL A   1      35.797  21.770  26.737  1.00  0.00    -0.387 OA
ATOM     23  H   UNL A   1      35.501  22.280  27.507  1.00  0.00     0.211 HD
ENDBRANCH  20  22
ENDBRANCH  18  20
ENDBRANCH  13  18
ENDBRANCH   6   8
ENDBRANCH   5   6
ENDBRANCH   4   5
ENDBRANCH   3   4
ENDBRANCH   2   3
ENDBRANCH   1   2
BRANCH   1  24
ATOM     24  C   UNL A   1      33.070  34.173  28.453  1.00  0.00     0.188 C 
BRANCH  24  25
ATOM     25  O   UNL A   1      33.915  35.105  29.095  1.00  0.00    -0.376 OA
BRANCH  25  26
ATOM     26  C   UNL A   1      34.699  34.638  30.182  1.00  0.00     0.202 C 
BRANCH  26  27
ATOM     27  C   UNL A   1      34.100  34.002  31.460  1.00  0.00     0.261 C 
BRANCH  27  28
ATOM     28  O   UNL A   1      34.498  32.672  31.835  1.00  0.00    -0.460 OA
BRANCH  28  29
ATOM     29  C   UNL A   1      35.498  32.509  32.730  1.00  0.00     0.338 C 
ATOM     30  O   UNL A   1      35.453  32.729  33.929  1.00  0.00    -0.246 OA
BRANCH  29  31
ATOM     31  C   UNL A   1      36.584  31.758  32.042  1.00  0.00     0.060 A 
ATOM     32  C   UNL A   1      37.606  31.170  32.806  1.00  0.00     0.016 A 
ATOM     33  C   UNL A   1      36.561  31.576  30.657  1.00  0.00     0.016 A 
ATOM     34  C   UNL A   1      38.617  30.427  32.186  1.00  0.00     0.010 A 
ATOM     35  C   UNL A   1      37.588  30.856  30.035  1.00  0.00     0.010 A 
ATOM     36  C   UNL A   1      38.639  30.303  30.790  1.00  0.00    -0.014 A 
BRANCH  36  37
ATOM     37  C   UNL A   1      39.853  29.793  30.101  1.00  0.00     0.031 A 
ATOM     38  C   UNL A   1      41.015  30.735  29.922  1.00  0.00     0.074 A 
ATOM     39  C   UNL A   1      39.943  28.533  29.638  1.00  0.00     0.049 A 
ATOM     40  N   UNL A   1      42.150  30.550  29.298  1.00  0.00    -0.248 NA
ATOM     41  C   UNL A   1      40.870  32.069  30.527  1.00  0.00     0.031 C 
ATOM     42  C   UNL A   1      38.922  27.498  29.779  1.00  0.00     0.029 A 
ATOM     43  N   UNL A   1      40.953  27.916  28.936  1.00  0.00    -0.354 N 
ATOM     44  C   UNL A   1      42.847  31.746  29.425  1.00  0.00     0.074 A 
ATOM     45  C   UNL A   1      41.997  32.657  30.159  1.00  0.00     0.031 C 
ATOM     46  C   UNL A   1      39.353  26.376  29.172  1.00  0.00     0.029 A 
ATOM     47  C   UNL A   1      40.661  26.625  28.567  1.00  0.00     0.049 A 
ATOM     48  H   UNL A   1      41.805  28.359  28.719  1.00  0.00     0.167 HD
ATOM     49  C   UNL A   1      44.084  32.063  28.975  1.00  0.00     0.031 A 
ATOM     50  C   UNL A   1      41.357  25.754  27.809  1.00  0.00     0.031 A 
ATOM     51  C   UNL A   1      44.929  31.171  28.228  1.00  0.00     0.049 A 
ATOM     52  C   UNL A   1      42.696  26.158  27.242  1.00  0.00     0.074 A 
ATOM     53  C   UNL A   1      46.206  31.399  27.744  1.00  0.00     0.029 A 
ATOM     54  N   UNL A   1      44.579  29.887  27.845  1.00  0.00    -0.354 N 
ATOM     55  N   UNL A   1      43.356  27.281  27.394  1.00  0.00    -0.248 NA
ATOM     56  C   UNL A   1      43.387  25.167  26.401  1.00  0.00     0.031 C 
ATOM     57  C   UNL A   1      46.602  30.276  27.012  1.00  0.00     0.029 A 
ATOM     58  C   UNL A   1      45.602  29.321  27.102  1.00  0.00     0.049 A 
ATOM     59  H   UNL A   1      43.729  29.443  28.067  1.00  0.00     0.167 HD
ATOM     60  C   UNL A   1      44.551  27.117  26.700  1.00  0.00     0.074 A 
ATOM     61  C   UNL A   1      44.531  25.784  26.137  1.00  0.00     0.031 C 
ATOM     62  C   UNL A   1      45.576  27.993  26.548  1.00  0.00     0.031 A 
BRANCH  49  63
ATOM     63  C   UNL A   1      44.581  33.455  29.246  1.00  0.00    -0.014 A 
ATOM     64  C   UNL A   1      44.349  34.506  28.342  1.00  0.00     0.009 A 
ATOM     65  C   UNL A   1      45.269  33.727  30.439  1.00  0.00     0.009 A 
ATOM     66  C   UNL A   1      44.829  35.788  28.612  1.00  0.00     0.001 A 
ATOM     67  C   UNL A   1      45.719  35.017  30.721  1.00  0.00     0.001 A 
ATOM     68  C   UNL A   1      45.507  36.044  29.803  1.00  0.00     0.000 A 
ENDBRANCH  49  63
BRANCH  50  69
ATOM     69  C   UNL A   1      40.798  24.407  27.510  1.00  0.00    -0.014 A 
ATOM     70  C   UNL A   1      41.349  23.255  28.091  1.00  0.00     0.009 A 
ATOM     71  C   UNL A   1      39.731  24.264  26.609  1.00  0.00     0.009 A 
ATOM     72  C   UNL A   1      40.863  21.989  27.757  1.00  0.00     0.001 A 
ATOM     73  C   UNL A   1      39.226  22.999  26.300  1.00  0.00     0.001 A 
ATOM     74  C   UNL A   1      39.798  21.862  26.866  1.00  0.00     0.000 A 
ENDBRANCH  50  69
BRANCH  62  75
ATOM     75  C   UNL A   1      46.786  27.528  25.783  1.00  0.00    -0.014 A 
ATOM     76  C   UNL A   1      47.796  26.766  26.392  1.00  0.00     0.009 A 
ATOM     77  C   UNL A   1      46.889  27.814  24.412  1.00  0.00     0.009 A 
ATOM     78  C   UNL A   1      48.897  26.331  25.651  1.00  0.00     0.001 A 
ATOM     79  C   UNL A   1      47.974  27.350  23.667  1.00  0.00     0.001 A 
ATOM     80  C   UNL A   1      48.982  26.618  24.289  1.00  0.00     0.000 A 
ENDBRANCH  62  75
ENDBRANCH  36  37
ENDBRANCH  29  31
ENDBRANCH  28  29
ENDBRANCH  27  28
ENDBRANCH  26  27
ENDBRANCH  25  26
ENDBRANCH  24  25
ENDBRANCH   1  24
TORSDOF 22
ENDMDL
MODEL 2
REMARK VINA RESULT:      -8.9      3.881      9.664
REMARK SMILES CCCC1(C(=O)OCCOCCOCCOC(=O)c2ccc(-c3c4nc(c(-c5ccccc5)c5ccc([nH]5)c(-c5ccccc5)c5nc(c(-c6ccccc6)c6ccc3[nH]6)C=C5)C=C4)cc2)CC[NH+]([C@H](C)[C@H](C)O)CC1
REMARK SMILES IDX 11 1 10 2 9 3 8 4 7 5 5 6 6 7 4 8 67 9 76 10 68 11 75 12
REMARK SMILES IDX 69 13 3 15 2 16 1 17 70 18 71 19 72 20 73 21 74 22 12 24
REMARK SMILES IDX 13 25 14 26 15 27 16 28 17 29 18 30 19 31 20 32 66 33 21 34
REMARK SMILES IDX 65 35 22 36 23 37 24 38 59 39 25 40 64 41 58 42 60 43 26 44
REMARK SMILES IDX 63 45 57 46 56 47 27 49 49 50 34 51 48 52 35 53 38 54 47 55
REMARK SMILES IDX 61 56 36 57 37 58 46 60 62 61 39 62 28 63 29 64 33 65 30 66
REMARK SMILES IDX 32 67 31 68 50 69 51 70 55 71 52 72 54 73 53 74 40 75 41 76
REMARK SMILES IDX 45 77 42 78 44 79 43 80
REMARK H PARENT 69 14 74 23 60 48 38 59
REMARK Flexibility Score: inf
ROOT
ATOM      1  C   UNL A   1      41.300  21.685  26.032  1.00  0.00     0.188 C 
ENDROOT
BRANCH   1   2
ATOM      2  O   UNL A   1      39.893  21.788  26.164  1.00  0.00    -0.376 OA
BRANCH   2   3
ATOM      3  C   UNL A   1      39.390  23.027  26.638  1.00  0.00     0.202 C 
BRANCH   3   4
ATOM      4  C   UNL A   1      38.071  23.676  26.145  1.00  0.00     0.261 C 
BRANCH   4   5
ATOM      5  O   UNL A   1      36.869  22.895  25.997  1.00  0.00    -0.463 OA
BRANCH   5   6
ATOM      6  C   UNL A   1      36.032  23.220  24.978  1.00  0.00     0.312 C 
ATOM      7  O   UNL A   1      36.370  23.995  24.089  1.00  0.00    -0.252 OA
BRANCH   6   8
ATOM      8  C   UNL A   1      34.582  22.619  25.133  1.00  0.00     0.079 C 
ATOM      9  C   UNL A   1      33.886  22.219  23.827  1.00  0.00     0.080 C 
ATOM     10  C   UNL A   1      34.834  21.293  25.909  1.00  0.00     0.080 C 
ATOM     11  C   UNL A   1      32.646  21.350  24.045  1.00  0.00     0.263 C 
ATOM     12  C   UNL A   1      33.750  20.202  25.885  1.00  0.00     0.263 C 
ATOM     13  N   UNL A   1      32.918  20.084  24.688  1.00  0.00    -0.331 N 
ATOM     14  H   UNL A   1      32.012  19.809  25.066  1.00  0.00     0.348 HD
BRANCH   8  15
ATOM     15  C   UNL A   1      33.784  23.765  25.878  1.00  0.00     0.019 C 
BRANCH  15  16
ATOM     16  C   UNL A   1      33.121  24.949  25.150  1.00  0.00    -0.002 C 
ATOM     17  C   UNL A   1      32.918  26.164  26.040  1.00  0.00     0.004 C 
ENDBRANCH  15  16
ENDBRANCH   8  15
BRANCH  13  18
ATOM     18  C   UNL A   1      33.083  18.891  23.831  1.00  0.00     0.209 C 
ATOM     19  C   UNL A   1      32.135  18.793  22.636  1.00  0.00     0.078 C 
BRANCH  18  20
ATOM     20  C   UNL A   1      33.092  17.563  24.671  1.00  0.00     0.169 C 
ATOM     21  C   UNL A   1      33.773  16.331  24.072  1.00  0.00     0.045 C 
BRANCH  20  22
ATOM     22  O   UNL A   1      31.730  17.197  24.940  1.00  0.00    -0.387 OA
ATOM     23  H   UNL A   1      31.699  16.617  25.717  1.00  0.00     0.211 HD
ENDBRANCH  20  22
ENDBRANCH  18  20
ENDBRANCH  13  18
ENDBRANCH   6   8
ENDBRANCH   5   6
ENDBRANCH   4   5
ENDBRANCH   3   4
ENDBRANCH   2   3
ENDBRANCH   1   2
BRANCH   1  24
ATOM     24  C   UNL A   1      41.883  20.951  27.240  1.00  0.00     0.188 C 
BRANCH  24  25
ATOM     25  O   UNL A   1      41.686  19.554  27.186  1.00  0.00    -0.376 OA
BRANCH  25  26
ATOM     26  C   UNL A   1      42.795  18.751  26.812  1.00  0.00     0.202 C 
BRANCH  26  27
ATOM     27  C   UNL A   1      43.291  18.598  25.354  1.00  0.00     0.261 C 
BRANCH  27  28
ATOM     28  O   UNL A   1      44.622  19.028  25.016  1.00  0.00    -0.460 OA
BRANCH  28  29
ATOM     29  C   UNL A   1      44.794  19.927  24.022  1.00  0.00     0.338 C 
ATOM     30  O   UNL A   1      44.690  19.726  22.824  1.00  0.00    -0.246 OA
BRANCH  29  31
ATOM     31  C   UNL A   1      44.871  21.272  24.657  1.00  0.00     0.060 A 
ATOM     32  C   UNL A   1      44.438  22.399  23.939  1.00  0.00     0.016 A 
ATOM     33  C   UNL A   1      45.304  21.416  25.978  1.00  0.00     0.016 A 
ATOM     34  C   UNL A   1      44.465  23.669  24.527  1.00  0.00     0.010 A 
ATOM     35  C   UNL A   1      45.356  22.690  26.556  1.00  0.00     0.010 A 
ATOM     36  C   UNL A   1      44.967  23.828  25.825  1.00  0.00    -0.014 A 
BRANCH  36  37
ATOM     37  C   UNL A   1      45.290  25.183  26.344  1.00  0.00     0.031 A 
ATOM     38  C   UNL A   1      44.174  26.000  26.937  1.00  0.00     0.074 A 
ATOM     39  C   UNL A   1      46.535  25.694  26.296  1.00  0.00     0.049 A 
ATOM     40  N   UNL A   1      44.188  27.228  27.391  1.00  0.00    -0.248 NA
ATOM     41  C   UNL A   1      42.861  25.340  27.026  1.00  0.00     0.031 C 
ATOM     42  C   UNL A   1      47.721  25.004  25.795  1.00  0.00     0.029 A 
ATOM     43  N   UNL A   1      46.999  26.933  26.673  1.00  0.00    -0.354 N 
ATOM     44  C   UNL A   1      42.887  27.489  27.806  1.00  0.00     0.074 A 
ATOM     45  C   UNL A   1      42.105  26.307  27.524  1.00  0.00     0.031 C 
ATOM     46  C   UNL A   1      48.776  25.835  25.883  1.00  0.00     0.029 A 
ATOM     47  C   UNL A   1      48.334  27.126  26.411  1.00  0.00     0.049 A 
ATOM     48  H   UNL A   1      46.427  27.618  27.090  1.00  0.00     0.167 HD
ATOM     49  C   UNL A   1      42.384  28.612  28.372  1.00  0.00     0.031 A 
ATOM     50  C   UNL A   1      49.104  28.223  26.558  1.00  0.00     0.031 A 
ATOM     51  C   UNL A   1      43.149  29.800  28.639  1.00  0.00     0.049 A 
ATOM     52  C   UNL A   1      48.502  29.493  27.109  1.00  0.00     0.074 A 
ATOM     53  C   UNL A   1      42.727  30.981  29.226  1.00  0.00     0.029 A 
ATOM     54  N   UNL A   1      44.487  29.965  28.324  1.00  0.00    -0.354 N 
ATOM     55  N   UNL A   1      47.279  29.718  27.524  1.00  0.00    -0.248 NA
ATOM     56  C   UNL A   1      49.393  30.659  27.215  1.00  0.00     0.031 C 
ATOM     57  C   UNL A   1      43.795  31.883  29.207  1.00  0.00     0.029 A 
ATOM     58  C   UNL A   1      44.901  31.239  28.675  1.00  0.00     0.049 A 
ATOM     59  H   UNL A   1      45.060  29.278  27.912  1.00  0.00     0.167 HD
ATOM     60  C   UNL A   1      47.265  31.036  27.972  1.00  0.00     0.074 A 
ATOM     61  C   UNL A   1      48.603  31.556  27.789  1.00  0.00     0.031 C 
ATOM     62  C   UNL A   1      46.235  31.748  28.494  1.00  0.00     0.031 A 
BRANCH  49  63
ATOM     63  C   UNL A   1      40.919  28.618  28.705  1.00  0.00    -0.014 A 
ATOM     64  C   UNL A   1      40.449  28.191  29.959  1.00  0.00     0.009 A 
ATOM     65  C   UNL A   1      39.994  29.084  27.757  1.00  0.00     0.009 A 
ATOM     66  C   UNL A   1      39.082  28.197  30.240  1.00  0.00     0.001 A 
ATOM     67  C   UNL A   1      38.630  29.120  28.053  1.00  0.00     0.001 A 
ATOM     68  C   UNL A   1      38.175  28.667  29.290  1.00  0.00     0.000 A 
ENDBRANCH  49  63
BRANCH  50  69
ATOM     69  C   UNL A   1      50.537  28.193  26.154  1.00  0.00    -0.014 A 
ATOM     70  C   UNL A   1      50.912  28.414  24.820  1.00  0.00     0.009 A 
ATOM     71  C   UNL A   1      51.536  27.905  27.097  1.00  0.00     0.009 A 
ATOM     72  C   UNL A   1      52.251  28.321  24.434  1.00  0.00     0.001 A 
ATOM     73  C   UNL A   1      52.878  27.843  26.715  1.00  0.00     0.001 A 
ATOM     74  C   UNL A   1      53.233  28.041  25.383  1.00  0.00     0.000 A 
ENDBRANCH  50  69
BRANCH  62  75
ATOM     75  C   UNL A   1      46.519  33.153  28.952  1.00  0.00    -0.014 A 
ATOM     76  C   UNL A   1      46.974  33.428  30.251  1.00  0.00     0.009 A 
ATOM     77  C   UNL A   1      46.378  34.218  28.046  1.00  0.00     0.009 A 
ATOM     78  C   UNL A   1      47.248  34.741  30.642  1.00  0.00     0.001 A 
ATOM     79  C   UNL A   1      46.683  35.524  28.429  1.00  0.00     0.001 A 
ATOM     80  C   UNL A   1      47.109  35.786  29.729  1.00  0.00     0.000 A 
ENDBRANCH  62  75
ENDBRANCH  36  37
ENDBRANCH  29  31
ENDBRANCH  28  29
ENDBRANCH  27  28
ENDBRANCH  26  27
ENDBRANCH  25  26
ENDBRANCH  24  25
ENDBRANCH   1  24
TORSDOF 22
ENDMDL
MODEL 3
REMARK VINA RESULT:      -8.8      3.519      9.714
REMARK SMILES CCCC1(C(=O)OCCOCCOCCOC(=O)c2ccc(-c3c4nc(c(-c5ccccc5)c5ccc([nH]5)c(-c5ccccc5)c5nc(c(-c6ccccc6)c6ccc3[nH]6)C=C5)C=C4)cc2)CC[NH+]([C@H](C)[C@H](C)O)CC1
REMARK SMILES IDX 11 1 10 2 9 3 8 4 7 5 5 6 6 7 4 8 67 9 76 10 68 11 75 12
REMARK SMILES IDX 69 13 3 15 2 16 1 17 70 18 71 19 72 20 73 21 74 22 12 24
REMARK SMILES IDX 13 25 14 26 15 27 16 28 17 29 18 30 19 31 20 32 66 33 21 34
REMARK SMILES IDX 65 35 22 36 23 37 24 38 59 39 25 40 64 41 58 42 60 43 26 44
REMARK SMILES IDX 63 45 57 46 56 47 27 49 49 50 34 51 48 52 35 53 38 54 47 55
REMARK SMILES IDX 61 56 36 57 37 58 46 60 62 61 39 62 28 63 29 64 33 65 30 66
REMARK SMILES IDX 32 67 31 68 50 69 51 70 55 71 52 72 54 73 53 74 40 75 41 76
REMARK SMILES IDX 45 77 42 78 44 79 43 80
REMARK H PARENT 69 14 74 23 60 48 38 59
REMARK Flexibility Score: inf
ROOT
ATOM      1  C   UNL A   1      39.882  21.877  26.269  1.00  0.00     0.188 C 
ENDROOT
BRANCH   1   2
ATOM      2  O   UNL A   1      39.867  23.204  26.765  1.00  0.00    -0.376 OA
BRANCH   2   3
ATOM      3  C   UNL A   1      38.635  23.900  26.673  1.00  0.00     0.202 C 
BRANCH   3   4
ATOM      4  C   UNL A   1      37.554  23.616  25.598  1.00  0.00     0.261 C 
BRANCH   4   5
ATOM      5  O   UNL A   1      36.302  24.330  25.597  1.00  0.00    -0.463 OA
BRANCH   5   6
ATOM      6  C   UNL A   1      35.374  23.968  24.674  1.00  0.00     0.312 C 
ATOM      7  O   UNL A   1      35.656  23.237  23.729  1.00  0.00    -0.252 OA
BRANCH   6   8
ATOM      8  C   UNL A   1      33.978  24.675  24.867  1.00  0.00     0.079 C 
ATOM      9  C   UNL A   1      34.028  26.185  25.122  1.00  0.00     0.080 C 
ATOM     10  C   UNL A   1      33.300  24.496  23.477  1.00  0.00     0.080 C 
ATOM     11  C   UNL A   1      32.668  26.868  24.972  1.00  0.00     0.263 C 
ATOM     12  C   UNL A   1      32.117  25.408  23.106  1.00  0.00     0.263 C 
ATOM     13  N   UNL A   1      32.098  26.766  23.647  1.00  0.00    -0.331 N 
ATOM     14  H   UNL A   1      31.105  26.936  23.800  1.00  0.00     0.348 HD
BRANCH   8  15
ATOM     15  C   UNL A   1      33.342  23.909  26.098  1.00  0.00     0.019 C 
BRANCH  15  16
ATOM     16  C   UNL A   1      33.963  22.648  26.727  1.00  0.00    -0.002 C 
ATOM     17  C   UNL A   1      33.261  22.202  27.998  1.00  0.00     0.004 C 
ENDBRANCH  15  16
ENDBRANCH   8  15
BRANCH  13  18
ATOM     18  C   UNL A   1      32.295  27.897  22.717  1.00  0.00     0.209 C 
ATOM     19  C   UNL A   1      33.664  28.576  22.773  1.00  0.00     0.078 C 
BRANCH  18  20
ATOM     20  C   UNL A   1      31.127  28.944  22.811  1.00  0.00     0.169 C 
ATOM     21  C   UNL A   1      29.696  28.424  22.949  1.00  0.00     0.045 C 
BRANCH  20  22
ATOM     22  O   UNL A   1      31.164  29.758  21.629  1.00  0.00    -0.387 OA
ATOM     23  H   UNL A   1      31.792  29.379  20.994  1.00  0.00     0.211 HD
ENDBRANCH  20  22
ENDBRANCH  18  20
ENDBRANCH  13  18
ENDBRANCH   6   8
ENDBRANCH   5   6
ENDBRANCH   4   5
ENDBRANCH   3   4
ENDBRANCH   2   3
ENDBRANCH   1   2
BRANCH   1  24
ATOM     24  C   UNL A   1      41.205  21.201  26.631  1.00  0.00     0.188 C 
BRANCH  24  25
ATOM     25  O   UNL A   1      41.290  19.868  26.173  1.00  0.00    -0.376 OA
BRANCH  25  26
ATOM     26  C   UNL A   1      42.447  19.127  26.528  1.00  0.00     0.202 C 
BRANCH  26  27
ATOM     27  C   UNL A   1      43.382  18.450  25.495  1.00  0.00     0.261 C 
BRANCH  27  28
ATOM     28  O   UNL A   1      44.645  19.062  25.183  1.00  0.00    -0.460 OA
BRANCH  28  29
ATOM     29  C   UNL A   1      44.716  19.951  24.167  1.00  0.00     0.338 C 
ATOM     30  O   UNL A   1      44.534  19.726  22.983  1.00  0.00    -0.246 OA
BRANCH  29  31
ATOM     31  C   UNL A   1      44.792  21.307  24.776  1.00  0.00     0.060 A 
ATOM     32  C   UNL A   1      44.403  22.425  24.019  1.00  0.00     0.016 A 
ATOM     33  C   UNL A   1      45.181  21.473  26.108  1.00  0.00     0.016 A 
ATOM     34  C   UNL A   1      44.429  23.707  24.581  1.00  0.00     0.010 A 
ATOM     35  C   UNL A   1      45.234  22.759  26.660  1.00  0.00     0.010 A 
ATOM     36  C   UNL A   1      44.888  23.886  25.893  1.00  0.00    -0.014 A 
BRANCH  36  37
ATOM     37  C   UNL A   1      45.215  25.247  26.394  1.00  0.00     0.031 A 
ATOM     38  C   UNL A   1      44.095  26.086  26.951  1.00  0.00     0.074 A 
ATOM     39  C   UNL A   1      46.466  25.745  26.362  1.00  0.00     0.049 A 
ATOM     40  N   UNL A   1      44.113  27.321  27.383  1.00  0.00    -0.248 NA
ATOM     41  C   UNL A   1      42.774  25.440  27.025  1.00  0.00     0.031 C 
ATOM     42  C   UNL A   1      47.654  25.035  25.898  1.00  0.00     0.029 A 
ATOM     43  N   UNL A   1      46.935  26.986  26.726  1.00  0.00    -0.354 N 
ATOM     44  C   UNL A   1      42.807  27.603  27.766  1.00  0.00     0.074 A 
ATOM     45  C   UNL A   1      42.019  26.423  27.490  1.00  0.00     0.031 C 
ATOM     46  C   UNL A   1      48.716  25.857  25.992  1.00  0.00     0.029 A 
ATOM     47  C   UNL A   1      48.276  27.160  26.488  1.00  0.00     0.049 A 
ATOM     48  H   UNL A   1      46.362  27.683  27.120  1.00  0.00     0.167 HD
ATOM     49  C   UNL A   1      42.305  28.740  28.303  1.00  0.00     0.031 A 
ATOM     50  C   UNL A   1      49.055  28.253  26.631  1.00  0.00     0.031 A 
ATOM     51  C   UNL A   1      43.076  29.925  28.564  1.00  0.00     0.049 A 
ATOM     52  C   UNL A   1      48.455  29.538  27.147  1.00  0.00     0.074 A 
ATOM     53  C   UNL A   1      42.655  31.120  29.122  1.00  0.00     0.029 A 
ATOM     54  N   UNL A   1      44.422  30.071  28.274  1.00  0.00    -0.354 N 
ATOM     55  N   UNL A   1      47.226  29.782  27.534  1.00  0.00    -0.248 NA
ATOM     56  C   UNL A   1      49.356  30.696  27.251  1.00  0.00     0.031 C 
ATOM     57  C   UNL A   1      43.732  32.011  29.108  1.00  0.00     0.029 A 
ATOM     58  C   UNL A   1      44.842  31.347  28.610  1.00  0.00     0.049 A 
ATOM     59  H   UNL A   1      44.995  29.371  27.886  1.00  0.00     0.167 HD
ATOM     60  C   UNL A   1      47.217  31.108  27.958  1.00  0.00     0.074 A 
ATOM     61  C   UNL A   1      48.564  31.611  27.794  1.00  0.00     0.031 C 
ATOM     62  C   UNL A   1      46.184  31.840  28.447  1.00  0.00     0.031 A 
BRANCH  49  63
ATOM     63  C   UNL A   1      40.833  28.767  28.606  1.00  0.00    -0.014 A 
ATOM     64  C   UNL A   1      40.333  28.358  29.854  1.00  0.00     0.009 A 
ATOM     65  C   UNL A   1      39.933  29.234  27.635  1.00  0.00     0.009 A 
ATOM     66  C   UNL A   1      38.961  28.383  30.108  1.00  0.00     0.001 A 
ATOM     67  C   UNL A   1      38.564  29.288  27.903  1.00  0.00     0.001 A 
ATOM     68  C   UNL A   1      38.079  28.853  29.135  1.00  0.00     0.000 A 
ENDBRANCH  49  63
BRANCH  50  69
ATOM     69  C   UNL A   1      50.495  28.201  26.256  1.00  0.00    -0.014 A 
ATOM     70  C   UNL A   1      51.476  27.902  27.214  1.00  0.00     0.009 A 
ATOM     71  C   UNL A   1      50.899  28.490  24.943  1.00  0.00     0.009 A 
ATOM     72  C   UNL A   1      52.830  27.918  26.872  1.00  0.00     0.001 A 
ATOM     73  C   UNL A   1      52.252  28.476  24.596  1.00  0.00     0.001 A 
ATOM     74  C   UNL A   1      53.217  28.200  25.563  1.00  0.00     0.000 A 
ENDBRANCH  50  69
BRANCH  62  75
ATOM     75  C   UNL A   1      46.473  33.250  28.885  1.00  0.00    -0.014 A 
ATOM     76  C   UNL A   1      46.324  34.339  28.012  1.00  0.00     0.009 A 
ATOM     77  C   UNL A   1      46.851  33.497  30.216  1.00  0.00     0.009 A 
ATOM     78  C   UNL A   1      46.580  35.640  28.453  1.00  0.00     0.001 A 
ATOM     79  C   UNL A   1      47.074  34.800  30.662  1.00  0.00     0.001 A 
ATOM     80  C   UNL A   1      46.948  35.869  29.779  1.00  0.00     0.000 A 
ENDBRANCH  62  75
ENDBRANCH  36  37
ENDBRANCH  29  31
ENDBRANCH  28  29
ENDBRANCH  27  28
ENDBRANCH  26  27
ENDBRANCH  25  26
ENDBRANCH  24  25
ENDBRANCH   1  24
TORSDOF 22
ENDMDL
