MODEL 1
REMARK VINA RESULT:     -10.1      0.000      0.000
REMARK SMILES Cc1ccc2[nH]c3c(=O)n(CC(=O)OCCOCCOCCOC(=O)c4ccc(-c5c6nc(c(-c7ccccc7)c7ccc([nH]7)c(-c7ccccc7)c7nc(c(-c8ccccc8)c8ccc5[nH]8)C=C7)C=C6)cc4)cnc3c2c1
REMARK SMILES IDX 19 1 18 2 17 3 16 4 15 5 14 6 12 7 13 8 11 9 10 10 1 11 2 12
REMARK SMILES IDX 3 13 78 14 4 15 77 16 5 17 76 18 6 19 7 20 75 21 8 23 74 24
REMARK SMILES IDX 9 25 20 26 21 27 22 28 23 29 24 30 25 31 26 32 27 33 73 34
REMARK SMILES IDX 28 35 72 36 29 37 30 38 31 39 66 40 32 41 71 42 65 43 67 44
REMARK SMILES IDX 33 45 70 46 64 47 63 48 34 50 56 51 41 52 55 53 42 54 45 55
REMARK SMILES IDX 54 56 68 57 43 58 44 59 53 61 69 62 46 63 35 64 36 65 40 66
REMARK SMILES IDX 37 67 39 68 38 69 57 70 58 71 62 72 59 73 61 74 60 75 47 76
REMARK SMILES IDX 48 77 52 78 49 79 51 80 50 81
REMARK H PARENT 6 22 67 49 45 60
REMARK Flexibility Score: inf
ROOT
ATOM      1  C   UNL A   1      31.814  27.340  26.787  1.00  0.00     0.188 C 
ENDROOT
BRANCH   1   2
ATOM      2  C   UNL A   1      31.436  27.031  25.330  1.00  0.00     0.188 C 
BRANCH   2   3
ATOM      3  O   UNL A   1      31.581  25.703  24.853  1.00  0.00    -0.376 OA
BRANCH   3   4
ATOM      4  C   UNL A   1      32.405  24.812  25.592  1.00  0.00     0.202 C 
BRANCH   4   5
ATOM      5  C   UNL A   1      32.138  23.328  25.336  1.00  0.00     0.261 C 
BRANCH   5   6
ATOM      6  O   UNL A   1      33.331  22.548  25.594  1.00  0.00    -0.462 OA
BRANCH   6   7
ATOM      7  C   UNL A   1      33.857  21.936  24.507  1.00  0.00     0.326 C 
ATOM      8  O   UNL A   1      33.274  21.061  23.873  1.00  0.00    -0.250 OA
BRANCH   7   9
ATOM      9  C   UNL A   1      35.151  22.562  23.985  1.00  0.00     0.249 C 
BRANCH   9  10
ATOM     10  N   UNL A   1      36.440  22.560  24.648  1.00  0.00    -0.286 N 
ATOM     11  C   UNL A   1      42.739  23.280  29.155  1.00  0.00     0.044 C 
ATOM     12  C   UNL A   1      41.898  22.517  28.175  1.00  0.00    -0.050 A 
ATOM     13  C   UNL A   1      42.288  21.244  27.743  1.00  0.00     0.005 A 
ATOM     14  C   UNL A   1      40.728  23.104  27.670  1.00  0.00     0.016 A 
ATOM     15  C   UNL A   1      41.476  20.479  26.902  1.00  0.00     0.027 A 
ATOM     16  C   UNL A   1      39.900  22.362  26.813  1.00  0.00     0.026 A 
ATOM     17  C   UNL A   1      40.265  21.045  26.497  1.00  0.00     0.048 A 
ATOM     18  C   UNL A   1      38.696  22.616  26.130  1.00  0.00     0.103 A 
ATOM     19  N   UNL A   1      39.228  20.499  25.772  1.00  0.00    -0.349 N 
ATOM     20  C   UNL A   1      38.265  21.448  25.587  1.00  0.00     0.132 A 
ATOM     21  N   UNL A   1      37.968  23.807  26.020  1.00  0.00    -0.236 NA
ATOM     22  H   UNL A   1      39.188  19.573  25.440  1.00  0.00     0.167 HD
ATOM     23  C   UNL A   1      37.003  21.336  24.972  1.00  0.00     0.278 A 
ATOM     24  C   UNL A   1      36.921  23.703  25.257  1.00  0.00     0.203 A 
ATOM     25  O   UNL A   1      36.439  20.257  24.834  1.00  0.00    -0.267 OA
ENDBRANCH   9  10
ENDBRANCH   7   9
ENDBRANCH   6   7
ENDBRANCH   5   6
ENDBRANCH   4   5
ENDBRANCH   3   4
ENDBRANCH   2   3
ENDBRANCH   1   2
BRANCH   1  26
ATOM     26  O   UNL A   1      31.647  28.662  27.270  1.00  0.00    -0.376 OA
BRANCH  26  27
ATOM     27  C   UNL A   1      31.833  29.718  26.334  1.00  0.00     0.202 C 
BRANCH  27  28
ATOM     28  C   UNL A   1      32.576  30.942  26.886  1.00  0.00     0.261 C 
BRANCH  28  29
ATOM     29  O   UNL A   1      33.773  30.529  27.575  1.00  0.00    -0.460 OA
BRANCH  29  30
ATOM     30  C   UNL A   1      34.611  31.538  27.955  1.00  0.00     0.338 C 
ATOM     31  O   UNL A   1      34.306  32.672  28.208  1.00  0.00    -0.246 OA
BRANCH  30  32
ATOM     32  C   UNL A   1      35.903  30.909  28.366  1.00  0.00     0.060 A 
ATOM     33  C   UNL A   1      36.968  31.623  28.921  1.00  0.00     0.016 A 
ATOM     34  C   UNL A   1      36.096  29.586  27.962  1.00  0.00     0.016 A 
ATOM     35  C   UNL A   1      38.255  31.059  28.937  1.00  0.00     0.010 A 
ATOM     36  C   UNL A   1      37.375  29.028  27.998  1.00  0.00     0.010 A 
ATOM     37  C   UNL A   1      38.480  29.778  28.415  1.00  0.00    -0.014 A 
BRANCH  37  38
ATOM     38  C   UNL A   1      39.756  29.081  28.656  1.00  0.00     0.031 A 
ATOM     39  C   UNL A   1      39.980  28.873  30.087  1.00  0.00     0.074 A 
ATOM     40  C   UNL A   1      40.708  28.562  27.849  1.00  0.00     0.049 A 
ATOM     41  N   UNL A   1      40.814  29.563  30.785  1.00  0.00    -0.248 NA
ATOM     42  C   UNL A   1      39.147  27.937  30.841  1.00  0.00     0.031 C 
ATOM     43  C   UNL A   1      40.778  28.592  26.405  1.00  0.00     0.029 A 
ATOM     44  N   UNL A   1      41.829  27.831  28.166  1.00  0.00    -0.354 N 
ATOM     45  C   UNL A   1      40.767  29.011  32.044  1.00  0.00     0.074 A 
ATOM     46  C   UNL A   1      39.611  28.147  32.073  1.00  0.00     0.031 C 
ATOM     47  C   UNL A   1      41.661  27.677  25.940  1.00  0.00     0.029 A 
ATOM     48  C   UNL A   1      42.410  27.180  27.083  1.00  0.00     0.049 A 
ATOM     49  H   UNL A   1      42.190  27.775  29.082  1.00  0.00     0.167 HD
ATOM     50  C   UNL A   1      41.839  29.106  32.867  1.00  0.00     0.031 A 
ATOM     51  C   UNL A   1      43.548  26.447  27.052  1.00  0.00     0.031 A 
ATOM     52  C   UNL A   1      42.815  30.064  32.401  1.00  0.00     0.049 A 
ATOM     53  C   UNL A   1      44.461  27.027  28.054  1.00  0.00     0.074 A 
ATOM     54  C   UNL A   1      42.824  31.422  32.162  1.00  0.00     0.029 A 
ATOM     55  N   UNL A   1      43.906  29.541  31.754  1.00  0.00    -0.354 N 
ATOM     56  N   UNL A   1      45.008  28.203  27.929  1.00  0.00    -0.248 NA
ATOM     57  C   UNL A   1      44.606  26.403  29.360  1.00  0.00     0.031 C 
ATOM     58  C   UNL A   1      43.780  31.638  31.127  1.00  0.00     0.029 A 
ATOM     59  C   UNL A   1      44.328  30.405  30.772  1.00  0.00     0.049 A 
ATOM     60  H   UNL A   1      44.326  28.675  31.962  1.00  0.00     0.167 HD
ATOM     61  C   UNL A   1      45.147  28.648  29.229  1.00  0.00     0.074 A 
ATOM     62  C   UNL A   1      45.079  27.446  30.046  1.00  0.00     0.031 C 
ATOM     63  C   UNL A   1      44.969  29.962  29.544  1.00  0.00     0.031 A 
BRANCH  50  64
ATOM     64  C   UNL A   1      42.174  28.037  33.862  1.00  0.00    -0.014 A 
ATOM     65  C   UNL A   1      43.005  26.940  33.561  1.00  0.00     0.009 A 
ATOM     66  C   UNL A   1      41.852  28.246  35.210  1.00  0.00     0.009 A 
ATOM     67  C   UNL A   1      43.456  26.063  34.546  1.00  0.00     0.001 A 
ATOM     68  C   UNL A   1      42.343  27.397  36.207  1.00  0.00     0.001 A 
ATOM     69  C   UNL A   1      43.136  26.302  35.874  1.00  0.00     0.000 A 
ENDBRANCH  50  64
BRANCH  51  70
ATOM     70  C   UNL A   1      43.913  25.258  26.249  1.00  0.00    -0.014 A 
ATOM     71  C   UNL A   1      42.974  24.688  25.371  1.00  0.00     0.009 A 
ATOM     72  C   UNL A   1      45.056  24.500  26.562  1.00  0.00     0.009 A 
ATOM     73  C   UNL A   1      43.138  23.386  24.880  1.00  0.00     0.001 A 
ATOM     74  C   UNL A   1      45.217  23.195  26.074  1.00  0.00     0.001 A 
ATOM     75  C   UNL A   1      44.247  22.631  25.250  1.00  0.00     0.000 A 
ENDBRANCH  51  70
BRANCH  63  76
ATOM     76  C   UNL A   1      45.193  30.993  28.462  1.00  0.00    -0.014 A 
ATOM     77  C   UNL A   1      44.070  31.477  27.770  1.00  0.00     0.009 A 
ATOM     78  C   UNL A   1      46.463  31.426  28.042  1.00  0.00     0.009 A 
ATOM     79  C   UNL A   1      44.207  32.358  26.694  1.00  0.00     0.001 A 
ATOM     80  C   UNL A   1      46.599  32.329  26.981  1.00  0.00     0.001 A 
ATOM     81  C   UNL A   1      45.471  32.788  26.302  1.00  0.00     0.000 A 
ENDBRANCH  63  76
ENDBRANCH  37  38
ENDBRANCH  30  32
ENDBRANCH  29  30
ENDBRANCH  28  29
ENDBRANCH  27  28
ENDBRANCH  26  27
ENDBRANCH   1  26
TORSDOF 18
ENDMDL
MODEL 2
REMARK VINA RESULT:     -10.1      2.096      4.021
REMARK SMILES Cc1ccc2[nH]c3c(=O)n(CC(=O)OCCOCCOCCOC(=O)c4ccc(-c5c6nc(c(-c7ccccc7)c7ccc([nH]7)c(-c7ccccc7)c7nc(c(-c8ccccc8)c8ccc5[nH]8)C=C7)C=C6)cc4)cnc3c2c1
REMARK SMILES IDX 19 1 18 2 17 3 16 4 15 5 14 6 12 7 13 8 11 9 10 10 1 11 2 12
REMARK SMILES IDX 3 13 78 14 4 15 77 16 5 17 76 18 6 19 7 20 75 21 8 23 74 24
REMARK SMILES IDX 9 25 20 26 21 27 22 28 23 29 24 30 25 31 26 32 27 33 73 34
REMARK SMILES IDX 28 35 72 36 29 37 30 38 31 39 66 40 32 41 71 42 65 43 67 44
REMARK SMILES IDX 33 45 70 46 64 47 63 48 34 50 56 51 41 52 55 53 42 54 45 55
REMARK SMILES IDX 54 56 68 57 43 58 44 59 53 61 69 62 46 63 35 64 36 65 40 66
REMARK SMILES IDX 37 67 39 68 38 69 57 70 58 71 62 72 59 73 61 74 60 75 47 76
REMARK SMILES IDX 48 77 52 78 49 79 51 80 50 81
REMARK H PARENT 6 22 67 49 45 60
REMARK Flexibility Score: inf
ROOT
ATOM      1  C   UNL A   1      32.982  29.008  23.672  1.00  0.00     0.188 C 
ENDROOT
BRANCH   1   2
ATOM      2  C   UNL A   1      32.848  27.613  23.041  1.00  0.00     0.188 C 
BRANCH   2   3
ATOM      3  O   UNL A   1      31.643  27.279  22.369  1.00  0.00    -0.376 OA
BRANCH   3   4
ATOM      4  C   UNL A   1      30.417  27.726  22.931  1.00  0.00     0.202 C 
BRANCH   4   5
ATOM      5  C   UNL A   1      29.750  26.735  23.886  1.00  0.00     0.261 C 
BRANCH   5   6
ATOM      6  O   UNL A   1      30.287  26.882  25.223  1.00  0.00    -0.462 OA
BRANCH   6   7
ATOM      7  C   UNL A   1      30.611  25.721  25.838  1.00  0.00     0.326 C 
ATOM      8  O   UNL A   1      29.851  25.115  26.588  1.00  0.00    -0.250 OA
BRANCH   7   9
ATOM      9  C   UNL A   1      31.922  25.092  25.365  1.00  0.00     0.249 C 
BRANCH   9  10
ATOM     10  N   UNL A   1      32.195  23.677  25.210  1.00  0.00    -0.286 N 
ATOM     11  C   UNL A   1      32.977  15.944  25.528  1.00  0.00     0.044 C 
ATOM     12  C   UNL A   1      32.837  17.225  24.762  1.00  0.00    -0.050 A 
ATOM     13  C   UNL A   1      32.791  17.216  23.362  1.00  0.00     0.005 A 
ATOM     14  C   UNL A   1      32.783  18.442  25.459  1.00  0.00     0.016 A 
ATOM     15  C   UNL A   1      32.571  18.387  22.632  1.00  0.00     0.027 A 
ATOM     16  C   UNL A   1      32.575  19.634  24.749  1.00  0.00     0.026 A 
ATOM     17  C   UNL A   1      32.415  19.570  23.357  1.00  0.00     0.048 A 
ATOM     18  C   UNL A   1      32.477  20.994  25.098  1.00  0.00     0.103 A 
ATOM     19  N   UNL A   1      32.085  20.837  22.927  1.00  0.00    -0.349 N 
ATOM     20  C   UNL A   1      32.088  21.686  23.996  1.00  0.00     0.132 A 
ATOM     21  N   UNL A   1      32.670  21.611  26.340  1.00  0.00    -0.236 NA
ATOM     22  H   UNL A   1      31.879  21.091  21.998  1.00  0.00     0.167 HD
ATOM     23  C   UNL A   1      31.746  23.050  24.058  1.00  0.00     0.278 A 
ATOM     24  C   UNL A   1      32.557  22.905  26.297  1.00  0.00     0.203 A 
ATOM     25  O   UNL A   1      31.040  23.585  23.210  1.00  0.00    -0.267 OA
ENDBRANCH   9  10
ENDBRANCH   7   9
ENDBRANCH   6   7
ENDBRANCH   5   6
ENDBRANCH   4   5
ENDBRANCH   3   4
ENDBRANCH   2   3
ENDBRANCH   1   2
BRANCH   1  26
ATOM     26  O   UNL A   1      32.819  29.142  25.073  1.00  0.00    -0.376 OA
BRANCH  26  27
ATOM     27  C   UNL A   1      31.908  30.140  25.522  1.00  0.00     0.202 C 
BRANCH  27  28
ATOM     28  C   UNL A   1      32.324  30.852  26.816  1.00  0.00     0.261 C 
BRANCH  28  29
ATOM     29  O   UNL A   1      33.669  30.480  27.179  1.00  0.00    -0.460 OA
BRANCH  29  30
ATOM     30  C   UNL A   1      34.432  31.480  27.712  1.00  0.00     0.338 C 
ATOM     31  O   UNL A   1      34.063  32.579  28.025  1.00  0.00    -0.246 OA
BRANCH  30  32
ATOM     32  C   UNL A   1      35.704  30.858  28.190  1.00  0.00     0.060 A 
ATOM     33  C   UNL A   1      36.773  31.590  28.714  1.00  0.00     0.016 A 
ATOM     34  C   UNL A   1      35.880  29.508  27.881  1.00  0.00     0.016 A 
ATOM     35  C   UNL A   1      38.048  31.007  28.793  1.00  0.00     0.010 A 
ATOM     36  C   UNL A   1      37.148  28.931  27.979  1.00  0.00     0.010 A 
ATOM     37  C   UNL A   1      38.259  29.689  28.364  1.00  0.00    -0.014 A 
BRANCH  37  38
ATOM     38  C   UNL A   1      39.517  28.989  28.676  1.00  0.00     0.031 A 
ATOM     39  C   UNL A   1      39.716  28.881  30.122  1.00  0.00     0.074 A 
ATOM     40  C   UNL A   1      40.471  28.395  27.925  1.00  0.00     0.049 A 
ATOM     41  N   UNL A   1      40.552  29.606  30.782  1.00  0.00    -0.248 NA
ATOM     42  C   UNL A   1      38.853  28.018  30.928  1.00  0.00     0.031 C 
ATOM     43  C   UNL A   1      40.563  28.318  26.484  1.00  0.00     0.029 A 
ATOM     44  N   UNL A   1      41.573  27.669  28.313  1.00  0.00    -0.354 N 
ATOM     45  C   UNL A   1      40.476  29.148  32.076  1.00  0.00     0.074 A 
ATOM     46  C   UNL A   1      39.303  28.310  32.149  1.00  0.00     0.031 C 
ATOM     47  C   UNL A   1      41.435  27.355  26.101  1.00  0.00     0.029 A 
ATOM     48  C   UNL A   1      42.157  26.929  27.290  1.00  0.00     0.049 A 
ATOM     49  H   UNL A   1      41.918  27.673  29.236  1.00  0.00     0.167 HD
ATOM     50  C   UNL A   1      41.537  29.284  32.908  1.00  0.00     0.031 A 
ATOM     51  C   UNL A   1      43.281  26.175  27.331  1.00  0.00     0.031 A 
ATOM     52  C   UNL A   1      42.538  30.187  32.389  1.00  0.00     0.049 A 
ATOM     53  C   UNL A   1      44.190  26.810  28.302  1.00  0.00     0.074 A 
ATOM     54  C   UNL A   1      42.577  31.524  32.052  1.00  0.00     0.029 A 
ATOM     55  N   UNL A   1      43.629  29.598  31.799  1.00  0.00    -0.354 N 
ATOM     56  N   UNL A   1      44.761  27.964  28.101  1.00  0.00    -0.248 NA
ATOM     57  C   UNL A   1      44.303  26.281  29.652  1.00  0.00     0.031 C 
ATOM     58  C   UNL A   1      43.553  31.645  31.020  1.00  0.00     0.029 A 
ATOM     59  C   UNL A   1      44.082  30.380  30.764  1.00  0.00     0.049 A 
ATOM     60  H   UNL A   1      44.028  28.742  32.078  1.00  0.00     0.167 HD
ATOM     61  C   UNL A   1      44.889  28.500  29.368  1.00  0.00     0.074 A 
ATOM     62  C   UNL A   1      44.786  27.362  30.269  1.00  0.00     0.031 C 
ATOM     63  C   UNL A   1      44.732  29.837  29.582  1.00  0.00     0.031 A 
BRANCH  50  64
ATOM     64  C   UNL A   1      41.836  28.285  33.984  1.00  0.00    -0.014 A 
ATOM     65  C   UNL A   1      42.595  27.118  33.760  1.00  0.00     0.009 A 
ATOM     66  C   UNL A   1      41.562  28.625  35.316  1.00  0.00     0.009 A 
ATOM     67  C   UNL A   1      43.020  26.302  34.806  1.00  0.00     0.001 A 
ATOM     68  C   UNL A   1      42.030  27.836  36.371  1.00  0.00     0.001 A 
ATOM     69  C   UNL A   1      42.750  26.671  36.115  1.00  0.00     0.000 A 
ENDBRANCH  50  64
BRANCH  51  70
ATOM     70  C   UNL A   1      43.634  24.924  26.622  1.00  0.00    -0.014 A 
ATOM     71  C   UNL A   1      44.557  24.953  25.562  1.00  0.00     0.009 A 
ATOM     72  C   UNL A   1      42.851  23.765  26.773  1.00  0.00     0.009 A 
ATOM     73  C   UNL A   1      44.644  23.894  24.648  1.00  0.00     0.001 A 
ATOM     74  C   UNL A   1      42.935  22.708  25.855  1.00  0.00     0.001 A 
ATOM     75  C   UNL A   1      43.817  22.783  24.781  1.00  0.00     0.000 A 
ENDBRANCH  51  70
BRANCH  63  76
ATOM     76  C   UNL A   1      44.993  30.782  28.433  1.00  0.00    -0.014 A 
ATOM     77  C   UNL A   1      46.317  31.193  28.205  1.00  0.00     0.009 A 
ATOM     78  C   UNL A   1      43.981  31.349  27.638  1.00  0.00     0.009 A 
ATOM     79  C   UNL A   1      46.623  32.138  27.223  1.00  0.00     0.001 A 
ATOM     80  C   UNL A   1      44.290  32.277  26.636  1.00  0.00     0.001 A 
ATOM     81  C   UNL A   1      45.611  32.677  26.435  1.00  0.00     0.000 A 
ENDBRANCH  63  76
ENDBRANCH  37  38
ENDBRANCH  30  32
ENDBRANCH  29  30
ENDBRANCH  28  29
ENDBRANCH  27  28
ENDBRANCH  26  27
ENDBRANCH   1  26
TORSDOF 18
ENDMDL
MODEL 3
REMARK VINA RESULT:      -9.7      2.193      5.478
REMARK SMILES Cc1ccc2[nH]c3c(=O)n(CC(=O)OCCOCCOCCOC(=O)c4ccc(-c5c6nc(c(-c7ccccc7)c7ccc([nH]7)c(-c7ccccc7)c7nc(c(-c8ccccc8)c8ccc5[nH]8)C=C7)C=C6)cc4)cnc3c2c1
REMARK SMILES IDX 19 1 18 2 17 3 16 4 15 5 14 6 12 7 13 8 11 9 10 10 1 11 2 12
REMARK SMILES IDX 3 13 78 14 4 15 77 16 5 17 76 18 6 19 7 20 75 21 8 23 74 24
REMARK SMILES IDX 9 25 20 26 21 27 22 28 23 29 24 30 25 31 26 32 27 33 73 34
REMARK SMILES IDX 28 35 72 36 29 37 30 38 31 39 66 40 32 41 71 42 65 43 67 44
REMARK SMILES IDX 33 45 70 46 64 47 63 48 34 50 56 51 41 52 55 53 42 54 45 55
REMARK SMILES IDX 54 56 68 57 43 58 44 59 53 61 69 62 46 63 35 64 36 65 40 66
REMARK SMILES IDX 37 67 39 68 38 69 57 70 58 71 62 72 59 73 61 74 60 75 47 76
REMARK SMILES IDX 48 77 52 78 49 79 51 80 50 81
REMARK H PARENT 6 22 67 49 45 60
REMARK Flexibility Score: inf
ROOT
ATOM      1  C   UNL A   1      31.706  27.818  27.536  1.00  0.00     0.188 C 
ENDROOT
BRANCH   1   2
ATOM      2  C   UNL A   1      31.412  26.870  26.362  1.00  0.00     0.188 C 
BRANCH   2   3
ATOM      3  O   UNL A   1      32.011  25.584  26.355  1.00  0.00    -0.376 OA
BRANCH   3   4
ATOM      4  C   UNL A   1      33.414  25.500  26.146  1.00  0.00     0.202 C 
BRANCH   4   5
ATOM      5  C   UNL A   1      33.991  24.085  26.220  1.00  0.00     0.261 C 
BRANCH   5   6
ATOM      6  O   UNL A   1      34.459  23.662  24.916  1.00  0.00    -0.462 OA
BRANCH   6   7
ATOM      7  C   UNL A   1      33.547  22.996  24.171  1.00  0.00     0.326 C 
ATOM      8  O   UNL A   1      33.021  21.944  24.525  1.00  0.00    -0.250 OA
BRANCH   7   9
ATOM      9  C   UNL A   1      33.046  23.756  22.943  1.00  0.00     0.249 C 
BRANCH   9  10
ATOM     10  N   UNL A   1      32.274  24.983  22.942  1.00  0.00    -0.286 N 
ATOM     11  C   UNL A   1      28.683  31.775  21.727  1.00  0.00     0.044 C 
ATOM     12  C   UNL A   1      28.730  30.394  22.308  1.00  0.00    -0.050 A 
ATOM     13  C   UNL A   1      27.642  29.887  23.029  1.00  0.00     0.005 A 
ATOM     14  C   UNL A   1      29.890  29.620  22.149  1.00  0.00     0.016 A 
ATOM     15  C   UNL A   1      27.628  28.572  23.501  1.00  0.00     0.027 A 
ATOM     16  C   UNL A   1      29.908  28.300  22.624  1.00  0.00     0.026 A 
ATOM     17  C   UNL A   1      28.754  27.789  23.237  1.00  0.00     0.048 A 
ATOM     18  C   UNL A   1      30.863  27.266  22.649  1.00  0.00     0.103 A 
ATOM     19  N   UNL A   1      28.981  26.450  23.478  1.00  0.00    -0.349 N 
ATOM     20  C   UNL A   1      30.249  26.135  23.083  1.00  0.00     0.132 A 
ATOM     21  N   UNL A   1      32.209  27.287  22.265  1.00  0.00    -0.236 NA
ATOM     22  H   UNL A   1      28.333  25.822  23.871  1.00  0.00     0.167 HD
ATOM     23  C   UNL A   1      30.897  24.885  23.068  1.00  0.00     0.278 A 
ATOM     24  C   UNL A   1      32.824  26.162  22.477  1.00  0.00     0.203 A 
ATOM     25  O   UNL A   1      30.277  23.828  23.072  1.00  0.00    -0.267 OA
ENDBRANCH   9  10
ENDBRANCH   7   9
ENDBRANCH   6   7
ENDBRANCH   5   6
ENDBRANCH   4   5
ENDBRANCH   3   4
ENDBRANCH   2   3
ENDBRANCH   1   2
BRANCH   1  26
ATOM     26  O   UNL A   1      31.368  29.188  27.410  1.00  0.00    -0.376 OA
BRANCH  26  27
ATOM     27  C   UNL A   1      32.067  29.935  26.420  1.00  0.00     0.202 C 
BRANCH  27  28
ATOM     28  C   UNL A   1      32.623  31.280  26.904  1.00  0.00     0.261 C 
BRANCH  28  29
ATOM     29  O   UNL A   1      33.639  31.067  27.904  1.00  0.00    -0.460 OA
BRANCH  29  30
ATOM     30  C   UNL A   1      34.614  32.022  27.965  1.00  0.00     0.338 C 
ATOM     31  O   UNL A   1      34.457  33.213  27.964  1.00  0.00    -0.246 OA
BRANCH  30  32
ATOM     32  C   UNL A   1      35.869  31.344  28.411  1.00  0.00     0.060 A 
ATOM     33  C   UNL A   1      36.924  32.009  29.042  1.00  0.00     0.016 A 
ATOM     34  C   UNL A   1      36.049  30.033  27.967  1.00  0.00     0.016 A 
ATOM     35  C   UNL A   1      38.195  31.412  29.097  1.00  0.00     0.010 A 
ATOM     36  C   UNL A   1      37.311  29.440  28.041  1.00  0.00     0.010 A 
ATOM     37  C   UNL A   1      38.413  30.145  28.538  1.00  0.00    -0.014 A 
BRANCH  37  38
ATOM     38  C   UNL A   1      39.659  29.407  28.811  1.00  0.00     0.031 A 
ATOM     39  C   UNL A   1      39.884  29.270  30.251  1.00  0.00     0.074 A 
ATOM     40  C   UNL A   1      40.581  28.802  28.030  1.00  0.00     0.049 A 
ATOM     41  N   UNL A   1      40.753  29.961  30.904  1.00  0.00    -0.248 NA
ATOM     42  C   UNL A   1      39.016  28.416  31.060  1.00  0.00     0.031 C 
ATOM     43  C   UNL A   1      40.641  28.747  26.587  1.00  0.00     0.029 A 
ATOM     44  N   UNL A   1      41.671  28.041  28.383  1.00  0.00    -0.354 N 
ATOM     45  C   UNL A   1      40.691  29.483  32.193  1.00  0.00     0.074 A 
ATOM     46  C   UNL A   1      39.498  28.674  32.276  1.00  0.00     0.031 C 
ATOM     47  C   UNL A   1      41.480  27.769  26.169  1.00  0.00     0.029 A 
ATOM     48  C   UNL A   1      42.214  27.304  27.336  1.00  0.00     0.049 A 
ATOM     49  H   UNL A   1      42.035  28.020  29.298  1.00  0.00     0.167 HD
ATOM     50  C   UNL A   1      41.772  29.576  33.004  1.00  0.00     0.031 A 
ATOM     51  C   UNL A   1      43.319  26.521  27.340  1.00  0.00     0.031 A 
ATOM     52  C   UNL A   1      42.786  30.462  32.479  1.00  0.00     0.049 A 
ATOM     53  C   UNL A   1      44.263  27.115  28.303  1.00  0.00     0.074 A 
ATOM     54  C   UNL A   1      42.853  31.803  32.164  1.00  0.00     0.029 A 
ATOM     55  N   UNL A   1      43.848  29.856  31.857  1.00  0.00    -0.354 N 
ATOM     56  N   UNL A   1      44.861  28.257  28.109  1.00  0.00    -0.248 NA
ATOM     57  C   UNL A   1      44.391  26.560  29.641  1.00  0.00     0.031 C 
ATOM     58  C   UNL A   1      43.810  31.917  31.114  1.00  0.00     0.029 A 
ATOM     59  C   UNL A   1      44.300  30.643  30.826  1.00  0.00     0.049 A 
ATOM     60  H   UNL A   1      44.231  28.985  32.112  1.00  0.00     0.167 HD
ATOM     61  C   UNL A   1      45.029  28.767  29.381  1.00  0.00     0.074 A 
ATOM     62  C   UNL A   1      44.914  27.617  30.265  1.00  0.00     0.031 C 
ATOM     63  C   UNL A   1      44.912  30.104  29.622  1.00  0.00     0.031 A 
BRANCH  50  64
ATOM     64  C   UNL A   1      42.067  28.552  34.056  1.00  0.00    -0.014 A 
ATOM     65  C   UNL A   1      41.614  28.662  35.386  1.00  0.00     0.009 A 
ATOM     66  C   UNL A   1      42.609  27.319  33.665  1.00  0.00     0.009 A 
ATOM     67  C   UNL A   1      41.735  27.615  36.297  1.00  0.00     0.001 A 
ATOM     68  C   UNL A   1      42.687  26.250  34.562  1.00  0.00     0.001 A 
ATOM     69  C   UNL A   1      42.259  26.401  35.879  1.00  0.00     0.000 A 
ENDBRANCH  50  64
BRANCH  51  70
ATOM     70  C   UNL A   1      43.624  25.273  26.604  1.00  0.00    -0.014 A 
ATOM     71  C   UNL A   1      44.829  25.156  25.889  1.00  0.00     0.009 A 
ATOM     72  C   UNL A   1      42.617  24.325  26.343  1.00  0.00     0.009 A 
ATOM     73  C   UNL A   1      44.996  24.172  24.905  1.00  0.00     0.001 A 
ATOM     74  C   UNL A   1      42.783  23.344  25.355  1.00  0.00     0.001 A 
ATOM     75  C   UNL A   1      43.964  23.281  24.622  1.00  0.00     0.000 A 
ENDBRANCH  51  70
BRANCH  63  76
ATOM     76  C   UNL A   1      45.173  31.061  28.482  1.00  0.00    -0.014 A 
ATOM     77  C   UNL A   1      44.097  31.396  27.643  1.00  0.00     0.009 A 
ATOM     78  C   UNL A   1      46.445  31.561  28.154  1.00  0.00     0.009 A 
ATOM     79  C   UNL A   1      44.282  32.198  26.514  1.00  0.00     0.001 A 
ATOM     80  C   UNL A   1      46.627  32.386  27.037  1.00  0.00     0.001 A 
ATOM     81  C   UNL A   1      45.545  32.697  26.213  1.00  0.00     0.000 A 
ENDBRANCH  63  76
ENDBRANCH  37  38
ENDBRANCH  30  32
ENDBRANCH  29  30
ENDBRANCH  28  29
ENDBRANCH  27  28
ENDBRANCH  26  27
ENDBRANCH   1  26
TORSDOF 18
ENDMDL
