MODEL 1
REMARK VINA RESULT:     -11.5      0.000      0.000
REMARK SMILES Cc1ccc(N2C(=O)C[C@H](Sc3ccccc3C(=O)OCCOCCOCCOC(=O)c3ccc(-c4c5nc(c(-c6ccccc6)c6ccc([nH]6)c(-c6ccccc6)c6nc(c(-c7ccccc7)c7ccc4[nH]7)C=C6)C=C5)cc3)C2=O)cc1
REMARK SMILES IDX 24 1 23 2 22 3 21 4 20 5 18 6 19 7 17 8 12 9 13 10 14 11
REMARK SMILES IDX 16 12 15 13 11 14 10 15 6 16 7 17 80 18 8 19 9 20 81 21 5 22
REMARK SMILES IDX 1 23 2 24 3 25 83 26 4 27 82 28 25 29 26 30 27 31 28 32
REMARK SMILES IDX 29 33 30 34 31 35 32 36 33 37 79 38 34 39 78 40 35 41 36 42
REMARK SMILES IDX 37 43 72 44 38 45 77 46 71 47 73 48 39 49 76 50 70 51 69 52
REMARK SMILES IDX 40 54 62 55 47 56 61 57 48 58 51 59 60 60 74 61 49 62 50 63
REMARK SMILES IDX 59 65 75 66 52 67 41 68 42 69 46 70 43 71 45 72 44 73 63 74
REMARK SMILES IDX 64 75 68 76 65 77 67 78 66 79 53 80 54 81 58 82 55 83 57 84
REMARK SMILES IDX 56 85
REMARK H PARENT 73 53 51 64
REMARK Flexibility Score: inf
ROOT
ATOM      1  C   UNL A   1      35.649  20.990  24.946  1.00  0.00     0.188 C 
ENDROOT
BRANCH   1   2
ATOM      2  O   UNL A   1      34.917  21.165  26.137  1.00  0.00    -0.376 OA
BRANCH   2   3
ATOM      3  C   UNL A   1      34.851  22.509  26.600  1.00  0.00     0.202 C 
BRANCH   3   4
ATOM      4  C   UNL A   1      33.809  22.960  27.651  1.00  0.00     0.261 C 
BRANCH   4   5
ATOM      5  O   UNL A   1      32.336  22.773  27.744  1.00  0.00    -0.460 OA
BRANCH   5   6
ATOM      6  C   UNL A   1      31.292  22.962  26.897  1.00  0.00     0.339 C 
ATOM      7  O   UNL A   1      30.164  23.230  27.200  1.00  0.00    -0.246 OA
BRANCH   6   8
ATOM      8  C   UNL A   1      31.584  22.542  25.509  1.00  0.00     0.073 A 
ATOM      9  C   UNL A   1      31.618  23.412  24.418  1.00  0.00     0.023 A 
ATOM     10  C   UNL A   1      32.017  22.902  23.169  1.00  0.00     0.016 A 
ATOM     11  C   UNL A   1      32.306  21.545  22.994  1.00  0.00     0.001 A 
ATOM     12  C   UNL A   1      31.693  21.159  25.280  1.00  0.00     0.017 A 
ATOM     13  C   UNL A   1      32.095  20.662  24.041  1.00  0.00     0.001 A 
BRANCH   9  14
ATOM     14  S   UNL A   1      30.782  24.993  24.397  1.00  0.00    -0.111 SA
BRANCH  14  15
ATOM     15  C   UNL A   1      32.097  26.200  24.572  1.00  0.00     0.151 C 
ATOM     16  N   UNL A   1      32.796  28.182  25.489  1.00  0.00    -0.250 N 
ATOM     17  C   UNL A   1      32.961  28.296  24.127  1.00  0.00     0.235 C 
ATOM     18  C   UNL A   1      32.150  27.013  25.843  1.00  0.00     0.247 C 
ATOM     19  O   UNL A   1      33.563  29.144  23.486  1.00  0.00    -0.274 OA
ATOM     20  C   UNL A   1      32.093  27.261  23.511  1.00  0.00     0.126 C 
ATOM     21  O   UNL A   1      31.823  26.634  26.958  1.00  0.00    -0.273 OA
BRANCH  16  22
ATOM     22  C   UNL A   1      33.278  29.155  26.370  1.00  0.00     0.052 A 
ATOM     23  C   UNL A   1      35.139  32.325  28.578  1.00  0.00     0.044 C 
ATOM     24  C   UNL A   1      34.459  31.213  27.841  1.00  0.00    -0.051 A 
ATOM     25  C   UNL A   1      35.174  30.044  27.579  1.00  0.00     0.005 A 
ATOM     26  C   UNL A   1      33.125  31.317  27.421  1.00  0.00     0.005 A 
ATOM     27  C   UNL A   1      34.593  29.033  26.829  1.00  0.00     0.027 A 
ATOM     28  C   UNL A   1      32.523  30.280  26.704  1.00  0.00     0.027 A 
ENDBRANCH  16  22
ENDBRANCH  14  15
ENDBRANCH   9  14
ENDBRANCH   6   8
ENDBRANCH   5   6
ENDBRANCH   4   5
ENDBRANCH   3   4
ENDBRANCH   2   3
ENDBRANCH   1   2
BRANCH   1  29
ATOM     29  C   UNL A   1      36.620  19.793  24.921  1.00  0.00     0.188 C 
BRANCH  29  30
ATOM     30  O   UNL A   1      37.998  20.184  24.909  1.00  0.00    -0.376 OA
BRANCH  30  31
ATOM     31  C   UNL A   1      38.259  21.480  25.440  1.00  0.00     0.202 C 
BRANCH  31  32
ATOM     32  C   UNL A   1      39.657  21.633  26.057  1.00  0.00     0.261 C 
BRANCH  32  33
ATOM     33  O   UNL A   1      40.151  20.329  26.408  1.00  0.00    -0.460 OA
BRANCH  33  34
ATOM     34  C   UNL A   1      41.437  20.081  26.065  1.00  0.00     0.338 C 
ATOM     35  O   UNL A   1      41.867  19.048  25.581  1.00  0.00    -0.246 OA
BRANCH  34  36
ATOM     36  C   UNL A   1      42.295  21.174  26.605  1.00  0.00     0.060 A 
ATOM     37  C   UNL A   1      42.326  21.389  27.981  1.00  0.00     0.016 A 
ATOM     38  C   UNL A   1      42.862  22.131  25.756  1.00  0.00     0.016 A 
ATOM     39  C   UNL A   1      42.769  22.625  28.475  1.00  0.00     0.010 A 
ATOM     40  C   UNL A   1      43.213  23.387  26.252  1.00  0.00     0.010 A 
ATOM     41  C   UNL A   1      43.056  23.694  27.610  1.00  0.00    -0.014 A 
BRANCH  41  42
ATOM     42  C   UNL A   1      43.260  25.127  27.996  1.00  0.00     0.031 A 
ATOM     43  C   UNL A   1      42.026  25.944  27.983  1.00  0.00     0.074 A 
ATOM     44  C   UNL A   1      44.390  25.760  28.473  1.00  0.00     0.049 A 
ATOM     45  N   UNL A   1      41.994  27.235  27.879  1.00  0.00    -0.248 NA
ATOM     46  C   UNL A   1      40.699  25.320  27.932  1.00  0.00     0.031 C 
ATOM     47  C   UNL A   1      44.383  26.783  29.519  1.00  0.00     0.029 A 
ATOM     48  N   UNL A   1      45.762  25.693  28.172  1.00  0.00    -0.354 N 
ATOM     49  C   UNL A   1      40.715  27.579  28.242  1.00  0.00     0.074 A 
ATOM     50  C   UNL A   1      39.925  26.404  27.967  1.00  0.00     0.031 C 
ATOM     51  C   UNL A   1      45.616  27.298  29.686  1.00  0.00     0.029 A 
ATOM     52  C   UNL A   1      46.523  26.763  28.676  1.00  0.00     0.049 A 
ATOM     53  H   UNL A   1      46.158  24.959  27.651  1.00  0.00     0.167 HD
ATOM     54  C   UNL A   1      40.518  28.647  29.071  1.00  0.00     0.031 A 
ATOM     55  C   UNL A   1      47.566  27.420  28.046  1.00  0.00     0.031 A 
ATOM     56  C   UNL A   1      41.740  29.440  29.282  1.00  0.00     0.049 A 
ATOM     57  C   UNL A   1      47.156  28.860  27.808  1.00  0.00     0.074 A 
ATOM     58  C   UNL A   1      42.553  29.618  30.392  1.00  0.00     0.029 A 
ATOM     59  N   UNL A   1      42.440  29.986  28.205  1.00  0.00    -0.354 N 
ATOM     60  N   UNL A   1      45.959  29.284  28.072  1.00  0.00    -0.248 NA
ATOM     61  C   UNL A   1      47.967  29.891  27.156  1.00  0.00     0.031 C 
ATOM     62  C   UNL A   1      43.729  30.286  29.988  1.00  0.00     0.029 A 
ATOM     63  C   UNL A   1      43.649  30.508  28.626  1.00  0.00     0.049 A 
ATOM     64  H   UNL A   1      42.116  29.999  27.275  1.00  0.00     0.167 HD
ATOM     65  C   UNL A   1      45.793  30.541  27.591  1.00  0.00     0.074 A 
ATOM     66  C   UNL A   1      47.078  30.892  27.021  1.00  0.00     0.031 C 
ATOM     67  C   UNL A   1      44.580  31.144  27.701  1.00  0.00     0.031 A 
BRANCH  54  68
ATOM     68  C   UNL A   1      39.331  28.689  30.030  1.00  0.00    -0.014 A 
ATOM     69  C   UNL A   1      38.191  29.442  29.695  1.00  0.00     0.009 A 
ATOM     70  C   UNL A   1      39.302  28.105  31.308  1.00  0.00     0.009 A 
ATOM     71  C   UNL A   1      37.167  29.710  30.615  1.00  0.00     0.001 A 
ATOM     72  C   UNL A   1      38.300  28.386  32.247  1.00  0.00     0.001 A 
ATOM     73  C   UNL A   1      37.238  29.207  31.905  1.00  0.00     0.000 A 
ENDBRANCH  54  68
BRANCH  55  74
ATOM     74  C   UNL A   1      48.610  26.775  27.146  1.00  0.00    -0.014 A 
ATOM     75  C   UNL A   1      48.522  26.901  25.750  1.00  0.00     0.009 A 
ATOM     76  C   UNL A   1      49.748  26.087  27.626  1.00  0.00     0.009 A 
ATOM     77  C   UNL A   1      49.588  26.539  24.899  1.00  0.00     0.001 A 
ATOM     78  C   UNL A   1      50.805  25.700  26.778  1.00  0.00     0.001 A 
ATOM     79  C   UNL A   1      50.741  25.960  25.416  1.00  0.00     0.000 A 
ENDBRANCH  55  74
BRANCH  67  80
ATOM     80  C   UNL A   1      44.231  32.452  27.077  1.00  0.00    -0.014 A 
ATOM     81  C   UNL A   1      44.133  32.658  25.696  1.00  0.00     0.009 A 
ATOM     82  C   UNL A   1      43.887  33.521  27.926  1.00  0.00     0.009 A 
ATOM     83  C   UNL A   1      43.767  33.907  25.186  1.00  0.00     0.001 A 
ATOM     84  C   UNL A   1      43.487  34.754  27.422  1.00  0.00     0.001 A 
ATOM     85  C   UNL A   1      43.442  34.952  26.049  1.00  0.00     0.000 A 
ENDBRANCH  67  80
ENDBRANCH  41  42
ENDBRANCH  34  36
ENDBRANCH  33  34
ENDBRANCH  32  33
ENDBRANCH  31  32
ENDBRANCH  30  31
ENDBRANCH  29  30
ENDBRANCH   1  29
TORSDOF 20
ENDMDL
MODEL 2
REMARK VINA RESULT:     -11.0      4.159     10.163
REMARK SMILES Cc1ccc(N2C(=O)C[C@H](Sc3ccccc3C(=O)OCCOCCOCCOC(=O)c3ccc(-c4c5nc(c(-c6ccccc6)c6ccc([nH]6)c(-c6ccccc6)c6nc(c(-c7ccccc7)c7ccc4[nH]7)C=C6)C=C5)cc3)C2=O)cc1
REMARK SMILES IDX 24 1 23 2 22 3 21 4 20 5 18 6 19 7 17 8 12 9 13 10 14 11
REMARK SMILES IDX 16 12 15 13 11 14 10 15 6 16 7 17 80 18 8 19 9 20 81 21 5 22
REMARK SMILES IDX 1 23 2 24 3 25 83 26 4 27 82 28 25 29 26 30 27 31 28 32
REMARK SMILES IDX 29 33 30 34 31 35 32 36 33 37 79 38 34 39 78 40 35 41 36 42
REMARK SMILES IDX 37 43 72 44 38 45 77 46 71 47 73 48 39 49 76 50 70 51 69 52
REMARK SMILES IDX 40 54 62 55 47 56 61 57 48 58 51 59 60 60 74 61 49 62 50 63
REMARK SMILES IDX 59 65 75 66 52 67 41 68 42 69 46 70 43 71 45 72 44 73 63 74
REMARK SMILES IDX 64 75 68 76 65 77 67 78 66 79 53 80 54 81 58 82 55 83 57 84
REMARK SMILES IDX 56 85
REMARK H PARENT 73 53 51 64
REMARK Flexibility Score: inf
ROOT
ATOM      1  C   UNL A   1      32.471  28.626  26.951  1.00  0.00     0.188 C 
ENDROOT
BRANCH   1   2
ATOM      2  O   UNL A   1      33.318  27.963  26.041  1.00  0.00    -0.376 OA
BRANCH   2   3
ATOM      3  C   UNL A   1      33.379  26.551  26.209  1.00  0.00     0.202 C 
BRANCH   3   4
ATOM      4  C   UNL A   1      34.110  25.640  25.194  1.00  0.00     0.261 C 
BRANCH   4   5
ATOM      5  O   UNL A   1      34.210  25.672  23.711  1.00  0.00    -0.460 OA
BRANCH   5   6
ATOM      6  C   UNL A   1      33.317  25.770  22.693  1.00  0.00     0.339 C 
ATOM      7  O   UNL A   1      33.557  25.707  21.521  1.00  0.00    -0.246 OA
BRANCH   6   8
ATOM      8  C   UNL A   1      31.985  26.243  23.130  1.00  0.00     0.073 A 
ATOM      9  C   UNL A   1      30.936  25.400  23.496  1.00  0.00     0.023 A 
ATOM     10  C   UNL A   1      29.756  25.979  23.999  1.00  0.00     0.016 A 
ATOM     11  C   UNL A   1      29.598  27.367  24.067  1.00  0.00     0.001 A 
ATOM     12  C   UNL A   1      31.743  27.625  23.029  1.00  0.00     0.017 A 
ATOM     13  C   UNL A   1      30.575  28.193  23.535  1.00  0.00     0.001 A 
BRANCH   9  14
ATOM     14  S   UNL A   1      30.816  23.695  22.968  1.00  0.00    -0.111 SA
BRANCH  14  15
ATOM     15  C   UNL A   1      32.084  22.842  23.907  1.00  0.00     0.151 C 
ATOM     16  N   UNL A   1      32.825  20.871  24.815  1.00  0.00    -0.250 N 
ATOM     17  C   UNL A   1      32.768  21.785  25.844  1.00  0.00     0.235 C 
ATOM     18  C   UNL A   1      32.299  21.372  23.640  1.00  0.00     0.247 C 
ATOM     19  O   UNL A   1      33.222  21.709  26.976  1.00  0.00    -0.274 OA
ATOM     20  C   UNL A   1      31.864  22.871  25.392  1.00  0.00     0.126 C 
ATOM     21  O   UNL A   1      32.169  20.806  22.565  1.00  0.00    -0.273 OA
BRANCH  16  22
ATOM     22  C   UNL A   1      33.394  19.606  24.988  1.00  0.00     0.052 A 
ATOM     23  C   UNL A   1      34.791  15.552  24.993  1.00  0.00     0.044 C 
ATOM     24  C   UNL A   1      34.334  16.977  25.023  1.00  0.00    -0.051 A 
ATOM     25  C   UNL A   1      33.033  17.258  25.441  1.00  0.00     0.005 A 
ATOM     26  C   UNL A   1      35.185  18.030  24.653  1.00  0.00     0.005 A 
ATOM     27  C   UNL A   1      32.562  18.561  25.401  1.00  0.00     0.027 A 
ATOM     28  C   UNL A   1      34.724  19.349  24.655  1.00  0.00     0.027 A 
ENDBRANCH  16  22
ENDBRANCH  14  15
ENDBRANCH   9  14
ENDBRANCH   6   8
ENDBRANCH   5   6
ENDBRANCH   4   5
ENDBRANCH   3   4
ENDBRANCH   2   3
ENDBRANCH   1   2
BRANCH   1  29
ATOM     29  C   UNL A   1      32.756  30.125  27.170  1.00  0.00     0.188 C 
BRANCH  29  30
ATOM     30  O   UNL A   1      31.960  30.978  26.339  1.00  0.00    -0.376 OA
BRANCH  30  31
ATOM     31  C   UNL A   1      31.392  32.103  27.003  1.00  0.00     0.202 C 
BRANCH  31  32
ATOM     32  C   UNL A   1      32.246  33.376  26.919  1.00  0.00     0.261 C 
BRANCH  32  33
ATOM     33  O   UNL A   1      33.372  33.235  27.803  1.00  0.00    -0.460 OA
BRANCH  33  34
ATOM     34  C   UNL A   1      33.346  34.018  28.908  1.00  0.00     0.338 C 
ATOM     35  O   UNL A   1      32.488  34.837  29.190  1.00  0.00    -0.246 OA
BRANCH  34  36
ATOM     36  C   UNL A   1      34.660  33.909  29.602  1.00  0.00     0.060 A 
ATOM     37  C   UNL A   1      35.820  34.247  28.907  1.00  0.00     0.016 A 
ATOM     38  C   UNL A   1      34.775  33.247  30.829  1.00  0.00     0.016 A 
ATOM     39  C   UNL A   1      37.059  33.773  29.363  1.00  0.00     0.010 A 
ATOM     40  C   UNL A   1      35.999  32.705  31.222  1.00  0.00     0.010 A 
ATOM     41  C   UNL A   1      37.142  32.859  30.427  1.00  0.00    -0.014 A 
BRANCH  41  42
ATOM     42  C   UNL A   1      38.346  32.064  30.831  1.00  0.00     0.031 A 
ATOM     43  C   UNL A   1      38.471  30.757  30.148  1.00  0.00     0.074 A 
ATOM     44  C   UNL A   1      39.405  32.416  31.643  1.00  0.00     0.049 A 
ATOM     45  N   UNL A   1      39.155  29.751  30.594  1.00  0.00    -0.248 NA
ATOM     46  C   UNL A   1      37.680  30.442  28.953  1.00  0.00     0.031 C 
ATOM     47  C   UNL A   1      40.797  32.046  31.390  1.00  0.00     0.029 A 
ATOM     48  N   UNL A   1      39.532  33.135  32.846  1.00  0.00    -0.354 N 
ATOM     49  C   UNL A   1      39.266  28.905  29.518  1.00  0.00     0.074 A 
ATOM     50  C   UNL A   1      38.132  29.218  28.683  1.00  0.00     0.031 C 
ATOM     51  C   UNL A   1      41.583  32.431  32.414  1.00  0.00     0.029 A 
ATOM     52  C   UNL A   1      40.766  32.967  33.498  1.00  0.00     0.049 A 
ATOM     53  H   UNL A   1      38.816  33.708  33.203  1.00  0.00     0.167 HD
ATOM     54  C   UNL A   1      40.469  28.313  29.253  1.00  0.00     0.031 A 
ATOM     55  C   UNL A   1      40.985  32.844  34.859  1.00  0.00     0.031 A 
ATOM     56  C   UNL A   1      41.450  28.503  30.333  1.00  0.00     0.049 A 
ATOM     57  C   UNL A   1      41.550  31.465  35.135  1.00  0.00     0.074 A 
ATOM     58  C   UNL A   1      42.621  29.244  30.406  1.00  0.00     0.029 A 
ATOM     59  N   UNL A   1      41.170  28.101  31.640  1.00  0.00    -0.354 N 
ATOM     60  N   UNL A   1      41.658  30.569  34.203  1.00  0.00    -0.248 NA
ATOM     61  C   UNL A   1      41.909  30.927  36.450  1.00  0.00     0.031 C 
ATOM     62  C   UNL A   1      43.054  29.272  31.749  1.00  0.00     0.029 A 
ATOM     63  C   UNL A   1      42.143  28.561  32.508  1.00  0.00     0.049 A 
ATOM     64  H   UNL A   1      40.388  27.565  31.906  1.00  0.00     0.167 HD
ATOM     65  C   UNL A   1      42.001  29.373  34.742  1.00  0.00     0.074 A 
ATOM     66  C   UNL A   1      42.151  29.635  36.158  1.00  0.00     0.031 C 
ATOM     67  C   UNL A   1      42.097  28.281  33.939  1.00  0.00     0.031 A 
BRANCH  54  68
ATOM     68  C   UNL A   1      40.872  27.961  27.823  1.00  0.00    -0.014 A 
ATOM     69  C   UNL A   1      40.768  26.631  27.377  1.00  0.00     0.009 A 
ATOM     70  C   UNL A   1      41.451  28.852  26.903  1.00  0.00     0.009 A 
ATOM     71  C   UNL A   1      41.327  26.196  26.167  1.00  0.00     0.001 A 
ATOM     72  C   UNL A   1      42.039  28.427  25.703  1.00  0.00     0.001 A 
ATOM     73  C   UNL A   1      41.992  27.091  25.343  1.00  0.00     0.000 A 
ENDBRANCH  54  68
BRANCH  55  74
ATOM     74  C   UNL A   1      40.225  33.580  35.953  1.00  0.00    -0.014 A 
ATOM     75  C   UNL A   1      39.043  33.038  36.486  1.00  0.00     0.009 A 
ATOM     76  C   UNL A   1      40.667  34.783  36.548  1.00  0.00     0.009 A 
ATOM     77  C   UNL A   1      38.449  33.553  37.658  1.00  0.00     0.001 A 
ATOM     78  C   UNL A   1      40.063  35.316  37.704  1.00  0.00     0.001 A 
ATOM     79  C   UNL A   1      38.973  34.678  38.282  1.00  0.00     0.000 A 
ENDBRANCH  55  74
BRANCH  67  80
ATOM     80  C   UNL A   1      42.310  26.891  34.431  1.00  0.00    -0.014 A 
ATOM     81  C   UNL A   1      41.379  26.181  35.199  1.00  0.00     0.009 A 
ATOM     82  C   UNL A   1      43.476  26.215  34.024  1.00  0.00     0.009 A 
ATOM     83  C   UNL A   1      41.636  24.866  35.597  1.00  0.00     0.001 A 
ATOM     84  C   UNL A   1      43.718  24.894  34.388  1.00  0.00     0.001 A 
ATOM     85  C   UNL A   1      42.804  24.223  35.188  1.00  0.00     0.000 A 
ENDBRANCH  67  80
ENDBRANCH  41  42
ENDBRANCH  34  36
ENDBRANCH  33  34
ENDBRANCH  32  33
ENDBRANCH  31  32
ENDBRANCH  30  31
ENDBRANCH  29  30
ENDBRANCH   1  29
TORSDOF 20
ENDMDL
MODEL 3
REMARK VINA RESULT:     -10.9      1.566      2.736
REMARK SMILES Cc1ccc(N2C(=O)C[C@H](Sc3ccccc3C(=O)OCCOCCOCCOC(=O)c3ccc(-c4c5nc(c(-c6ccccc6)c6ccc([nH]6)c(-c6ccccc6)c6nc(c(-c7ccccc7)c7ccc4[nH]7)C=C6)C=C5)cc3)C2=O)cc1
REMARK SMILES IDX 24 1 23 2 22 3 21 4 20 5 18 6 19 7 17 8 12 9 13 10 14 11
REMARK SMILES IDX 16 12 15 13 11 14 10 15 6 16 7 17 80 18 8 19 9 20 81 21 5 22
REMARK SMILES IDX 1 23 2 24 3 25 83 26 4 27 82 28 25 29 26 30 27 31 28 32
REMARK SMILES IDX 29 33 30 34 31 35 32 36 33 37 79 38 34 39 78 40 35 41 36 42
REMARK SMILES IDX 37 43 72 44 38 45 77 46 71 47 73 48 39 49 76 50 70 51 69 52
REMARK SMILES IDX 40 54 62 55 47 56 61 57 48 58 51 59 60 60 74 61 49 62 50 63
REMARK SMILES IDX 59 65 75 66 52 67 41 68 42 69 46 70 43 71 45 72 44 73 63 74
REMARK SMILES IDX 64 75 68 76 65 77 67 78 66 79 53 80 54 81 58 82 55 83 57 84
REMARK SMILES IDX 56 85
REMARK H PARENT 73 53 51 64
REMARK Flexibility Score: inf
ROOT
ATOM      1  C   UNL A   1      35.854  24.176  25.116  1.00  0.00     0.188 C 
ENDROOT
BRANCH   1   2
ATOM      2  O   UNL A   1      34.658  24.550  25.760  1.00  0.00    -0.376 OA
BRANCH   2   3
ATOM      3  C   UNL A   1      33.825  23.462  26.144  1.00  0.00     0.202 C 
BRANCH   3   4
ATOM      4  C   UNL A   1      32.282  23.572  26.131  1.00  0.00     0.261 C 
BRANCH   4   5
ATOM      5  O   UNL A   1      31.349  24.467  25.398  1.00  0.00    -0.460 OA
BRANCH   5   6
ATOM      6  C   UNL A   1      30.585  25.538  25.736  1.00  0.00     0.339 C 
ATOM      7  O   UNL A   1      29.651  25.544  26.486  1.00  0.00    -0.246 OA
BRANCH   6   8
ATOM      8  C   UNL A   1      30.827  26.719  24.879  1.00  0.00     0.073 A 
ATOM      9  C   UNL A   1      31.944  27.548  24.983  1.00  0.00     0.023 A 
ATOM     10  C   UNL A   1      32.108  28.573  24.034  1.00  0.00     0.016 A 
ATOM     11  C   UNL A   1      31.145  28.814  23.048  1.00  0.00     0.001 A 
ATOM     12  C   UNL A   1      29.785  27.088  24.008  1.00  0.00     0.017 A 
ATOM     13  C   UNL A   1      29.957  28.101  23.066  1.00  0.00     0.001 A 
BRANCH   9  14
ATOM     14  S   UNL A   1      32.933  27.680  26.468  1.00  0.00    -0.111 SA
BRANCH  14  15
ATOM     15  C   UNL A   1      33.383  29.414  26.557  1.00  0.00     0.151 C 
ATOM     16  N   UNL A   1      34.186  31.143  27.831  1.00  0.00    -0.250 N 
ATOM     17  C   UNL A   1      32.969  31.551  27.332  1.00  0.00     0.235 C 
ATOM     18  C   UNL A   1      34.456  29.820  27.538  1.00  0.00     0.247 C 
ATOM     19  O   UNL A   1      32.465  32.664  27.327  1.00  0.00    -0.274 OA
ATOM     20  C   UNL A   1      32.245  30.318  26.931  1.00  0.00     0.126 C 
ATOM     21  O   UNL A   1      35.426  29.153  27.866  1.00  0.00    -0.273 OA
BRANCH  16  22
ATOM     22  C   UNL A   1      35.027  32.021  28.521  1.00  0.00     0.052 A 
ATOM     23  C   UNL A   1      37.775  34.194  30.993  1.00  0.00     0.044 C 
ATOM     24  C   UNL A   1      36.812  33.472  30.103  1.00  0.00    -0.051 A 
ATOM     25  C   UNL A   1      35.578  33.083  30.622  1.00  0.00     0.005 A 
ATOM     26  C   UNL A   1      37.120  33.189  28.763  1.00  0.00     0.005 A 
ATOM     27  C   UNL A   1      34.703  32.343  29.842  1.00  0.00     0.027 A 
ATOM     28  C   UNL A   1      36.220  32.483  27.962  1.00  0.00     0.027 A 
ENDBRANCH  16  22
ENDBRANCH  14  15
ENDBRANCH   9  14
ENDBRANCH   6   8
ENDBRANCH   5   6
ENDBRANCH   4   5
ENDBRANCH   3   4
ENDBRANCH   2   3
ENDBRANCH   1   2
BRANCH   1  29
ATOM     29  C   UNL A   1      35.774  22.927  24.216  1.00  0.00     0.188 C 
BRANCH  29  30
ATOM     30  O   UNL A   1      36.953  22.116  24.270  1.00  0.00    -0.376 OA
BRANCH  30  31
ATOM     31  C   UNL A   1      37.703  22.226  25.477  1.00  0.00     0.202 C 
BRANCH  31  32
ATOM     32  C   UNL A   1      38.531  20.979  25.816  1.00  0.00     0.261 C 
BRANCH  32  33
ATOM     33  O   UNL A   1      39.901  21.222  25.452  1.00  0.00    -0.460 OA
BRANCH  33  34
ATOM     34  C   UNL A   1      40.827  20.631  26.243  1.00  0.00     0.338 C 
ATOM     35  O   UNL A   1      40.801  19.481  26.647  1.00  0.00    -0.246 OA
BRANCH  34  36
ATOM     36  C   UNL A   1      41.756  21.678  26.755  1.00  0.00     0.060 A 
ATOM     37  C   UNL A   1      41.841  21.890  28.130  1.00  0.00     0.016 A 
ATOM     38  C   UNL A   1      42.344  22.606  25.889  1.00  0.00     0.016 A 
ATOM     39  C   UNL A   1      42.361  23.101  28.609  1.00  0.00     0.010 A 
ATOM     40  C   UNL A   1      42.774  23.842  26.373  1.00  0.00     0.010 A 
ATOM     41  C   UNL A   1      42.675  24.156  27.735  1.00  0.00    -0.014 A 
BRANCH  41  42
ATOM     42  C   UNL A   1      42.964  25.576  28.114  1.00  0.00     0.031 A 
ATOM     43  C   UNL A   1      41.767  26.445  28.176  1.00  0.00     0.074 A 
ATOM     44  C   UNL A   1      44.146  26.157  28.526  1.00  0.00     0.049 A 
ATOM     45  N   UNL A   1      41.786  27.737  28.079  1.00  0.00    -0.248 NA
ATOM     46  C   UNL A   1      40.414  25.881  28.201  1.00  0.00     0.031 C 
ATOM     47  C   UNL A   1      44.245  27.172  29.574  1.00  0.00     0.029 A 
ATOM     48  N   UNL A   1      45.494  26.032  28.145  1.00  0.00    -0.354 N 
ATOM     49  C   UNL A   1      40.547  28.135  28.518  1.00  0.00     0.074 A 
ATOM     50  C   UNL A   1      39.691  26.996  28.285  1.00  0.00     0.031 C 
ATOM     51  C   UNL A   1      45.507  27.632  29.671  1.00  0.00     0.029 A 
ATOM     52  C   UNL A   1      46.329  27.064  28.607  1.00  0.00     0.049 A 
ATOM     53  H   UNL A   1      45.827  25.284  27.599  1.00  0.00     0.167 HD
ATOM     54  C   UNL A   1      40.446  29.205  29.360  1.00  0.00     0.031 A 
ATOM     55  C   UNL A   1      47.361  27.680  27.919  1.00  0.00     0.031 A 
ATOM     56  C   UNL A   1      41.711  29.942  29.502  1.00  0.00     0.049 A 
ATOM     57  C   UNL A   1      47.001  29.138  27.712  1.00  0.00     0.074 A 
ATOM     58  C   UNL A   1      42.594  30.078  30.564  1.00  0.00     0.029 A 
ATOM     59  N   UNL A   1      42.369  30.465  28.388  1.00  0.00    -0.354 N 
ATOM     60  N   UNL A   1      45.841  29.612  28.046  1.00  0.00    -0.248 NA
ATOM     61  C   UNL A   1      47.817  30.137  27.017  1.00  0.00     0.031 C 
ATOM     62  C   UNL A   1      43.772  30.697  30.094  1.00  0.00     0.029 A 
ATOM     63  C   UNL A   1      43.623  30.931  28.740  1.00  0.00     0.049 A 
ATOM     64  H   UNL A   1      41.993  30.497  27.478  1.00  0.00     0.167 HD
ATOM     65  C   UNL A   1      45.702  30.878  27.581  1.00  0.00     0.074 A 
ATOM     66  C   UNL A   1      46.965  31.176  26.938  1.00  0.00     0.031 C 
ATOM     67  C   UNL A   1      44.526  31.532  27.764  1.00  0.00     0.031 A 
BRANCH  54  68
ATOM     68  C   UNL A   1      39.319  29.292  30.387  1.00  0.00    -0.014 A 
ATOM     69  C   UNL A   1      39.455  28.644  31.628  1.00  0.00     0.009 A 
ATOM     70  C   UNL A   1      38.070  29.899  30.169  1.00  0.00     0.009 A 
ATOM     71  C   UNL A   1      38.384  28.491  32.520  1.00  0.00     0.001 A 
ATOM     72  C   UNL A   1      36.983  29.730  31.038  1.00  0.00     0.001 A 
ATOM     73  C   UNL A   1      37.136  29.007  32.209  1.00  0.00     0.000 A 
ENDBRANCH  54  68
BRANCH  55  74
ATOM     74  C   UNL A   1      48.322  26.995  26.958  1.00  0.00    -0.014 A 
ATOM     75  C   UNL A   1      47.891  26.607  25.678  1.00  0.00     0.009 A 
ATOM     76  C   UNL A   1      49.689  26.771  27.235  1.00  0.00     0.009 A 
ATOM     77  C   UNL A   1      48.799  26.203  24.677  1.00  0.00     0.001 A 
ATOM     78  C   UNL A   1      50.596  26.344  26.246  1.00  0.00     0.001 A 
ATOM     79  C   UNL A   1      50.156  26.095  24.953  1.00  0.00     0.000 A 
ENDBRANCH  55  74
BRANCH  67  80
ATOM     80  C   UNL A   1      44.198  32.857  27.166  1.00  0.00    -0.014 A 
ATOM     81  C   UNL A   1      44.019  33.074  25.795  1.00  0.00     0.009 A 
ATOM     82  C   UNL A   1      43.961  33.937  28.038  1.00  0.00     0.009 A 
ATOM     83  C   UNL A   1      43.679  34.342  25.312  1.00  0.00     0.001 A 
ATOM     84  C   UNL A   1      43.587  35.190  27.563  1.00  0.00     0.001 A 
ATOM     85  C   UNL A   1      43.461  35.396  26.196  1.00  0.00     0.000 A 
ENDBRANCH  67  80
ENDBRANCH  41  42
ENDBRANCH  34  36
ENDBRANCH  33  34
ENDBRANCH  32  33
ENDBRANCH  31  32
ENDBRANCH  30  31
ENDBRANCH  29  30
ENDBRANCH   1  29
TORSDOF 20
ENDMDL
