MODEL 1
REMARK VINA RESULT:     -10.9      0.000      0.000
REMARK SMILES COC(=O)c1ccc2c(c1)=N[C@H](c1cn(CCC(=O)OCCOCCOCCOC(=O)c3ccc(-c4c5nc(c(-c6ccccc6)c6ccc([nH]6)c(-c6ccccc6)c6nc(c(-c7ccccc7)c7ccc4[nH]7)C=C6)C=C5)cc3)c3ccccc13)N=2
REMARK SMILES IDX 23 1 22 2 21 3 20 4 18 5 19 6 17 7 16 8 15 9 13 10 14 11
REMARK SMILES IDX 85 12 80 13 84 14 81 15 83 16 82 17 12 18 5 19 6 20 10 21
REMARK SMILES IDX 7 22 9 23 8 24 11 25 86 26 3 27 4 28 2 29 1 30 24 31 25 32
REMARK SMILES IDX 26 33 27 34 28 35 29 36 30 37 31 38 32 39 33 40 79 41 34 42
REMARK SMILES IDX 78 43 35 44 36 45 37 46 72 47 38 48 77 49 71 50 73 51 39 52
REMARK SMILES IDX 76 53 70 54 69 55 40 57 62 58 47 59 61 60 48 61 51 62 60 63
REMARK SMILES IDX 74 64 49 65 50 66 59 68 75 69 52 70 41 71 42 72 46 73 43 74
REMARK SMILES IDX 45 75 44 76 63 77 64 78 68 79 65 80 67 81 66 82 53 83 54 84
REMARK SMILES IDX 58 85 55 86 57 87 56 88
REMARK H PARENT 73 56 51 67
REMARK Flexibility Score: inf
ROOT
ATOM      1  O   UNL A   1      42.613  20.519  25.506  1.00  0.00    -0.376 OA
ENDROOT
BRANCH   1   2
ATOM      2  C   UNL A   1      42.056  21.359  26.517  1.00  0.00     0.202 C 
BRANCH   2   3
ATOM      3  C   UNL A   1      40.748  20.896  27.180  1.00  0.00     0.261 C 
BRANCH   3   4
ATOM      4  O   UNL A   1      39.632  20.774  26.253  1.00  0.00    -0.463 OA
BRANCH   4   5
ATOM      5  C   UNL A   1      38.950  21.918  26.041  1.00  0.00     0.307 C 
ATOM      6  O   UNL A   1      39.349  22.997  26.473  1.00  0.00    -0.252 OA
BRANCH   5   7
ATOM      7  C   UNL A   1      37.650  21.817  25.255  1.00  0.00     0.144 C 
BRANCH   7   8
ATOM      8  C   UNL A   1      36.265  21.613  25.837  1.00  0.00     0.134 C 
BRANCH   8   9
ATOM      9  N   UNL A   1      35.286  21.532  24.791  1.00  0.00    -0.346 N 
ATOM     10  C   UNL A   1      33.456  22.162  23.774  1.00  0.00     0.024 A 
ATOM     11  C   UNL A   1      34.713  22.601  24.163  1.00  0.00     0.094 A 
ATOM     12  C   UNL A   1      33.249  20.918  24.455  1.00  0.00     0.007 A 
ATOM     13  C   UNL A   1      34.532  20.416  24.577  1.00  0.00     0.048 A 
ATOM     14  C   UNL A   1      32.175  20.054  24.713  1.00  0.00     0.011 A 
ATOM     15  C   UNL A   1      34.824  19.058  24.585  1.00  0.00     0.027 A 
ATOM     16  C   UNL A   1      32.441  18.690  24.864  1.00  0.00     0.001 A 
ATOM     17  C   UNL A   1      33.735  18.196  24.699  1.00  0.00     0.002 A 
BRANCH  10  18
ATOM     18  C   UNL A   1      32.669  22.669  22.595  1.00  0.00     0.255 C 
ATOM     19  C   UNL A   1      31.574  26.978  23.323  1.00  0.00     0.062 A 
ATOM     20  C   UNL A   1      32.789  27.161  22.538  1.00  0.00     0.018 A 
ATOM     21  C   UNL A   1      31.105  25.765  23.663  1.00  0.00     0.046 A 
ATOM     22  C   UNL A   1      33.507  26.143  22.041  1.00  0.00     0.031 A 
ATOM     23  C   UNL A   1      31.811  24.597  23.126  1.00  0.00     0.087 A 
ATOM     24  C   UNL A   1      33.021  24.786  22.299  1.00  0.00     0.086 A 
ATOM     25  N   UNL A   1      31.474  23.355  23.193  1.00  0.00    -0.252 NA
ATOM     26  N   UNL A   1      33.476  23.670  21.843  1.00  0.00    -0.252 NA
BRANCH  19  27
ATOM     27  C   UNL A   1      30.745  28.142  23.746  1.00  0.00     0.337 C 
ATOM     28  O   UNL A   1      30.877  28.746  24.803  1.00  0.00    -0.246 OA
BRANCH  27  29
ATOM     29  O   UNL A   1      29.779  28.352  22.817  1.00  0.00    -0.465 OA
ATOM     30  C   UNL A   1      29.923  29.554  22.058  1.00  0.00     0.282 C 
ENDBRANCH  27  29
ENDBRANCH  19  27
ENDBRANCH  10  18
ENDBRANCH   8   9
ENDBRANCH   7   8
ENDBRANCH   5   7
ENDBRANCH   4   5
ENDBRANCH   3   4
ENDBRANCH   2   3
ENDBRANCH   1   2
BRANCH   1  31
ATOM     31  C   UNL A   1      42.763  19.132  25.775  1.00  0.00     0.188 C 
BRANCH  31  32
ATOM     32  C   UNL A   1      44.133  18.512  25.498  1.00  0.00     0.188 C 
BRANCH  32  33
ATOM     33  O   UNL A   1      44.650  18.513  24.185  1.00  0.00    -0.376 OA
BRANCH  33  34
ATOM     34  C   UNL A   1      45.863  19.198  23.969  1.00  0.00     0.202 C 
BRANCH  34  35
ATOM     35  C   UNL A   1      46.221  20.195  25.077  1.00  0.00     0.261 C 
BRANCH  35  36
ATOM     36  O   UNL A   1      46.505  21.502  24.531  1.00  0.00    -0.460 OA
BRANCH  36  37
ATOM     37  C   UNL A   1      45.421  22.278  24.248  1.00  0.00     0.338 C 
ATOM     38  O   UNL A   1      44.644  22.126  23.321  1.00  0.00    -0.246 OA
BRANCH  37  39
ATOM     39  C   UNL A   1      45.127  23.121  25.445  1.00  0.00     0.060 A 
ATOM     40  C   UNL A   1      45.514  22.751  26.737  1.00  0.00     0.016 A 
ATOM     41  C   UNL A   1      44.217  24.176  25.274  1.00  0.00     0.016 A 
ATOM     42  C   UNL A   1      44.948  23.396  27.851  1.00  0.00     0.010 A 
ATOM     43  C   UNL A   1      43.642  24.803  26.391  1.00  0.00     0.010 A 
ATOM     44  C   UNL A   1      43.983  24.408  27.694  1.00  0.00    -0.014 A 
BRANCH  44  45
ATOM     45  C   UNL A   1      43.645  25.300  28.831  1.00  0.00     0.031 A 
ATOM     46  C   UNL A   1      42.345  25.974  28.663  1.00  0.00     0.074 A 
ATOM     47  C   UNL A   1      44.248  25.545  30.017  1.00  0.00     0.049 A 
ATOM     48  N   UNL A   1      42.206  27.257  28.618  1.00  0.00    -0.248 NA
ATOM     49  C   UNL A   1      41.121  25.209  28.427  1.00  0.00     0.031 C 
ATOM     50  C   UNL A   1      45.572  25.214  30.471  1.00  0.00     0.029 A 
ATOM     51  N   UNL A   1      43.737  26.111  31.158  1.00  0.00    -0.354 N 
ATOM     52  C   UNL A   1      40.851  27.486  28.512  1.00  0.00     0.074 A 
ATOM     53  C   UNL A   1      40.239  26.199  28.283  1.00  0.00     0.031 C 
ATOM     54  C   UNL A   1      45.669  25.177  31.810  1.00  0.00     0.029 A 
ATOM     55  C   UNL A   1      44.459  25.793  32.304  1.00  0.00     0.049 A 
ATOM     56  H   UNL A   1      42.938  26.685  31.164  1.00  0.00     0.167 HD
ATOM     57  C   UNL A   1      40.329  28.704  28.810  1.00  0.00     0.031 A 
ATOM     58  C   UNL A   1      44.400  26.275  33.563  1.00  0.00     0.031 A 
ATOM     59  C   UNL A   1      41.325  29.746  28.822  1.00  0.00     0.049 A 
ATOM     60  C   UNL A   1      43.892  27.650  33.462  1.00  0.00     0.074 A 
ATOM     61  C   UNL A   1      42.213  30.244  27.886  1.00  0.00     0.029 A 
ATOM     62  N   UNL A   1      41.763  30.223  30.034  1.00  0.00    -0.354 N 
ATOM     63  N   UNL A   1      44.585  28.626  32.944  1.00  0.00    -0.248 NA
ATOM     64  C   UNL A   1      42.456  27.842  33.495  1.00  0.00     0.031 C 
ATOM     65  C   UNL A   1      43.381  30.594  28.622  1.00  0.00     0.029 A 
ATOM     66  C   UNL A   1      43.131  30.327  29.970  1.00  0.00     0.049 A 
ATOM     67  H   UNL A   1      41.199  30.449  30.808  1.00  0.00     0.167 HD
ATOM     68  C   UNL A   1      43.666  29.338  32.186  1.00  0.00     0.074 A 
ATOM     69  C   UNL A   1      42.361  28.871  32.650  1.00  0.00     0.031 C 
ATOM     70  C   UNL A   1      44.034  30.042  31.073  1.00  0.00     0.031 A 
BRANCH  57  71
ATOM     71  C   UNL A   1      38.956  28.871  29.383  1.00  0.00    -0.014 A 
ATOM     72  C   UNL A   1      38.674  28.701  30.752  1.00  0.00     0.009 A 
ATOM     73  C   UNL A   1      37.947  29.430  28.586  1.00  0.00     0.009 A 
ATOM     74  C   UNL A   1      37.436  29.043  31.298  1.00  0.00     0.001 A 
ATOM     75  C   UNL A   1      36.722  29.818  29.139  1.00  0.00     0.001 A 
ATOM     76  C   UNL A   1      36.466  29.619  30.493  1.00  0.00     0.000 A 
ENDBRANCH  57  71
BRANCH  58  77
ATOM     77  C   UNL A   1      44.475  25.430  34.774  1.00  0.00    -0.014 A 
ATOM     78  C   UNL A   1      44.800  26.001  36.024  1.00  0.00     0.009 A 
ATOM     79  C   UNL A   1      44.413  24.034  34.695  1.00  0.00     0.009 A 
ATOM     80  C   UNL A   1      45.101  25.211  37.136  1.00  0.00     0.001 A 
ATOM     81  C   UNL A   1      44.716  23.239  35.812  1.00  0.00     0.001 A 
ATOM     82  C   UNL A   1      45.076  23.827  37.024  1.00  0.00     0.000 A 
ENDBRANCH  58  77
BRANCH  70  83
ATOM     83  C   UNL A   1      45.504  30.291  30.798  1.00  0.00    -0.014 A 
ATOM     84  C   UNL A   1      46.231  29.302  30.112  1.00  0.00     0.009 A 
ATOM     85  C   UNL A   1      46.225  31.346  31.385  1.00  0.00     0.009 A 
ATOM     86  C   UNL A   1      47.627  29.349  30.036  1.00  0.00     0.001 A 
ATOM     87  C   UNL A   1      47.622  31.404  31.292  1.00  0.00     0.001 A 
ATOM     88  C   UNL A   1      48.323  30.398  30.629  1.00  0.00     0.000 A 
ENDBRANCH  70  83
ENDBRANCH  44  45
ENDBRANCH  37  39
ENDBRANCH  36  37
ENDBRANCH  35  36
ENDBRANCH  34  35
ENDBRANCH  33  34
ENDBRANCH  32  33
ENDBRANCH  31  32
ENDBRANCH   1  31
TORSDOF 22
ENDMDL
MODEL 2
REMARK VINA RESULT:     -10.9      3.094      6.722
REMARK SMILES COC(=O)c1ccc2c(c1)=N[C@H](c1cn(CCC(=O)OCCOCCOCCOC(=O)c3ccc(-c4c5nc(c(-c6ccccc6)c6ccc([nH]6)c(-c6ccccc6)c6nc(c(-c7ccccc7)c7ccc4[nH]7)C=C6)C=C5)cc3)c3ccccc13)N=2
REMARK SMILES IDX 23 1 22 2 21 3 20 4 18 5 19 6 17 7 16 8 15 9 13 10 14 11
REMARK SMILES IDX 85 12 80 13 84 14 81 15 83 16 82 17 12 18 5 19 6 20 10 21
REMARK SMILES IDX 7 22 9 23 8 24 11 25 86 26 3 27 4 28 2 29 1 30 24 31 25 32
REMARK SMILES IDX 26 33 27 34 28 35 29 36 30 37 31 38 32 39 33 40 79 41 34 42
REMARK SMILES IDX 78 43 35 44 36 45 37 46 72 47 38 48 77 49 71 50 73 51 39 52
REMARK SMILES IDX 76 53 70 54 69 55 40 57 62 58 47 59 61 60 48 61 51 62 60 63
REMARK SMILES IDX 74 64 49 65 50 66 59 68 75 69 52 70 41 71 42 72 46 73 43 74
REMARK SMILES IDX 45 75 44 76 63 77 64 78 68 79 65 80 67 81 66 82 53 83 54 84
REMARK SMILES IDX 58 85 55 86 57 87 56 88
REMARK H PARENT 73 56 51 67
REMARK Flexibility Score: inf
ROOT
ATOM      1  O   UNL A   1      34.960  17.365  24.652  1.00  0.00    -0.376 OA
ENDROOT
BRANCH   1   2
ATOM      2  C   UNL A   1      34.335  17.035  23.411  1.00  0.00     0.202 C 
BRANCH   2   3
ATOM      3  C   UNL A   1      32.848  17.393  23.251  1.00  0.00     0.261 C 
BRANCH   3   4
ATOM      4  O   UNL A   1      32.585  18.824  23.254  1.00  0.00    -0.463 OA
BRANCH   4   5
ATOM      5  C   UNL A   1      32.318  19.343  24.470  1.00  0.00     0.307 C 
ATOM      6  O   UNL A   1      32.102  18.626  25.445  1.00  0.00    -0.252 OA
BRANCH   5   7
ATOM      7  C   UNL A   1      32.278  20.861  24.585  1.00  0.00     0.144 C 
BRANCH   7   8
ATOM      8  C   UNL A   1      32.702  21.680  25.788  1.00  0.00     0.134 C 
BRANCH   8   9
ATOM      9  N   UNL A   1      32.302  23.050  25.632  1.00  0.00    -0.346 N 
ATOM     10  C   UNL A   1      30.830  24.629  25.292  1.00  0.00     0.024 A 
ATOM     11  C   UNL A   1      31.176  23.608  26.164  1.00  0.00     0.094 A 
ATOM     12  C   UNL A   1      31.633  24.431  24.122  1.00  0.00     0.007 A 
ATOM     13  C   UNL A   1      32.777  23.842  24.628  1.00  0.00     0.048 A 
ATOM     14  C   UNL A   1      31.666  24.913  22.805  1.00  0.00     0.011 A 
ATOM     15  C   UNL A   1      34.036  24.010  24.067  1.00  0.00     0.027 A 
ATOM     16  C   UNL A   1      32.900  24.973  22.151  1.00  0.00     0.001 A 
ATOM     17  C   UNL A   1      34.075  24.621  22.815  1.00  0.00     0.002 A 
BRANCH  10  18
ATOM     18  C   UNL A   1      30.087  25.888  25.655  1.00  0.00     0.255 C 
ATOM     19  C   UNL A   1      33.071  29.195  26.332  1.00  0.00     0.062 A 
ATOM     20  C   UNL A   1      32.734  29.448  24.936  1.00  0.00     0.018 A 
ATOM     21  C   UNL A   1      32.549  28.171  27.030  1.00  0.00     0.046 A 
ATOM     22  C   UNL A   1      31.839  28.722  24.250  1.00  0.00     0.031 A 
ATOM     23  C   UNL A   1      31.531  27.352  26.365  1.00  0.00     0.087 A 
ATOM     24  C   UNL A   1      31.165  27.635  24.961  1.00  0.00     0.086 A 
ATOM     25  N   UNL A   1      30.796  26.421  26.866  1.00  0.00    -0.252 NA
ATOM     26  N   UNL A   1      30.205  26.880  24.550  1.00  0.00    -0.252 NA
BRANCH  19  27
ATOM     27  C   UNL A   1      33.979  30.106  27.085  1.00  0.00     0.337 C 
ATOM     28  O   UNL A   1      33.656  31.195  27.538  1.00  0.00    -0.246 OA
BRANCH  27  29
ATOM     29  O   UNL A   1      35.225  29.569  27.098  1.00  0.00    -0.465 OA
ATOM     30  C   UNL A   1      35.878  29.591  28.368  1.00  0.00     0.282 C 
ENDBRANCH  27  29
ENDBRANCH  19  27
ENDBRANCH  10  18
ENDBRANCH   8   9
ENDBRANCH   7   8
ENDBRANCH   5   7
ENDBRANCH   4   5
ENDBRANCH   3   4
ENDBRANCH   2   3
ENDBRANCH   1   2
BRANCH   1  31
ATOM     31  C   UNL A   1      36.114  18.194  24.637  1.00  0.00     0.188 C 
BRANCH  31  32
ATOM     32  C   UNL A   1      35.907  19.682  24.921  1.00  0.00     0.188 C 
BRANCH  32  33
ATOM     33  O   UNL A   1      37.025  20.518  25.130  1.00  0.00    -0.376 OA
BRANCH  33  34
ATOM     34  C   UNL A   1      37.122  21.678  24.336  1.00  0.00     0.202 C 
BRANCH  34  35
ATOM     35  C   UNL A   1      37.765  22.871  25.053  1.00  0.00     0.261 C 
BRANCH  35  36
ATOM     36  O   UNL A   1      38.349  22.470  26.312  1.00  0.00    -0.460 OA
BRANCH  36  37
ATOM     37  C   UNL A   1      39.697  22.638  26.424  1.00  0.00     0.338 C 
ATOM     38  O   UNL A   1      40.557  21.990  25.853  1.00  0.00    -0.246 OA
BRANCH  37  39
ATOM     39  C   UNL A   1      39.949  23.961  27.070  1.00  0.00     0.060 A 
ATOM     40  C   UNL A   1      41.114  24.232  27.796  1.00  0.00     0.016 A 
ATOM     41  C   UNL A   1      38.863  24.846  27.155  1.00  0.00     0.016 A 
ATOM     42  C   UNL A   1      41.167  25.353  28.643  1.00  0.00     0.010 A 
ATOM     43  C   UNL A   1      38.917  25.952  28.017  1.00  0.00     0.010 A 
ATOM     44  C   UNL A   1      40.061  26.210  28.789  1.00  0.00    -0.014 A 
BRANCH  44  45
ATOM     45  C   UNL A   1      40.230  27.548  29.407  1.00  0.00     0.031 A 
ATOM     46  C   UNL A   1      41.221  28.383  28.705  1.00  0.00     0.074 A 
ATOM     47  C   UNL A   1      39.596  28.176  30.425  1.00  0.00     0.049 A 
ATOM     48  N   UNL A   1      42.291  28.842  29.262  1.00  0.00    -0.248 NA
ATOM     49  C   UNL A   1      41.100  28.657  27.274  1.00  0.00     0.031 C 
ATOM     50  C   UNL A   1      38.709  27.654  31.429  1.00  0.00     0.029 A 
ATOM     51  N   UNL A   1      39.556  29.511  30.738  1.00  0.00    -0.354 N 
ATOM     52  C   UNL A   1      42.916  29.611  28.304  1.00  0.00     0.074 A 
ATOM     53  C   UNL A   1      42.207  29.374  27.069  1.00  0.00     0.031 C 
ATOM     54  C   UNL A   1      37.914  28.597  31.961  1.00  0.00     0.029 A 
ATOM     55  C   UNL A   1      38.470  29.861  31.533  1.00  0.00     0.049 A 
ATOM     56  H   UNL A   1      40.230  30.159  30.430  1.00  0.00     0.167 HD
ATOM     57  C   UNL A   1      43.855  30.527  28.654  1.00  0.00     0.031 A 
ATOM     58  C   UNL A   1      38.170  30.999  32.193  1.00  0.00     0.031 A 
ATOM     59  C   UNL A   1      44.381  30.303  29.978  1.00  0.00     0.049 A 
ATOM     60  C   UNL A   1      39.448  31.657  32.495  1.00  0.00     0.074 A 
ATOM     61  C   UNL A   1      45.035  29.250  30.591  1.00  0.00     0.029 A 
ATOM     62  N   UNL A   1      43.962  31.120  31.000  1.00  0.00    -0.354 N 
ATOM     63  N   UNL A   1      40.302  31.185  33.361  1.00  0.00    -0.248 NA
ATOM     64  C   UNL A   1      39.989  32.566  31.504  1.00  0.00     0.031 C 
ATOM     65  C   UNL A   1      44.571  29.249  31.937  1.00  0.00     0.029 A 
ATOM     66  C   UNL A   1      43.690  30.323  32.084  1.00  0.00     0.049 A 
ATOM     67  H   UNL A   1      43.873  32.099  30.961  1.00  0.00     0.167 HD
ATOM     68  C   UNL A   1      41.539  31.369  32.762  1.00  0.00     0.074 A 
ATOM     69  C   UNL A   1      41.289  32.315  31.675  1.00  0.00     0.031 C 
ATOM     70  C   UNL A   1      42.601  30.546  33.020  1.00  0.00     0.031 A 
BRANCH  57  71
ATOM     71  C   UNL A   1      44.061  31.799  27.891  1.00  0.00    -0.014 A 
ATOM     72  C   UNL A   1      44.293  31.827  26.502  1.00  0.00     0.009 A 
ATOM     73  C   UNL A   1      43.797  33.023  28.520  1.00  0.00     0.009 A 
ATOM     74  C   UNL A   1      44.295  33.020  25.778  1.00  0.00     0.001 A 
ATOM     75  C   UNL A   1      43.750  34.215  27.790  1.00  0.00     0.001 A 
ATOM     76  C   UNL A   1      44.004  34.213  26.421  1.00  0.00     0.000 A 
ENDBRANCH  57  71
BRANCH  58  77
ATOM     77  C   UNL A   1      36.818  31.596  32.234  1.00  0.00    -0.014 A 
ATOM     78  C   UNL A   1      36.060  31.731  31.050  1.00  0.00     0.009 A 
ATOM     79  C   UNL A   1      36.325  32.208  33.393  1.00  0.00     0.009 A 
ATOM     80  C   UNL A   1      34.886  32.489  31.012  1.00  0.00     0.001 A 
ATOM     81  C   UNL A   1      35.147  32.970  33.355  1.00  0.00     0.001 A 
ATOM     82  C   UNL A   1      34.439  33.123  32.164  1.00  0.00     0.000 A 
ENDBRANCH  58  77
BRANCH  70  83
ATOM     83  C   UNL A   1      42.528  29.578  34.185  1.00  0.00    -0.014 A 
ATOM     84  C   UNL A   1      43.255  29.882  35.350  1.00  0.00     0.009 A 
ATOM     85  C   UNL A   1      41.961  28.296  34.082  1.00  0.00     0.009 A 
ATOM     86  C   UNL A   1      43.432  28.933  36.363  1.00  0.00     0.001 A 
ATOM     87  C   UNL A   1      42.120  27.352  35.106  1.00  0.00     0.001 A 
ATOM     88  C   UNL A   1      42.868  27.667  36.240  1.00  0.00     0.000 A 
ENDBRANCH  70  83
ENDBRANCH  44  45
ENDBRANCH  37  39
ENDBRANCH  36  37
ENDBRANCH  35  36
ENDBRANCH  34  35
ENDBRANCH  33  34
ENDBRANCH  32  33
ENDBRANCH  31  32
ENDBRANCH   1  31
TORSDOF 22
ENDMDL
MODEL 3
REMARK VINA RESULT:     -10.1      3.457      7.296
REMARK SMILES COC(=O)c1ccc2c(c1)=N[C@H](c1cn(CCC(=O)OCCOCCOCCOC(=O)c3ccc(-c4c5nc(c(-c6ccccc6)c6ccc([nH]6)c(-c6ccccc6)c6nc(c(-c7ccccc7)c7ccc4[nH]7)C=C6)C=C5)cc3)c3ccccc13)N=2
REMARK SMILES IDX 23 1 22 2 21 3 20 4 18 5 19 6 17 7 16 8 15 9 13 10 14 11
REMARK SMILES IDX 85 12 80 13 84 14 81 15 83 16 82 17 12 18 5 19 6 20 10 21
REMARK SMILES IDX 7 22 9 23 8 24 11 25 86 26 3 27 4 28 2 29 1 30 24 31 25 32
REMARK SMILES IDX 26 33 27 34 28 35 29 36 30 37 31 38 32 39 33 40 79 41 34 42
REMARK SMILES IDX 78 43 35 44 36 45 37 46 72 47 38 48 77 49 71 50 73 51 39 52
REMARK SMILES IDX 76 53 70 54 69 55 40 57 62 58 47 59 61 60 48 61 51 62 60 63
REMARK SMILES IDX 74 64 49 65 50 66 59 68 75 69 52 70 41 71 42 72 46 73 43 74
REMARK SMILES IDX 45 75 44 76 63 77 64 78 68 79 65 80 67 81 66 82 53 83 54 84
REMARK SMILES IDX 58 85 55 86 57 87 56 88
REMARK H PARENT 73 56 51 67
REMARK Flexibility Score: inf
ROOT
ATOM      1  O   UNL A   1      35.894  18.371  24.459  1.00  0.00    -0.376 OA
ENDROOT
BRANCH   1   2
ATOM      2  C   UNL A   1      34.480  18.550  24.371  1.00  0.00     0.202 C 
BRANCH   2   3
ATOM      3  C   UNL A   1      33.866  19.726  25.148  1.00  0.00     0.261 C 
BRANCH   3   4
ATOM      4  O   UNL A   1      33.703  20.933  24.352  1.00  0.00    -0.463 OA
BRANCH   4   5
ATOM      5  C   UNL A   1      32.423  21.247  24.063  1.00  0.00     0.307 C 
ATOM      6  O   UNL A   1      31.993  21.213  22.913  1.00  0.00    -0.252 OA
BRANCH   5   7
ATOM      7  C   UNL A   1      31.531  21.665  25.225  1.00  0.00     0.144 C 
BRANCH   7   8
ATOM      8  C   UNL A   1      30.822  22.996  25.376  1.00  0.00     0.134 C 
BRANCH   8   9
ATOM      9  N   UNL A   1      31.661  24.068  24.922  1.00  0.00    -0.346 N 
ATOM     10  C   UNL A   1      32.685  25.229  23.378  1.00  0.00     0.024 A 
ATOM     11  C   UNL A   1      31.429  24.837  23.817  1.00  0.00     0.094 A 
ATOM     12  C   UNL A   1      33.621  24.421  24.103  1.00  0.00     0.007 A 
ATOM     13  C   UNL A   1      32.966  24.188  25.299  1.00  0.00     0.048 A 
ATOM     14  C   UNL A   1      34.988  24.116  24.028  1.00  0.00     0.011 A 
ATOM     15  C   UNL A   1      33.623  24.014  26.509  1.00  0.00     0.027 A 
ATOM     16  C   UNL A   1      35.663  23.801  25.211  1.00  0.00     0.001 A 
ATOM     17  C   UNL A   1      35.006  23.852  26.441  1.00  0.00     0.002 A 
BRANCH  10  18
ATOM     18  C   UNL A   1      33.002  26.491  22.620  1.00  0.00     0.255 C 
ATOM     19  C   UNL A   1      29.605  29.402  23.160  1.00  0.00     0.062 A 
ATOM     20  C   UNL A   1      30.496  29.863  24.218  1.00  0.00     0.018 A 
ATOM     21  C   UNL A   1      29.893  28.347  22.377  1.00  0.00     0.046 A 
ATOM     22  C   UNL A   1      31.695  29.315  24.463  1.00  0.00     0.031 A 
ATOM     23  C   UNL A   1      31.205  27.716  22.554  1.00  0.00     0.087 A 
ATOM     24  C   UNL A   1      32.121  28.210  23.604  1.00  0.00     0.086 A 
ATOM     25  N   UNL A   1      31.756  26.797  21.839  1.00  0.00    -0.252 NA
ATOM     26  N   UNL A   1      33.257  27.603  23.578  1.00  0.00    -0.252 NA
BRANCH  19  27
ATOM     27  C   UNL A   1      28.338  30.122  22.848  1.00  0.00     0.337 C 
ATOM     28  O   UNL A   1      27.266  29.920  23.402  1.00  0.00    -0.246 OA
BRANCH  27  29
ATOM     29  O   UNL A   1      28.556  30.957  21.801  1.00  0.00    -0.465 OA
ATOM     30  C   UNL A   1      28.295  32.337  22.066  1.00  0.00     0.282 C 
ENDBRANCH  27  29
ENDBRANCH  19  27
ENDBRANCH  10  18
ENDBRANCH   8   9
ENDBRANCH   7   8
ENDBRANCH   5   7
ENDBRANCH   4   5
ENDBRANCH   3   4
ENDBRANCH   2   3
ENDBRANCH   1   2
BRANCH   1  31
ATOM     31  C   UNL A   1      36.658  19.315  25.198  1.00  0.00     0.188 C 
BRANCH  31  32
ATOM     32  C   UNL A   1      37.085  20.589  24.471  1.00  0.00     0.188 C 
BRANCH  32  33
ATOM     33  O   UNL A   1      38.330  21.183  24.770  1.00  0.00    -0.376 OA
BRANCH  33  34
ATOM     34  C   UNL A   1      38.548  21.591  26.102  1.00  0.00     0.202 C 
BRANCH  34  35
ATOM     35  C   UNL A   1      40.020  21.566  26.527  1.00  0.00     0.261 C 
BRANCH  35  36
ATOM     36  O   UNL A   1      40.280  22.535  27.567  1.00  0.00    -0.460 OA
BRANCH  36  37
ATOM     37  C   UNL A   1      41.511  23.120  27.543  1.00  0.00     0.338 C 
ATOM     38  O   UNL A   1      42.537  22.630  27.104  1.00  0.00    -0.246 OA
BRANCH  37  39
ATOM     39  C   UNL A   1      41.337  24.579  27.807  1.00  0.00     0.060 A 
ATOM     40  C   UNL A   1      42.093  25.264  28.765  1.00  0.00     0.016 A 
ATOM     41  C   UNL A   1      40.207  25.198  27.251  1.00  0.00     0.016 A 
ATOM     42  C   UNL A   1      41.684  26.536  29.202  1.00  0.00     0.010 A 
ATOM     43  C   UNL A   1      39.795  26.460  27.706  1.00  0.00     0.010 A 
ATOM     44  C   UNL A   1      40.515  27.138  28.703  1.00  0.00    -0.014 A 
BRANCH  44  45
ATOM     45  C   UNL A   1      40.274  28.587  28.909  1.00  0.00     0.031 A 
ATOM     46  C   UNL A   1      41.420  29.422  28.504  1.00  0.00     0.074 A 
ATOM     47  C   UNL A   1      39.190  29.291  29.309  1.00  0.00     0.049 A 
ATOM     48  N   UNL A   1      42.059  30.199  29.313  1.00  0.00    -0.248 NA
ATOM     49  C   UNL A   1      41.979  29.336  27.156  1.00  0.00     0.031 C 
ATOM     50  C   UNL A   1      37.969  28.844  29.924  1.00  0.00     0.029 A 
ATOM     51  N   UNL A   1      38.912  30.627  29.165  1.00  0.00    -0.354 N 
ATOM     52  C   UNL A   1      43.011  30.839  28.549  1.00  0.00     0.074 A 
ATOM     53  C   UNL A   1      42.997  30.192  27.259  1.00  0.00     0.031 C 
ATOM     54  C   UNL A   1      36.953  29.705  29.749  1.00  0.00     0.029 A 
ATOM     55  C   UNL A   1      37.557  30.924  29.260  1.00  0.00     0.049 A 
ATOM     56  H   UNL A   1      39.605  31.309  29.011  1.00  0.00     0.167 HD
ATOM     57  C   UNL A   1      43.602  31.979  28.991  1.00  0.00     0.031 A 
ATOM     58  C   UNL A   1      36.900  32.099  29.354  1.00  0.00     0.031 A 
ATOM     59  C   UNL A   1      43.446  32.169  30.412  1.00  0.00     0.049 A 
ATOM     60  C   UNL A   1      37.829  33.049  29.980  1.00  0.00     0.074 A 
ATOM     61  C   UNL A   1      43.798  31.435  31.528  1.00  0.00     0.029 A 
ATOM     62  N   UNL A   1      42.534  33.097  30.855  1.00  0.00    -0.354 N 
ATOM     63  N   UNL A   1      38.195  32.965  31.229  1.00  0.00    -0.248 NA
ATOM     64  C   UNL A   1      38.714  33.799  29.110  1.00  0.00     0.031 C 
ATOM     65  C   UNL A   1      42.748  31.647  32.467  1.00  0.00     0.029 A 
ATOM     66  C   UNL A   1      41.832  32.528  31.889  1.00  0.00     0.049 A 
ATOM     67  H   UNL A   1      42.407  34.004  30.496  1.00  0.00     0.167 HD
ATOM     68  C   UNL A   1      39.553  33.251  31.211  1.00  0.00     0.074 A 
ATOM     69  C   UNL A   1      39.787  33.857  29.901  1.00  0.00     0.031 C 
ATOM     70  C   UNL A   1      40.416  32.736  32.139  1.00  0.00     0.031 A 
BRANCH  57  71
ATOM     71  C   UNL A   1      44.059  33.059  28.061  1.00  0.00    -0.014 A 
ATOM     72  C   UNL A   1      43.491  34.348  28.048  1.00  0.00     0.009 A 
ATOM     73  C   UNL A   1      45.237  32.873  27.324  1.00  0.00     0.009 A 
ATOM     74  C   UNL A   1      44.049  35.394  27.313  1.00  0.00     0.001 A 
ATOM     75  C   UNL A   1      45.826  33.931  26.625  1.00  0.00     0.001 A 
ATOM     76  C   UNL A   1      45.229  35.189  26.615  1.00  0.00     0.000 A 
ENDBRANCH  57  71
BRANCH  58  77
ATOM     77  C   UNL A   1      35.655  32.409  28.619  1.00  0.00    -0.014 A 
ATOM     78  C   UNL A   1      35.107  33.710  28.659  1.00  0.00     0.009 A 
ATOM     79  C   UNL A   1      34.889  31.401  28.022  1.00  0.00     0.009 A 
ATOM     80  C   UNL A   1      33.826  33.982  28.172  1.00  0.00     0.001 A 
ATOM     81  C   UNL A   1      33.602  31.674  27.533  1.00  0.00     0.001 A 
ATOM     82  C   UNL A   1      33.066  32.958  27.623  1.00  0.00     0.000 A 
ENDBRANCH  58  77
BRANCH  70  83
ATOM     83  C   UNL A   1      39.862  32.063  33.380  1.00  0.00    -0.014 A 
ATOM     84  C   UNL A   1      39.807  32.805  34.572  1.00  0.00     0.009 A 
ATOM     85  C   UNL A   1      39.615  30.681  33.455  1.00  0.00     0.009 A 
ATOM     86  C   UNL A   1      39.541  32.189  35.800  1.00  0.00     0.001 A 
ATOM     87  C   UNL A   1      39.327  30.066  34.682  1.00  0.00     0.001 A 
ATOM     88  C   UNL A   1      39.304  30.818  35.855  1.00  0.00     0.000 A 
ENDBRANCH  70  83
ENDBRANCH  44  45
ENDBRANCH  37  39
ENDBRANCH  36  37
ENDBRANCH  35  36
ENDBRANCH  34  35
ENDBRANCH  33  34
ENDBRANCH  32  33
ENDBRANCH  31  32
ENDBRANCH   1  31
TORSDOF 22
ENDMDL
