MODEL 1
REMARK VINA RESULT:      -9.5      0.000      0.000
REMARK SMILES COc1cc2[nH]nc(CC(=O)OCCOCCOCCOC(=O)c3ccc(-c4c5nc(c(-c6ccccc6)c6ccc([nH]6)c(-c6ccccc6)c6nc(c(-c7ccccc7)c7ccc4[nH]7)C=C6)C=C5)cc3)c2cc1OC(C)C
REMARK SMILES IDX 16 1 15 2 14 3 13 4 12 5 10 6 11 7 9 8 8 9 3 10 4 11 74 12
REMARK SMILES IDX 5 13 73 14 6 15 72 16 7 17 2 19 1 20 75 21 76 22 77 23 78 24
REMARK SMILES IDX 17 25 18 26 19 27 20 28 21 29 22 30 23 31 24 32 25 33 71 34
REMARK SMILES IDX 26 35 70 36 27 37 28 38 29 39 64 40 30 41 69 42 63 43 65 44
REMARK SMILES IDX 31 45 68 46 62 47 61 48 32 50 54 51 39 52 53 53 40 54 43 55
REMARK SMILES IDX 52 56 66 57 41 58 42 59 51 61 67 62 44 63 33 64 34 65 38 66
REMARK SMILES IDX 35 67 37 68 36 69 55 70 56 71 60 72 57 73 59 74 58 75 45 76
REMARK SMILES IDX 46 77 50 78 47 79 49 80 48 81
REMARK H PARENT 6 18 65 49 43 60
REMARK Flexibility Score: inf
ROOT
ATOM      1  C   UNL A   1      42.651  20.052  26.337  1.00  0.00     0.188 C 
ENDROOT
BRANCH   1   2
ATOM      2  O   UNL A   1      41.653  21.008  25.996  1.00  0.00    -0.376 OA
BRANCH   2   3
ATOM      3  C   UNL A   1      40.567  21.149  26.916  1.00  0.00     0.202 C 
BRANCH   3   4
ATOM      4  C   UNL A   1      39.601  22.322  26.671  1.00  0.00     0.261 C 
BRANCH   4   5
ATOM      5  O   UNL A   1      38.879  22.226  25.425  1.00  0.00    -0.463 OA
BRANCH   5   6
ATOM      6  C   UNL A   1      37.533  22.431  25.499  1.00  0.00     0.312 C 
ATOM      7  O   UNL A   1      37.002  23.247  26.248  1.00  0.00    -0.252 OA
BRANCH   6   8
ATOM      8  C   UNL A   1      36.738  21.698  24.443  1.00  0.00     0.181 C 
BRANCH   8   9
ATOM      9  C   UNL A   1      35.275  21.568  24.687  1.00  0.00     0.081 A 
ATOM     10  C   UNL A   1      31.857  23.933  24.164  1.00  0.00     0.162 A 
ATOM     11  C   UNL A   1      31.839  22.580  24.566  1.00  0.00     0.078 A 
ATOM     12  C   UNL A   1      33.066  24.597  23.910  1.00  0.00     0.162 A 
ATOM     13  C   UNL A   1      33.071  21.924  24.702  1.00  0.00     0.069 A 
ATOM     14  C   UNL A   1      34.278  23.897  24.046  1.00  0.00     0.062 A 
ATOM     15  N   UNL A   1      33.406  20.655  25.096  1.00  0.00    -0.277 N 
ATOM     16  C   UNL A   1      34.282  22.554  24.452  1.00  0.00     0.027 A 
ATOM     17  N   UNL A   1      34.729  20.392  25.039  1.00  0.00    -0.179 NA
ATOM     18  H   UNL A   1      32.741  19.994  25.395  1.00  0.00     0.190 HD
BRANCH  10  19
ATOM     19  O   UNL A   1      30.682  24.634  24.191  1.00  0.00    -0.493 OA
ATOM     20  C   UNL A   1      30.301  25.136  25.468  1.00  0.00     0.278 C 
ENDBRANCH  10  19
BRANCH  12  21
ATOM     21  O   UNL A   1      33.290  25.908  23.597  1.00  0.00    -0.487 OA
BRANCH  21  22
ATOM     22  C   UNL A   1      33.896  26.859  24.468  1.00  0.00     0.167 C 
ATOM     23  C   UNL A   1      33.976  28.286  23.929  1.00  0.00     0.052 C 
ATOM     24  C   UNL A   1      33.456  26.691  25.919  1.00  0.00     0.052 C 
ENDBRANCH  21  22
ENDBRANCH  12  21
ENDBRANCH   8   9
ENDBRANCH   6   8
ENDBRANCH   5   6
ENDBRANCH   4   5
ENDBRANCH   3   4
ENDBRANCH   2   3
ENDBRANCH   1   2
BRANCH   1  25
ATOM     25  C   UNL A   1      43.205  19.189  25.200  1.00  0.00     0.188 C 
BRANCH  25  26
ATOM     26  O   UNL A   1      44.484  19.568  24.708  1.00  0.00    -0.376 OA
BRANCH  26  27
ATOM     27  C   UNL A   1      45.005  20.804  25.205  1.00  0.00     0.202 C 
BRANCH  27  28
ATOM     28  C   UNL A   1      44.812  22.023  24.285  1.00  0.00     0.261 C 
BRANCH  28  29
ATOM     29  O   UNL A   1      44.045  23.095  24.871  1.00  0.00    -0.460 OA
BRANCH  29  30
ATOM     30  C   UNL A   1      44.683  24.265  25.100  1.00  0.00     0.338 C 
ATOM     31  O   UNL A   1      45.670  24.687  24.518  1.00  0.00    -0.246 OA
BRANCH  30  32
ATOM     32  C   UNL A   1      43.851  25.079  26.025  1.00  0.00     0.060 A 
ATOM     33  C   UNL A   1      44.214  26.418  26.226  1.00  0.00     0.016 A 
ATOM     34  C   UNL A   1      42.703  24.572  26.644  1.00  0.00     0.016 A 
ATOM     35  C   UNL A   1      43.481  27.226  27.096  1.00  0.00     0.010 A 
ATOM     36  C   UNL A   1      41.965  25.383  27.515  1.00  0.00     0.010 A 
ATOM     37  C   UNL A   1      42.379  26.699  27.783  1.00  0.00    -0.014 A 
BRANCH  37  38
ATOM     38  C   UNL A   1      41.807  27.457  28.926  1.00  0.00     0.031 A 
ATOM     39  C   UNL A   1      42.513  27.382  30.255  1.00  0.00     0.074 A 
ATOM     40  C   UNL A   1      40.728  28.247  28.789  1.00  0.00     0.049 A 
ATOM     41  N   UNL A   1      42.236  27.991  31.380  1.00  0.00    -0.248 NA
ATOM     42  C   UNL A   1      43.693  26.503  30.321  1.00  0.00     0.031 C 
ATOM     43  C   UNL A   1      39.969  28.450  27.557  1.00  0.00     0.029 A 
ATOM     44  N   UNL A   1      40.088  29.039  29.713  1.00  0.00    -0.354 N 
ATOM     45  C   UNL A   1      43.206  27.572  32.282  1.00  0.00     0.074 A 
ATOM     46  C   UNL A   1      44.053  26.628  31.588  1.00  0.00     0.031 C 
ATOM     47  C   UNL A   1      38.969  29.316  27.800  1.00  0.00     0.029 A 
ATOM     48  C   UNL A   1      39.002  29.710  29.209  1.00  0.00     0.049 A 
ATOM     49  H   UNL A   1      40.383  29.117  30.650  1.00  0.00     0.167 HD
ATOM     50  C   UNL A   1      43.389  27.947  33.569  1.00  0.00     0.031 A 
ATOM     51  C   UNL A   1      38.130  30.542  29.815  1.00  0.00     0.031 A 
ATOM     52  C   UNL A   1      42.548  28.871  34.278  1.00  0.00     0.049 A 
ATOM     53  C   UNL A   1      38.306  30.877  31.273  1.00  0.00     0.074 A 
ATOM     54  C   UNL A   1      42.665  29.317  35.583  1.00  0.00     0.029 A 
ATOM     55  N   UNL A   1      41.426  29.484  33.744  1.00  0.00    -0.354 N 
ATOM     56  N   UNL A   1      39.249  30.504  32.104  1.00  0.00    -0.248 NA
ATOM     57  C   UNL A   1      37.297  31.764  31.875  1.00  0.00     0.031 C 
ATOM     58  C   UNL A   1      41.580  30.156  35.857  1.00  0.00     0.029 A 
ATOM     59  C   UNL A   1      40.825  30.282  34.703  1.00  0.00     0.049 A 
ATOM     60  H   UNL A   1      41.104  29.370  32.821  1.00  0.00     0.167 HD
ATOM     61  C   UNL A   1      38.965  31.134  33.311  1.00  0.00     0.074 A 
ATOM     62  C   UNL A   1      37.772  31.925  33.102  1.00  0.00     0.031 C 
ATOM     63  C   UNL A   1      39.636  31.066  34.488  1.00  0.00     0.031 A 
BRANCH  50  64
ATOM     64  C   UNL A   1      44.539  27.320  34.307  1.00  0.00    -0.014 A 
ATOM     65  C   UNL A   1      44.387  26.107  34.998  1.00  0.00     0.009 A 
ATOM     66  C   UNL A   1      45.796  27.942  34.291  1.00  0.00     0.009 A 
ATOM     67  C   UNL A   1      45.465  25.547  35.687  1.00  0.00     0.001 A 
ATOM     68  C   UNL A   1      46.879  27.366  34.955  1.00  0.00     0.001 A 
ATOM     69  C   UNL A   1      46.710  26.175  35.660  1.00  0.00     0.000 A 
ENDBRANCH  50  64
BRANCH  51  70
ATOM     70  C   UNL A   1      36.990  31.117  29.052  1.00  0.00    -0.014 A 
ATOM     71  C   UNL A   1      36.987  32.468  28.672  1.00  0.00     0.009 A 
ATOM     72  C   UNL A   1      35.876  30.323  28.739  1.00  0.00     0.009 A 
ATOM     73  C   UNL A   1      35.880  33.019  28.022  1.00  0.00     0.001 A 
ATOM     74  C   UNL A   1      34.781  30.870  28.064  1.00  0.00     0.001 A 
ATOM     75  C   UNL A   1      34.780  32.219  27.716  1.00  0.00     0.000 A 
ENDBRANCH  51  70
BRANCH  63  76
ATOM     76  C   UNL A   1      39.124  31.898  35.631  1.00  0.00    -0.014 A 
ATOM     77  C   UNL A   1      39.504  33.240  35.790  1.00  0.00     0.009 A 
ATOM     78  C   UNL A   1      38.213  31.339  36.542  1.00  0.00     0.009 A 
ATOM     79  C   UNL A   1      39.010  33.992  36.859  1.00  0.00     0.001 A 
ATOM     80  C   UNL A   1      37.697  32.102  37.591  1.00  0.00     0.001 A 
ATOM     81  C   UNL A   1      38.104  33.425  37.754  1.00  0.00     0.000 A 
ENDBRANCH  63  76
ENDBRANCH  37  38
ENDBRANCH  30  32
ENDBRANCH  29  30
ENDBRANCH  28  29
ENDBRANCH  27  28
ENDBRANCH  26  27
ENDBRANCH  25  26
ENDBRANCH   1  25
TORSDOF 21
ENDMDL
MODEL 2
REMARK VINA RESULT:      -9.1      1.694      6.291
REMARK SMILES COc1cc2[nH]nc(CC(=O)OCCOCCOCCOC(=O)c3ccc(-c4c5nc(c(-c6ccccc6)c6ccc([nH]6)c(-c6ccccc6)c6nc(c(-c7ccccc7)c7ccc4[nH]7)C=C6)C=C5)cc3)c2cc1OC(C)C
REMARK SMILES IDX 16 1 15 2 14 3 13 4 12 5 10 6 11 7 9 8 8 9 3 10 4 11 74 12
REMARK SMILES IDX 5 13 73 14 6 15 72 16 7 17 2 19 1 20 75 21 76 22 77 23 78 24
REMARK SMILES IDX 17 25 18 26 19 27 20 28 21 29 22 30 23 31 24 32 25 33 71 34
REMARK SMILES IDX 26 35 70 36 27 37 28 38 29 39 64 40 30 41 69 42 63 43 65 44
REMARK SMILES IDX 31 45 68 46 62 47 61 48 32 50 54 51 39 52 53 53 40 54 43 55
REMARK SMILES IDX 52 56 66 57 41 58 42 59 51 61 67 62 44 63 33 64 34 65 38 66
REMARK SMILES IDX 35 67 37 68 36 69 55 70 56 71 60 72 57 73 59 74 58 75 45 76
REMARK SMILES IDX 46 77 50 78 47 79 49 80 48 81
REMARK H PARENT 6 18 65 49 43 60
REMARK Flexibility Score: inf
ROOT
ATOM      1  C   UNL A   1      38.669  21.702  25.818  1.00  0.00     0.188 C 
ENDROOT
BRANCH   1   2
ATOM      2  O   UNL A   1      38.351  23.079  25.979  1.00  0.00    -0.376 OA
BRANCH   2   3
ATOM      3  C   UNL A   1      37.072  23.498  25.494  1.00  0.00     0.202 C 
BRANCH   3   4
ATOM      4  C   UNL A   1      35.842  23.030  26.293  1.00  0.00     0.261 C 
BRANCH   4   5
ATOM      5  O   UNL A   1      35.115  21.956  25.660  1.00  0.00    -0.463 OA
BRANCH   5   6
ATOM      6  C   UNL A   1      33.951  21.587  26.265  1.00  0.00     0.312 C 
ATOM      7  O   UNL A   1      33.539  20.431  26.317  1.00  0.00    -0.252 OA
BRANCH   6   8
ATOM      8  C   UNL A   1      33.279  22.697  27.041  1.00  0.00     0.181 C 
BRANCH   8   9
ATOM      9  C   UNL A   1      32.075  23.309  26.415  1.00  0.00     0.081 A 
ATOM     10  C   UNL A   1      31.045  26.995  24.711  1.00  0.00     0.162 A 
ATOM     11  C   UNL A   1      30.217  25.850  24.701  1.00  0.00     0.078 A 
ATOM     12  C   UNL A   1      32.308  26.970  25.320  1.00  0.00     0.162 A 
ATOM     13  C   UNL A   1      30.705  24.690  25.319  1.00  0.00     0.069 A 
ATOM     14  C   UNL A   1      32.761  25.782  25.918  1.00  0.00     0.062 A 
ATOM     15  N   UNL A   1      30.160  23.447  25.514  1.00  0.00    -0.277 N 
ATOM     16  C   UNL A   1      31.952  24.635  25.925  1.00  0.00     0.027 A 
ATOM     17  N   UNL A   1      30.991  22.572  26.121  1.00  0.00    -0.179 NA
ATOM     18  H   UNL A   1      29.246  23.213  25.236  1.00  0.00     0.190 HD
BRANCH  10  19
ATOM     19  O   UNL A   1      30.521  28.178  24.266  1.00  0.00    -0.493 OA
ATOM     20  C   UNL A   1      29.612  28.070  23.174  1.00  0.00     0.278 C 
ENDBRANCH  10  19
BRANCH  12  21
ATOM     21  O   UNL A   1      33.205  27.984  25.504  1.00  0.00    -0.487 OA
BRANCH  21  22
ATOM     22  C   UNL A   1      33.474  28.615  26.753  1.00  0.00     0.167 C 
ATOM     23  C   UNL A   1      34.899  29.134  26.933  1.00  0.00     0.052 C 
ATOM     24  C   UNL A   1      32.341  29.531  27.204  1.00  0.00     0.052 C 
ENDBRANCH  21  22
ENDBRANCH  12  21
ENDBRANCH   8   9
ENDBRANCH   6   8
ENDBRANCH   5   6
ENDBRANCH   4   5
ENDBRANCH   3   4
ENDBRANCH   2   3
ENDBRANCH   1   2
BRANCH   1  25
ATOM     25  C   UNL A   1      40.080  21.262  26.217  1.00  0.00     0.188 C 
BRANCH  25  26
ATOM     26  O   UNL A   1      41.058  22.294  26.252  1.00  0.00    -0.376 OA
BRANCH  26  27
ATOM     27  C   UNL A   1      42.420  21.864  26.335  1.00  0.00     0.202 C 
BRANCH  27  28
ATOM     28  C   UNL A   1      43.460  22.839  25.754  1.00  0.00     0.261 C 
BRANCH  28  29
ATOM     29  O   UNL A   1      42.908  24.088  25.286  1.00  0.00    -0.460 OA
BRANCH  29  30
ATOM     30  C   UNL A   1      43.658  25.201  25.452  1.00  0.00     0.338 C 
ATOM     31  O   UNL A   1      44.577  25.578  24.742  1.00  0.00    -0.246 OA
BRANCH  30  32
ATOM     32  C   UNL A   1      43.034  26.032  26.516  1.00  0.00     0.060 A 
ATOM     33  C   UNL A   1      43.391  27.385  26.584  1.00  0.00     0.016 A 
ATOM     34  C   UNL A   1      42.074  25.523  27.398  1.00  0.00     0.016 A 
ATOM     35  C   UNL A   1      42.851  28.210  27.572  1.00  0.00     0.010 A 
ATOM     36  C   UNL A   1      41.530  26.350  28.388  1.00  0.00     0.010 A 
ATOM     37  C   UNL A   1      41.952  27.685  28.510  1.00  0.00    -0.014 A 
BRANCH  37  38
ATOM     38  C   UNL A   1      41.632  28.473  29.728  1.00  0.00     0.031 A 
ATOM     39  C   UNL A   1      40.437  29.390  29.691  1.00  0.00     0.074 A 
ATOM     40  C   UNL A   1      42.334  28.342  30.868  1.00  0.00     0.049 A 
ATOM     41  N   UNL A   1      39.932  30.138  30.639  1.00  0.00    -0.248 NA
ATOM     42  C   UNL A   1      39.714  29.471  28.410  1.00  0.00     0.031 C 
ATOM     43  C   UNL A   1      43.486  27.464  31.064  1.00  0.00     0.029 A 
ATOM     44  N   UNL A   1      42.165  28.954  32.087  1.00  0.00    -0.354 N 
ATOM     45  C   UNL A   1      38.834  30.772  30.071  1.00  0.00     0.074 A 
ATOM     46  C   UNL A   1      38.770  30.356  28.688  1.00  0.00     0.031 C 
ATOM     47  C   UNL A   1      43.917  27.590  32.332  1.00  0.00     0.029 A 
ATOM     48  C   UNL A   1      43.088  28.573  33.030  1.00  0.00     0.049 A 
ATOM     49  H   UNL A   1      41.449  29.605  32.267  1.00  0.00     0.167 HD
ATOM     50  C   UNL A   1      37.947  31.616  30.648  1.00  0.00     0.031 A 
ATOM     51  C   UNL A   1      43.250  28.975  34.306  1.00  0.00     0.031 A 
ATOM     52  C   UNL A   1      38.005  32.052  32.015  1.00  0.00     0.049 A 
ATOM     53  C   UNL A   1      42.298  29.982  34.901  1.00  0.00     0.074 A 
ATOM     54  C   UNL A   1      37.141  32.899  32.687  1.00  0.00     0.029 A 
ATOM     55  N   UNL A   1      38.989  31.684  32.918  1.00  0.00    -0.354 N 
ATOM     56  N   UNL A   1      41.242  30.544  34.364  1.00  0.00    -0.248 NA
ATOM     57  C   UNL A   1      42.557  30.399  36.288  1.00  0.00     0.031 C 
ATOM     58  C   UNL A   1      37.634  33.089  33.982  1.00  0.00     0.029 A 
ATOM     59  C   UNL A   1      38.769  32.310  34.134  1.00  0.00     0.049 A 
ATOM     60  H   UNL A   1      39.733  31.069  32.725  1.00  0.00     0.167 HD
ATOM     61  C   UNL A   1      40.696  31.353  35.356  1.00  0.00     0.074 A 
ATOM     62  C   UNL A   1      41.527  31.197  36.529  1.00  0.00     0.031 C 
ATOM     63  C   UNL A   1      39.601  32.151  35.298  1.00  0.00     0.031 A 
BRANCH  50  64
ATOM     64  C   UNL A   1      36.846  32.151  29.775  1.00  0.00    -0.014 A 
ATOM     65  C   UNL A   1      37.029  33.304  28.996  1.00  0.00     0.009 A 
ATOM     66  C   UNL A   1      35.617  31.477  29.717  1.00  0.00     0.009 A 
ATOM     67  C   UNL A   1      35.989  33.792  28.201  1.00  0.00     0.001 A 
ATOM     68  C   UNL A   1      34.589  31.950  28.899  1.00  0.00     0.001 A 
ATOM     69  C   UNL A   1      34.773  33.111  28.150  1.00  0.00     0.000 A 
ENDBRANCH  50  64
BRANCH  51  70
ATOM     70  C   UNL A   1      44.371  28.440  35.124  1.00  0.00    -0.014 A 
ATOM     71  C   UNL A   1      44.196  27.303  35.928  1.00  0.00     0.009 A 
ATOM     72  C   UNL A   1      45.613  29.094  35.138  1.00  0.00     0.009 A 
ATOM     73  C   UNL A   1      45.231  26.850  36.750  1.00  0.00     0.001 A 
ATOM     74  C   UNL A   1      46.655  28.623  35.940  1.00  0.00     0.001 A 
ATOM     75  C   UNL A   1      46.460  27.509  36.753  1.00  0.00     0.000 A 
ENDBRANCH  51  70
BRANCH  63  76
ATOM     76  C   UNL A   1      39.210  32.887  36.550  1.00  0.00    -0.014 A 
ATOM     77  C   UNL A   1      39.695  34.176  36.824  1.00  0.00     0.009 A 
ATOM     78  C   UNL A   1      38.309  32.297  37.449  1.00  0.00     0.009 A 
ATOM     79  C   UNL A   1      39.313  34.841  37.992  1.00  0.00     0.001 A 
ATOM     80  C   UNL A   1      37.904  32.976  38.601  1.00  0.00     0.001 A 
ATOM     81  C   UNL A   1      38.415  34.243  38.876  1.00  0.00     0.000 A 
ENDBRANCH  63  76
ENDBRANCH  37  38
ENDBRANCH  30  32
ENDBRANCH  29  30
ENDBRANCH  28  29
ENDBRANCH  27  28
ENDBRANCH  26  27
ENDBRANCH  25  26
ENDBRANCH   1  25
TORSDOF 21
ENDMDL
MODEL 3
REMARK VINA RESULT:      -8.9      4.184      9.991
REMARK SMILES COc1cc2[nH]nc(CC(=O)OCCOCCOCCOC(=O)c3ccc(-c4c5nc(c(-c6ccccc6)c6ccc([nH]6)c(-c6ccccc6)c6nc(c(-c7ccccc7)c7ccc4[nH]7)C=C6)C=C5)cc3)c2cc1OC(C)C
REMARK SMILES IDX 16 1 15 2 14 3 13 4 12 5 10 6 11 7 9 8 8 9 3 10 4 11 74 12
REMARK SMILES IDX 5 13 73 14 6 15 72 16 7 17 2 19 1 20 75 21 76 22 77 23 78 24
REMARK SMILES IDX 17 25 18 26 19 27 20 28 21 29 22 30 23 31 24 32 25 33 71 34
REMARK SMILES IDX 26 35 70 36 27 37 28 38 29 39 64 40 30 41 69 42 63 43 65 44
REMARK SMILES IDX 31 45 68 46 62 47 61 48 32 50 54 51 39 52 53 53 40 54 43 55
REMARK SMILES IDX 52 56 66 57 41 58 42 59 51 61 67 62 44 63 33 64 34 65 38 66
REMARK SMILES IDX 35 67 37 68 36 69 55 70 56 71 60 72 57 73 59 74 58 75 45 76
REMARK SMILES IDX 46 77 50 78 47 79 49 80 48 81
REMARK H PARENT 6 18 65 49 43 60
REMARK Flexibility Score: inf
ROOT
ATOM      1  C   UNL A   1      35.294  31.417  28.189  1.00  0.00     0.188 C 
ENDROOT
BRANCH   1   2
ATOM      2  O   UNL A   1      34.611  30.833  27.085  1.00  0.00    -0.376 OA
BRANCH   2   3
ATOM      3  C   UNL A   1      33.200  30.654  27.232  1.00  0.00     0.202 C 
BRANCH   3   4
ATOM      4  C   UNL A   1      32.388  30.470  25.938  1.00  0.00     0.261 C 
BRANCH   4   5
ATOM      5  O   UNL A   1      31.438  29.386  26.000  1.00  0.00    -0.463 OA
BRANCH   5   6
ATOM      6  C   UNL A   1      31.889  28.173  25.574  1.00  0.00     0.312 C 
ATOM      7  O   UNL A   1      32.317  27.957  24.443  1.00  0.00    -0.252 OA
BRANCH   6   8
ATOM      8  C   UNL A   1      31.998  27.135  26.667  1.00  0.00     0.181 C 
BRANCH   8   9
ATOM      9  C   UNL A   1      31.255  25.863  26.450  1.00  0.00     0.081 A 
ATOM     10  C   UNL A   1      32.199  21.853  25.690  1.00  0.00     0.162 A 
ATOM     11  C   UNL A   1      30.896  22.332  25.952  1.00  0.00     0.078 A 
ATOM     12  C   UNL A   1      33.298  22.723  25.661  1.00  0.00     0.162 A 
ATOM     13  C   UNL A   1      30.743  23.707  26.183  1.00  0.00     0.069 A 
ATOM     14  C   UNL A   1      33.100  24.092  25.910  1.00  0.00     0.062 A 
ATOM     15  N   UNL A   1      29.643  24.487  26.428  1.00  0.00    -0.277 N 
ATOM     16  C   UNL A   1      31.813  24.589  26.166  1.00  0.00     0.027 A 
ATOM     17  N   UNL A   1      29.930  25.787  26.654  1.00  0.00    -0.179 NA
ATOM     18  H   UNL A   1      28.725  24.131  26.439  1.00  0.00     0.190 HD
BRANCH  10  19
ATOM     19  O   UNL A   1      32.344  20.550  25.296  1.00  0.00    -0.493 OA
ATOM     20  C   UNL A   1      32.550  20.355  23.901  1.00  0.00     0.278 C 
ENDBRANCH  10  19
BRANCH  12  21
ATOM     21  O   UNL A   1      34.603  22.466  25.347  1.00  0.00    -0.487 OA
BRANCH  21  22
ATOM     22  C   UNL A   1      35.196  22.711  24.075  1.00  0.00     0.167 C 
ATOM     23  C   UNL A   1      34.340  23.507  23.092  1.00  0.00     0.052 C 
ATOM     24  C   UNL A   1      36.669  23.093  24.177  1.00  0.00     0.052 C 
ENDBRANCH  21  22
ENDBRANCH  12  21
ENDBRANCH   8   9
ENDBRANCH   6   8
ENDBRANCH   5   6
ENDBRANCH   4   5
ENDBRANCH   3   4
ENDBRANCH   2   3
ENDBRANCH   1   2
BRANCH   1  25
ATOM     25  C   UNL A   1      35.613  32.911  28.099  1.00  0.00     0.188 C 
BRANCH  25  26
ATOM     26  O   UNL A   1      35.415  33.654  29.296  1.00  0.00    -0.376 OA
BRANCH  26  27
ATOM     27  C   UNL A   1      34.322  33.238  30.119  1.00  0.00     0.202 C 
BRANCH  27  28
ATOM     28  C   UNL A   1      34.676  32.926  31.584  1.00  0.00     0.261 C 
BRANCH  28  29
ATOM     29  O   UNL A   1      35.381  31.681  31.774  1.00  0.00    -0.460 OA
BRANCH  29  30
ATOM     30  C   UNL A   1      36.512  31.713  32.516  1.00  0.00     0.338 C 
ATOM     31  O   UNL A   1      36.608  32.027  33.691  1.00  0.00    -0.246 OA
BRANCH  30  32
ATOM     32  C   UNL A   1      37.604  31.076  31.732  1.00  0.00     0.060 A 
ATOM     33  C   UNL A   1      38.579  30.355  32.434  1.00  0.00     0.016 A 
ATOM     34  C   UNL A   1      37.650  31.125  30.334  1.00  0.00     0.016 A 
ATOM     35  C   UNL A   1      39.636  29.750  31.754  1.00  0.00     0.010 A 
ATOM     36  C   UNL A   1      38.709  30.515  29.651  1.00  0.00     0.010 A 
ATOM     37  C   UNL A   1      39.734  29.866  30.361  1.00  0.00    -0.014 A 
BRANCH  37  38
ATOM     38  C   UNL A   1      41.007  29.498  29.690  1.00  0.00     0.031 A 
ATOM     39  C   UNL A   1      41.151  28.097  29.154  1.00  0.00     0.074 A 
ATOM     40  C   UNL A   1      41.994  30.390  29.494  1.00  0.00     0.049 A 
ATOM     41  N   UNL A   1      42.142  27.558  28.490  1.00  0.00    -0.248 NA
ATOM     42  C   UNL A   1      40.023  27.183  29.399  1.00  0.00     0.031 C 
ATOM     43  C   UNL A   1      41.978  31.788  29.919  1.00  0.00     0.029 A 
ATOM     44  N   UNL A   1      43.210  30.242  28.871  1.00  0.00    -0.354 N 
ATOM     45  C   UNL A   1      41.755  26.248  28.237  1.00  0.00     0.074 A 
ATOM     46  C   UNL A   1      40.460  26.060  28.852  1.00  0.00     0.031 C 
ATOM     47  C   UNL A   1      43.128  32.371  29.539  1.00  0.00     0.029 A 
ATOM     48  C   UNL A   1      43.972  31.384  28.865  1.00  0.00     0.049 A 
ATOM     49  H   UNL A   1      43.508  29.394  28.467  1.00  0.00     0.167 HD
ATOM     50  C   UNL A   1      42.407  25.287  27.542  1.00  0.00     0.031 A 
ATOM     51  C   UNL A   1      45.210  31.606  28.378  1.00  0.00     0.031 A 
ATOM     52  C   UNL A   1      43.701  25.452  26.939  1.00  0.00     0.049 A 
ATOM     53  C   UNL A   1      45.952  30.494  27.683  1.00  0.00     0.074 A 
ATOM     54  C   UNL A   1      44.434  24.534  26.207  1.00  0.00     0.029 A 
ATOM     55  N   UNL A   1      44.459  26.609  27.006  1.00  0.00    -0.354 N 
ATOM     56  N   UNL A   1      45.559  29.272  27.417  1.00  0.00    -0.248 NA
ATOM     57  C   UNL A   1      47.311  30.801  27.208  1.00  0.00     0.031 C 
ATOM     58  C   UNL A   1      45.661  25.117  25.879  1.00  0.00     0.029 A 
ATOM     59  C   UNL A   1      45.666  26.419  26.352  1.00  0.00     0.049 A 
ATOM     60  H   UNL A   1      44.183  27.443  27.450  1.00  0.00     0.167 HD
ATOM     61  C   UNL A   1      46.605  28.678  26.720  1.00  0.00     0.074 A 
ATOM     62  C   UNL A   1      47.643  29.677  26.590  1.00  0.00     0.031 C 
ATOM     63  C   UNL A   1      46.695  27.418  26.227  1.00  0.00     0.031 A 
BRANCH  50  64
ATOM     64  C   UNL A   1      41.734  23.948  27.430  1.00  0.00    -0.014 A 
ATOM     65  C   UNL A   1      42.210  22.831  28.136  1.00  0.00     0.009 A 
ATOM     66  C   UNL A   1      40.594  23.810  26.624  1.00  0.00     0.009 A 
ATOM     67  C   UNL A   1      41.577  21.593  28.008  1.00  0.00     0.001 A 
ATOM     68  C   UNL A   1      39.946  22.579  26.522  1.00  0.00     0.001 A 
ATOM     69  C   UNL A   1      40.443  21.470  27.206  1.00  0.00     0.000 A 
ENDBRANCH  50  64
BRANCH  51  70
ATOM     70  C   UNL A   1      45.848  32.940  28.537  1.00  0.00    -0.014 A 
ATOM     71  C   UNL A   1      45.696  33.932  27.556  1.00  0.00     0.009 A 
ATOM     72  C   UNL A   1      46.654  33.211  29.655  1.00  0.00     0.009 A 
ATOM     73  C   UNL A   1      46.360  35.156  27.676  1.00  0.00     0.001 A 
ATOM     74  C   UNL A   1      47.294  34.446  29.786  1.00  0.00     0.001 A 
ATOM     75  C   UNL A   1      47.156  35.412  28.792  1.00  0.00     0.000 A 
ENDBRANCH  51  70
BRANCH  63  76
ATOM     76  C   UNL A   1      47.940  27.055  25.466  1.00  0.00    -0.014 A 
ATOM     77  C   UNL A   1      49.056  26.495  26.108  1.00  0.00     0.009 A 
ATOM     78  C   UNL A   1      47.982  27.239  24.075  1.00  0.00     0.009 A 
ATOM     79  C   UNL A   1      50.200  26.163  25.378  1.00  0.00     0.001 A 
ATOM     80  C   UNL A   1      49.114  26.878  23.342  1.00  0.00     0.001 A 
ATOM     81  C   UNL A   1      50.225  26.349  23.996  1.00  0.00     0.000 A 
ENDBRANCH  63  76
ENDBRANCH  37  38
ENDBRANCH  30  32
ENDBRANCH  29  30
ENDBRANCH  28  29
ENDBRANCH  27  28
ENDBRANCH  26  27
ENDBRANCH  25  26
ENDBRANCH   1  25
TORSDOF 21
ENDMDL
