MODEL 1
REMARK VINA RESULT:     -12.7      0.000      0.000
REMARK SMILES Cc1c(NC(=O)[C@@H]2CC=CC[C@@H]2C(=O)OCCOCCOCCOC(=O)c2ccc(-c3c4nc(c(-c5ccccc5)c5ccc([nH]5)c(-c5ccccc5)c5nc(c(-c6ccccc6)c6ccc3[nH]6)C=C5)C=C4)cc2)cccc1C(=O)N1CCOCC1
REMARK SMILES IDX 19 1 18 2 17 3 16 4 15 5 13 6 14 7 12 8 7 9 8 10 9 11 11 12
REMARK SMILES IDX 10 13 5 14 4 15 6 17 3 18 1 19 2 20 78 21 75 22 77 23 76 24
REMARK SMILES IDX 79 25 80 26 81 27 82 28 86 29 83 30 85 31 84 32 20 33 21 34
REMARK SMILES IDX 22 35 23 36 24 37 25 38 26 39 27 40 28 41 74 42 29 43 73 44
REMARK SMILES IDX 30 45 31 46 32 47 67 48 33 49 72 50 66 51 68 52 34 53 71 54
REMARK SMILES IDX 65 55 64 56 35 58 57 59 42 60 56 61 43 62 46 63 55 64 69 65
REMARK SMILES IDX 44 66 45 67 54 69 70 70 47 71 36 72 37 73 41 74 38 75 40 76
REMARK SMILES IDX 39 77 58 78 59 79 63 80 60 81 62 82 61 83 48 84 49 85 53 86
REMARK SMILES IDX 50 87 52 88 51 89
REMARK H PARENT 4 16 68 57 46 68
REMARK Flexibility Score: inf
ROOT
ATOM      1  C   UNL A   1      35.271  31.993  27.896  1.00  0.00     0.188 C 
ENDROOT
BRANCH   1   2
ATOM      2  O   UNL A   1      34.536  30.754  27.938  1.00  0.00    -0.376 OA
BRANCH   2   3
ATOM      3  C   UNL A   1      33.337  30.481  27.182  1.00  0.00     0.202 C 
BRANCH   3   4
ATOM      4  C   UNL A   1      32.326  29.117  27.186  1.00  0.00     0.261 C 
BRANCH   4   5
ATOM      5  O   UNL A   1      31.778  27.869  25.961  1.00  0.00    -0.463 OA
BRANCH   5   6
ATOM      6  C   UNL A   1      30.965  27.668  24.730  1.00  0.00     0.310 C 
ATOM      7  O   UNL A   1      29.964  28.301  24.353  1.00  0.00    -0.252 OA
BRANCH   6   8
ATOM      8  C   UNL A   1      31.282  26.696  23.615  1.00  0.00     0.116 C 
ATOM      9  C   UNL A   1      31.939  25.406  23.949  1.00  0.00     0.097 C 
ATOM     10  C   UNL A   1      33.427  25.538  24.103  1.00  0.00     0.041 C 
ATOM     11  C   UNL A   1      33.981  26.168  22.841  1.00  0.00    -0.030 C 
ATOM     12  C   UNL A   1      31.816  27.301  22.299  1.00  0.00     0.043 C 
ATOM     13  C   UNL A   1      33.246  26.938  22.019  1.00  0.00    -0.030 C 
BRANCH   9  14
ATOM     14  C   UNL A   1      31.087  24.883  25.054  1.00  0.00     0.228 C 
ATOM     15  N   UNL A   1      31.025  23.487  25.031  1.00  0.00    -0.326 N 
ATOM     16  H   UNL A   1      30.294  22.983  24.605  1.00  0.00     0.169 HD
ATOM     17  O   UNL A   1      30.372  25.571  25.771  1.00  0.00    -0.274 OA
BRANCH  15  18
ATOM     18  C   UNL A   1      32.117  22.873  25.681  1.00  0.00     0.044 A 
ATOM     19  C   UNL A   1      32.500  21.805  23.462  1.00  0.00     0.047 C 
ATOM     20  C   UNL A   1      32.845  21.950  24.922  1.00  0.00    -0.015 A 
ATOM     21  C   UNL A   1      33.750  21.123  25.600  1.00  0.00     0.045 A 
ATOM     22  C   UNL A   1      32.252  22.956  27.071  1.00  0.00     0.026 A 
ATOM     23  C   UNL A   1      33.732  21.080  27.007  1.00  0.00     0.014 A 
ATOM     24  C   UNL A   1      32.984  21.993  27.744  1.00  0.00     0.003 A 
BRANCH  21  25
ATOM     25  C   UNL A   1      34.596  20.127  24.903  1.00  0.00     0.254 C 
ATOM     26  O   UNL A   1      35.764  20.438  24.671  1.00  0.00    -0.269 OA
ATOM     27  N   UNL A   1      34.091  18.866  24.612  1.00  0.00    -0.334 N 
ATOM     28  C   UNL A   1      32.702  18.502  24.269  1.00  0.00     0.148 C 
ATOM     29  C   UNL A   1      35.047  17.775  24.491  1.00  0.00     0.148 C 
ATOM     30  C   UNL A   1      32.276  17.147  24.881  1.00  0.00     0.181 C 
ATOM     31  C   UNL A   1      34.539  16.565  25.274  1.00  0.00     0.181 C 
ATOM     32  O   UNL A   1      33.279  16.130  24.742  1.00  0.00    -0.378 OA
ENDBRANCH  21  25
ENDBRANCH  15  18
ENDBRANCH   9  14
ENDBRANCH   6   8
ENDBRANCH   5   6
ENDBRANCH   4   5
ENDBRANCH   3   4
ENDBRANCH   2   3
ENDBRANCH   1   2
BRANCH   1  33
ATOM     33  C   UNL A   1      35.088  33.052  28.966  1.00  0.00     0.188 C 
BRANCH  33  34
ATOM     34  O   UNL A   1      33.943  33.796  28.641  1.00  0.00    -0.376 OA
BRANCH  34  35
ATOM     35  C   UNL A   1      33.997  35.190  28.779  1.00  0.00     0.202 C 
BRANCH  35  36
ATOM     36  C   UNL A   1      33.219  35.670  30.010  1.00  0.00     0.261 C 
BRANCH  36  37
ATOM     37  O   UNL A   1      33.130  34.664  31.062  1.00  0.00    -0.460 OA
BRANCH  37  38
ATOM     38  C   UNL A   1      33.542  34.987  32.335  1.00  0.00     0.338 C 
ATOM     39  O   UNL A   1      32.838  35.571  33.154  1.00  0.00    -0.246 OA
BRANCH  38  40
ATOM     40  C   UNL A   1      34.948  34.554  32.591  1.00  0.00     0.060 A 
ATOM     41  C   UNL A   1      36.161  35.193  32.281  1.00  0.00     0.016 A 
ATOM     42  C   UNL A   1      35.058  33.281  32.996  1.00  0.00     0.016 A 
ATOM     43  C   UNL A   1      37.425  34.459  32.104  1.00  0.00     0.010 A 
ATOM     44  C   UNL A   1      36.201  32.613  32.604  1.00  0.00     0.010 A 
ATOM     45  C   UNL A   1      37.496  33.066  32.119  1.00  0.00    -0.014 A 
BRANCH  45  46
ATOM     46  C   UNL A   1      38.935  32.079  31.701  1.00  0.00     0.031 A 
ATOM     47  C   UNL A   1      39.106  30.581  30.683  1.00  0.00     0.074 A 
ATOM     48  C   UNL A   1      40.086  32.452  32.288  1.00  0.00     0.049 A 
ATOM     49  N   UNL A   1      39.486  29.388  31.102  1.00  0.00    -0.248 NA
ATOM     50  C   UNL A   1      38.629  30.327  29.228  1.00  0.00     0.031 C 
ATOM     51  C   UNL A   1      41.441  31.980  32.055  1.00  0.00     0.029 A 
ATOM     52  N   UNL A   1      40.232  33.394  33.305  1.00  0.00    -0.354 N 
ATOM     53  C   UNL A   1      39.405  28.491  30.004  1.00  0.00     0.074 A 
ATOM     54  C   UNL A   1      38.516  29.027  29.056  1.00  0.00     0.031 C 
ATOM     55  C   UNL A   1      42.204  32.372  33.097  1.00  0.00     0.029 A 
ATOM     56  C   UNL A   1      41.308  32.973  34.082  1.00  0.00     0.049 A 
ATOM     57  H   UNL A   1      39.682  34.199  33.447  1.00  0.00     0.167 HD
ATOM     58  C   UNL A   1      40.414  27.657  29.611  1.00  0.00     0.031 A 
ATOM     59  C   UNL A   1      41.063  32.528  35.346  1.00  0.00     0.031 A 
ATOM     60  C   UNL A   1      41.527  27.889  30.480  1.00  0.00     0.049 A 
ATOM     61  C   UNL A   1      41.456  31.075  35.455  1.00  0.00     0.074 A 
ATOM     62  C   UNL A   1      42.612  28.741  30.377  1.00  0.00     0.029 A 
ATOM     63  N   UNL A   1      41.334  27.630  31.820  1.00  0.00    -0.354 N 
ATOM     64  N   UNL A   1      41.430  30.228  34.460  1.00  0.00    -0.248 NA
ATOM     65  C   UNL A   1      42.018  30.500  36.669  1.00  0.00     0.031 C 
ATOM     66  C   UNL A   1      43.066  29.007  31.696  1.00  0.00     0.029 A 
ATOM     67  C   UNL A   1      42.260  28.304  32.576  1.00  0.00     0.049 A 
ATOM     68  H   UNL A   1      40.630  27.046  32.183  1.00  0.00     0.167 HD
ATOM     69  C   UNL A   1      42.041  29.065  34.844  1.00  0.00     0.074 A 
ATOM     70  C   UNL A   1      42.363  29.274  36.242  1.00  0.00     0.031 C 
ATOM     71  C   UNL A   1      42.290  28.029  33.994  1.00  0.00     0.031 A 
BRANCH  58  72
ATOM     72  C   UNL A   1      40.497  27.079  28.195  1.00  0.00    -0.014 A 
ATOM     73  C   UNL A   1      39.883  25.849  27.904  1.00  0.00     0.009 A 
ATOM     74  C   UNL A   1      41.224  27.668  27.134  1.00  0.00     0.009 A 
ATOM     75  C   UNL A   1      40.050  25.201  26.670  1.00  0.00     0.001 A 
ATOM     76  C   UNL A   1      41.429  27.005  25.908  1.00  0.00     0.001 A 
ATOM     77  C   UNL A   1      40.843  25.767  25.679  1.00  0.00     0.000 A 
ENDBRANCH  58  72
BRANCH  59  78
ATOM     78  C   UNL A   1      39.934  33.226  36.058  1.00  0.00    -0.014 A 
ATOM     79  C   UNL A   1      38.613  32.752  35.841  1.00  0.00     0.009 A 
ATOM     80  C   UNL A   1      40.125  34.115  37.125  1.00  0.00     0.009 A 
ATOM     81  C   UNL A   1      37.563  33.041  36.721  1.00  0.00     0.001 A 
ATOM     82  C   UNL A   1      39.056  34.438  37.990  1.00  0.00     0.001 A 
ATOM     83  C   UNL A   1      37.789  33.877  37.806  1.00  0.00     0.000 A 
ENDBRANCH  59  78
BRANCH  71  84
ATOM     84  C   UNL A   1      42.598  26.601  34.383  1.00  0.00    -0.014 A 
ATOM     85  C   UNL A   1      43.844  26.002  34.205  1.00  0.00     0.009 A 
ATOM     86  C   UNL A   1      41.648  25.872  35.147  1.00  0.00     0.009 A 
ATOM     87  C   UNL A   1      44.112  24.729  34.721  1.00  0.00     0.001 A 
ATOM     88  C   UNL A   1      41.940  24.646  35.738  1.00  0.00     0.001 A 
ATOM     89  C   UNL A   1      43.172  24.064  35.503  1.00  0.00     0.000 A 
ENDBRANCH  71  84
ENDBRANCH  45  46
ENDBRANCH  38  40
ENDBRANCH  37  38
ENDBRANCH  36  37
ENDBRANCH  35  36
ENDBRANCH  34  35
ENDBRANCH  33  34
ENDBRANCH   1  33
TORSDOF 20
ENDMDL
MODEL 2
REMARK VINA RESULT:     -12.0      3.596     10.045
REMARK SMILES Cc1c(NC(=O)[C@@H]2CC=CC[C@@H]2C(=O)OCCOCCOCCOC(=O)c2ccc(-c3c4nc(c(-c5ccccc5)c5ccc([nH]5)c(-c5ccccc5)c5nc(c(-c6ccccc6)c6ccc3[nH]6)C=C5)C=C4)cc2)cccc1C(=O)N1CCOCC1
REMARK SMILES IDX 19 1 18 2 17 3 16 4 15 5 13 6 14 7 12 8 7 9 8 10 9 11 11 12
REMARK SMILES IDX 10 13 5 14 4 15 6 17 3 18 1 19 2 20 78 21 75 22 77 23 76 24
REMARK SMILES IDX 79 25 80 26 81 27 82 28 86 29 83 30 85 31 84 32 20 33 21 34
REMARK SMILES IDX 22 35 23 36 24 37 25 38 26 39 27 40 28 41 74 42 29 43 73 44
REMARK SMILES IDX 30 45 31 46 32 47 67 48 33 49 72 50 66 51 68 52 34 53 71 54
REMARK SMILES IDX 65 55 64 56 35 58 57 59 42 60 56 61 43 62 46 63 55 64 69 65
REMARK SMILES IDX 44 66 45 67 54 69 70 70 47 71 36 72 37 73 41 74 38 75 40 76
REMARK SMILES IDX 39 77 58 78 59 79 63 80 60 81 62 82 61 83 48 84 49 85 53 86
REMARK SMILES IDX 50 87 52 88 51 89
REMARK H PARENT 4 16 68 57 46 68
REMARK Flexibility Score: inf
ROOT
ATOM      1  C   UNL A   1      41.133  20.178  26.982  1.00  0.00     0.188 C 
ENDROOT
BRANCH   1   2
ATOM      2  O   UNL A   1      40.372  21.088  26.162  1.00  0.00    -0.376 OA
BRANCH   2   3
ATOM      3  C   UNL A   1      39.971  22.416  26.560  1.00  0.00     0.202 C 
BRANCH   3   4
ATOM      4  C   UNL A   1      38.483  23.211  26.378  1.00  0.00     0.261 C 
BRANCH   4   5
ATOM      5  O   UNL A   1      36.877  22.852  25.569  1.00  0.00    -0.463 OA
BRANCH   5   6
ATOM      6  C   UNL A   1      35.564  22.175  25.751  1.00  0.00     0.310 C 
ATOM      7  O   UNL A   1      35.096  21.657  26.779  1.00  0.00    -0.252 OA
BRANCH   6   8
ATOM      8  C   UNL A   1      34.468  22.087  24.711  1.00  0.00     0.116 C 
ATOM      9  C   UNL A   1      33.186  22.796  24.955  1.00  0.00     0.097 C 
ATOM     10  C   UNL A   1      32.254  22.018  25.839  1.00  0.00     0.041 C 
ATOM     11  C   UNL A   1      32.056  20.645  25.230  1.00  0.00    -0.030 C 
ATOM     12  C   UNL A   1      34.257  20.712  24.040  1.00  0.00     0.043 C 
ATOM     13  C   UNL A   1      32.947  20.073  24.401  1.00  0.00    -0.030 C 
BRANCH   9  14
ATOM     14  C   UNL A   1      33.637  24.169  25.320  1.00  0.00     0.228 C 
ATOM     15  N   UNL A   1      34.467  24.710  24.334  1.00  0.00    -0.326 N 
ATOM     16  H   UNL A   1      35.450  24.678  24.373  1.00  0.00     0.169 HD
ATOM     17  O   UNL A   1      33.477  24.690  26.416  1.00  0.00    -0.274 OA
BRANCH  15  18
ATOM     18  C   UNL A   1      33.751  25.306  23.273  1.00  0.00     0.044 A 
ATOM     19  C   UNL A   1      33.671  27.284  24.787  1.00  0.00     0.047 C 
ATOM     20  C   UNL A   1      33.267  26.598  23.507  1.00  0.00    -0.015 A 
ATOM     21  C   UNL A   1      32.329  27.113  22.603  1.00  0.00     0.045 A 
ATOM     22  C   UNL A   1      33.299  24.531  22.199  1.00  0.00     0.026 A 
ATOM     23  C   UNL A   1      31.740  26.259  21.650  1.00  0.00     0.014 A 
ATOM     24  C   UNL A   1      32.221  24.969  21.448  1.00  0.00     0.003 A 
BRANCH  21  25
ATOM     25  C   UNL A   1      31.765  28.477  22.729  1.00  0.00     0.254 C 
ATOM     26  O   UNL A   1      32.502  29.423  22.454  1.00  0.00    -0.269 OA
ATOM     27  N   UNL A   1      30.428  28.649  23.064  1.00  0.00    -0.334 N 
ATOM     28  C   UNL A   1      29.596  27.803  23.942  1.00  0.00     0.148 C 
ATOM     29  C   UNL A   1      29.780  29.874  22.619  1.00  0.00     0.148 C 
ATOM     30  C   UNL A   1      28.144  27.663  23.429  1.00  0.00     0.181 C 
ATOM     31  C   UNL A   1      28.421  29.537  22.006  1.00  0.00     0.181 C 
ATOM     32  O   UNL A   1      27.583  28.908  22.988  1.00  0.00    -0.378 OA
ENDBRANCH  21  25
ENDBRANCH  15  18
ENDBRANCH   9  14
ENDBRANCH   6   8
ENDBRANCH   5   6
ENDBRANCH   4   5
ENDBRANCH   3   4
ENDBRANCH   2   3
ENDBRANCH   1   2
BRANCH   1  33
ATOM     33  C   UNL A   1      41.936  19.050  26.366  1.00  0.00     0.188 C 
BRANCH  33  34
ATOM     34  O   UNL A   1      42.532  19.538  25.193  1.00  0.00    -0.376 OA
BRANCH  34  35
ATOM     35  C   UNL A   1      43.886  19.253  24.968  1.00  0.00     0.202 C 
BRANCH  35  36
ATOM     36  C   UNL A   1      44.682  20.515  24.618  1.00  0.00     0.261 C 
BRANCH  36  37
ATOM     37  O   UNL A   1      44.758  21.471  25.716  1.00  0.00    -0.460 OA
BRANCH  37  38
ATOM     38  C   UNL A   1      43.789  22.443  25.827  1.00  0.00     0.338 C 
ATOM     39  O   UNL A   1      43.098  22.830  24.888  1.00  0.00    -0.246 OA
BRANCH  38  40
ATOM     40  C   UNL A   1      43.692  22.975  27.219  1.00  0.00     0.060 A 
ATOM     41  C   UNL A   1      42.589  23.506  27.909  1.00  0.00     0.016 A 
ATOM     42  C   UNL A   1      44.879  23.147  27.818  1.00  0.00     0.016 A 
ATOM     43  C   UNL A   1      42.730  24.448  29.032  1.00  0.00     0.010 A 
ATOM     44  C   UNL A   1      44.964  24.193  28.714  1.00  0.00     0.010 A 
ATOM     45  C   UNL A   1      43.962  24.972  29.424  1.00  0.00    -0.014 A 
BRANCH  45  46
ATOM     46  C   UNL A   1      44.216  26.279  30.627  1.00  0.00     0.031 A 
ATOM     47  C   UNL A   1      44.313  26.234  32.443  1.00  0.00     0.074 A 
ATOM     48  C   UNL A   1      44.279  27.526  30.126  1.00  0.00     0.049 A 
ATOM     49  N   UNL A   1      43.474  26.806  33.287  1.00  0.00    -0.248 NA
ATOM     50  C   UNL A   1      45.210  25.353  33.354  1.00  0.00     0.031 C 
ATOM     51  C   UNL A   1      44.626  28.774  30.787  1.00  0.00     0.029 A 
ATOM     52  N   UNL A   1      43.991  27.911  28.818  1.00  0.00    -0.354 N 
ATOM     53  C   UNL A   1      43.870  26.456  34.605  1.00  0.00     0.074 A 
ATOM     54  C   UNL A   1      44.644  25.284  34.540  1.00  0.00     0.031 C 
ATOM     55  C   UNL A   1      44.217  29.790  29.998  1.00  0.00     0.029 A 
ATOM     56  C   UNL A   1      43.470  29.200  28.891  1.00  0.00     0.049 A 
ATOM     57  H   UNL A   1      44.128  27.376  28.002  1.00  0.00     0.167 HD
ATOM     58  C   UNL A   1      44.057  27.351  35.620  1.00  0.00     0.031 A 
ATOM     59  C   UNL A   1      42.152  29.385  28.601  1.00  0.00     0.031 A 
ATOM     60  C   UNL A   1      43.809  28.658  35.093  1.00  0.00     0.049 A 
ATOM     61  C   UNL A   1      41.432  29.893  29.827  1.00  0.00     0.074 A 
ATOM     62  C   UNL A   1      44.653  29.597  34.528  1.00  0.00     0.029 A 
ATOM     63  N   UNL A   1      42.541  28.903  34.611  1.00  0.00    -0.354 N 
ATOM     64  N   UNL A   1      41.787  29.623  31.055  1.00  0.00    -0.248 NA
ATOM     65  C   UNL A   1      40.326  30.839  29.756  1.00  0.00     0.031 C 
ATOM     66  C   UNL A   1      43.865  30.413  33.674  1.00  0.00     0.029 A 
ATOM     67  C   UNL A   1      42.557  29.967  33.744  1.00  0.00     0.049 A 
ATOM     68  H   UNL A   1      41.738  28.387  34.853  1.00  0.00     0.167 HD
ATOM     69  C   UNL A   1      41.061  30.401  31.915  1.00  0.00     0.074 A 
ATOM     70  C   UNL A   1      40.140  31.121  31.056  1.00  0.00     0.031 C 
ATOM     71  C   UNL A   1      41.284  30.450  33.259  1.00  0.00     0.031 A 
BRANCH  58  72
ATOM     72  C   UNL A   1      44.921  27.037  36.845  1.00  0.00    -0.014 A 
ATOM     73  C   UNL A   1      46.284  27.380  36.847  1.00  0.00     0.009 A 
ATOM     74  C   UNL A   1      44.461  26.344  37.990  1.00  0.00     0.009 A 
ATOM     75  C   UNL A   1      47.155  26.985  37.876  1.00  0.00     0.001 A 
ATOM     76  C   UNL A   1      45.336  25.911  39.005  1.00  0.00     0.001 A 
ATOM     77  C   UNL A   1      46.687  26.230  38.944  1.00  0.00     0.000 A 
ENDBRANCH  58  72
BRANCH  59  78
ATOM     78  C   UNL A   1      41.603  28.483  27.527  1.00  0.00    -0.014 A 
ATOM     79  C   UNL A   1      42.260  28.468  26.268  1.00  0.00     0.009 A 
ATOM     80  C   UNL A   1      40.676  27.461  27.775  1.00  0.00     0.009 A 
ATOM     81  C   UNL A   1      42.102  27.415  25.358  1.00  0.00     0.001 A 
ATOM     82  C   UNL A   1      40.487  26.421  26.838  1.00  0.00     0.001 A 
ATOM     83  C   UNL A   1      41.221  26.383  25.650  1.00  0.00     0.000 A 
ENDBRANCH  59  78
BRANCH  71  84
ATOM     84  C   UNL A   1      40.327  30.961  34.311  1.00  0.00    -0.014 A 
ATOM     85  C   UNL A   1      39.026  30.488  34.470  1.00  0.00     0.009 A 
ATOM     86  C   UNL A   1      40.814  31.829  35.325  1.00  0.00     0.009 A 
ATOM     87  C   UNL A   1      38.239  30.891  35.555  1.00  0.00     0.001 A 
ATOM     88  C   UNL A   1      40.067  32.161  36.452  1.00  0.00     0.001 A 
ATOM     89  C   UNL A   1      38.765  31.706  36.553  1.00  0.00     0.000 A 
ENDBRANCH  71  84
ENDBRANCH  45  46
ENDBRANCH  38  40
ENDBRANCH  37  38
ENDBRANCH  36  37
ENDBRANCH  35  36
ENDBRANCH  34  35
ENDBRANCH  33  34
ENDBRANCH   1  33
TORSDOF 20
ENDMDL
MODEL 3
REMARK VINA RESULT:     -11.9      1.396      1.993
REMARK SMILES Cc1c(NC(=O)[C@@H]2CC=CC[C@@H]2C(=O)OCCOCCOCCOC(=O)c2ccc(-c3c4nc(c(-c5ccccc5)c5ccc([nH]5)c(-c5ccccc5)c5nc(c(-c6ccccc6)c6ccc3[nH]6)C=C5)C=C4)cc2)cccc1C(=O)N1CCOCC1
REMARK SMILES IDX 19 1 18 2 17 3 16 4 15 5 13 6 14 7 12 8 7 9 8 10 9 11 11 12
REMARK SMILES IDX 10 13 5 14 4 15 6 17 3 18 1 19 2 20 78 21 75 22 77 23 76 24
REMARK SMILES IDX 79 25 80 26 81 27 82 28 86 29 83 30 85 31 84 32 20 33 21 34
REMARK SMILES IDX 22 35 23 36 24 37 25 38 26 39 27 40 28 41 74 42 29 43 73 44
REMARK SMILES IDX 30 45 31 46 32 47 67 48 33 49 72 50 66 51 68 52 34 53 71 54
REMARK SMILES IDX 65 55 64 56 35 58 57 59 42 60 56 61 43 62 46 63 55 64 69 65
REMARK SMILES IDX 44 66 45 67 54 69 70 70 47 71 36 72 37 73 41 74 38 75 40 76
REMARK SMILES IDX 39 77 58 78 59 79 63 80 60 81 62 82 61 83 48 84 49 85 53 86
REMARK SMILES IDX 50 87 52 88 51 89
REMARK H PARENT 4 16 68 57 46 68
REMARK Flexibility Score: inf
ROOT
ATOM      1  C   UNL A   1      33.861  33.012  28.498  1.00  0.00     0.188 C 
ENDROOT
BRANCH   1   2
ATOM      2  O   UNL A   1      35.005  32.203  28.834  1.00  0.00    -0.376 OA
BRANCH   2   3
ATOM      3  C   UNL A   1      35.585  31.197  27.977  1.00  0.00     0.202 C 
BRANCH   3   4
ATOM      4  C   UNL A   1      34.873  29.845  27.238  1.00  0.00     0.261 C 
BRANCH   4   5
ATOM      5  O   UNL A   1      33.256  29.451  26.469  1.00  0.00    -0.463 OA
BRANCH   5   6
ATOM      6  C   UNL A   1      32.588  29.093  25.188  1.00  0.00     0.310 C 
ATOM      7  O   UNL A   1      33.106  28.890  24.077  1.00  0.00    -0.252 OA
BRANCH   6   8
ATOM      8  C   UNL A   1      31.116  28.787  25.017  1.00  0.00     0.116 C 
ATOM      9  C   UNL A   1      30.643  27.393  25.213  1.00  0.00     0.097 C 
ATOM     10  C   UNL A   1      30.845  26.538  23.995  1.00  0.00     0.041 C 
ATOM     11  C   UNL A   1      30.180  27.222  22.818  1.00  0.00    -0.030 C 
ATOM     12  C   UNL A   1      30.392  29.493  23.850  1.00  0.00     0.043 C 
ATOM     13  C   UNL A   1      29.954  28.547  22.769  1.00  0.00    -0.030 C 
BRANCH   9  14
ATOM     14  C   UNL A   1      31.243  27.026  26.527  1.00  0.00     0.228 C 
ATOM     15  N   UNL A   1      31.435  25.646  26.631  1.00  0.00    -0.326 N 
ATOM     16  H   UNL A   1      30.794  25.040  27.069  1.00  0.00     0.169 HD
ATOM     17  O   UNL A   1      31.371  27.790  27.474  1.00  0.00    -0.274 OA
BRANCH  15  18
ATOM     18  C   UNL A   1      32.641  25.208  26.042  1.00  0.00     0.044 A 
ATOM     19  C   UNL A   1      31.721  22.933  26.473  1.00  0.00     0.047 C 
ATOM     20  C   UNL A   1      32.846  23.824  26.015  1.00  0.00    -0.015 A 
ATOM     21  C   UNL A   1      34.131  23.365  25.698  1.00  0.00     0.045 A 
ATOM     22  C   UNL A   1      33.679  26.114  25.796  1.00  0.00     0.026 A 
ATOM     23  C   UNL A   1      35.203  24.278  25.649  1.00  0.00     0.014 A 
ATOM     24  C   UNL A   1      34.980  25.651  25.699  1.00  0.00     0.003 A 
BRANCH  21  25
ATOM     25  C   UNL A   1      34.465  21.925  25.613  1.00  0.00     0.254 C 
ATOM     26  O   UNL A   1      35.203  21.461  26.482  1.00  0.00    -0.269 OA
ATOM     27  N   UNL A   1      33.885  21.133  24.630  1.00  0.00    -0.334 N 
ATOM     28  C   UNL A   1      33.502  21.524  23.259  1.00  0.00     0.148 C 
ATOM     29  C   UNL A   1      33.751  19.711  24.910  1.00  0.00     0.148 C 
ATOM     30  C   UNL A   1      32.186  20.855  22.799  1.00  0.00     0.181 C 
ATOM     31  C   UNL A   1      32.345  19.248  24.531  1.00  0.00     0.181 C 
ATOM     32  O   UNL A   1      32.119  19.461  23.130  1.00  0.00    -0.378 OA
ENDBRANCH  21  25
ENDBRANCH  15  18
ENDBRANCH   9  14
ENDBRANCH   6   8
ENDBRANCH   5   6
ENDBRANCH   4   5
ENDBRANCH   3   4
ENDBRANCH   2   3
ENDBRANCH   1   2
BRANCH   1  33
ATOM     33  C   UNL A   1      33.972  34.518  28.375  1.00  0.00     0.188 C 
BRANCH  33  34
ATOM     34  O   UNL A   1      32.741  35.072  28.760  1.00  0.00    -0.376 OA
BRANCH  34  35
ATOM     35  C   UNL A   1      32.609  35.547  30.073  1.00  0.00     0.202 C 
BRANCH  35  36
ATOM     36  C   UNL A   1      33.882  35.311  30.894  1.00  0.00     0.261 C 
BRANCH  36  37
ATOM     37  O   UNL A   1      33.615  34.831  32.244  1.00  0.00    -0.460 OA
BRANCH  37  38
ATOM     38  C   UNL A   1      34.386  35.296  33.286  1.00  0.00     0.338 C 
ATOM     39  O   UNL A   1      33.935  35.908  34.250  1.00  0.00    -0.246 OA
BRANCH  38  40
ATOM     40  C   UNL A   1      35.832  34.979  33.092  1.00  0.00     0.060 A 
ATOM     41  C   UNL A   1      36.694  35.301  32.030  1.00  0.00     0.016 A 
ATOM     42  C   UNL A   1      36.314  34.088  33.970  1.00  0.00     0.016 A 
ATOM     43  C   UNL A   1      37.896  34.512  31.710  1.00  0.00     0.010 A 
ATOM     44  C   UNL A   1      37.310  33.252  33.507  1.00  0.00     0.010 A 
ATOM     45  C   UNL A   1      38.210  33.321  32.366  1.00  0.00    -0.014 A 
BRANCH  45  46
ATOM     46  C   UNL A   1      39.520  32.182  31.911  1.00  0.00     0.031 A 
ATOM     47  C   UNL A   1      39.490  30.654  30.926  1.00  0.00     0.074 A 
ATOM     48  C   UNL A   1      40.729  32.448  32.437  1.00  0.00     0.049 A 
ATOM     49  N   UNL A   1      39.765  29.437  31.359  1.00  0.00    -0.248 NA
ATOM     50  C   UNL A   1      38.922  30.419  29.500  1.00  0.00     0.031 C 
ATOM     51  C   UNL A   1      42.017  31.834  32.156  1.00  0.00     0.029 A 
ATOM     52  N   UNL A   1      41.018  33.391  33.421  1.00  0.00    -0.354 N 
ATOM     53  C   UNL A   1      39.543  28.530  30.289  1.00  0.00     0.074 A 
ATOM     54  C   UNL A   1      38.669  29.134  29.367  1.00  0.00     0.031 C 
ATOM     55  C   UNL A   1      42.863  32.167  33.153  1.00  0.00     0.029 A 
ATOM     56  C   UNL A   1      42.081  32.879  34.160  1.00  0.00     0.049 A 
ATOM     57  H   UNL A   1      40.560  34.251  33.566  1.00  0.00     0.167 HD
ATOM     58  C   UNL A   1      40.442  27.589  29.873  1.00  0.00     0.031 A 
ATOM     59  C   UNL A   1      41.851  32.489  35.445  1.00  0.00     0.031 A 
ATOM     60  C   UNL A   1      41.612  27.723  30.686  1.00  0.00     0.049 A 
ATOM     61  C   UNL A   1      42.097  31.006  35.574  1.00  0.00     0.074 A 
ATOM     62  C   UNL A   1      42.772  28.457  30.513  1.00  0.00     0.029 A 
ATOM     63  N   UNL A   1      41.456  27.514  32.039  1.00  0.00    -0.354 N 
ATOM     64  N   UNL A   1      41.940  30.145  34.604  1.00  0.00    -0.248 NA
ATOM     65  C   UNL A   1      42.654  30.402  36.778  1.00  0.00     0.031 C 
ATOM     66  C   UNL A   1      43.312  28.703  31.804  1.00  0.00     0.029 A 
ATOM     67  C   UNL A   1      42.481  28.105  32.736  1.00  0.00     0.049 A 
ATOM     68  H   UNL A   1      40.714  27.013  32.449  1.00  0.00     0.167 HD
ATOM     69  C   UNL A   1      42.446  28.933  34.991  1.00  0.00     0.074 A 
ATOM     70  C   UNL A   1      42.853  29.138  36.368  1.00  0.00     0.031 C 
ATOM     71  C   UNL A   1      42.548  27.859  34.158  1.00  0.00     0.031 A 
BRANCH  58  72
ATOM     72  C   UNL A   1      40.400  26.974  28.471  1.00  0.00    -0.014 A 
ATOM     73  C   UNL A   1      39.670  25.795  28.245  1.00  0.00     0.009 A 
ATOM     74  C   UNL A   1      41.115  27.477  27.358  1.00  0.00     0.009 A 
ATOM     75  C   UNL A   1      39.716  25.109  27.021  1.00  0.00     0.001 A 
ATOM     76  C   UNL A   1      41.197  26.772  26.141  1.00  0.00     0.001 A 
ATOM     77  C   UNL A   1      40.499  25.583  25.975  1.00  0.00     0.000 A 
ENDBRANCH  58  72
BRANCH  59  78
ATOM     78  C   UNL A   1      40.832  33.314  36.188  1.00  0.00    -0.014 A 
ATOM     79  C   UNL A   1      39.566  32.731  36.454  1.00  0.00     0.009 A 
ATOM     80  C   UNL A   1      41.147  34.496  36.873  1.00  0.00     0.009 A 
ATOM     81  C   UNL A   1      38.713  33.223  37.450  1.00  0.00     0.001 A 
ATOM     82  C   UNL A   1      40.268  35.016  37.848  1.00  0.00     0.001 A 
ATOM     83  C   UNL A   1      39.071  34.363  38.157  1.00  0.00     0.000 A 
ENDBRANCH  59  78
BRANCH  71  84
ATOM     84  C   UNL A   1      42.727  26.416  34.570  1.00  0.00    -0.014 A 
ATOM     85  C   UNL A   1      41.785  25.697  35.303  1.00  0.00     0.009 A 
ATOM     86  C   UNL A   1      43.813  25.673  34.033  1.00  0.00     0.009 A 
ATOM     87  C   UNL A   1      41.938  24.324  35.524  1.00  0.00     0.001 A 
ATOM     88  C   UNL A   1      43.922  24.293  34.175  1.00  0.00     0.001 A 
ATOM     89  C   UNL A   1      42.990  23.620  34.945  1.00  0.00     0.000 A 
ENDBRANCH  71  84
ENDBRANCH  45  46
ENDBRANCH  38  40
ENDBRANCH  37  38
ENDBRANCH  36  37
ENDBRANCH  35  36
ENDBRANCH  34  35
ENDBRANCH  33  34
ENDBRANCH   1  33
TORSDOF 20
ENDMDL
