MODEL 1
REMARK VINA RESULT:     -11.2      0.000      0.000
REMARK SMILES Cc1ccc(C(=O)N2CCC3(CCC(=O)N(CC(=O)OCCOCCOCCOC(=O)c4ccc(-c5c6nc(c(-c7ccccc7)c7ccc([nH]7)c(-c7ccccc7)c7nc(c(-c8ccccc8)c8ccc5[nH]8)C=C7)C=C6)cc4)C3)CC2)cc1O
REMARK SMILES IDX 24 1 23 2 22 3 21 4 20 5 18 6 19 7 17 8 16 9 6 10 7 11 8 12
REMARK SMILES IDX 9 13 82 14 10 15 81 16 11 17 12 18 80 19 13 20 14 21 15 22
REMARK SMILES IDX 5 23 1 24 2 25 3 26 84 27 4 28 83 29 85 30 25 32 26 33 27 34
REMARK SMILES IDX 28 35 29 36 30 37 31 38 32 39 33 40 79 41 34 42 78 43 35 44
REMARK SMILES IDX 36 45 37 46 72 47 38 48 77 49 71 50 73 51 39 52 76 53 70 54
REMARK SMILES IDX 69 55 40 57 62 58 47 59 61 60 48 61 51 62 60 63 74 64 49 65
REMARK SMILES IDX 50 66 59 68 75 69 52 70 41 71 42 72 46 73 43 74 45 75 44 76
REMARK SMILES IDX 63 77 64 78 68 79 65 80 67 81 66 82 53 83 54 84 58 85 55 86
REMARK SMILES IDX 57 87 56 88
REMARK H PARENT 85 31 73 56 51 67
REMARK Flexibility Score: inf
ROOT
ATOM      1  C   UNL A   1      35.688  32.604  28.360  1.00  0.00     0.188 C 
ENDROOT
BRANCH   1   2
ATOM      2  O   UNL A   1      34.854  32.099  27.322  1.00  0.00    -0.376 OA
BRANCH   2   3
ATOM      3  C   UNL A   1      33.717  31.317  27.666  1.00  0.00     0.202 C 
BRANCH   3   4
ATOM      4  C   UNL A   1      33.639  29.923  27.024  1.00  0.00     0.261 C 
BRANCH   4   5
ATOM      5  O   UNL A   1      32.310  29.512  26.613  1.00  0.00    -0.462 OA
BRANCH   5   6
ATOM      6  C   UNL A   1      31.834  30.046  25.459  1.00  0.00     0.325 C 
ATOM      7  O   UNL A   1      31.023  30.969  25.420  1.00  0.00    -0.250 OA
BRANCH   6   8
ATOM      8  C   UNL A   1      32.484  29.528  24.153  1.00  0.00     0.242 C 
BRANCH   8   9
ATOM      9  N   UNL A   1      31.832  28.636  23.178  1.00  0.00    -0.331 N 
ATOM     10  C   UNL A   1      31.375  23.031  26.495  1.00  0.00     0.253 C 
ATOM     11  O   UNL A   1      30.817  22.924  27.586  1.00  0.00    -0.269 OA
ATOM     12  N   UNL A   1      30.998  23.991  25.567  1.00  0.00    -0.339 N 
ATOM     13  C   UNL A   1      30.570  25.282  26.063  1.00  0.00     0.120 C 
ATOM     14  C   UNL A   1      30.817  23.746  24.140  1.00  0.00     0.120 C 
ATOM     15  C   UNL A   1      31.373  26.357  25.333  1.00  0.00     0.030 C 
ATOM     16  C   UNL A   1      31.487  24.832  23.295  1.00  0.00     0.030 C 
ATOM     17  C   UNL A   1      31.200  26.274  23.791  1.00  0.00    -0.008 C 
ATOM     18  C   UNL A   1      29.748  26.655  23.387  1.00  0.00     0.019 C 
ATOM     19  C   UNL A   1      32.220  27.237  23.095  1.00  0.00     0.127 C 
ATOM     20  C   UNL A   1      29.499  28.142  23.567  1.00  0.00     0.101 C 
ATOM     21  C   UNL A   1      30.540  28.847  22.735  1.00  0.00     0.223 C 
ATOM     22  O   UNL A   1      30.286  29.292  21.626  1.00  0.00    -0.275 OA
BRANCH  10  23
ATOM     23  C   UNL A   1      32.621  22.254  26.239  1.00  0.00     0.043 A 
ATOM     24  C   UNL A   1      36.275  20.319  24.987  1.00  0.00     0.048 C 
ATOM     25  C   UNL A   1      35.023  20.996  25.458  1.00  0.00    -0.009 A 
ATOM     26  C   UNL A   1      33.787  20.434  25.127  1.00  0.00     0.008 A 
ATOM     27  C   UNL A   1      35.034  22.201  26.173  1.00  0.00     0.119 A 
ATOM     28  C   UNL A   1      32.603  21.072  25.490  1.00  0.00     0.014 A 
ATOM     29  C   UNL A   1      33.851  22.819  26.576  1.00  0.00     0.060 A 
BRANCH  27  30
ATOM     30  O   UNL A   1      36.190  22.858  26.486  1.00  0.00    -0.508 OA
ATOM     31  H   UNL A   1      36.209  23.794  26.495  1.00  0.00     0.293 HD
ENDBRANCH  27  30
ENDBRANCH  10  23
ENDBRANCH   8   9
ENDBRANCH   6   8
ENDBRANCH   5   6
ENDBRANCH   4   5
ENDBRANCH   3   4
ENDBRANCH   2   3
ENDBRANCH   1   2
BRANCH   1  32
ATOM     32  C   UNL A   1      35.542  34.063  28.785  1.00  0.00     0.188 C 
BRANCH  32  33
ATOM     33  O   UNL A   1      34.208  34.396  29.130  1.00  0.00    -0.376 OA
BRANCH  33  34
ATOM     34  C   UNL A   1      33.787  35.671  28.661  1.00  0.00     0.202 C 
BRANCH  34  35
ATOM     35  C   UNL A   1      32.857  36.268  29.713  1.00  0.00     0.261 C 
BRANCH  35  36
ATOM     36  O   UNL A   1      32.539  35.330  30.767  1.00  0.00    -0.460 OA
BRANCH  36  37
ATOM     37  C   UNL A   1      32.763  35.751  32.029  1.00  0.00     0.338 C 
ATOM     38  O   UNL A   1      32.051  36.493  32.700  1.00  0.00    -0.246 OA
BRANCH  37  39
ATOM     39  C   UNL A   1      33.923  35.022  32.583  1.00  0.00     0.060 A 
ATOM     40  C   UNL A   1      35.198  35.595  32.468  1.00  0.00     0.016 A 
ATOM     41  C   UNL A   1      33.774  33.776  33.193  1.00  0.00     0.016 A 
ATOM     42  C   UNL A   1      36.330  34.909  32.906  1.00  0.00     0.010 A 
ATOM     43  C   UNL A   1      34.911  33.081  33.622  1.00  0.00     0.010 A 
ATOM     44  C   UNL A   1      36.197  33.625  33.446  1.00  0.00    -0.014 A 
BRANCH  44  45
ATOM     45  C   UNL A   1      37.397  32.780  33.663  1.00  0.00     0.031 A 
ATOM     46  C   UNL A   1      38.203  32.984  34.920  1.00  0.00     0.074 A 
ATOM     47  C   UNL A   1      37.770  31.840  32.775  1.00  0.00     0.049 A 
ATOM     48  N   UNL A   1      39.331  32.428  35.283  1.00  0.00    -0.248 NA
ATOM     49  C   UNL A   1      37.665  33.946  35.897  1.00  0.00     0.031 C 
ATOM     50  C   UNL A   1      37.056  31.501  31.544  1.00  0.00     0.029 A 
ATOM     51  N   UNL A   1      38.862  31.007  32.770  1.00  0.00    -0.354 N 
ATOM     52  C   UNL A   1      39.649  32.991  36.513  1.00  0.00     0.074 A 
ATOM     53  C   UNL A   1      38.605  33.941  36.830  1.00  0.00     0.031 C 
ATOM     54  C   UNL A   1      37.740  30.542  30.895  1.00  0.00     0.029 A 
ATOM     55  C   UNL A   1      38.958  30.229  31.640  1.00  0.00     0.049 A 
ATOM     56  H   UNL A   1      39.515  30.968  33.506  1.00  0.00     0.167 HD
ATOM     57  C   UNL A   1      40.715  32.741  37.309  1.00  0.00     0.031 A 
ATOM     58  C   UNL A   1      39.932  29.388  31.240  1.00  0.00     0.031 A 
ATOM     59  C   UNL A   1      41.754  31.795  37.003  1.00  0.00     0.049 A 
ATOM     60  C   UNL A   1      41.144  29.182  32.113  1.00  0.00     0.074 A 
ATOM     61  C   UNL A   1      42.856  31.454  37.766  1.00  0.00     0.029 A 
ATOM     62  N   UNL A   1      41.821  31.046  35.841  1.00  0.00    -0.354 N 
ATOM     63  N   UNL A   1      41.417  29.697  33.289  1.00  0.00    -0.248 NA
ATOM     64  C   UNL A   1      42.183  28.271  31.605  1.00  0.00     0.031 C 
ATOM     65  C   UNL A   1      43.627  30.545  37.037  1.00  0.00     0.029 A 
ATOM     66  C   UNL A   1      42.967  30.267  35.851  1.00  0.00     0.049 A 
ATOM     67  H   UNL A   1      41.156  31.063  35.116  1.00  0.00     0.167 HD
ATOM     68  C   UNL A   1      42.636  29.146  33.672  1.00  0.00     0.074 A 
ATOM     69  C   UNL A   1      43.041  28.246  32.614  1.00  0.00     0.031 C 
ATOM     70  C   UNL A   1      43.354  29.365  34.799  1.00  0.00     0.031 A 
BRANCH  57  71
ATOM     71  C   UNL A   1      40.840  33.530  38.581  1.00  0.00    -0.014 A 
ATOM     72  C   UNL A   1      40.320  33.054  39.794  1.00  0.00     0.009 A 
ATOM     73  C   UNL A   1      41.554  34.739  38.575  1.00  0.00     0.009 A 
ATOM     74  C   UNL A   1      40.499  33.782  40.973  1.00  0.00     0.001 A 
ATOM     75  C   UNL A   1      41.755  35.451  39.759  1.00  0.00     0.001 A 
ATOM     76  C   UNL A   1      41.223  34.974  40.955  1.00  0.00     0.000 A 
ENDBRANCH  57  71
BRANCH  58  77
ATOM     77  C   UNL A   1      39.843  28.701  29.922  1.00  0.00    -0.014 A 
ATOM     78  C   UNL A   1      39.264  27.426  29.810  1.00  0.00     0.009 A 
ATOM     79  C   UNL A   1      40.395  29.294  28.775  1.00  0.00     0.009 A 
ATOM     80  C   UNL A   1      39.279  26.745  28.590  1.00  0.00     0.001 A 
ATOM     81  C   UNL A   1      40.377  28.626  27.549  1.00  0.00     0.001 A 
ATOM     82  C   UNL A   1      39.832  27.346  27.461  1.00  0.00     0.000 A 
ENDBRANCH  58  77
BRANCH  70  83
ATOM     83  C   UNL A   1      44.626  28.583  34.979  1.00  0.00    -0.014 A 
ATOM     84  C   UNL A   1      45.852  29.049  34.479  1.00  0.00     0.009 A 
ATOM     85  C   UNL A   1      44.603  27.381  35.705  1.00  0.00     0.009 A 
ATOM     86  C   UNL A   1      47.021  28.309  34.674  1.00  0.00     0.001 A 
ATOM     87  C   UNL A   1      45.777  26.660  35.926  1.00  0.00     0.001 A 
ATOM     88  C   UNL A   1      46.983  27.119  35.401  1.00  0.00     0.000 A 
ENDBRANCH  70  83
ENDBRANCH  44  45
ENDBRANCH  37  39
ENDBRANCH  36  37
ENDBRANCH  35  36
ENDBRANCH  34  35
ENDBRANCH  33  34
ENDBRANCH  32  33
ENDBRANCH   1  32
TORSDOF 20
ENDMDL
MODEL 2
REMARK VINA RESULT:     -10.9      3.977      6.059
REMARK SMILES Cc1ccc(C(=O)N2CCC3(CCC(=O)N(CC(=O)OCCOCCOCCOC(=O)c4ccc(-c5c6nc(c(-c7ccccc7)c7ccc([nH]7)c(-c7ccccc7)c7nc(c(-c8ccccc8)c8ccc5[nH]8)C=C7)C=C6)cc4)C3)CC2)cc1O
REMARK SMILES IDX 24 1 23 2 22 3 21 4 20 5 18 6 19 7 17 8 16 9 6 10 7 11 8 12
REMARK SMILES IDX 9 13 82 14 10 15 81 16 11 17 12 18 80 19 13 20 14 21 15 22
REMARK SMILES IDX 5 23 1 24 2 25 3 26 84 27 4 28 83 29 85 30 25 32 26 33 27 34
REMARK SMILES IDX 28 35 29 36 30 37 31 38 32 39 33 40 79 41 34 42 78 43 35 44
REMARK SMILES IDX 36 45 37 46 72 47 38 48 77 49 71 50 73 51 39 52 76 53 70 54
REMARK SMILES IDX 69 55 40 57 62 58 47 59 61 60 48 61 51 62 60 63 74 64 49 65
REMARK SMILES IDX 50 66 59 68 75 69 52 70 41 71 42 72 46 73 43 74 45 75 44 76
REMARK SMILES IDX 63 77 64 78 68 79 65 80 67 81 66 82 53 83 54 84 58 85 55 86
REMARK SMILES IDX 57 87 56 88
REMARK H PARENT 85 31 73 56 51 67
REMARK Flexibility Score: inf
ROOT
ATOM      1  C   UNL A   1      34.048  34.097  28.136  1.00  0.00     0.188 C 
ENDROOT
BRANCH   1   2
ATOM      2  O   UNL A   1      33.418  32.900  27.693  1.00  0.00    -0.376 OA
BRANCH   2   3
ATOM      3  C   UNL A   1      34.078  31.656  27.889  1.00  0.00     0.202 C 
BRANCH   3   4
ATOM      4  C   UNL A   1      33.270  30.399  27.528  1.00  0.00     0.261 C 
BRANCH   4   5
ATOM      5  O   UNL A   1      33.582  29.821  26.235  1.00  0.00    -0.462 OA
BRANCH   5   6
ATOM      6  C   UNL A   1      32.590  29.826  25.308  1.00  0.00     0.325 C 
ATOM      7  O   UNL A   1      31.459  30.257  25.523  1.00  0.00    -0.250 OA
BRANCH   6   8
ATOM      8  C   UNL A   1      32.995  29.386  23.880  1.00  0.00     0.242 C 
BRANCH   8   9
ATOM      9  N   UNL A   1      32.165  28.570  22.977  1.00  0.00    -0.331 N 
ATOM     10  C   UNL A   1      31.220  23.136  26.472  1.00  0.00     0.253 C 
ATOM     11  O   UNL A   1      30.733  23.124  27.600  1.00  0.00    -0.269 OA
ATOM     12  N   UNL A   1      30.906  24.121  25.546  1.00  0.00    -0.339 N 
ATOM     13  C   UNL A   1      30.686  25.466  26.034  1.00  0.00     0.120 C 
ATOM     14  C   UNL A   1      30.593  23.875  24.142  1.00  0.00     0.120 C 
ATOM     15  C   UNL A   1      31.568  26.411  25.220  1.00  0.00     0.030 C 
ATOM     16  C   UNL A   1      31.336  24.847  23.223  1.00  0.00     0.030 C 
ATOM     17  C   UNL A   1      31.276  26.324  23.697  1.00  0.00    -0.008 C 
ATOM     18  C   UNL A   1      29.861  26.885  23.383  1.00  0.00     0.019 C 
ATOM     19  C   UNL A   1      32.360  27.131  22.906  1.00  0.00     0.127 C 
ATOM     20  C   UNL A   1      29.820  28.395  23.539  1.00  0.00     0.101 C 
ATOM     21  C   UNL A   1      30.882  28.941  22.618  1.00  0.00     0.223 C 
ATOM     22  O   UNL A   1      30.610  29.395  21.517  1.00  0.00    -0.275 OA
BRANCH  10  23
ATOM     23  C   UNL A   1      32.333  22.197  26.152  1.00  0.00     0.043 A 
ATOM     24  C   UNL A   1      35.690  19.851  24.776  1.00  0.00     0.048 C 
ATOM     25  C   UNL A   1      34.539  20.663  25.291  1.00  0.00    -0.009 A 
ATOM     26  C   UNL A   1      33.253  20.384  24.821  1.00  0.00     0.008 A 
ATOM     27  C   UNL A   1      34.701  21.728  26.188  1.00  0.00     0.119 A 
ATOM     28  C   UNL A   1      32.170  21.161  25.226  1.00  0.00     0.014 A 
ATOM     29  C   UNL A   1      33.613  22.479  26.630  1.00  0.00     0.060 A 
BRANCH  27  30
ATOM     30  O   UNL A   1      35.926  22.116  26.652  1.00  0.00    -0.508 OA
ATOM     31  H   UNL A   1      36.670  22.098  26.083  1.00  0.00     0.293 HD
ENDBRANCH  27  30
ENDBRANCH  10  23
ENDBRANCH   8   9
ENDBRANCH   6   8
ENDBRANCH   5   6
ENDBRANCH   4   5
ENDBRANCH   3   4
ENDBRANCH   2   3
ENDBRANCH   1   2
BRANCH   1  32
ATOM     32  C   UNL A   1      33.202  35.175  28.808  1.00  0.00     0.188 C 
BRANCH  32  33
ATOM     33  O   UNL A   1      33.828  35.715  29.959  1.00  0.00    -0.376 OA
BRANCH  33  34
ATOM     34  C   UNL A   1      33.343  35.186  31.188  1.00  0.00     0.202 C 
BRANCH  34  35
ATOM     35  C   UNL A   1      34.538  35.012  32.121  1.00  0.00     0.261 C 
BRANCH  35  36
ATOM     36  O   UNL A   1      35.501  34.059  31.616  1.00  0.00    -0.460 OA
BRANCH  36  37
ATOM     37  C   UNL A   1      35.818  33.038  32.439  1.00  0.00     0.338 C 
ATOM     38  O   UNL A   1      35.275  32.746  33.501  1.00  0.00    -0.246 OA
BRANCH  37  39
ATOM     39  C   UNL A   1      36.818  32.174  31.776  1.00  0.00     0.060 A 
ATOM     40  C   UNL A   1      37.718  31.450  32.570  1.00  0.00     0.016 A 
ATOM     41  C   UNL A   1      36.894  32.088  30.386  1.00  0.00     0.016 A 
ATOM     42  C   UNL A   1      38.727  30.684  31.988  1.00  0.00     0.010 A 
ATOM     43  C   UNL A   1      37.914  31.330  29.799  1.00  0.00     0.010 A 
ATOM     44  C   UNL A   1      38.859  30.656  30.595  1.00  0.00    -0.014 A 
BRANCH  44  45
ATOM     45  C   UNL A   1      40.075  30.076  29.973  1.00  0.00     0.031 A 
ATOM     46  C   UNL A   1      41.290  30.954  29.813  1.00  0.00     0.074 A 
ATOM     47  C   UNL A   1      40.117  28.795  29.562  1.00  0.00     0.049 A 
ATOM     48  N   UNL A   1      42.429  30.696  29.224  1.00  0.00    -0.248 NA
ATOM     49  C   UNL A   1      41.205  32.305  30.394  1.00  0.00     0.031 C 
ATOM     50  C   UNL A   1      39.035  27.821  29.700  1.00  0.00     0.029 A 
ATOM     51  N   UNL A   1      41.116  28.100  28.924  1.00  0.00    -0.354 N 
ATOM     52  C   UNL A   1      43.184  31.857  29.341  1.00  0.00     0.074 A 
ATOM     53  C   UNL A   1      42.371  32.825  30.044  1.00  0.00     0.031 C 
ATOM     54  C   UNL A   1      39.424  26.658  29.147  1.00  0.00     0.029 A 
ATOM     55  C   UNL A   1      40.762  26.816  28.580  1.00  0.00     0.049 A 
ATOM     56  H   UNL A   1      42.002  28.483  28.732  1.00  0.00     0.167 HD
ATOM     57  C   UNL A   1      44.442  32.097  28.902  1.00  0.00     0.031 A 
ATOM     58  C   UNL A   1      41.427  25.890  27.862  1.00  0.00     0.031 A 
ATOM     59  C   UNL A   1      45.257  31.138  28.207  1.00  0.00     0.049 A 
ATOM     60  C   UNL A   1      42.799  26.210  27.323  1.00  0.00     0.074 A 
ATOM     61  C   UNL A   1      46.556  31.284  27.753  1.00  0.00     0.029 A 
ATOM     62  N   UNL A   1      44.853  29.860  27.863  1.00  0.00    -0.354 N 
ATOM     63  N   UNL A   1      43.514  27.300  27.468  1.00  0.00    -0.248 NA
ATOM     64  C   UNL A   1      43.460  25.165  26.525  1.00  0.00     0.031 C 
ATOM     65  C   UNL A   1      46.916  30.116  27.075  1.00  0.00     0.029 A 
ATOM     66  C   UNL A   1      45.865  29.218  27.170  1.00  0.00     0.049 A 
ATOM     67  H   UNL A   1      43.976  29.466  28.077  1.00  0.00     0.167 HD
ATOM     68  C   UNL A   1      44.716  27.057  26.811  1.00  0.00     0.074 A 
ATOM     69  C   UNL A   1      44.642  25.712  26.283  1.00  0.00     0.031 C 
ATOM     70  C   UNL A   1      45.786  27.875  26.660  1.00  0.00     0.031 A 
BRANCH  57  71
ATOM     71  C   UNL A   1      45.012  33.469  29.125  1.00  0.00    -0.014 A 
ATOM     72  C   UNL A   1      44.802  34.508  28.206  1.00  0.00     0.009 A 
ATOM     73  C   UNL A   1      45.710  33.741  30.313  1.00  0.00     0.009 A 
ATOM     74  C   UNL A   1      45.296  35.789  28.466  1.00  0.00     0.001 A 
ATOM     75  C   UNL A   1      46.178  35.028  30.582  1.00  0.00     0.001 A 
ATOM     76  C   UNL A   1      45.975  36.049  29.657  1.00  0.00     0.000 A 
ENDBRANCH  57  71
BRANCH  58  77
ATOM     77  C   UNL A   1      40.798  24.576  27.556  1.00  0.00    -0.014 A 
ATOM     78  C   UNL A   1      41.306  23.388  28.106  1.00  0.00     0.009 A 
ATOM     79  C   UNL A   1      39.721  24.498  26.658  1.00  0.00     0.009 A 
ATOM     80  C   UNL A   1      40.776  22.150  27.731  1.00  0.00     0.001 A 
ATOM     81  C   UNL A   1      39.170  23.262  26.313  1.00  0.00     0.001 A 
ATOM     82  C   UNL A   1      39.708  22.088  26.838  1.00  0.00     0.000 A 
ENDBRANCH  58  77
BRANCH  70  83
ATOM     83  C   UNL A   1      46.988  27.325  25.941  1.00  0.00    -0.014 A 
ATOM     84  C   UNL A   1      47.968  26.578  26.613  1.00  0.00     0.009 A 
ATOM     85  C   UNL A   1      47.112  27.516  24.555  1.00  0.00     0.009 A 
ATOM     86  C   UNL A   1      49.066  26.066  25.916  1.00  0.00     0.001 A 
ATOM     87  C   UNL A   1      48.193  26.977  23.857  1.00  0.00     0.001 A 
ATOM     88  C   UNL A   1      49.174  26.261  24.540  1.00  0.00     0.000 A 
ENDBRANCH  70  83
ENDBRANCH  44  45
ENDBRANCH  37  39
ENDBRANCH  36  37
ENDBRANCH  35  36
ENDBRANCH  34  35
ENDBRANCH  33  34
ENDBRANCH  32  33
ENDBRANCH   1  32
TORSDOF 20
ENDMDL
MODEL 3
REMARK VINA RESULT:     -10.4      4.375      7.879
REMARK SMILES Cc1ccc(C(=O)N2CCC3(CCC(=O)N(CC(=O)OCCOCCOCCOC(=O)c4ccc(-c5c6nc(c(-c7ccccc7)c7ccc([nH]7)c(-c7ccccc7)c7nc(c(-c8ccccc8)c8ccc5[nH]8)C=C7)C=C6)cc4)C3)CC2)cc1O
REMARK SMILES IDX 24 1 23 2 22 3 21 4 20 5 18 6 19 7 17 8 16 9 6 10 7 11 8 12
REMARK SMILES IDX 9 13 82 14 10 15 81 16 11 17 12 18 80 19 13 20 14 21 15 22
REMARK SMILES IDX 5 23 1 24 2 25 3 26 84 27 4 28 83 29 85 30 25 32 26 33 27 34
REMARK SMILES IDX 28 35 29 36 30 37 31 38 32 39 33 40 79 41 34 42 78 43 35 44
REMARK SMILES IDX 36 45 37 46 72 47 38 48 77 49 71 50 73 51 39 52 76 53 70 54
REMARK SMILES IDX 69 55 40 57 62 58 47 59 61 60 48 61 51 62 60 63 74 64 49 65
REMARK SMILES IDX 50 66 59 68 75 69 52 70 41 71 42 72 46 73 43 74 45 75 44 76
REMARK SMILES IDX 63 77 64 78 68 79 65 80 67 81 66 82 53 83 54 84 58 85 55 86
REMARK SMILES IDX 57 87 56 88
REMARK H PARENT 85 31 73 56 51 67
REMARK Flexibility Score: inf
ROOT
ATOM      1  C   UNL A   1      35.479  32.541  29.136  1.00  0.00     0.188 C 
ENDROOT
BRANCH   1   2
ATOM      2  O   UNL A   1      35.037  32.120  27.850  1.00  0.00    -0.376 OA
BRANCH   2   3
ATOM      3  C   UNL A   1      34.018  31.132  27.757  1.00  0.00     0.202 C 
BRANCH   3   4
ATOM      4  C   UNL A   1      34.318  29.938  26.836  1.00  0.00     0.261 C 
BRANCH   4   5
ATOM      5  O   UNL A   1      33.160  29.151  26.459  1.00  0.00    -0.462 OA
BRANCH   5   6
ATOM      6  C   UNL A   1      32.285  29.725  25.595  1.00  0.00     0.325 C 
ATOM      7  O   UNL A   1      31.321  30.401  25.951  1.00  0.00    -0.250 OA
BRANCH   6   8
ATOM      8  C   UNL A   1      32.641  29.614  24.092  1.00  0.00     0.242 C 
BRANCH   8   9
ATOM      9  N   UNL A   1      31.964  28.736  23.123  1.00  0.00    -0.331 N 
ATOM     10  C   UNL A   1      31.338  23.167  26.472  1.00  0.00     0.253 C 
ATOM     11  O   UNL A   1      30.777  23.083  27.563  1.00  0.00    -0.269 OA
ATOM     12  N   UNL A   1      30.990  24.133  25.539  1.00  0.00    -0.339 N 
ATOM     13  C   UNL A   1      30.601  25.439  26.027  1.00  0.00     0.120 C 
ATOM     14  C   UNL A   1      30.802  23.885  24.113  1.00  0.00     0.120 C 
ATOM     15  C   UNL A   1      31.436  26.485  25.290  1.00  0.00     0.030 C 
ATOM     16  C   UNL A   1      31.504  24.945  23.262  1.00  0.00     0.030 C 
ATOM     17  C   UNL A   1      31.261  26.399  23.750  1.00  0.00    -0.008 C 
ATOM     18  C   UNL A   1      29.821  26.820  23.342  1.00  0.00     0.019 C 
ATOM     19  C   UNL A   1      32.309  27.326  23.047  1.00  0.00     0.127 C 
ATOM     20  C   UNL A   1      29.616  28.315  23.514  1.00  0.00     0.101 C 
ATOM     21  C   UNL A   1      30.678  28.983  22.678  1.00  0.00     0.223 C 
ATOM     22  O   UNL A   1      30.439  29.430  21.566  1.00  0.00    -0.275 OA
BRANCH  10  23
ATOM     23  C   UNL A   1      32.560  22.351  26.221  1.00  0.00     0.043 A 
ATOM     24  C   UNL A   1      36.155  20.301  24.982  1.00  0.00     0.048 C 
ATOM     25  C   UNL A   1      34.924  21.019  25.448  1.00  0.00    -0.009 A 
ATOM     26  C   UNL A   1      33.672  20.492  25.119  1.00  0.00     0.008 A 
ATOM     27  C   UNL A   1      34.971  22.225  26.158  1.00  0.00     0.119 A 
ATOM     28  C   UNL A   1      32.507  21.167  25.478  1.00  0.00     0.014 A 
ATOM     29  C   UNL A   1      33.806  22.881  26.557  1.00  0.00     0.060 A 
BRANCH  27  30
ATOM     30  O   UNL A   1      36.146  22.848  26.470  1.00  0.00    -0.508 OA
ATOM     31  H   UNL A   1      36.773  22.418  27.016  1.00  0.00     0.293 HD
ENDBRANCH  27  30
ENDBRANCH  10  23
ENDBRANCH   8   9
ENDBRANCH   6   8
ENDBRANCH   5   6
ENDBRANCH   4   5
ENDBRANCH   3   4
ENDBRANCH   2   3
ENDBRANCH   1   2
BRANCH   1  32
ATOM     32  C   UNL A   1      35.150  33.955  29.607  1.00  0.00     0.188 C 
BRANCH  32  33
ATOM     33  O   UNL A   1      34.405  33.966  30.812  1.00  0.00    -0.376 OA
BRANCH  33  34
ATOM     34  C   UNL A   1      34.464  32.746  31.543  1.00  0.00     0.202 C 
BRANCH  34  35
ATOM     35  C   UNL A   1      35.288  33.000  32.802  1.00  0.00     0.261 C 
BRANCH  35  36
ATOM     36  O   UNL A   1      35.935  31.803  33.290  1.00  0.00    -0.460 OA
BRANCH  36  37
ATOM     37  C   UNL A   1      37.214  31.939  33.700  1.00  0.00     0.338 C 
ATOM     38  O   UNL A   1      37.603  32.365  34.784  1.00  0.00    -0.246 OA
BRANCH  37  39
ATOM     39  C   UNL A   1      38.110  31.308  32.708  1.00  0.00     0.060 A 
ATOM     40  C   UNL A   1      39.153  30.491  33.165  1.00  0.00     0.016 A 
ATOM     41  C   UNL A   1      37.949  31.529  31.340  1.00  0.00     0.016 A 
ATOM     42  C   UNL A   1      40.070  29.937  32.271  1.00  0.00     0.010 A 
ATOM     43  C   UNL A   1      38.875  30.985  30.443  1.00  0.00     0.010 A 
ATOM     44  C   UNL A   1      39.962  30.219  30.905  1.00  0.00    -0.014 A 
BRANCH  44  45
ATOM     45  C   UNL A   1      41.070  29.870  29.982  1.00  0.00     0.031 A 
ATOM     46  C   UNL A   1      41.078  28.499  29.354  1.00  0.00     0.074 A 
ATOM     47  C   UNL A   1      42.051  30.744  29.692  1.00  0.00     0.049 A 
ATOM     48  N   UNL A   1      41.982  27.941  28.590  1.00  0.00    -0.248 NA
ATOM     49  C   UNL A   1      39.910  27.645  29.627  1.00  0.00     0.031 C 
ATOM     50  C   UNL A   1      42.141  32.117  30.187  1.00  0.00     0.029 A 
ATOM     51  N   UNL A   1      43.174  30.592  28.915  1.00  0.00    -0.354 N 
ATOM     52  C   UNL A   1      41.505  26.665  28.314  1.00  0.00     0.074 A 
ATOM     53  C   UNL A   1      40.240  26.525  29.002  1.00  0.00     0.031 C 
ATOM     54  C   UNL A   1      43.270  32.676  29.715  1.00  0.00     0.029 A 
ATOM     55  C   UNL A   1      44.001  31.691  28.921  1.00  0.00     0.049 A 
ATOM     56  H   UNL A   1      43.369  29.775  28.403  1.00  0.00     0.167 HD
ATOM     57  C   UNL A   1      42.069  25.696  27.556  1.00  0.00     0.031 A 
ATOM     58  C   UNL A   1      45.222  31.867  28.376  1.00  0.00     0.031 A 
ATOM     59  C   UNL A   1      43.323  25.830  26.866  1.00  0.00     0.049 A 
ATOM     60  C   UNL A   1      45.859  30.744  27.597  1.00  0.00     0.074 A 
ATOM     61  C   UNL A   1      43.957  24.910  26.050  1.00  0.00     0.029 A 
ATOM     62  N   UNL A   1      44.136  26.950  26.915  1.00  0.00    -0.354 N 
ATOM     63  N   UNL A   1      45.383  29.554  27.317  1.00  0.00    -0.248 NA
ATOM     64  C   UNL A   1      47.203  30.992  27.051  1.00  0.00     0.031 C 
ATOM     65  C   UNL A   1      45.184  25.448  25.656  1.00  0.00     0.029 A 
ATOM     66  C   UNL A   1      45.282  26.731  26.171  1.00  0.00     0.049 A 
ATOM     67  H   UNL A   1      43.929  27.778  27.407  1.00  0.00     0.167 HD
ATOM     68  C   UNL A   1      46.352  28.930  26.537  1.00  0.00     0.074 A 
ATOM     69  C   UNL A   1      47.433  29.878  26.374  1.00  0.00     0.031 C 
ATOM     70  C   UNL A   1      46.346  27.685  26.004  1.00  0.00     0.031 A 
BRANCH  57  71
ATOM     71  C   UNL A   1      41.354  24.378  27.458  1.00  0.00    -0.014 A 
ATOM     72  C   UNL A   1      40.291  24.186  26.563  1.00  0.00     0.009 A 
ATOM     73  C   UNL A   1      41.802  23.292  28.226  1.00  0.00     0.009 A 
ATOM     74  C   UNL A   1      39.680  22.934  26.453  1.00  0.00     0.001 A 
ATOM     75  C   UNL A   1      41.208  22.036  28.095  1.00  0.00     0.001 A 
ATOM     76  C   UNL A   1      40.145  21.860  27.212  1.00  0.00     0.000 A 
ENDBRANCH  57  71
BRANCH  58  77
ATOM     77  C   UNL A   1      45.963  33.142  28.581  1.00  0.00    -0.014 A 
ATOM     78  C   UNL A   1      46.899  33.273  29.619  1.00  0.00     0.009 A 
ATOM     79  C   UNL A   1      45.690  34.257  27.773  1.00  0.00     0.009 A 
ATOM     80  C   UNL A   1      47.513  34.503  29.870  1.00  0.00     0.001 A 
ATOM     81  C   UNL A   1      46.331  35.477  28.004  1.00  0.00     0.001 A 
ATOM     82  C   UNL A   1      47.230  35.602  29.061  1.00  0.00     0.000 A 
ENDBRANCH  58  77
BRANCH  70  83
ATOM     83  C   UNL A   1      47.517  27.288  25.147  1.00  0.00    -0.014 A 
ATOM     84  C   UNL A   1      47.556  27.581  23.775  1.00  0.00     0.009 A 
ATOM     85  C   UNL A   1      48.622  26.653  25.737  1.00  0.00     0.009 A 
ATOM     86  C   UNL A   1      48.664  27.214  23.007  1.00  0.00     0.001 A 
ATOM     87  C   UNL A   1      49.740  26.316  24.973  1.00  0.00     0.001 A 
ATOM     88  C   UNL A   1      49.756  26.587  23.607  1.00  0.00     0.000 A 
ENDBRANCH  70  83
ENDBRANCH  44  45
ENDBRANCH  37  39
ENDBRANCH  36  37
ENDBRANCH  35  36
ENDBRANCH  34  35
ENDBRANCH  33  34
ENDBRANCH  32  33
ENDBRANCH   1  32
TORSDOF 20
ENDMDL
