MODEL 1
REMARK VINA RESULT:     -10.4      0.000      0.000
REMARK SMILES Cc1cccc(NS(=O)(=O)c2ccc(Br)c(C(=O)OCCOCCOCCOC(=O)c3ccc(-c4c5nc(c(-c6ccccc6)c6ccc([nH]6)c(-c6ccccc6)c6nc(c(-c7ccccc7)c7ccc4[nH]7)C=C6)C=C5)cc3)c2)c1
REMARK SMILES IDX 23 1 22 2 21 3 20 4 19 5 17 6 18 7 16 8 11 9 12 10 79 11
REMARK SMILES IDX 13 12 14 13 15 14 8 15 9 16 10 17 7 18 6 20 1 21 2 22 3 23
REMARK SMILES IDX 80 24 4 25 5 26 24 27 25 28 26 29 27 30 28 31 29 32 30 33
REMARK SMILES IDX 31 34 32 35 78 36 33 37 77 38 34 39 35 40 36 41 71 42 37 43
REMARK SMILES IDX 76 44 70 45 72 46 38 47 75 48 69 49 68 50 39 52 61 53 46 54
REMARK SMILES IDX 60 55 47 56 50 57 59 58 73 59 48 60 49 61 58 63 74 64 51 65
REMARK SMILES IDX 40 66 41 67 45 68 42 69 44 70 43 71 62 72 63 73 67 74 64 75
REMARK SMILES IDX 66 76 65 77 52 78 53 79 57 80 54 81 56 82 55 83
REMARK H PARENT 7 19 72 51 50 62
REMARK Flexibility Score: inf
ROOT
ATOM      1  C   UNL A   1      33.352  33.473  27.971  1.00  0.00     0.188 C 
ENDROOT
BRANCH   1   2
ATOM      2  O   UNL A   1      34.323  32.401  27.925  1.00  0.00    -0.376 OA
BRANCH   2   3
ATOM      3  C   UNL A   1      33.987  31.005  27.716  1.00  0.00     0.202 C 
BRANCH   3   4
ATOM      4  C   UNL A   1      32.643  30.618  26.841  1.00  0.00     0.261 C 
BRANCH   4   5
ATOM      5  O   UNL A   1      32.474  29.287  25.905  1.00  0.00    -0.460 OA
BRANCH   5   6
ATOM      6  C   UNL A   1      31.777  28.052  26.007  1.00  0.00     0.339 C 
ATOM      7  O   UNL A   1      31.309  27.524  27.011  1.00  0.00    -0.246 OA
BRANCH   6   8
ATOM      8  C   UNL A   1      31.568  27.137  24.823  1.00  0.00     0.075 A 
ATOM      9  C   UNL A   1      32.265  25.176  23.433  1.00  0.00     0.088 A 
ATOM     10  C   UNL A   1      31.565  25.699  22.352  1.00  0.00     0.023 A 
ATOM     11  C   UNL A   1      32.311  25.918  24.643  1.00  0.00     0.039 A 
ATOM     12  C   UNL A   1      30.962  26.958  22.476  1.00  0.00     0.018 A 
ATOM     13  C   UNL A   1      30.962  27.670  23.690  1.00  0.00     0.032 A 
ATOM     14  Br  UNL A   1      30.272  29.439  23.672  1.00  0.00    -0.050 Br
BRANCH   9  15
ATOM     15  S   UNL A   1      33.148  23.612  23.251  1.00  0.00     0.261 S 
ATOM     16  O   UNL A   1      34.260  23.861  22.385  1.00  0.00    -0.201 OA
ATOM     17  O   UNL A   1      32.156  22.586  22.922  1.00  0.00    -0.201 OA
BRANCH  15  18
ATOM     18  N   UNL A   1      33.830  23.184  24.734  1.00  0.00    -0.280 N 
ATOM     19  H   UNL A   1      33.264  23.256  25.536  1.00  0.00     0.180 HD
BRANCH  18  20
ATOM     20  C   UNL A   1      35.164  22.727  24.908  1.00  0.00     0.049 A 
ATOM     21  C   UNL A   1      38.341  24.133  26.487  1.00  0.00     0.044 C 
ATOM     22  C   UNL A   1      37.372  23.197  25.827  1.00  0.00    -0.049 A 
ATOM     23  C   UNL A   1      37.707  21.852  25.642  1.00  0.00     0.003 A 
ATOM     24  C   UNL A   1      36.092  23.627  25.453  1.00  0.00     0.030 A 
ATOM     25  C   UNL A   1      36.820  20.983  25.003  1.00  0.00     0.002 A 
ATOM     26  C   UNL A   1      35.563  21.431  24.599  1.00  0.00     0.027 A 
ENDBRANCH  18  20
ENDBRANCH  15  18
ENDBRANCH   9  15
ENDBRANCH   6   8
ENDBRANCH   5   6
ENDBRANCH   4   5
ENDBRANCH   3   4
ENDBRANCH   2   3
ENDBRANCH   1   2
BRANCH   1  27
ATOM     27  C   UNL A   1      33.451  34.627  28.966  1.00  0.00     0.188 C 
BRANCH  27  28
ATOM     28  O   UNL A   1      33.656  34.098  30.259  1.00  0.00    -0.376 OA
BRANCH  28  29
ATOM     29  C   UNL A   1      34.382  34.911  31.160  1.00  0.00     0.202 C 
BRANCH  29  30
ATOM     30  C   UNL A   1      35.765  34.313  31.467  1.00  0.00     0.261 C 
BRANCH  30  31
ATOM     31  O   UNL A   1      36.011  33.160  30.616  1.00  0.00    -0.460 OA
BRANCH  31  32
ATOM     32  C   UNL A   1      35.749  31.911  31.129  1.00  0.00     0.338 C 
ATOM     33  O   UNL A   1      35.166  31.702  32.179  1.00  0.00    -0.246 OA
BRANCH  32  34
ATOM     34  C   UNL A   1      36.500  30.854  30.349  1.00  0.00     0.060 A 
ATOM     35  C   UNL A   1      36.635  29.491  30.670  1.00  0.00     0.016 A 
ATOM     36  C   UNL A   1      37.426  31.319  29.475  1.00  0.00     0.016 A 
ATOM     37  C   UNL A   1      37.762  28.676  30.186  1.00  0.00     0.010 A 
ATOM     38  C   UNL A   1      38.576  30.542  29.294  1.00  0.00     0.010 A 
ATOM     39  C   UNL A   1      38.843  29.214  29.484  1.00  0.00    -0.014 A 
BRANCH  39  40
ATOM     40  C   UNL A   1      40.297  28.718  29.244  1.00  0.00     0.031 A 
ATOM     41  C   UNL A   1      40.916  27.450  28.539  1.00  0.00     0.074 A 
ATOM     42  C   UNL A   1      41.262  29.546  29.706  1.00  0.00     0.049 A 
ATOM     43  N   UNL A   1      41.779  26.635  29.118  1.00  0.00    -0.248 NA
ATOM     44  C   UNL A   1      40.809  27.043  27.130  1.00  0.00     0.031 C 
ATOM     45  C   UNL A   1      42.710  29.410  29.588  1.00  0.00     0.029 A 
ATOM     46  N   UNL A   1      41.091  30.613  30.588  1.00  0.00    -0.354 N 
ATOM     47  C   UNL A   1      42.284  25.753  28.146  1.00  0.00     0.074 A 
ATOM     48  C   UNL A   1      41.534  25.951  26.973  1.00  0.00     0.031 C 
ATOM     49  C   UNL A   1      43.275  30.099  30.594  1.00  0.00     0.029 A 
ATOM     50  C   UNL A   1      42.211  30.638  31.427  1.00  0.00     0.049 A 
ATOM     51  H   UNL A   1      40.326  31.233  30.614  1.00  0.00     0.167 HD
ATOM     52  C   UNL A   1      43.443  25.043  28.173  1.00  0.00     0.031 A 
ATOM     53  C   UNL A   1      42.035  30.468  32.767  1.00  0.00     0.031 A 
ATOM     54  C   UNL A   1      44.310  25.519  29.204  1.00  0.00     0.049 A 
ATOM     55  C   UNL A   1      42.639  29.174  33.275  1.00  0.00     0.074 A 
ATOM     56  C   UNL A   1      45.401  26.366  29.238  1.00  0.00     0.029 A 
ATOM     57  N   UNL A   1      43.831  25.443  30.483  1.00  0.00    -0.354 N 
ATOM     58  N   UNL A   1      43.451  28.407  32.597  1.00  0.00    -0.248 NA
ATOM     59  C   UNL A   1      42.278  28.589  34.570  1.00  0.00     0.031 C 
ATOM     60  C   UNL A   1      45.560  26.801  30.589  1.00  0.00     0.029 A 
ATOM     61  C   UNL A   1      44.603  26.165  31.355  1.00  0.00     0.049 A 
ATOM     62  H   UNL A   1      43.031  24.933  30.746  1.00  0.00     0.167 HD
ATOM     63  C   UNL A   1      43.590  27.217  33.261  1.00  0.00     0.074 A 
ATOM     64  C   UNL A   1      42.876  27.389  34.508  1.00  0.00     0.031 C 
ATOM     65  C   UNL A   1      44.195  26.118  32.736  1.00  0.00     0.031 A 
BRANCH  52  66
ATOM     66  C   UNL A   1      43.811  24.112  27.035  1.00  0.00    -0.014 A 
ATOM     67  C   UNL A   1      44.520  24.553  25.911  1.00  0.00     0.009 A 
ATOM     68  C   UNL A   1      43.415  22.752  27.040  1.00  0.00     0.009 A 
ATOM     69  C   UNL A   1      44.726  23.713  24.803  1.00  0.00     0.001 A 
ATOM     70  C   UNL A   1      43.582  21.924  25.920  1.00  0.00     0.001 A 
ATOM     71  C   UNL A   1      44.227  22.412  24.793  1.00  0.00     0.000 A 
ENDBRANCH  52  66
BRANCH  53  72
ATOM     72  C   UNL A   1      40.796  31.139  33.284  1.00  0.00    -0.014 A 
ATOM     73  C   UNL A   1      40.791  32.552  33.356  1.00  0.00     0.009 A 
ATOM     74  C   UNL A   1      39.567  30.481  33.414  1.00  0.00     0.009 A 
ATOM     75  C   UNL A   1      39.597  33.277  33.433  1.00  0.00     0.001 A 
ATOM     76  C   UNL A   1      38.371  31.210  33.522  1.00  0.00     0.001 A 
ATOM     77  C   UNL A   1      38.384  32.604  33.491  1.00  0.00     0.000 A 
ENDBRANCH  53  72
BRANCH  65  78
ATOM     78  C   UNL A   1      44.363  24.832  33.492  1.00  0.00    -0.014 A 
ATOM     79  C   UNL A   1      45.565  24.124  33.419  1.00  0.00     0.009 A 
ATOM     80  C   UNL A   1      43.281  24.215  34.157  1.00  0.00     0.009 A 
ATOM     81  C   UNL A   1      45.690  22.863  34.012  1.00  0.00     0.001 A 
ATOM     82  C   UNL A   1      43.395  22.947  34.727  1.00  0.00     0.001 A 
ATOM     83  C   UNL A   1      44.604  22.273  34.658  1.00  0.00     0.000 A 
ENDBRANCH  65  78
ENDBRANCH  39  40
ENDBRANCH  32  34
ENDBRANCH  31  32
ENDBRANCH  30  31
ENDBRANCH  29  30
ENDBRANCH  28  29
ENDBRANCH  27  28
ENDBRANCH   1  27
TORSDOF 20
ENDMDL
MODEL 2
REMARK VINA RESULT:     -10.3      3.274      9.048
REMARK SMILES Cc1cccc(NS(=O)(=O)c2ccc(Br)c(C(=O)OCCOCCOCCOC(=O)c3ccc(-c4c5nc(c(-c6ccccc6)c6ccc([nH]6)c(-c6ccccc6)c6nc(c(-c7ccccc7)c7ccc4[nH]7)C=C6)C=C5)cc3)c2)c1
REMARK SMILES IDX 23 1 22 2 21 3 20 4 19 5 17 6 18 7 16 8 11 9 12 10 79 11
REMARK SMILES IDX 13 12 14 13 15 14 8 15 9 16 10 17 7 18 6 20 1 21 2 22 3 23
REMARK SMILES IDX 80 24 4 25 5 26 24 27 25 28 26 29 27 30 28 31 29 32 30 33
REMARK SMILES IDX 31 34 32 35 78 36 33 37 77 38 34 39 35 40 36 41 71 42 37 43
REMARK SMILES IDX 76 44 70 45 72 46 38 47 75 48 69 49 68 50 39 52 61 53 46 54
REMARK SMILES IDX 60 55 47 56 50 57 59 58 73 59 48 60 49 61 58 63 74 64 51 65
REMARK SMILES IDX 40 66 41 67 45 68 42 69 44 70 43 71 62 72 63 73 67 74 64 75
REMARK SMILES IDX 66 76 65 77 52 78 53 79 57 80 54 81 56 82 55 83
REMARK H PARENT 7 19 72 51 50 62
REMARK Flexibility Score: inf
ROOT
ATOM      1  C   UNL A   1      39.252  21.708  25.791  1.00  0.00     0.188 C 
ENDROOT
BRANCH   1   2
ATOM      2  O   UNL A   1      37.980  22.339  25.511  1.00  0.00    -0.376 OA
BRANCH   2   3
ATOM      3  C   UNL A   1      36.696  21.675  25.636  1.00  0.00     0.202 C 
BRANCH   3   4
ATOM      4  C   UNL A   1      35.334  22.441  25.108  1.00  0.00     0.261 C 
BRANCH   4   5
ATOM      5  O   UNL A   1      33.913  21.711  24.757  1.00  0.00    -0.460 OA
BRANCH   5   6
ATOM      6  C   UNL A   1      32.772  22.028  23.970  1.00  0.00     0.339 C 
ATOM      7  O   UNL A   1      32.180  21.314  23.168  1.00  0.00    -0.246 OA
BRANCH   6   8
ATOM      8  C   UNL A   1      32.141  23.401  23.971  1.00  0.00     0.075 A 
ATOM      9  C   UNL A   1      32.251  25.852  23.477  1.00  0.00     0.088 A 
ATOM     10  C   UNL A   1      31.249  26.082  24.413  1.00  0.00     0.023 A 
ATOM     11  C   UNL A   1      32.731  24.527  23.298  1.00  0.00     0.039 A 
ATOM     12  C   UNL A   1      30.774  25.008  25.179  1.00  0.00     0.018 A 
ATOM     13  C   UNL A   1      31.211  23.687  24.965  1.00  0.00     0.032 A 
ATOM     14  Br  UNL A   1      30.627  22.359  26.190  1.00  0.00    -0.050 Br
BRANCH   9  15
ATOM     15  S   UNL A   1      32.958  27.243  22.568  1.00  0.00     0.261 S 
ATOM     16  O   UNL A   1      31.877  28.129  22.259  1.00  0.00    -0.201 OA
ATOM     17  O   UNL A   1      33.801  26.689  21.507  1.00  0.00    -0.201 OA
BRANCH  15  18
ATOM     18  N   UNL A   1      33.967  28.121  23.595  1.00  0.00    -0.280 N 
ATOM     19  H   UNL A   1      34.876  28.329  23.277  1.00  0.00     0.180 HD
BRANCH  18  20
ATOM     20  C   UNL A   1      33.601  28.586  24.886  1.00  0.00     0.049 A 
ATOM     21  C   UNL A   1      31.317  31.323  26.249  1.00  0.00     0.044 C 
ATOM     22  C   UNL A   1      32.244  30.145  26.178  1.00  0.00    -0.049 A 
ATOM     23  C   UNL A   1      32.510  29.389  27.324  1.00  0.00     0.003 A 
ATOM     24  C   UNL A   1      32.798  29.735  24.958  1.00  0.00     0.030 A 
ATOM     25  C   UNL A   1      33.393  28.309  27.268  1.00  0.00     0.002 A 
ATOM     26  C   UNL A   1      33.971  27.932  26.056  1.00  0.00     0.027 A 
ENDBRANCH  18  20
ENDBRANCH  15  18
ENDBRANCH   9  15
ENDBRANCH   6   8
ENDBRANCH   5   6
ENDBRANCH   4   5
ENDBRANCH   3   4
ENDBRANCH   2   3
ENDBRANCH   1   2
BRANCH   1  27
ATOM     27  C   UNL A   1      39.935  21.810  27.153  1.00  0.00     0.188 C 
BRANCH  27  28
ATOM     28  O   UNL A   1      41.304  22.098  26.957  1.00  0.00    -0.376 OA
BRANCH  28  29
ATOM     29  C   UNL A   1      41.944  21.409  25.900  1.00  0.00     0.202 C 
BRANCH  29  30
ATOM     30  C   UNL A   1      43.139  22.207  25.353  1.00  0.00     0.261 C 
BRANCH  30  31
ATOM     31  O   UNL A   1      43.214  23.505  26.004  1.00  0.00    -0.460 OA
BRANCH  31  32
ATOM     32  C   UNL A   1      43.386  24.616  25.212  1.00  0.00     0.338 C 
ATOM     33  O   UNL A   1      44.374  24.836  24.533  1.00  0.00    -0.246 OA
BRANCH  32  34
ATOM     34  C   UNL A   1      42.307  25.637  25.496  1.00  0.00     0.060 A 
ATOM     35  C   UNL A   1      42.349  27.019  25.236  1.00  0.00     0.016 A 
ATOM     36  C   UNL A   1      41.376  25.267  26.409  1.00  0.00     0.016 A 
ATOM     37  C   UNL A   1      41.530  27.987  25.985  1.00  0.00     0.010 A 
ATOM     38  C   UNL A   1      40.853  26.274  27.229  1.00  0.00     0.010 A 
ATOM     39  C   UNL A   1      40.750  27.631  27.087  1.00  0.00    -0.014 A 
BRANCH  39  40
ATOM     40  C   UNL A   1      40.165  28.448  28.275  1.00  0.00     0.031 A 
ATOM     41  C   UNL A   1      39.098  29.604  28.383  1.00  0.00     0.074 A 
ATOM     42  C   UNL A   1      40.636  28.094  29.493  1.00  0.00     0.049 A 
ATOM     43  N   UNL A   1      39.325  30.761  28.980  1.00  0.00    -0.248 NA
ATOM     44  C   UNL A   1      37.672  29.569  28.028  1.00  0.00     0.031 C 
ATOM     45  C   UNL A   1      40.250  28.612  30.802  1.00  0.00     0.029 A 
ATOM     46  N   UNL A   1      41.752  27.301  29.756  1.00  0.00    -0.354 N 
ATOM     47  C   UNL A   1      38.108  31.457  29.084  1.00  0.00     0.074 A 
ATOM     48  C   UNL A   1      37.152  30.742  28.341  1.00  0.00     0.031 C 
ATOM     49  C   UNL A   1      41.277  28.414  31.645  1.00  0.00     0.029 A 
ATOM     50  C   UNL A   1      42.377  27.831  30.891  1.00  0.00     0.049 A 
ATOM     51  H   UNL A   1      42.046  26.515  29.239  1.00  0.00     0.167 HD
ATOM     52  C   UNL A   1      37.780  32.456  29.945  1.00  0.00     0.031 A 
ATOM     53  C   UNL A   1      43.653  28.294  30.786  1.00  0.00     0.031 A 
ATOM     54  C   UNL A   1      38.732  32.549  31.006  1.00  0.00     0.049 A 
ATOM     55  C   UNL A   1      43.747  29.796  30.977  1.00  0.00     0.074 A 
ATOM     56  C   UNL A   1      38.775  32.101  32.313  1.00  0.00     0.029 A 
ATOM     57  N   UNL A   1      40.023  32.821  30.642  1.00  0.00    -0.354 N 
ATOM     58  N   UNL A   1      42.786  30.555  31.432  1.00  0.00    -0.248 NA
ATOM     59  C   UNL A   1      44.916  30.574  30.559  1.00  0.00     0.031 C 
ATOM     60  C   UNL A   1      40.143  32.110  32.721  1.00  0.00     0.029 A 
ATOM     61  C   UNL A   1      40.894  32.619  31.679  1.00  0.00     0.049 A 
ATOM     62  H   UNL A   1      40.292  33.126  29.745  1.00  0.00     0.167 HD
ATOM     63  C   UNL A   1      43.131  31.867  31.233  1.00  0.00     0.074 A 
ATOM     64  C   UNL A   1      44.485  31.833  30.725  1.00  0.00     0.031 C 
ATOM     65  C   UNL A   1      42.276  32.912  31.399  1.00  0.00     0.031 A 
BRANCH  52  66
ATOM     66  C   UNL A   1      36.416  33.113  29.890  1.00  0.00    -0.014 A 
ATOM     67  C   UNL A   1      35.981  33.836  28.773  1.00  0.00     0.009 A 
ATOM     68  C   UNL A   1      35.527  33.059  30.993  1.00  0.00     0.009 A 
ATOM     69  C   UNL A   1      34.776  34.559  28.795  1.00  0.00     0.001 A 
ATOM     70  C   UNL A   1      34.345  33.812  31.033  1.00  0.00     0.001 A 
ATOM     71  C   UNL A   1      33.976  34.575  29.936  1.00  0.00     0.000 A 
ENDBRANCH  52  66
BRANCH  53  72
ATOM     72  C   UNL A   1      44.508  27.454  29.883  1.00  0.00    -0.014 A 
ATOM     73  C   UNL A   1      44.959  26.206  30.373  1.00  0.00     0.009 A 
ATOM     74  C   UNL A   1      44.634  27.693  28.509  1.00  0.00     0.009 A 
ATOM     75  C   UNL A   1      45.403  25.198  29.511  1.00  0.00     0.001 A 
ATOM     76  C   UNL A   1      45.109  26.689  27.648  1.00  0.00     0.001 A 
ATOM     77  C   UNL A   1      45.454  25.432  28.143  1.00  0.00     0.000 A 
ENDBRANCH  53  72
BRANCH  65  78
ATOM     78  C   UNL A   1      42.683  34.344  31.204  1.00  0.00    -0.014 A 
ATOM     79  C   UNL A   1      42.724  34.895  29.920  1.00  0.00     0.009 A 
ATOM     80  C   UNL A   1      43.190  35.124  32.266  1.00  0.00     0.009 A 
ATOM     81  C   UNL A   1      43.225  36.184  29.711  1.00  0.00     0.001 A 
ATOM     82  C   UNL A   1      43.713  36.399  32.056  1.00  0.00     0.001 A 
ATOM     83  C   UNL A   1      43.725  36.931  30.776  1.00  0.00     0.000 A 
ENDBRANCH  65  78
ENDBRANCH  39  40
ENDBRANCH  32  34
ENDBRANCH  31  32
ENDBRANCH  30  31
ENDBRANCH  29  30
ENDBRANCH  28  29
ENDBRANCH  27  28
ENDBRANCH   1  27
TORSDOF 20
ENDMDL
MODEL 3
REMARK VINA RESULT:     -10.2      3.365      9.320
REMARK SMILES Cc1cccc(NS(=O)(=O)c2ccc(Br)c(C(=O)OCCOCCOCCOC(=O)c3ccc(-c4c5nc(c(-c6ccccc6)c6ccc([nH]6)c(-c6ccccc6)c6nc(c(-c7ccccc7)c7ccc4[nH]7)C=C6)C=C5)cc3)c2)c1
REMARK SMILES IDX 23 1 22 2 21 3 20 4 19 5 17 6 18 7 16 8 11 9 12 10 79 11
REMARK SMILES IDX 13 12 14 13 15 14 8 15 9 16 10 17 7 18 6 20 1 21 2 22 3 23
REMARK SMILES IDX 80 24 4 25 5 26 24 27 25 28 26 29 27 30 28 31 29 32 30 33
REMARK SMILES IDX 31 34 32 35 78 36 33 37 77 38 34 39 35 40 36 41 71 42 37 43
REMARK SMILES IDX 76 44 70 45 72 46 38 47 75 48 69 49 68 50 39 52 61 53 46 54
REMARK SMILES IDX 60 55 47 56 50 57 59 58 73 59 48 60 49 61 58 63 74 64 51 65
REMARK SMILES IDX 40 66 41 67 45 68 42 69 44 70 43 71 62 72 63 73 67 74 64 75
REMARK SMILES IDX 66 76 65 77 52 78 53 79 57 80 54 81 56 82 55 83
REMARK H PARENT 7 19 72 51 50 62
REMARK Flexibility Score: inf
ROOT
ATOM      1  C   UNL A   1      40.862  19.778  26.179  1.00  0.00     0.188 C 
ENDROOT
BRANCH   1   2
ATOM      2  O   UNL A   1      39.546  20.251  25.805  1.00  0.00    -0.376 OA
BRANCH   2   3
ATOM      3  C   UNL A   1      39.108  21.628  25.930  1.00  0.00     0.202 C 
BRANCH   3   4
ATOM      4  C   UNL A   1      37.825  22.156  25.039  1.00  0.00     0.261 C 
BRANCH   4   5
ATOM      5  O   UNL A   1      36.263  22.136  25.524  1.00  0.00    -0.460 OA
BRANCH   5   6
ATOM      6  C   UNL A   1      35.195  23.073  25.554  1.00  0.00     0.339 C 
ATOM      7  O   UNL A   1      34.923  23.889  26.429  1.00  0.00    -0.246 OA
BRANCH   6   8
ATOM      8  C   UNL A   1      34.145  23.143  24.469  1.00  0.00     0.075 A 
ATOM      9  C   UNL A   1      32.797  24.456  22.820  1.00  0.00     0.088 A 
ATOM     10  C   UNL A   1      31.835  23.454  22.813  1.00  0.00     0.023 A 
ATOM     11  C   UNL A   1      33.917  24.326  23.683  1.00  0.00     0.039 A 
ATOM     12  C   UNL A   1      31.977  22.368  23.688  1.00  0.00     0.018 A 
ATOM     13  C   UNL A   1      33.112  22.212  24.506  1.00  0.00     0.032 A 
ATOM     14  Br  UNL A   1      33.094  20.797  25.773  1.00  0.00    -0.050 Br
BRANCH   9  15
ATOM     15  S   UNL A   1      32.568  25.919  21.787  1.00  0.00     0.261 S 
ATOM     16  O   UNL A   1      31.167  26.218  21.795  1.00  0.00    -0.201 OA
ATOM     17  O   UNL A   1      33.276  25.681  20.528  1.00  0.00    -0.201 OA
BRANCH  15  18
ATOM     18  N   UNL A   1      33.305  27.243  22.528  1.00  0.00    -0.280 N 
ATOM     19  H   UNL A   1      34.181  27.532  22.182  1.00  0.00     0.180 HD
BRANCH  18  20
ATOM     20  C   UNL A   1      32.753  27.973  23.614  1.00  0.00     0.049 A 
ATOM     21  C   UNL A   1      33.713  28.578  27.258  1.00  0.00     0.044 C 
ATOM     22  C   UNL A   1      33.001  28.661  25.939  1.00  0.00    -0.049 A 
ATOM     23  C   UNL A   1      32.004  29.620  25.736  1.00  0.00     0.003 A 
ATOM     24  C   UNL A   1      33.369  27.836  24.867  1.00  0.00     0.030 A 
ATOM     25  C   UNL A   1      31.321  29.682  24.520  1.00  0.00     0.002 A 
ATOM     26  C   UNL A   1      31.668  28.831  23.471  1.00  0.00     0.027 A 
ENDBRANCH  18  20
ENDBRANCH  15  18
ENDBRANCH   9  15
ENDBRANCH   6   8
ENDBRANCH   5   6
ENDBRANCH   4   5
ENDBRANCH   3   4
ENDBRANCH   2   3
ENDBRANCH   1   2
BRANCH   1  27
ATOM     27  C   UNL A   1      41.536  20.180  27.488  1.00  0.00     0.188 C 
BRANCH  27  28
ATOM     28  O   UNL A   1      42.385  21.281  27.245  1.00  0.00    -0.376 OA
BRANCH  28  29
ATOM     29  C   UNL A   1      42.826  21.450  25.912  1.00  0.00     0.202 C 
BRANCH  29  30
ATOM     30  C   UNL A   1      42.711  22.917  25.465  1.00  0.00     0.261 C 
BRANCH  30  31
ATOM     31  O   UNL A   1      42.321  23.753  26.588  1.00  0.00    -0.460 OA
BRANCH  31  32
ATOM     32  C   UNL A   1      41.589  24.888  26.326  1.00  0.00     0.338 C 
ATOM     33  O   UNL A   1      41.647  25.525  25.288  1.00  0.00    -0.246 OA
BRANCH  32  34
ATOM     34  C   UNL A   1      40.904  25.374  27.584  1.00  0.00     0.060 A 
ATOM     35  C   UNL A   1      39.525  25.363  27.863  1.00  0.00     0.016 A 
ATOM     36  C   UNL A   1      41.625  26.227  28.352  1.00  0.00     0.016 A 
ATOM     37  C   UNL A   1      38.909  26.291  28.827  1.00  0.00     0.010 A 
ATOM     38  C   UNL A   1      40.917  27.224  29.032  1.00  0.00     0.010 A 
ATOM     39  C   UNL A   1      39.615  27.330  29.439  1.00  0.00    -0.014 A 
BRANCH  39  40
ATOM     40  C   UNL A   1      39.165  28.656  30.115  1.00  0.00     0.031 A 
ATOM     41  C   UNL A   1      38.142  29.790  29.722  1.00  0.00     0.074 A 
ATOM     42  C   UNL A   1      39.741  28.906  31.314  1.00  0.00     0.049 A 
ATOM     43  N   UNL A   1      38.452  31.072  29.660  1.00  0.00    -0.248 NA
ATOM     44  C   UNL A   1      36.687  29.683  29.532  1.00  0.00     0.031 C 
ATOM     45  C   UNL A   1      39.495  30.017  32.227  1.00  0.00     0.029 A 
ATOM     46  N   UNL A   1      40.859  28.266  31.849  1.00  0.00    -0.354 N 
ATOM     47  C   UNL A   1      37.267  31.812  29.498  1.00  0.00     0.074 A 
ATOM     48  C   UNL A   1      36.228  30.893  29.269  1.00  0.00     0.031 C 
ATOM     49  C   UNL A   1      40.593  30.183  32.983  1.00  0.00     0.029 A 
ATOM     50  C   UNL A   1      41.601  29.236  32.534  1.00  0.00     0.049 A 
ATOM     51  H   UNL A   1      41.082  27.310  31.763  1.00  0.00     0.167 HD
ATOM     52  C   UNL A   1      37.047  33.122  29.783  1.00  0.00     0.031 A 
ATOM     53  C   UNL A   1      42.872  29.503  32.124  1.00  0.00     0.031 A 
ATOM     54  C   UNL A   1      38.098  33.653  30.592  1.00  0.00     0.049 A 
ATOM     55  C   UNL A   1      43.020  30.899  31.551  1.00  0.00     0.074 A 
ATOM     56  C   UNL A   1      38.255  33.892  31.944  1.00  0.00     0.029 A 
ATOM     57  N   UNL A   1      39.354  33.627  30.050  1.00  0.00    -0.354 N 
ATOM     58  N   UNL A   1      42.126  31.847  31.645  1.00  0.00    -0.248 NA
ATOM     59  C   UNL A   1      44.162  31.296  30.723  1.00  0.00     0.031 C 
ATOM     60  C   UNL A   1      39.656  34.005  32.197  1.00  0.00     0.029 A 
ATOM     61  C   UNL A   1      40.316  33.894  30.989  1.00  0.00     0.049 A 
ATOM     62  H   UNL A   1      39.544  33.441  29.102  1.00  0.00     0.167 HD
ATOM     63  C   UNL A   1      42.481  32.871  30.807  1.00  0.00     0.074 A 
ATOM     64  C   UNL A   1      43.779  32.504  30.284  1.00  0.00     0.031 C 
ATOM     65  C   UNL A   1      41.671  33.921  30.503  1.00  0.00     0.031 A 
BRANCH  52  66
ATOM     66  C   UNL A   1      35.700  33.761  29.512  1.00  0.00    -0.014 A 
ATOM     67  C   UNL A   1      35.279  34.093  28.219  1.00  0.00     0.009 A 
ATOM     68  C   UNL A   1      34.815  34.091  30.570  1.00  0.00     0.009 A 
ATOM     69  C   UNL A   1      34.092  34.815  28.001  1.00  0.00     0.001 A 
ATOM     70  C   UNL A   1      33.653  34.846  30.359  1.00  0.00     0.001 A 
ATOM     71  C   UNL A   1      33.298  35.222  29.071  1.00  0.00     0.000 A 
ENDBRANCH  52  66
BRANCH  53  72
ATOM     72  C   UNL A   1      43.616  28.274  31.688  1.00  0.00    -0.014 A 
ATOM     73  C   UNL A   1      44.070  28.218  30.349  1.00  0.00     0.009 A 
ATOM     74  C   UNL A   1      44.135  27.334  32.587  1.00  0.00     0.009 A 
ATOM     75  C   UNL A   1      45.086  27.339  29.957  1.00  0.00     0.001 A 
ATOM     76  C   UNL A   1      45.134  26.433  32.184  1.00  0.00     0.001 A 
ATOM     77  C   UNL A   1      45.636  26.463  30.883  1.00  0.00     0.000 A 
ENDBRANCH  53  72
BRANCH  65  78
ATOM     78  C   UNL A   1      42.091  35.048  29.605  1.00  0.00    -0.014 A 
ATOM     79  C   UNL A   1      43.082  35.944  30.015  1.00  0.00     0.009 A 
ATOM     80  C   UNL A   1      41.401  35.342  28.409  1.00  0.00     0.009 A 
ATOM     81  C   UNL A   1      43.391  37.070  29.246  1.00  0.00     0.001 A 
ATOM     82  C   UNL A   1      41.688  36.479  27.654  1.00  0.00     0.001 A 
ATOM     83  C   UNL A   1      42.690  37.341  28.072  1.00  0.00     0.000 A 
ENDBRANCH  65  78
ENDBRANCH  39  40
ENDBRANCH  32  34
ENDBRANCH  31  32
ENDBRANCH  30  31
ENDBRANCH  29  30
ENDBRANCH  28  29
ENDBRANCH  27  28
ENDBRANCH   1  27
TORSDOF 20
ENDMDL
