MODEL 1
REMARK VINA RESULT:      -9.6      0.000      0.000
REMARK SMILES O=C(OCCOCCOCCOC(=O)c1cc(N2C(=O)[C@H]3[C@@H]4C=C[C@@H]([C@@H]5C[C@H]45)[C@@H]3C2=O)ccc1Cl)c1ccc(-c2c3nc(c(-c4ccccc4)c4ccc([nH]4)c(-c4ccccc4)c4nc(c(-c5ccccc5)c5ccc2[nH]5)C=C4)C=C3)cc1
REMARK SMILES IDX 7 1 6 2 5 3 4 4 3 5 2 6 1 7 36 8 37 9 83 10 38 11 82 12
REMARK SMILES IDX 39 13 40 14 41 15 76 16 42 17 81 18 75 19 77 20 43 21 80 22
REMARK SMILES IDX 74 23 73 24 44 26 66 27 51 28 65 29 52 30 55 31 64 32 78 33
REMARK SMILES IDX 53 34 54 35 63 37 79 38 56 39 45 40 46 41 50 42 47 43 49 44
REMARK SMILES IDX 48 45 67 46 68 47 72 48 69 49 71 50 70 51 57 52 58 53 62 54
REMARK SMILES IDX 59 55 61 56 60 57 8 58 9 59 10 60 11 61 12 62 13 63 14 64
REMARK SMILES IDX 15 65 16 66 34 67 17 68 33 69 35 70 32 71 18 72 19 73 30 74
REMARK SMILES IDX 20 75 21 76 29 77 31 78 22 79 25 80 23 81 28 82 24 83 26 84
REMARK SMILES IDX 27 85
REMARK H PARENT 77 25 55 36
REMARK Flexibility Score: inf
ROOT
ATOM      1  C   UNL A   1      33.810  34.833  32.868  1.00  0.00     0.188 C 
ENDROOT
BRANCH   1   2
ATOM      2  O   UNL A   1      32.629  35.072  32.102  1.00  0.00    -0.376 OA
BRANCH   2   3
ATOM      3  C   UNL A   1      32.647  36.291  31.346  1.00  0.00     0.202 C 
BRANCH   3   4
ATOM      4  C   UNL A   1      33.349  36.240  29.973  1.00  0.00     0.261 C 
BRANCH   4   5
ATOM      5  O   UNL A   1      32.671  35.433  28.995  1.00  0.00    -0.460 OA
BRANCH   5   6
ATOM      6  C   UNL A   1      33.077  34.261  28.442  1.00  0.00     0.338 C 
ATOM      7  O   UNL A   1      32.351  33.720  27.611  1.00  0.00    -0.246 OA
BRANCH   6   8
ATOM      8  C   UNL A   1      34.357  33.583  28.804  1.00  0.00     0.060 A 
ATOM      9  C   UNL A   1      34.487  32.589  29.772  1.00  0.00     0.016 A 
ATOM     10  C   UNL A   1      35.494  33.915  28.053  1.00  0.00     0.016 A 
ATOM     11  C   UNL A   1      35.705  32.006  30.067  1.00  0.00     0.010 A 
ATOM     12  C   UNL A   1      36.719  33.287  28.295  1.00  0.00     0.010 A 
ATOM     13  C   UNL A   1      36.831  32.360  29.337  1.00  0.00    -0.014 A 
BRANCH  13  14
ATOM     14  C   UNL A   1      38.137  31.914  29.847  1.00  0.00     0.031 A 
ATOM     15  C   UNL A   1      38.662  30.615  29.320  1.00  0.00     0.074 A 
ATOM     16  C   UNL A   1      38.886  32.729  30.611  1.00  0.00     0.049 A 
ATOM     17  N   UNL A   1      39.776  29.995  29.598  1.00  0.00    -0.248 NA
ATOM     18  C   UNL A   1      37.817  29.920  28.331  1.00  0.00     0.031 C 
ATOM     19  C   UNL A   1      38.506  34.080  31.034  1.00  0.00     0.029 A 
ATOM     20  N   UNL A   1      40.144  32.561  31.121  1.00  0.00    -0.354 N 
ATOM     21  C   UNL A   1      39.737  28.821  28.857  1.00  0.00     0.074 A 
ATOM     22  C   UNL A   1      38.487  28.799  28.137  1.00  0.00     0.031 C 
ATOM     23  C   UNL A   1      39.532  34.634  31.700  1.00  0.00     0.029 A 
ATOM     24  C   UNL A   1      40.600  33.651  31.821  1.00  0.00     0.049 A 
ATOM     25  H   UNL A   1      40.671  31.739  30.998  1.00  0.00     0.167 HD
ATOM     26  C   UNL A   1      40.669  27.845  28.788  1.00  0.00     0.031 A 
ATOM     27  C   UNL A   1      41.750  33.814  32.500  1.00  0.00     0.031 A 
ATOM     28  C   UNL A   1      41.903  27.899  29.519  1.00  0.00     0.049 A 
ATOM     29  C   UNL A   1      42.722  32.666  32.506  1.00  0.00     0.074 A 
ATOM     30  C   UNL A   1      42.911  26.960  29.590  1.00  0.00     0.029 A 
ATOM     31  N   UNL A   1      42.286  28.973  30.315  1.00  0.00    -0.354 N 
ATOM     32  N   UNL A   1      42.651  31.522  31.864  1.00  0.00    -0.248 NA
ATOM     33  C   UNL A   1      43.926  32.825  33.328  1.00  0.00     0.031 C 
ATOM     34  C   UNL A   1      43.877  27.440  30.482  1.00  0.00     0.029 A 
ATOM     35  C   UNL A   1      43.507  28.710  30.904  1.00  0.00     0.049 A 
ATOM     36  H   UNL A   1      41.765  29.798  30.440  1.00  0.00     0.167 HD
ATOM     37  C   UNL A   1      43.816  30.836  32.178  1.00  0.00     0.074 A 
ATOM     38  C   UNL A   1      44.578  31.703  33.059  1.00  0.00     0.031 C 
ATOM     39  C   UNL A   1      44.226  29.608  31.774  1.00  0.00     0.031 A 
BRANCH  26  40
ATOM     40  C   UNL A   1      40.310  26.627  27.984  1.00  0.00    -0.014 A 
ATOM     41  C   UNL A   1      39.545  25.577  28.520  1.00  0.00     0.009 A 
ATOM     42  C   UNL A   1      40.833  26.490  26.690  1.00  0.00     0.009 A 
ATOM     43  C   UNL A   1      39.370  24.391  27.801  1.00  0.00     0.001 A 
ATOM     44  C   UNL A   1      40.626  25.319  25.960  1.00  0.00     0.001 A 
ATOM     45  C   UNL A   1      39.911  24.263  26.522  1.00  0.00     0.000 A 
ENDBRANCH  26  40
BRANCH  27  46
ATOM     46  C   UNL A   1      42.019  35.073  33.246  1.00  0.00    -0.014 A 
ATOM     47  C   UNL A   1      41.362  35.354  34.453  1.00  0.00     0.009 A 
ATOM     48  C   UNL A   1      42.939  36.013  32.749  1.00  0.00     0.009 A 
ATOM     49  C   UNL A   1      41.602  36.553  35.132  1.00  0.00     0.001 A 
ATOM     50  C   UNL A   1      43.201  37.195  33.444  1.00  0.00     0.001 A 
ATOM     51  C   UNL A   1      42.524  37.469  34.630  1.00  0.00     0.000 A 
ENDBRANCH  27  46
BRANCH  39  52
ATOM     52  C   UNL A   1      45.583  29.163  32.239  1.00  0.00    -0.014 A 
ATOM     53  C   UNL A   1      45.737  28.231  33.275  1.00  0.00     0.009 A 
ATOM     54  C   UNL A   1      46.723  29.654  31.582  1.00  0.00     0.009 A 
ATOM     55  C   UNL A   1      47.012  27.827  33.670  1.00  0.00     0.001 A 
ATOM     56  C   UNL A   1      47.993  29.219  31.953  1.00  0.00     0.001 A 
ATOM     57  C   UNL A   1      48.138  28.315  33.005  1.00  0.00     0.000 A 
ENDBRANCH  39  52
ENDBRANCH  13  14
ENDBRANCH   6   8
ENDBRANCH   5   6
ENDBRANCH   4   5
ENDBRANCH   3   4
ENDBRANCH   2   3
ENDBRANCH   1   2
BRANCH   1  58
ATOM     58  C   UNL A   1      34.029  33.370  33.245  1.00  0.00     0.188 C 
BRANCH  58  59
ATOM     59  O   UNL A   1      35.151  33.070  34.063  1.00  0.00    -0.376 OA
BRANCH  59  60
ATOM     60  C   UNL A   1      36.204  32.322  33.467  1.00  0.00     0.202 C 
BRANCH  60  61
ATOM     61  C   UNL A   1      37.486  32.066  34.279  1.00  0.00     0.261 C 
BRANCH  61  62
ATOM     62  O   UNL A   1      37.429  32.333  35.695  1.00  0.00    -0.460 OA
BRANCH  62  63
ATOM     63  C   UNL A   1      38.143  31.465  36.455  1.00  0.00     0.339 C 
ATOM     64  O   UNL A   1      37.707  30.672  37.274  1.00  0.00    -0.246 OA
BRANCH  63  65
ATOM     65  C   UNL A   1      39.589  31.554  36.197  1.00  0.00     0.080 A 
ATOM     66  C   UNL A   1      40.294  30.406  35.788  1.00  0.00     0.044 A 
ATOM     67  C   UNL A   1      40.279  32.691  36.630  1.00  0.00     0.055 A 
ATOM     68  C   UNL A   1      41.689  30.377  35.897  1.00  0.00     0.053 A 
ATOM     69  C   UNL A   1      41.672  32.666  36.706  1.00  0.00     0.023 A 
ATOM     70  Cl  UNL A   1      39.471  34.147  37.088  1.00  0.00    -0.083 Cl
ATOM     71  C   UNL A   1      42.371  31.506  36.368  1.00  0.00     0.028 A 
BRANCH  68  72
ATOM     72  N   UNL A   1      42.436  29.259  35.462  1.00  0.00    -0.250 N 
ATOM     73  C   UNL A   1      43.264  28.583  36.368  1.00  0.00     0.238 C 
ATOM     74  C   UNL A   1      41.990  28.398  34.439  1.00  0.00     0.238 C 
ATOM     75  O   UNL A   1      43.561  28.889  37.501  1.00  0.00    -0.274 OA
ATOM     76  C   UNL A   1      43.650  27.329  35.659  1.00  0.00     0.100 C 
ATOM     77  C   UNL A   1      42.304  27.046  34.992  1.00  0.00     0.100 C 
ATOM     78  O   UNL A   1      41.309  28.646  33.461  1.00  0.00    -0.274 OA
ATOM     79  C   UNL A   1      44.224  26.022  36.237  1.00  0.00     0.028 C 
ATOM     80  C   UNL A   1      42.273  25.593  34.531  1.00  0.00     0.028 C 
ATOM     81  C   UNL A   1      44.662  25.322  34.930  1.00  0.00    -0.026 C 
ATOM     82  C   UNL A   1      43.194  25.055  36.852  1.00  0.00     0.001 C 
ATOM     83  C   UNL A   1      43.662  25.159  34.031  1.00  0.00    -0.026 C 
ATOM     84  C   UNL A   1      42.048  24.781  35.864  1.00  0.00     0.001 C 
ATOM     85  C   UNL A   1      41.782  25.345  37.263  1.00  0.00     0.009 C 
ENDBRANCH  68  72
ENDBRANCH  63  65
ENDBRANCH  62  63
ENDBRANCH  61  62
ENDBRANCH  60  61
ENDBRANCH  59  60
ENDBRANCH  58  59
ENDBRANCH   1  58
TORSDOF 18
ENDMDL
MODEL 2
REMARK VINA RESULT:      -9.5      5.171     12.045
REMARK SMILES O=C(OCCOCCOCCOC(=O)c1cc(N2C(=O)[C@H]3[C@@H]4C=C[C@@H]([C@@H]5C[C@H]45)[C@@H]3C2=O)ccc1Cl)c1ccc(-c2c3nc(c(-c4ccccc4)c4ccc([nH]4)c(-c4ccccc4)c4nc(c(-c5ccccc5)c5ccc2[nH]5)C=C4)C=C3)cc1
REMARK SMILES IDX 7 1 6 2 5 3 4 4 3 5 2 6 1 7 36 8 37 9 83 10 38 11 82 12
REMARK SMILES IDX 39 13 40 14 41 15 76 16 42 17 81 18 75 19 77 20 43 21 80 22
REMARK SMILES IDX 74 23 73 24 44 26 66 27 51 28 65 29 52 30 55 31 64 32 78 33
REMARK SMILES IDX 53 34 54 35 63 37 79 38 56 39 45 40 46 41 50 42 47 43 49 44
REMARK SMILES IDX 48 45 67 46 68 47 72 48 69 49 71 50 70 51 57 52 58 53 62 54
REMARK SMILES IDX 59 55 61 56 60 57 8 58 9 59 10 60 11 61 12 62 13 63 14 64
REMARK SMILES IDX 15 65 16 66 34 67 17 68 33 69 35 70 32 71 18 72 19 73 30 74
REMARK SMILES IDX 20 75 21 76 29 77 31 78 22 79 25 80 23 81 28 82 24 83 26 84
REMARK SMILES IDX 27 85
REMARK H PARENT 77 25 55 36
REMARK Flexibility Score: inf
ROOT
ATOM      1  C   UNL A   1      42.936  19.995  25.776  1.00  0.00     0.188 C 
ENDROOT
BRANCH   1   2
ATOM      2  O   UNL A   1      43.888  21.060  25.771  1.00  0.00    -0.376 OA
BRANCH   2   3
ATOM      3  C   UNL A   1      44.607  21.206  24.539  1.00  0.00     0.202 C 
BRANCH   3   4
ATOM      4  C   UNL A   1      44.563  22.599  23.877  1.00  0.00     0.261 C 
BRANCH   4   5
ATOM      5  O   UNL A   1      43.824  23.583  24.622  1.00  0.00    -0.460 OA
BRANCH   5   6
ATOM      6  C   UNL A   1      44.244  24.797  25.061  1.00  0.00     0.338 C 
ATOM      7  O   UNL A   1      45.301  25.248  24.623  1.00  0.00    -0.246 OA
BRANCH   6   8
ATOM      8  C   UNL A   1      43.494  25.611  26.062  1.00  0.00     0.060 A 
ATOM      9  C   UNL A   1      43.600  26.993  26.206  1.00  0.00     0.016 A 
ATOM     10  C   UNL A   1      42.553  24.942  26.858  1.00  0.00     0.016 A 
ATOM     11  C   UNL A   1      42.883  27.689  27.161  1.00  0.00     0.010 A 
ATOM     12  C   UNL A   1      41.774  25.642  27.784  1.00  0.00     0.010 A 
ATOM     13  C   UNL A   1      41.973  27.015  27.964  1.00  0.00    -0.014 A 
BRANCH  13  14
ATOM     14  C   UNL A   1      41.430  27.737  29.125  1.00  0.00     0.031 A 
ATOM     15  C   UNL A   1      42.228  27.683  30.391  1.00  0.00     0.074 A 
ATOM     16  C   UNL A   1      40.362  28.544  28.989  1.00  0.00     0.049 A 
ATOM     17  N   UNL A   1      41.983  28.226  31.552  1.00  0.00    -0.248 NA
ATOM     18  C   UNL A   1      43.488  26.918  30.338  1.00  0.00     0.031 C 
ATOM     19  C   UNL A   1      39.626  28.773  27.743  1.00  0.00     0.029 A 
ATOM     20  N   UNL A   1      39.746  29.362  29.895  1.00  0.00    -0.354 N 
ATOM     21  C   UNL A   1      43.029  27.825  32.372  1.00  0.00     0.074 A 
ATOM     22  C   UNL A   1      43.898  26.979  31.591  1.00  0.00     0.031 C 
ATOM     23  C   UNL A   1      38.686  29.708  27.955  1.00  0.00     0.029 A 
ATOM     24  C   UNL A   1      38.701  30.079  29.364  1.00  0.00     0.049 A 
ATOM     25  H   UNL A   1      40.023  29.431  30.837  1.00  0.00     0.167 HD
ATOM     26  C   UNL A   1      43.241  28.138  33.669  1.00  0.00     0.031 A 
ATOM     27  C   UNL A   1      37.845  30.922  29.968  1.00  0.00     0.031 A 
ATOM     28  C   UNL A   1      42.355  28.983  34.417  1.00  0.00     0.049 A 
ATOM     29  C   UNL A   1      38.030  31.164  31.440  1.00  0.00     0.074 A 
ATOM     30  C   UNL A   1      42.413  29.340  35.748  1.00  0.00     0.029 A 
ATOM     31  N   UNL A   1      41.235  29.605  33.874  1.00  0.00    -0.354 N 
ATOM     32  N   UNL A   1      38.979  30.724  32.236  1.00  0.00    -0.248 NA
ATOM     33  C   UNL A   1      37.031  32.011  32.101  1.00  0.00     0.031 C 
ATOM     34  C   UNL A   1      41.289  30.127  36.027  1.00  0.00     0.029 A 
ATOM     35  C   UNL A   1      40.577  30.324  34.853  1.00  0.00     0.049 A 
ATOM     36  H   UNL A   1      40.954  29.542  32.934  1.00  0.00     0.167 HD
ATOM     37  C   UNL A   1      38.711  31.266  33.484  1.00  0.00     0.074 A 
ATOM     38  C   UNL A   1      37.516  32.076  33.333  1.00  0.00     0.031 C 
ATOM     39  C   UNL A   1      39.389  31.117  34.650  1.00  0.00     0.031 A 
BRANCH  26  40
ATOM     40  C   UNL A   1      44.407  27.468  34.341  1.00  0.00    -0.014 A 
ATOM     41  C   UNL A   1      44.278  26.239  35.010  1.00  0.00     0.009 A 
ATOM     42  C   UNL A   1      45.640  28.135  34.385  1.00  0.00     0.009 A 
ATOM     43  C   UNL A   1      45.340  25.728  35.761  1.00  0.00     0.001 A 
ATOM     44  C   UNL A   1      46.710  27.604  35.106  1.00  0.00     0.001 A 
ATOM     45  C   UNL A   1      46.555  26.411  35.809  1.00  0.00     0.000 A 
ENDBRANCH  26  40
BRANCH  27  46
ATOM     46  C   UNL A   1      36.735  31.554  29.203  1.00  0.00    -0.014 A 
ATOM     47  C   UNL A   1      36.854  32.858  28.701  1.00  0.00     0.009 A 
ATOM     48  C   UNL A   1      35.539  30.852  28.972  1.00  0.00     0.009 A 
ATOM     49  C   UNL A   1      35.795  33.453  28.007  1.00  0.00     0.001 A 
ATOM     50  C   UNL A   1      34.495  31.436  28.252  1.00  0.00     0.001 A 
ATOM     51  C   UNL A   1      34.619  32.740  27.779  1.00  0.00     0.000 A 
ENDBRANCH  27  46
BRANCH  39  52
ATOM     52  C   UNL A   1      38.881  31.895  35.831  1.00  0.00    -0.014 A 
ATOM     53  C   UNL A   1      37.937  31.355  36.715  1.00  0.00     0.009 A 
ATOM     54  C   UNL A   1      39.405  33.172  36.081  1.00  0.00     0.009 A 
ATOM     55  C   UNL A   1      37.500  32.098  37.811  1.00  0.00     0.001 A 
ATOM     56  C   UNL A   1      38.995  33.896  37.198  1.00  0.00     0.001 A 
ATOM     57  C   UNL A   1      38.034  33.364  38.056  1.00  0.00     0.000 A 
ENDBRANCH  39  52
ENDBRANCH  13  14
ENDBRANCH   6   8
ENDBRANCH   5   6
ENDBRANCH   4   5
ENDBRANCH   3   4
ENDBRANCH   2   3
ENDBRANCH   1   2
BRANCH   1  58
ATOM     58  C   UNL A   1      41.984  20.010  26.970  1.00  0.00     0.188 C 
BRANCH  58  59
ATOM     59  O   UNL A   1      41.723  21.266  27.579  1.00  0.00    -0.376 OA
BRANCH  59  60
ATOM     60  C   UNL A   1      40.389  21.755  27.507  1.00  0.00     0.202 C 
BRANCH  60  61
ATOM     61  C   UNL A   1      39.819  22.163  26.136  1.00  0.00     0.261 C 
BRANCH  61  62
ATOM     62  O   UNL A   1      38.418  21.908  25.908  1.00  0.00    -0.460 OA
BRANCH  62  63
ATOM     63  C   UNL A   1      37.652  23.025  25.846  1.00  0.00     0.339 C 
ATOM     64  O   UNL A   1      37.896  24.114  26.343  1.00  0.00    -0.246 OA
BRANCH  63  65
ATOM     65  C   UNL A   1      36.416  22.815  25.077  1.00  0.00     0.080 A 
ATOM     66  C   UNL A   1      35.538  23.895  24.865  1.00  0.00     0.044 A 
ATOM     67  C   UNL A   1      36.002  21.505  24.815  1.00  0.00     0.055 A 
ATOM     68  C   UNL A   1      34.218  23.645  24.473  1.00  0.00     0.053 A 
ATOM     69  C   UNL A   1      34.694  21.266  24.394  1.00  0.00     0.023 A 
ATOM     70  Cl  UNL A   1      37.053  20.148  25.000  1.00  0.00    -0.083 Cl
ATOM     71  C   UNL A   1      33.799  22.327  24.250  1.00  0.00     0.028 A 
BRANCH  68  72
ATOM     72  N   UNL A   1      33.316  24.702  24.214  1.00  0.00    -0.250 N 
ATOM     73  C   UNL A   1      32.602  25.281  25.272  1.00  0.00     0.238 C 
ATOM     74  C   UNL A   1      33.505  25.623  23.163  1.00  0.00     0.238 C 
ATOM     75  O   UNL A   1      32.531  24.923  26.427  1.00  0.00    -0.274 OA
ATOM     76  C   UNL A   1      31.997  26.511  24.687  1.00  0.00     0.100 C 
ATOM     77  C   UNL A   1      33.179  26.928  23.813  1.00  0.00     0.100 C 
ATOM     78  O   UNL A   1      34.026  25.459  22.076  1.00  0.00    -0.274 OA
ATOM     79  C   UNL A   1      31.424  27.748  25.403  1.00  0.00     0.028 C 
ATOM     80  C   UNL A   1      33.009  28.388  23.408  1.00  0.00     0.028 C 
ATOM     81  C   UNL A   1      30.709  28.436  24.216  1.00  0.00    -0.026 C 
ATOM     82  C   UNL A   1      32.459  28.789  25.871  1.00  0.00     0.001 C 
ATOM     83  C   UNL A   1      31.523  28.709  23.168  1.00  0.00    -0.026 C 
ATOM     84  C   UNL A   1      33.391  29.186  24.714  1.00  0.00     0.001 C 
ATOM     85  C   UNL A   1      33.940  28.616  26.026  1.00  0.00     0.009 C 
ENDBRANCH  68  72
ENDBRANCH  63  65
ENDBRANCH  62  63
ENDBRANCH  61  62
ENDBRANCH  60  61
ENDBRANCH  59  60
ENDBRANCH  58  59
ENDBRANCH   1  58
TORSDOF 18
ENDMDL
MODEL 3
REMARK VINA RESULT:      -9.2      7.316     12.944
REMARK SMILES O=C(OCCOCCOCCOC(=O)c1cc(N2C(=O)[C@H]3[C@@H]4C=C[C@@H]([C@@H]5C[C@H]45)[C@@H]3C2=O)ccc1Cl)c1ccc(-c2c3nc(c(-c4ccccc4)c4ccc([nH]4)c(-c4ccccc4)c4nc(c(-c5ccccc5)c5ccc2[nH]5)C=C4)C=C3)cc1
REMARK SMILES IDX 7 1 6 2 5 3 4 4 3 5 2 6 1 7 36 8 37 9 83 10 38 11 82 12
REMARK SMILES IDX 39 13 40 14 41 15 76 16 42 17 81 18 75 19 77 20 43 21 80 22
REMARK SMILES IDX 74 23 73 24 44 26 66 27 51 28 65 29 52 30 55 31 64 32 78 33
REMARK SMILES IDX 53 34 54 35 63 37 79 38 56 39 45 40 46 41 50 42 47 43 49 44
REMARK SMILES IDX 48 45 67 46 68 47 72 48 69 49 71 50 70 51 57 52 58 53 62 54
REMARK SMILES IDX 59 55 61 56 60 57 8 58 9 59 10 60 11 61 12 62 13 63 14 64
REMARK SMILES IDX 15 65 16 66 34 67 17 68 33 69 35 70 32 71 18 72 19 73 30 74
REMARK SMILES IDX 20 75 21 76 29 77 31 78 22 79 25 80 23 81 28 82 24 83 26 84
REMARK SMILES IDX 27 85
REMARK H PARENT 77 25 55 36
REMARK Flexibility Score: inf
ROOT
ATOM      1  C   UNL A   1      46.277  19.520  24.674  1.00  0.00     0.188 C 
ENDROOT
BRANCH   1   2
ATOM      2  O   UNL A   1      46.758  20.864  24.622  1.00  0.00    -0.376 OA
BRANCH   2   3
ATOM      3  C   UNL A   1      46.037  21.785  25.452  1.00  0.00     0.202 C 
BRANCH   3   4
ATOM      4  C   UNL A   1      44.670  22.265  24.923  1.00  0.00     0.261 C 
BRANCH   4   5
ATOM      5  O   UNL A   1      43.792  22.779  25.938  1.00  0.00    -0.460 OA
BRANCH   5   6
ATOM      6  C   UNL A   1      44.089  23.618  26.964  1.00  0.00     0.338 C 
ATOM      7  O   UNL A   1      43.752  23.297  28.102  1.00  0.00    -0.246 OA
BRANCH   6   8
ATOM      8  C   UNL A   1      44.792  24.921  26.780  1.00  0.00     0.060 A 
ATOM      9  C   UNL A   1      44.653  25.753  25.671  1.00  0.00     0.016 A 
ATOM     10  C   UNL A   1      45.586  25.377  27.843  1.00  0.00     0.016 A 
ATOM     11  C   UNL A   1      45.341  26.946  25.557  1.00  0.00     0.010 A 
ATOM     12  C   UNL A   1      46.237  26.612  27.770  1.00  0.00     0.010 A 
ATOM     13  C   UNL A   1      46.146  27.378  26.602  1.00  0.00    -0.014 A 
BRANCH  13  14
ATOM     14  C   UNL A   1      47.050  28.508  26.338  1.00  0.00     0.031 A 
ATOM     15  C   UNL A   1      46.477  29.883  26.488  1.00  0.00     0.074 A 
ATOM     16  C   UNL A   1      48.365  28.301  26.147  1.00  0.00     0.049 A 
ATOM     17  N   UNL A   1      47.047  31.045  26.319  1.00  0.00    -0.248 NA
ATOM     18  C   UNL A   1      45.062  29.962  26.898  1.00  0.00     0.031 C 
ATOM     19  C   UNL A   1      49.025  26.993  26.148  1.00  0.00     0.029 A 
ATOM     20  N   UNL A   1      49.389  29.191  25.970  1.00  0.00    -0.354 N 
ATOM     21  C   UNL A   1      46.049  31.981  26.552  1.00  0.00     0.074 A 
ATOM     22  C   UNL A   1      44.835  31.261  26.852  1.00  0.00     0.031 C 
ATOM     23  C   UNL A   1      50.350  27.171  26.025  1.00  0.00     0.029 A 
ATOM     24  C   UNL A   1      50.620  28.592  25.854  1.00  0.00     0.049 A 
ATOM     25  H   UNL A   1      49.256  30.165  25.929  1.00  0.00     0.167 HD
ATOM     26  C   UNL A   1      46.142  33.328  26.517  1.00  0.00     0.031 A 
ATOM     27  C   UNL A   1      51.822  29.146  25.615  1.00  0.00     0.031 A 
ATOM     28  C   UNL A   1      47.367  34.012  26.215  1.00  0.00     0.049 A 
ATOM     29  C   UNL A   1      51.882  30.641  25.462  1.00  0.00     0.074 A 
ATOM     30  C   UNL A   1      47.596  35.367  26.088  1.00  0.00     0.029 A 
ATOM     31  N   UNL A   1      48.579  33.368  25.989  1.00  0.00    -0.354 N 
ATOM     32  N   UNL A   1      50.920  31.524  25.609  1.00  0.00    -0.248 NA
ATOM     33  C   UNL A   1      53.183  31.216  25.108  1.00  0.00     0.031 C 
ATOM     34  C   UNL A   1      48.936  35.539  25.721  1.00  0.00     0.029 A 
ATOM     35  C   UNL A   1      49.558  34.299  25.697  1.00  0.00     0.049 A 
ATOM     36  H   UNL A   1      48.719  32.396  26.031  1.00  0.00     0.167 HD
ATOM     37  C   UNL A   1      51.506  32.763  25.398  1.00  0.00     0.074 A 
ATOM     38  C   UNL A   1      52.909  32.513  25.123  1.00  0.00     0.031 C 
ATOM     39  C   UNL A   1      50.943  33.998  25.432  1.00  0.00     0.031 A 
BRANCH  26  40
ATOM     40  C   UNL A   1      44.864  34.097  26.706  1.00  0.00    -0.014 A 
ATOM     41  C   UNL A   1      44.023  34.423  25.628  1.00  0.00     0.009 A 
ATOM     42  C   UNL A   1      44.549  34.586  27.982  1.00  0.00     0.009 A 
ATOM     43  C   UNL A   1      42.932  35.276  25.817  1.00  0.00     0.001 A 
ATOM     44  C   UNL A   1      43.437  35.409  28.173  1.00  0.00     0.001 A 
ATOM     45  C   UNL A   1      42.641  35.768  27.088  1.00  0.00     0.000 A 
ENDBRANCH  26  40
BRANCH  27  46
ATOM     46  C   UNL A   1      53.034  28.294  25.469  1.00  0.00    -0.014 A 
ATOM     47  C   UNL A   1      53.881  28.048  26.560  1.00  0.00     0.009 A 
ATOM     48  C   UNL A   1      53.356  27.721  24.227  1.00  0.00     0.009 A 
ATOM     49  C   UNL A   1      55.032  27.269  26.405  1.00  0.00     0.001 A 
ATOM     50  C   UNL A   1      54.489  26.917  24.081  1.00  0.00     0.001 A 
ATOM     51  C   UNL A   1      55.332  26.700  25.169  1.00  0.00     0.000 A 
ENDBRANCH  27  46
BRANCH  39  52
ATOM     52  C   UNL A   1      51.865  35.166  25.223  1.00  0.00    -0.014 A 
ATOM     53  C   UNL A   1      52.046  35.742  23.958  1.00  0.00     0.009 A 
ATOM     54  C   UNL A   1      52.518  35.725  26.333  1.00  0.00     0.009 A 
ATOM     55  C   UNL A   1      52.896  36.837  23.804  1.00  0.00     0.001 A 
ATOM     56  C   UNL A   1      53.336  36.841  26.181  1.00  0.00     0.001 A 
ATOM     57  C   UNL A   1      53.534  37.389  24.914  1.00  0.00     0.000 A 
ENDBRANCH  39  52
ENDBRANCH  13  14
ENDBRANCH   6   8
ENDBRANCH   5   6
ENDBRANCH   4   5
ENDBRANCH   3   4
ENDBRANCH   2   3
ENDBRANCH   1   2
BRANCH   1  58
ATOM     58  C   UNL A   1      45.165  19.211  23.675  1.00  0.00     0.188 C 
BRANCH  58  59
ATOM     59  O   UNL A   1      43.841  19.120  24.183  1.00  0.00    -0.376 OA
BRANCH  59  60
ATOM     60  C   UNL A   1      43.675  18.480  25.442  1.00  0.00     0.202 C 
BRANCH  60  61
ATOM     61  C   UNL A   1      42.655  19.057  26.441  1.00  0.00     0.261 C 
BRANCH  61  62
ATOM     62  O   UNL A   1      41.790  20.107  25.961  1.00  0.00    -0.460 OA
BRANCH  62  63
ATOM     63  C   UNL A   1      40.922  20.579  26.888  1.00  0.00     0.339 C 
ATOM     64  O   UNL A   1      40.792  20.195  28.040  1.00  0.00    -0.246 OA
BRANCH  63  65
ATOM     65  C   UNL A   1      40.086  21.672  26.368  1.00  0.00     0.080 A 
ATOM     66  C   UNL A   1      40.386  23.003  26.715  1.00  0.00     0.044 A 
ATOM     67  C   UNL A   1      38.858  21.356  25.777  1.00  0.00     0.055 A 
ATOM     68  C   UNL A   1      39.416  23.997  26.545  1.00  0.00     0.053 A 
ATOM     69  C   UNL A   1      37.907  22.358  25.581  1.00  0.00     0.023 A 
ATOM     70  Cl  UNL A   1      38.457  19.752  25.277  1.00  0.00    -0.083 Cl
ATOM     71  C   UNL A   1      38.174  23.666  25.988  1.00  0.00     0.028 A 
BRANCH  68  72
ATOM     72  N   UNL A   1      39.691  25.351  26.846  1.00  0.00    -0.250 N 
ATOM     73  C   UNL A   1      39.455  25.836  28.139  1.00  0.00     0.238 C 
ATOM     74  C   UNL A   1      40.716  26.078  26.208  1.00  0.00     0.238 C 
ATOM     75  O   UNL A   1      38.905  25.288  29.068  1.00  0.00    -0.274 OA
ATOM     76  C   UNL A   1      40.114  27.173  28.164  1.00  0.00     0.100 C 
ATOM     77  C   UNL A   1      41.353  26.809  27.345  1.00  0.00     0.100 C 
ATOM     78  O   UNL A   1      41.146  25.976  25.074  1.00  0.00    -0.274 OA
ATOM     79  C   UNL A   1      40.530  28.031  29.373  1.00  0.00     0.028 C 
ATOM     80  C   UNL A   1      42.420  27.876  27.555  1.00  0.00     0.028 C 
ATOM     81  C   UNL A   1      40.839  29.367  28.659  1.00  0.00    -0.026 C 
ATOM     82  C   UNL A   1      41.865  27.645  30.038  1.00  0.00     0.001 C 
ATOM     83  C   UNL A   1      41.772  29.266  27.682  1.00  0.00    -0.026 C 
ATOM     84  C   UNL A   1      42.989  27.560  28.993  1.00  0.00     0.001 C 
ATOM     85  C   UNL A   1      42.638  26.369  29.890  1.00  0.00     0.009 C 
ENDBRANCH  68  72
ENDBRANCH  63  65
ENDBRANCH  62  63
ENDBRANCH  61  62
ENDBRANCH  60  61
ENDBRANCH  59  60
ENDBRANCH  58  59
ENDBRANCH   1  58
TORSDOF 18
ENDMDL
