MODEL 1
REMARK VINA RESULT:     -10.2      0.000      0.000
REMARK SMILES Cc1occc1-c1nnnn1C[C@@H](CC(C)C)C(=O)OCCOCCOCCOC(=O)c1ccc(-c2c3nc(c(-c4ccccc4)c4ccc([nH]4)c(-c4ccccc4)c4nc(c(-c5ccccc5)c5ccc2[nH]5)C=C4)C=C3)cc1
REMARK SMILES IDX 24 1 23 2 22 3 21 4 20 5 18 6 19 7 13 8 12 9 11 10 7 11 8 12
REMARK SMILES IDX 9 13 10 14 6 15 1 16 2 17 3 18 4 19 5 20 14 21 15 22 16 23
REMARK SMILES IDX 17 24 25 25 26 26 27 27 28 28 29 29 30 30 31 31 32 32 33 33
REMARK SMILES IDX 79 34 34 35 78 36 35 37 36 38 37 39 72 40 38 41 77 42 71 43
REMARK SMILES IDX 73 44 39 45 76 46 70 47 69 48 40 50 62 51 47 52 61 53 48 54
REMARK SMILES IDX 51 55 60 56 74 57 49 58 50 59 59 61 75 62 52 63 41 64 42 65
REMARK SMILES IDX 46 66 43 67 45 68 44 69 63 70 64 71 68 72 65 73 67 74 66 75
REMARK SMILES IDX 53 76 54 77 58 78 55 79 57 80 56 81
REMARK H PARENT 73 49 51 60
REMARK Flexibility Score: inf
ROOT
ATOM      1  C   UNL A   1      33.866  28.961  27.551  1.00  0.00     0.188 C 
ENDROOT
BRANCH   1   2
ATOM      2  O   UNL A   1      33.906  28.062  26.460  1.00  0.00    -0.376 OA
BRANCH   2   3
ATOM      3  C   UNL A   1      32.795  27.181  26.284  1.00  0.00     0.202 C 
BRANCH   3   4
ATOM      4  C   UNL A   1      33.015  25.713  25.866  1.00  0.00     0.261 C 
BRANCH   4   5
ATOM      5  O   UNL A   1      31.935  24.804  26.205  1.00  0.00    -0.463 OA
BRANCH   5   6
ATOM      6  C   UNL A   1      30.686  25.148  25.813  1.00  0.00     0.310 C 
ATOM      7  O   UNL A   1      29.701  25.071  26.544  1.00  0.00    -0.252 OA
BRANCH   6   8
ATOM      8  C   UNL A   1      30.542  25.538  24.344  1.00  0.00     0.121 C 
BRANCH   8   9
ATOM      9  C   UNL A   1      30.695  24.450  23.261  1.00  0.00     0.164 C 
BRANCH   9  10
ATOM     10  N   UNL A   1      31.931  24.590  22.493  1.00  0.00    -0.224 N 
ATOM     11  C   UNL A   1      33.177  24.053  22.731  1.00  0.00     0.185 A 
ATOM     12  N   UNL A   1      34.066  24.887  22.222  1.00  0.00    -0.108 NA
ATOM     13  N   UNL A   1      33.358  25.817  21.508  1.00  0.00    -0.023 NA
ATOM     14  N   UNL A   1      32.056  25.615  21.629  1.00  0.00    -0.045 NA
BRANCH  11  15
ATOM     15  C   UNL A   1      33.571  22.792  23.404  1.00  0.00     0.062 A 
ATOM     16  C   UNL A   1      35.894  23.353  24.529  1.00  0.00     0.088 C 
ATOM     17  C   UNL A   1      34.728  22.546  24.113  1.00  0.00     0.111 A 
ATOM     18  O   UNL A   1      34.690  21.283  24.633  1.00  0.00    -0.469 OA
ATOM     19  C   UNL A   1      33.484  20.750  24.314  1.00  0.00     0.196 A 
ATOM     20  C   UNL A   1      32.745  21.651  23.585  1.00  0.00     0.054 A 
ENDBRANCH  11  15
ENDBRANCH   9  10
ENDBRANCH   8   9
BRANCH   8  21
ATOM     21  C   UNL A   1      29.315  26.464  24.208  1.00  0.00     0.020 C 
BRANCH  21  22
ATOM     22  C   UNL A   1      29.395  27.636  23.210  1.00  0.00    -0.017 C 
ATOM     23  C   UNL A   1      28.114  28.461  23.129  1.00  0.00     0.007 C 
ATOM     24  C   UNL A   1      30.563  28.543  23.610  1.00  0.00     0.007 C 
ENDBRANCH  21  22
ENDBRANCH   8  21
ENDBRANCH   6   8
ENDBRANCH   5   6
ENDBRANCH   4   5
ENDBRANCH   3   4
ENDBRANCH   2   3
ENDBRANCH   1   2
BRANCH   1  25
ATOM     25  C   UNL A   1      34.396  30.375  27.296  1.00  0.00     0.188 C 
BRANCH  25  26
ATOM     26  O   UNL A   1      33.746  31.407  28.014  1.00  0.00    -0.376 OA
BRANCH  26  27
ATOM     27  C   UNL A   1      34.421  32.430  28.740  1.00  0.00     0.202 C 
BRANCH  27  28
ATOM     28  C   UNL A   1      35.219  32.178  30.025  1.00  0.00     0.261 C 
BRANCH  28  29
ATOM     29  O   UNL A   1      36.389  31.408  29.839  1.00  0.00    -0.460 OA
BRANCH  29  30
ATOM     30  C   UNL A   1      36.576  30.416  30.724  1.00  0.00     0.338 C 
ATOM     31  O   UNL A   1      36.094  30.320  31.848  1.00  0.00    -0.246 OA
BRANCH  30  32
ATOM     32  C   UNL A   1      37.358  29.381  30.041  1.00  0.00     0.060 A 
ATOM     33  C   UNL A   1      37.866  28.331  30.808  1.00  0.00     0.016 A 
ATOM     34  C   UNL A   1      37.631  29.497  28.667  1.00  0.00     0.016 A 
ATOM     35  C   UNL A   1      38.846  27.535  30.261  1.00  0.00     0.010 A 
ATOM     36  C   UNL A   1      38.622  28.718  28.122  1.00  0.00     0.010 A 
ATOM     37  C   UNL A   1      39.296  27.848  28.976  1.00  0.00    -0.014 A 
BRANCH  37  38
ATOM     38  C   UNL A   1      40.685  27.551  28.696  1.00  0.00     0.031 A 
ATOM     39  C   UNL A   1      40.988  26.251  28.090  1.00  0.00     0.074 A 
ATOM     40  C   UNL A   1      41.606  28.509  28.935  1.00  0.00     0.049 A 
ATOM     41  N   UNL A   1      41.702  25.302  28.592  1.00  0.00    -0.248 NA
ATOM     42  C   UNL A   1      40.361  25.937  26.800  1.00  0.00     0.031 C 
ATOM     43  C   UNL A   1      41.339  29.918  29.266  1.00  0.00     0.029 A 
ATOM     44  N   UNL A   1      42.961  28.465  28.822  1.00  0.00    -0.354 N 
ATOM     45  C   UNL A   1      41.775  24.337  27.599  1.00  0.00     0.074 A 
ATOM     46  C   UNL A   1      40.803  24.697  26.597  1.00  0.00     0.031 C 
ATOM     47  C   UNL A   1      42.472  30.633  29.115  1.00  0.00     0.029 A 
ATOM     48  C   UNL A   1      43.554  29.717  28.803  1.00  0.00     0.049 A 
ATOM     49  H   UNL A   1      43.471  27.625  28.761  1.00  0.00     0.167 HD
ATOM     50  C   UNL A   1      42.819  23.471  27.531  1.00  0.00     0.031 A 
ATOM     51  C   UNL A   1      44.837  30.009  28.494  1.00  0.00     0.031 A 
ATOM     52  C   UNL A   1      43.577  23.426  28.752  1.00  0.00     0.049 A 
ATOM     53  C   UNL A   1      45.636  28.774  28.614  1.00  0.00     0.074 A 
ATOM     54  C   UNL A   1      43.358  22.974  30.035  1.00  0.00     0.029 A 
ATOM     55  N   UNL A   1      44.689  24.228  28.791  1.00  0.00    -0.354 N 
ATOM     56  N   UNL A   1      45.913  28.203  29.750  1.00  0.00    -0.248 NA
ATOM     57  C   UNL A   1      45.867  27.950  27.433  1.00  0.00     0.031 C 
ATOM     58  C   UNL A   1      44.204  23.757  30.874  1.00  0.00     0.029 A 
ATOM     59  C   UNL A   1      44.902  24.661  30.074  1.00  0.00     0.049 A 
ATOM     60  H   UNL A   1      45.250  24.458  28.014  1.00  0.00     0.167 HD
ATOM     61  C   UNL A   1      45.935  26.847  29.463  1.00  0.00     0.074 A 
ATOM     62  C   UNL A   1      46.085  26.769  28.018  1.00  0.00     0.031 C 
ATOM     63  C   UNL A   1      45.520  25.934  30.387  1.00  0.00     0.031 A 
BRANCH  50  64
ATOM     64  C   UNL A   1      43.403  23.006  26.222  1.00  0.00    -0.014 A 
ATOM     65  C   UNL A   1      43.506  21.627  25.980  1.00  0.00     0.009 A 
ATOM     66  C   UNL A   1      44.104  23.859  25.344  1.00  0.00     0.009 A 
ATOM     67  C   UNL A   1      44.298  21.130  24.938  1.00  0.00     0.001 A 
ATOM     68  C   UNL A   1      44.857  23.369  24.276  1.00  0.00     0.001 A 
ATOM     69  C   UNL A   1      44.973  22.001  24.086  1.00  0.00     0.000 A 
ENDBRANCH  50  64
BRANCH  51  70
ATOM     70  C   UNL A   1      45.369  31.262  27.928  1.00  0.00    -0.014 A 
ATOM     71  C   UNL A   1      46.703  31.637  28.131  1.00  0.00     0.009 A 
ATOM     72  C   UNL A   1      44.612  31.992  26.991  1.00  0.00     0.009 A 
ATOM     73  C   UNL A   1      47.267  32.691  27.402  1.00  0.00     0.001 A 
ATOM     74  C   UNL A   1      45.172  33.049  26.269  1.00  0.00     0.001 A 
ATOM     75  C   UNL A   1      46.506  33.388  26.465  1.00  0.00     0.000 A 
ENDBRANCH  51  70
BRANCH  63  76
ATOM     76  C   UNL A   1      45.450  26.399  31.818  1.00  0.00    -0.014 A 
ATOM     77  C   UNL A   1      44.329  27.065  32.344  1.00  0.00     0.009 A 
ATOM     78  C   UNL A   1      46.505  26.077  32.683  1.00  0.00     0.009 A 
ATOM     79  C   UNL A   1      44.285  27.434  33.691  1.00  0.00     0.001 A 
ATOM     80  C   UNL A   1      46.450  26.427  34.035  1.00  0.00     0.001 A 
ATOM     81  C   UNL A   1      45.344  27.112  34.536  1.00  0.00     0.000 A 
ENDBRANCH  63  76
ENDBRANCH  37  38
ENDBRANCH  30  32
ENDBRANCH  29  30
ENDBRANCH  28  29
ENDBRANCH  27  28
ENDBRANCH  26  27
ENDBRANCH  25  26
ENDBRANCH   1  25
TORSDOF 22
ENDMDL
MODEL 2
REMARK VINA RESULT:     -10.0      2.421      7.038
REMARK SMILES Cc1occc1-c1nnnn1C[C@@H](CC(C)C)C(=O)OCCOCCOCCOC(=O)c1ccc(-c2c3nc(c(-c4ccccc4)c4ccc([nH]4)c(-c4ccccc4)c4nc(c(-c5ccccc5)c5ccc2[nH]5)C=C4)C=C3)cc1
REMARK SMILES IDX 24 1 23 2 22 3 21 4 20 5 18 6 19 7 13 8 12 9 11 10 7 11 8 12
REMARK SMILES IDX 9 13 10 14 6 15 1 16 2 17 3 18 4 19 5 20 14 21 15 22 16 23
REMARK SMILES IDX 17 24 25 25 26 26 27 27 28 28 29 29 30 30 31 31 32 32 33 33
REMARK SMILES IDX 79 34 34 35 78 36 35 37 36 38 37 39 72 40 38 41 77 42 71 43
REMARK SMILES IDX 73 44 39 45 76 46 70 47 69 48 40 50 62 51 47 52 61 53 48 54
REMARK SMILES IDX 51 55 60 56 74 57 49 58 50 59 59 61 75 62 52 63 41 64 42 65
REMARK SMILES IDX 46 66 43 67 45 68 44 69 63 70 64 71 68 72 65 73 67 74 66 75
REMARK SMILES IDX 53 76 54 77 58 78 55 79 57 80 56 81
REMARK H PARENT 73 49 51 60
REMARK Flexibility Score: inf
ROOT
ATOM      1  C   UNL A   1      36.295  21.619  25.199  1.00  0.00     0.188 C 
ENDROOT
BRANCH   1   2
ATOM      2  O   UNL A   1      35.932  22.474  26.266  1.00  0.00    -0.376 OA
BRANCH   2   3
ATOM      3  C   UNL A   1      34.735  23.241  26.126  1.00  0.00     0.202 C 
BRANCH   3   4
ATOM      4  C   UNL A   1      33.535  23.001  27.065  1.00  0.00     0.261 C 
BRANCH   4   5
ATOM      5  O   UNL A   1      32.265  22.773  26.401  1.00  0.00    -0.463 OA
BRANCH   5   6
ATOM      6  C   UNL A   1      31.343  23.762  26.464  1.00  0.00     0.310 C 
ATOM      7  O   UNL A   1      30.398  23.759  27.250  1.00  0.00    -0.252 OA
BRANCH   6   8
ATOM      8  C   UNL A   1      31.476  24.853  25.405  1.00  0.00     0.121 C 
BRANCH   8   9
ATOM      9  C   UNL A   1      31.120  24.524  23.940  1.00  0.00     0.164 C 
BRANCH   9  10
ATOM     10  N   UNL A   1      32.285  24.548  23.058  1.00  0.00    -0.224 N 
ATOM     11  C   UNL A   1      32.807  25.590  22.323  1.00  0.00     0.185 A 
ATOM     12  N   UNL A   1      33.393  25.064  21.262  1.00  0.00    -0.108 NA
ATOM     13  N   UNL A   1      33.402  23.709  21.458  1.00  0.00    -0.023 NA
ATOM     14  N   UNL A   1      32.769  23.388  22.575  1.00  0.00    -0.045 NA
BRANCH  11  15
ATOM     15  C   UNL A   1      32.787  27.051  22.572  1.00  0.00     0.062 A 
ATOM     16  C   UNL A   1      30.220  27.672  22.603  1.00  0.00     0.088 C 
ATOM     17  C   UNL A   1      31.683  27.874  22.649  1.00  0.00     0.111 A 
ATOM     18  O   UNL A   1      32.077  29.146  22.956  1.00  0.00    -0.469 OA
ATOM     19  C   UNL A   1      33.421  29.119  23.142  1.00  0.00     0.196 A 
ATOM     20  C   UNL A   1      33.902  27.847  22.948  1.00  0.00     0.054 A 
ENDBRANCH  11  15
ENDBRANCH   9  10
ENDBRANCH   8   9
BRANCH   8  21
ATOM     21  C   UNL A   1      30.874  26.156  25.974  1.00  0.00     0.020 C 
BRANCH  21  22
ATOM     22  C   UNL A   1      31.826  27.336  26.253  1.00  0.00    -0.017 C 
ATOM     23  C   UNL A   1      31.552  28.045  27.576  1.00  0.00     0.007 C 
ATOM     24  C   UNL A   1      33.267  26.818  26.240  1.00  0.00     0.007 C 
ENDBRANCH  21  22
ENDBRANCH   8  21
ENDBRANCH   6   8
ENDBRANCH   5   6
ENDBRANCH   4   5
ENDBRANCH   3   4
ENDBRANCH   2   3
ENDBRANCH   1   2
BRANCH   1  25
ATOM     25  C   UNL A   1      37.755  21.672  24.741  1.00  0.00     0.188 C 
BRANCH  25  26
ATOM     26  O   UNL A   1      38.719  21.443  25.751  1.00  0.00    -0.376 OA
BRANCH  26  27
ATOM     27  C   UNL A   1      39.299  20.173  26.037  1.00  0.00     0.202 C 
BRANCH  27  28
ATOM     28  C   UNL A   1      40.797  19.956  26.278  1.00  0.00     0.261 C 
BRANCH  28  29
ATOM     29  O   UNL A   1      41.575  21.131  26.188  1.00  0.00    -0.460 OA
BRANCH  29  30
ATOM     30  C   UNL A   1      42.826  20.964  25.731  1.00  0.00     0.338 C 
ATOM     31  O   UNL A   1      43.312  19.949  25.242  1.00  0.00    -0.246 OA
BRANCH  30  32
ATOM     32  C   UNL A   1      43.477  22.277  25.790  1.00  0.00     0.060 A 
ATOM     33  C   UNL A   1      44.428  22.493  26.790  1.00  0.00     0.016 A 
ATOM     34  C   UNL A   1      43.094  23.293  24.898  1.00  0.00     0.016 A 
ATOM     35  C   UNL A   1      44.813  23.786  27.058  1.00  0.00     0.010 A 
ATOM     36  C   UNL A   1      43.460  24.587  25.173  1.00  0.00     0.010 A 
ATOM     37  C   UNL A   1      44.203  24.811  26.330  1.00  0.00    -0.014 A 
BRANCH  37  38
ATOM     38  C   UNL A   1      44.034  26.072  27.021  1.00  0.00     0.031 A 
ATOM     39  C   UNL A   1      45.047  27.107  26.794  1.00  0.00     0.074 A 
ATOM     40  C   UNL A   1      42.923  26.249  27.767  1.00  0.00     0.049 A 
ATOM     41  N   UNL A   1      45.837  27.633  27.668  1.00  0.00    -0.248 NA
ATOM     42  C   UNL A   1      45.261  27.561  25.415  1.00  0.00     0.031 C 
ATOM     43  C   UNL A   1      41.743  25.371  27.804  1.00  0.00     0.029 A 
ATOM     44  N   UNL A   1      42.559  27.296  28.556  1.00  0.00    -0.354 N 
ATOM     45  C   UNL A   1      46.523  28.626  26.987  1.00  0.00     0.074 A 
ATOM     46  C   UNL A   1      46.259  28.427  25.583  1.00  0.00     0.031 C 
ATOM     47  C   UNL A   1      40.722  26.023  28.397  1.00  0.00     0.029 A 
ATOM     48  C   UNL A   1      41.213  27.298  28.885  1.00  0.00     0.049 A 
ATOM     49  H   UNL A   1      43.191  27.985  28.865  1.00  0.00     0.167 HD
ATOM     50  C   UNL A   1      47.026  29.708  27.635  1.00  0.00     0.031 A 
ATOM     51  C   UNL A   1      40.515  28.299  29.467  1.00  0.00     0.031 A 
ATOM     52  C   UNL A   1      47.099  29.512  29.058  1.00  0.00     0.049 A 
ATOM     53  C   UNL A   1      41.473  29.218  30.113  1.00  0.00     0.074 A 
ATOM     54  C   UNL A   1      47.841  28.725  29.911  1.00  0.00     0.029 A 
ATOM     55  N   UNL A   1      46.041  30.002  29.779  1.00  0.00    -0.354 N 
ATOM     56  N   UNL A   1      42.157  28.914  31.176  1.00  0.00    -0.248 NA
ATOM     57  C   UNL A   1      41.944  30.390  29.386  1.00  0.00     0.031 C 
ATOM     58  C   UNL A   1      47.036  28.541  31.072  1.00  0.00     0.029 A 
ATOM     59  C   UNL A   1      45.830  29.217  30.883  1.00  0.00     0.049 A 
ATOM     60  H   UNL A   1      45.511  30.798  29.540  1.00  0.00     0.167 HD
ATOM     61  C   UNL A   1      43.365  29.572  31.014  1.00  0.00     0.074 A 
ATOM     62  C   UNL A   1      43.108  30.594  30.010  1.00  0.00     0.031 C 
ATOM     63  C   UNL A   1      44.524  29.024  31.481  1.00  0.00     0.031 A 
BRANCH  50  64
ATOM     64  C   UNL A   1      47.037  31.087  27.027  1.00  0.00    -0.014 A 
ATOM     65  C   UNL A   1      48.230  31.826  27.048  1.00  0.00     0.009 A 
ATOM     66  C   UNL A   1      45.862  31.788  26.686  1.00  0.00     0.009 A 
ATOM     67  C   UNL A   1      48.237  33.200  26.780  1.00  0.00     0.001 A 
ATOM     68  C   UNL A   1      45.872  33.147  26.372  1.00  0.00     0.001 A 
ATOM     69  C   UNL A   1      47.059  33.860  26.442  1.00  0.00     0.000 A 
ENDBRANCH  50  64
BRANCH  51  70
ATOM     70  C   UNL A   1      39.076  28.592  29.339  1.00  0.00    -0.014 A 
ATOM     71  C   UNL A   1      38.251  28.667  30.467  1.00  0.00     0.009 A 
ATOM     72  C   UNL A   1      38.550  29.021  28.105  1.00  0.00     0.009 A 
ATOM     73  C   UNL A   1      36.951  29.179  30.369  1.00  0.00     0.001 A 
ATOM     74  C   UNL A   1      37.250  29.524  28.004  1.00  0.00     0.001 A 
ATOM     75  C   UNL A   1      36.456  29.615  29.141  1.00  0.00     0.000 A 
ENDBRANCH  51  70
BRANCH  63  76
ATOM     76  C   UNL A   1      44.394  27.937  32.514  1.00  0.00    -0.014 A 
ATOM     77  C   UNL A   1      44.314  26.574  32.173  1.00  0.00     0.009 A 
ATOM     78  C   UNL A   1      44.443  28.286  33.870  1.00  0.00     0.009 A 
ATOM     79  C   UNL A   1      44.245  25.594  33.166  1.00  0.00     0.001 A 
ATOM     80  C   UNL A   1      44.396  27.303  34.862  1.00  0.00     0.001 A 
ATOM     81  C   UNL A   1      44.290  25.959  34.509  1.00  0.00     0.000 A 
ENDBRANCH  63  76
ENDBRANCH  37  38
ENDBRANCH  30  32
ENDBRANCH  29  30
ENDBRANCH  28  29
ENDBRANCH  27  28
ENDBRANCH  26  27
ENDBRANCH  25  26
ENDBRANCH   1  25
TORSDOF 22
ENDMDL
MODEL 3
REMARK VINA RESULT:      -9.9      3.966      8.134
REMARK SMILES Cc1occc1-c1nnnn1C[C@@H](CC(C)C)C(=O)OCCOCCOCCOC(=O)c1ccc(-c2c3nc(c(-c4ccccc4)c4ccc([nH]4)c(-c4ccccc4)c4nc(c(-c5ccccc5)c5ccc2[nH]5)C=C4)C=C3)cc1
REMARK SMILES IDX 24 1 23 2 22 3 21 4 20 5 18 6 19 7 13 8 12 9 11 10 7 11 8 12
REMARK SMILES IDX 9 13 10 14 6 15 1 16 2 17 3 18 4 19 5 20 14 21 15 22 16 23
REMARK SMILES IDX 17 24 25 25 26 26 27 27 28 28 29 29 30 30 31 31 32 32 33 33
REMARK SMILES IDX 79 34 34 35 78 36 35 37 36 38 37 39 72 40 38 41 77 42 71 43
REMARK SMILES IDX 73 44 39 45 76 46 70 47 69 48 40 50 62 51 47 52 61 53 48 54
REMARK SMILES IDX 51 55 60 56 74 57 49 58 50 59 59 61 75 62 52 63 41 64 42 65
REMARK SMILES IDX 46 66 43 67 45 68 44 69 63 70 64 71 68 72 65 73 67 74 66 75
REMARK SMILES IDX 53 76 54 77 58 78 55 79 57 80 56 81
REMARK H PARENT 73 49 51 60
REMARK Flexibility Score: inf
ROOT
ATOM      1  C   UNL A   1      34.404  31.753  28.384  1.00  0.00     0.188 C 
ENDROOT
BRANCH   1   2
ATOM      2  O   UNL A   1      34.062  30.887  27.320  1.00  0.00    -0.376 OA
BRANCH   2   3
ATOM      3  C   UNL A   1      32.677  30.730  27.009  1.00  0.00     0.202 C 
BRANCH   3   4
ATOM      4  C   UNL A   1      32.238  30.001  25.723  1.00  0.00     0.261 C 
BRANCH   4   5
ATOM      5  O   UNL A   1      31.523  28.754  25.931  1.00  0.00    -0.463 OA
BRANCH   5   6
ATOM      6  C   UNL A   1      32.227  27.605  25.808  1.00  0.00     0.310 C 
ATOM      7  O   UNL A   1      33.169  27.306  26.537  1.00  0.00    -0.252 OA
BRANCH   6   8
ATOM      8  C   UNL A   1      31.853  26.730  24.615  1.00  0.00     0.121 C 
BRANCH   8   9
ATOM      9  C   UNL A   1      30.717  25.697  24.769  1.00  0.00     0.164 C 
BRANCH   9  10
ATOM     10  N   UNL A   1      30.985  24.720  25.823  1.00  0.00    -0.224 N 
ATOM     11  C   UNL A   1      31.882  23.675  25.843  1.00  0.00     0.185 A 
ATOM     12  N   UNL A   1      31.377  22.741  26.629  1.00  0.00    -0.108 NA
ATOM     13  N   UNL A   1      30.284  23.299  27.238  1.00  0.00    -0.023 NA
ATOM     14  N   UNL A   1      30.065  24.522  26.786  1.00  0.00    -0.045 NA
BRANCH  11  15
ATOM     15  C   UNL A   1      33.191  23.515  25.166  1.00  0.00     0.062 A 
ATOM     16  C   UNL A   1      32.655  22.019  23.056  1.00  0.00     0.088 C 
ATOM     17  C   UNL A   1      33.463  22.789  24.025  1.00  0.00     0.111 A 
ATOM     18  O   UNL A   1      34.776  22.942  23.683  1.00  0.00    -0.469 OA
ATOM     19  C   UNL A   1      35.324  23.817  24.564  1.00  0.00     0.196 A 
ATOM     20  C   UNL A   1      34.382  24.224  25.478  1.00  0.00     0.054 A 
ENDBRANCH  11  15
ENDBRANCH   9  10
ENDBRANCH   8   9
BRANCH   8  21
ATOM     21  C   UNL A   1      31.790  27.625  23.359  1.00  0.00     0.020 C 
BRANCH  21  22
ATOM     22  C   UNL A   1      32.987  27.601  22.387  1.00  0.00    -0.017 C 
ATOM     23  C   UNL A   1      34.121  28.541  22.788  1.00  0.00     0.007 C 
ATOM     24  C   UNL A   1      33.518  26.167  22.299  1.00  0.00     0.007 C 
ENDBRANCH  21  22
ENDBRANCH   8  21
ENDBRANCH   6   8
ENDBRANCH   5   6
ENDBRANCH   4   5
ENDBRANCH   3   4
ENDBRANCH   2   3
ENDBRANCH   1   2
BRANCH   1  25
ATOM     25  C   UNL A   1      35.205  33.007  28.020  1.00  0.00     0.188 C 
BRANCH  25  26
ATOM     26  O   UNL A   1      34.437  34.116  27.589  1.00  0.00    -0.376 OA
BRANCH  26  27
ATOM     27  C   UNL A   1      34.406  35.378  28.250  1.00  0.00     0.202 C 
BRANCH  27  28
ATOM     28  C   UNL A   1      33.288  35.812  29.204  1.00  0.00     0.261 C 
BRANCH  28  29
ATOM     29  O   UNL A   1      33.112  34.959  30.317  1.00  0.00    -0.460 OA
BRANCH  29  30
ATOM     30  C   UNL A   1      33.339  35.517  31.516  1.00  0.00     0.338 C 
ATOM     31  O   UNL A   1      32.791  36.506  31.994  1.00  0.00    -0.246 OA
BRANCH  30  32
ATOM     32  C   UNL A   1      34.270  34.634  32.225  1.00  0.00     0.060 A 
ATOM     33  C   UNL A   1      35.120  35.205  33.175  1.00  0.00     0.016 A 
ATOM     34  C   UNL A   1      34.335  33.269  31.895  1.00  0.00     0.016 A 
ATOM     35  C   UNL A   1      36.197  34.470  33.615  1.00  0.00     0.010 A 
ATOM     36  C   UNL A   1      35.417  32.538  32.317  1.00  0.00     0.010 A 
ATOM     37  C   UNL A   1      36.391  33.203  33.058  1.00  0.00    -0.014 A 
BRANCH  37  38
ATOM     38  C   UNL A   1      37.765  32.762  32.939  1.00  0.00     0.031 A 
ATOM     39  C   UNL A   1      38.639  32.959  34.099  1.00  0.00     0.074 A 
ATOM     40  C   UNL A   1      38.139  32.130  31.806  1.00  0.00     0.049 A 
ATOM     41  N   UNL A   1      39.704  33.687  34.161  1.00  0.00    -0.248 NA
ATOM     42  C   UNL A   1      38.245  32.333  35.366  1.00  0.00     0.031 C 
ATOM     43  C   UNL A   1      37.250  31.649  30.737  1.00  0.00     0.029 A 
ATOM     44  N   UNL A   1      39.364  31.681  31.421  1.00  0.00    -0.354 N 
ATOM     45  C   UNL A   1      40.225  33.461  35.425  1.00  0.00     0.074 A 
ATOM     46  C   UNL A   1      39.210  32.764  36.176  1.00  0.00     0.031 C 
ATOM     47  C   UNL A   1      37.930  30.797  29.943  1.00  0.00     0.029 A 
ATOM     48  C   UNL A   1      39.316  30.775  30.373  1.00  0.00     0.049 A 
ATOM     49  H   UNL A   1      40.204  31.972  31.844  1.00  0.00     0.167 HD
ATOM     50  C   UNL A   1      41.551  33.608  35.679  1.00  0.00     0.031 A 
ATOM     51  C   UNL A   1      40.325  30.004  29.913  1.00  0.00     0.031 A 
ATOM     52  C   UNL A   1      42.228  34.352  34.652  1.00  0.00     0.049 A 
ATOM     53  C   UNL A   1      41.601  30.578  30.383  1.00  0.00     0.074 A 
ATOM     54  C   UNL A   1      42.224  35.658  34.211  1.00  0.00     0.029 A 
ATOM     55  N   UNL A   1      42.846  33.602  33.684  1.00  0.00    -0.354 N 
ATOM     56  N   UNL A   1      42.093  31.698  29.940  1.00  0.00    -0.248 NA
ATOM     57  C   UNL A   1      42.201  30.082  31.616  1.00  0.00     0.031 C 
ATOM     58  C   UNL A   1      42.604  35.608  32.839  1.00  0.00     0.029 A 
ATOM     59  C   UNL A   1      42.819  34.274  32.490  1.00  0.00     0.049 A 
ATOM     60  H   UNL A   1      43.249  32.714  33.826  1.00  0.00     0.167 HD
ATOM     61  C   UNL A   1      42.740  32.252  31.032  1.00  0.00     0.074 A 
ATOM     62  C   UNL A   1      42.929  31.147  31.961  1.00  0.00     0.031 C 
ATOM     63  C   UNL A   1      42.778  33.605  31.205  1.00  0.00     0.031 A 
BRANCH  50  64
ATOM     64  C   UNL A   1      42.301  32.706  36.625  1.00  0.00    -0.014 A 
ATOM     65  C   UNL A   1      43.119  33.287  37.607  1.00  0.00     0.009 A 
ATOM     66  C   UNL A   1      42.452  31.320  36.413  1.00  0.00     0.009 A 
ATOM     67  C   UNL A   1      44.061  32.526  38.310  1.00  0.00     0.001 A 
ATOM     68  C   UNL A   1      43.356  30.550  37.145  1.00  0.00     0.001 A 
ATOM     69  C   UNL A   1      44.179  31.159  38.079  1.00  0.00     0.000 A 
ENDBRANCH  50  64
BRANCH  51  70
ATOM     70  C   UNL A   1      40.229  28.697  29.237  1.00  0.00    -0.014 A 
ATOM     71  C   UNL A   1      39.562  27.621  29.836  1.00  0.00     0.009 A 
ATOM     72  C   UNL A   1      40.611  28.570  27.888  1.00  0.00     0.009 A 
ATOM     73  C   UNL A   1      39.264  26.467  29.101  1.00  0.00     0.001 A 
ATOM     74  C   UNL A   1      40.321  27.415  27.156  1.00  0.00     0.001 A 
ATOM     75  C   UNL A   1      39.635  26.369  27.761  1.00  0.00     0.000 A 
ENDBRANCH  51  70
BRANCH  63  76
ATOM     76  C   UNL A   1      42.483  34.453  29.997  1.00  0.00    -0.014 A 
ATOM     77  C   UNL A   1      41.174  34.783  29.604  1.00  0.00     0.009 A 
ATOM     78  C   UNL A   1      43.555  35.009  29.286  1.00  0.00     0.009 A 
ATOM     79  C   UNL A   1      40.947  35.615  28.506  1.00  0.00     0.001 A 
ATOM     80  C   UNL A   1      43.327  35.859  28.201  1.00  0.00     0.001 A 
ATOM     81  C   UNL A   1      42.023  36.155  27.807  1.00  0.00     0.000 A 
ENDBRANCH  63  76
ENDBRANCH  37  38
ENDBRANCH  30  32
ENDBRANCH  29  30
ENDBRANCH  28  29
ENDBRANCH  27  28
ENDBRANCH  26  27
ENDBRANCH  25  26
ENDBRANCH   1  25
TORSDOF 22
ENDMDL
