MODEL 1
REMARK VINA RESULT:     -11.4      0.000      0.000
REMARK SMILES Cc1ccnc(C(=O)c2[nH]c3cc(Cl)c(F)cc3c2CC(=O)OCCOCCOCCOC(=O)c2ccc(-c3c4nc(c(-c5ccccc5)c5ccc([nH]5)c(-c5ccccc5)c5nc(c(-c6ccccc6)c6ccc3[nH]6)C=C5)C=C4)cc2)c1
REMARK SMILES IDX 27 1 26 2 25 3 24 4 23 5 21 6 22 7 20 8 19 9 9 10 10 11
REMARK SMILES IDX 11 12 18 14 12 15 17 16 13 17 15 18 14 19 16 20 7 21 8 22
REMARK SMILES IDX 6 23 1 24 2 25 3 26 83 27 4 28 5 29 28 30 29 31 30 32 31 33
REMARK SMILES IDX 32 34 33 35 34 36 35 37 36 38 82 39 37 40 81 41 38 42 39 43
REMARK SMILES IDX 40 44 75 45 41 46 80 47 74 48 76 49 42 50 79 51 73 52 72 53
REMARK SMILES IDX 43 55 65 56 50 57 64 58 51 59 54 60 63 61 77 62 52 63 53 64
REMARK SMILES IDX 62 66 78 67 55 68 44 69 45 70 49 71 46 72 48 73 47 74 66 75
REMARK SMILES IDX 67 76 71 77 68 78 70 79 69 80 56 81 57 82 61 83 58 84 60 85
REMARK SMILES IDX 59 86
REMARK H PARENT 10 13 76 54 54 65
REMARK Flexibility Score: inf
ROOT
ATOM      1  C   UNL A   1      40.297  21.446  26.333  1.00  0.00     0.188 C 
ENDROOT
BRANCH   1   2
ATOM      2  O   UNL A   1      39.220  22.414  26.370  1.00  0.00    -0.376 OA
BRANCH   2   3
ATOM      3  C   UNL A   1      38.033  21.969  25.615  1.00  0.00     0.202 C 
BRANCH   3   4
ATOM      4  C   UNL A   1      37.254  23.143  25.010  1.00  0.00     0.261 C 
BRANCH   4   5
ATOM      5  O   UNL A   1      35.868  22.750  24.939  1.00  0.00    -0.463 OA
BRANCH   5   6
ATOM      6  C   UNL A   1      35.345  22.852  23.706  1.00  0.00     0.310 C 
ATOM      7  O   UNL A   1      35.979  23.264  22.739  1.00  0.00    -0.252 OA
BRANCH   6   8
ATOM      8  C   UNL A   1      33.982  22.264  23.537  1.00  0.00     0.161 C 
BRANCH   8   9
ATOM      9  C   UNL A   1      33.271  21.395  24.535  1.00  0.00     0.000 A 
ATOM     10  C   UNL A   1      32.860  21.763  25.818  1.00  0.00     0.093 A 
ATOM     11  N   UNL A   1      32.753  20.533  26.500  1.00  0.00    -0.351 N 
ATOM     12  C   UNL A   1      32.839  19.440  25.700  1.00  0.00     0.048 A 
ATOM     13  H   UNL A   1      32.626  20.472  27.475  1.00  0.00     0.167 HD
ATOM     14  C   UNL A   1      33.177  19.933  24.446  1.00  0.00     0.007 A 
ATOM     15  C   UNL A   1      32.700  18.076  26.021  1.00  0.00     0.050 A 
ATOM     16  C   UNL A   1      33.434  18.974  23.444  1.00  0.00     0.051 A 
ATOM     17  C   UNL A   1      32.916  17.158  24.995  1.00  0.00     0.078 A 
ATOM     18  C   UNL A   1      33.286  17.604  23.731  1.00  0.00     0.142 A 
ATOM     19  Cl  UNL A   1      32.733  15.474  25.321  1.00  0.00    -0.081 Cl
ATOM     20  F   UNL A   1      33.523  16.721  22.750  1.00  0.00    -0.205 F 
BRANCH  10  21
ATOM     21  C   UNL A   1      32.605  22.930  26.721  1.00  0.00     0.227 C 
ATOM     22  O   UNL A   1      32.510  22.491  27.822  1.00  0.00    -0.285 OA
BRANCH  21  23
ATOM     23  C   UNL A   1      32.221  24.480  26.600  1.00  0.00     0.113 A 
ATOM     24  C   UNL A   1      33.696  27.752  25.198  1.00  0.00     0.044 C 
ATOM     25  C   UNL A   1      32.648  26.761  25.633  1.00  0.00    -0.047 A 
ATOM     26  C   UNL A   1      31.302  26.991  25.567  1.00  0.00     0.023 A 
ATOM     27  C   UNL A   1      33.050  25.490  26.086  1.00  0.00     0.036 A 
ATOM     28  C   UNL A   1      30.486  25.974  26.040  1.00  0.00     0.112 A 
ATOM     29  N   UNL A   1      30.903  24.770  26.573  1.00  0.00    -0.253 NA
ENDBRANCH  21  23
ENDBRANCH  10  21
ENDBRANCH   8   9
ENDBRANCH   6   8
ENDBRANCH   5   6
ENDBRANCH   4   5
ENDBRANCH   3   4
ENDBRANCH   2   3
ENDBRANCH   1   2
BRANCH   1  30
ATOM     30  C   UNL A   1      40.058  19.858  26.148  1.00  0.00     0.188 C 
BRANCH  30  31
ATOM     31  O   UNL A   1      41.184  19.034  25.690  1.00  0.00    -0.376 OA
BRANCH  31  32
ATOM     32  C   UNL A   1      42.546  19.231  26.155  1.00  0.00     0.202 C 
BRANCH  32  33
ATOM     33  C   UNL A   1      43.736  18.943  25.061  1.00  0.00     0.261 C 
BRANCH  33  34
ATOM     34  O   UNL A   1      44.325  20.046  24.238  1.00  0.00    -0.460 OA
BRANCH  34  35
ATOM     35  C   UNL A   1      45.499  20.698  24.604  1.00  0.00     0.338 C 
ATOM     36  O   UNL A   1      46.618  20.251  24.392  1.00  0.00    -0.246 OA
BRANCH  35  37
ATOM     37  C   UNL A   1      45.306  22.180  25.020  1.00  0.00     0.060 A 
ATOM     38  C   UNL A   1      46.058  22.833  25.993  1.00  0.00     0.016 A 
ATOM     39  C   UNL A   1      44.111  22.826  24.617  1.00  0.00     0.016 A 
ATOM     40  C   UNL A   1      45.532  23.967  26.680  1.00  0.00     0.010 A 
ATOM     41  C   UNL A   1      43.582  23.953  25.309  1.00  0.00     0.010 A 
ATOM     42  C   UNL A   1      44.258  24.512  26.395  1.00  0.00    -0.014 A 
BRANCH  42  43
ATOM     43  C   UNL A   1      43.826  25.770  27.095  1.00  0.00     0.031 A 
ATOM     44  C   UNL A   1      44.761  26.892  26.886  1.00  0.00     0.074 A 
ATOM     45  C   UNL A   1      42.702  26.140  27.769  1.00  0.00     0.049 A 
ATOM     46  N   UNL A   1      45.459  27.502  27.784  1.00  0.00    -0.248 NA
ATOM     47  C   UNL A   1      44.964  27.349  25.508  1.00  0.00     0.031 C 
ATOM     48  C   UNL A   1      41.516  25.328  27.949  1.00  0.00     0.029 A 
ATOM     49  N   UNL A   1      42.346  27.327  28.408  1.00  0.00    -0.354 N 
ATOM     50  C   UNL A   1      46.063  28.549  27.114  1.00  0.00     0.074 A 
ATOM     51  C   UNL A   1      45.842  28.331  25.702  1.00  0.00     0.031 C 
ATOM     52  C   UNL A   1      40.528  26.046  28.528  1.00  0.00     0.029 A 
ATOM     53  C   UNL A   1      41.011  27.383  28.816  1.00  0.00     0.049 A 
ATOM     54  H   UNL A   1      42.982  28.065  28.559  1.00  0.00     0.167 HD
ATOM     55  C   UNL A   1      46.490  29.658  27.766  1.00  0.00     0.031 A 
ATOM     56  C   UNL A   1      40.292  28.386  29.391  1.00  0.00     0.031 A 
ATOM     57  C   UNL A   1      46.589  29.490  29.188  1.00  0.00     0.049 A 
ATOM     58  C   UNL A   1      41.208  29.257  30.149  1.00  0.00     0.074 A 
ATOM     59  C   UNL A   1      47.363  28.727  30.037  1.00  0.00     0.029 A 
ATOM     60  N   UNL A   1      45.551  29.988  29.931  1.00  0.00    -0.354 N 
ATOM     61  N   UNL A   1      41.797  28.891  31.253  1.00  0.00    -0.248 NA
ATOM     62  C   UNL A   1      41.663  30.522  29.590  1.00  0.00     0.031 C 
ATOM     63  C   UNL A   1      46.614  28.583  31.238  1.00  0.00     0.029 A 
ATOM     64  C   UNL A   1      45.403  29.257  31.086  1.00  0.00     0.049 A 
ATOM     65  H   UNL A   1      44.991  30.757  29.675  1.00  0.00     0.167 HD
ATOM     66  C   UNL A   1      42.968  29.620  31.268  1.00  0.00     0.074 A 
ATOM     67  C   UNL A   1      42.746  30.720  30.344  1.00  0.00     0.031 C 
ATOM     68  C   UNL A   1      44.122  29.076  31.747  1.00  0.00     0.031 A 
BRANCH  55  69
ATOM     69  C   UNL A   1      46.461  31.006  27.114  1.00  0.00    -0.014 A 
ATOM     70  C   UNL A   1      45.252  31.634  26.748  1.00  0.00     0.009 A 
ATOM     71  C   UNL A   1      47.630  31.775  27.057  1.00  0.00     0.009 A 
ATOM     72  C   UNL A   1      45.218  32.944  26.271  1.00  0.00     0.001 A 
ATOM     73  C   UNL A   1      47.591  33.104  26.623  1.00  0.00     0.001 A 
ATOM     74  C   UNL A   1      46.390  33.682  26.217  1.00  0.00     0.000 A 
ENDBRANCH  55  69
BRANCH  56  75
ATOM     75  C   UNL A   1      38.824  28.658  29.343  1.00  0.00    -0.014 A 
ATOM     76  C   UNL A   1      38.210  29.007  28.125  1.00  0.00     0.009 A 
ATOM     77  C   UNL A   1      38.055  28.824  30.511  1.00  0.00     0.009 A 
ATOM     78  C   UNL A   1      36.912  29.534  28.074  1.00  0.00     0.001 A 
ATOM     79  C   UNL A   1      36.754  29.360  30.464  1.00  0.00     0.001 A 
ATOM     80  C   UNL A   1      36.190  29.730  29.246  1.00  0.00     0.000 A 
ENDBRANCH  56  75
BRANCH  68  81
ATOM     81  C   UNL A   1      44.033  28.019  32.819  1.00  0.00    -0.014 A 
ATOM     82  C   UNL A   1      44.228  28.425  34.152  1.00  0.00     0.009 A 
ATOM     83  C   UNL A   1      43.871  26.649  32.563  1.00  0.00     0.009 A 
ATOM     84  C   UNL A   1      44.278  27.495  35.192  1.00  0.00     0.001 A 
ATOM     85  C   UNL A   1      43.892  25.719  33.610  1.00  0.00     0.001 A 
ATOM     86  C   UNL A   1      44.107  26.140  34.921  1.00  0.00     0.000 A 
ENDBRANCH  68  81
ENDBRANCH  42  43
ENDBRANCH  35  37
ENDBRANCH  34  35
ENDBRANCH  33  34
ENDBRANCH  32  33
ENDBRANCH  31  32
ENDBRANCH  30  31
ENDBRANCH   1  30
TORSDOF 20
ENDMDL
MODEL 2
REMARK VINA RESULT:     -11.4      2.261      3.958
REMARK SMILES Cc1ccnc(C(=O)c2[nH]c3cc(Cl)c(F)cc3c2CC(=O)OCCOCCOCCOC(=O)c2ccc(-c3c4nc(c(-c5ccccc5)c5ccc([nH]5)c(-c5ccccc5)c5nc(c(-c6ccccc6)c6ccc3[nH]6)C=C5)C=C4)cc2)c1
REMARK SMILES IDX 27 1 26 2 25 3 24 4 23 5 21 6 22 7 20 8 19 9 9 10 10 11
REMARK SMILES IDX 11 12 18 14 12 15 17 16 13 17 15 18 14 19 16 20 7 21 8 22
REMARK SMILES IDX 6 23 1 24 2 25 3 26 83 27 4 28 5 29 28 30 29 31 30 32 31 33
REMARK SMILES IDX 32 34 33 35 34 36 35 37 36 38 82 39 37 40 81 41 38 42 39 43
REMARK SMILES IDX 40 44 75 45 41 46 80 47 74 48 76 49 42 50 79 51 73 52 72 53
REMARK SMILES IDX 43 55 65 56 50 57 64 58 51 59 54 60 63 61 77 62 52 63 53 64
REMARK SMILES IDX 62 66 78 67 55 68 44 69 45 70 49 71 46 72 48 73 47 74 66 75
REMARK SMILES IDX 67 76 71 77 68 78 70 79 69 80 56 81 57 82 61 83 58 84 60 85
REMARK SMILES IDX 59 86
REMARK H PARENT 10 13 76 54 54 65
REMARK Flexibility Score: inf
ROOT
ATOM      1  C   UNL A   1      40.851  21.427  27.155  1.00  0.00     0.188 C 
ENDROOT
BRANCH   1   2
ATOM      2  O   UNL A   1      39.620  22.138  26.873  1.00  0.00    -0.376 OA
BRANCH   2   3
ATOM      3  C   UNL A   1      38.859  21.535  25.762  1.00  0.00     0.202 C 
BRANCH   3   4
ATOM      4  C   UNL A   1      37.486  22.190  25.574  1.00  0.00     0.261 C 
BRANCH   4   5
ATOM      5  O   UNL A   1      37.259  22.317  24.156  1.00  0.00    -0.463 OA
BRANCH   5   6
ATOM      6  C   UNL A   1      36.190  23.070  23.849  1.00  0.00     0.310 C 
ATOM      7  O   UNL A   1      35.760  23.190  22.705  1.00  0.00    -0.252 OA
BRANCH   6   8
ATOM      8  C   UNL A   1      35.438  23.622  25.015  1.00  0.00     0.161 C 
BRANCH   8   9
ATOM      9  C   UNL A   1      33.972  23.949  25.039  1.00  0.00     0.000 A 
ATOM     10  C   UNL A   1      32.915  23.058  24.841  1.00  0.00     0.093 A 
ATOM     11  N   UNL A   1      31.848  23.888  24.439  1.00  0.00    -0.351 N 
ATOM     12  C   UNL A   1      32.086  25.216  24.589  1.00  0.00     0.048 A 
ATOM     13  H   UNL A   1      31.002  23.535  24.079  1.00  0.00     0.167 HD
ATOM     14  C   UNL A   1      33.422  25.308  24.958  1.00  0.00     0.007 A 
ATOM     15  C   UNL A   1      31.233  26.314  24.367  1.00  0.00     0.050 A 
ATOM     16  C   UNL A   1      33.953  26.609  25.073  1.00  0.00     0.051 A 
ATOM     17  C   UNL A   1      31.778  27.585  24.535  1.00  0.00     0.078 A 
ATOM     18  C   UNL A   1      33.119  27.725  24.874  1.00  0.00     0.142 A 
ATOM     19  Cl  UNL A   1      30.774  28.969  24.303  1.00  0.00    -0.081 Cl
ATOM     20  F   UNL A   1      33.653  28.949  25.008  1.00  0.00    -0.205 F 
BRANCH  10  21
ATOM     21  C   UNL A   1      32.544  21.607  24.800  1.00  0.00     0.227 C 
ATOM     22  O   UNL A   1      31.824  21.417  25.727  1.00  0.00    -0.285 OA
BRANCH  21  23
ATOM     23  C   UNL A   1      32.998  20.273  24.040  1.00  0.00     0.113 A 
ATOM     24  C   UNL A   1      34.902  17.003  24.767  1.00  0.00     0.044 C 
ATOM     25  C   UNL A   1      33.921  17.936  24.105  1.00  0.00    -0.047 A 
ATOM     26  C   UNL A   1      33.086  17.572  23.086  1.00  0.00     0.023 A 
ATOM     27  C   UNL A   1      33.797  19.254  24.582  1.00  0.00     0.036 A 
ATOM     28  C   UNL A   1      32.270  18.573  22.579  1.00  0.00     0.112 A 
ATOM     29  N   UNL A   1      32.233  19.888  22.997  1.00  0.00    -0.253 NA
ENDBRANCH  21  23
ENDBRANCH  10  21
ENDBRANCH   8   9
ENDBRANCH   6   8
ENDBRANCH   5   6
ENDBRANCH   4   5
ENDBRANCH   3   4
ENDBRANCH   2   3
ENDBRANCH   1   2
BRANCH   1  30
ATOM     30  C   UNL A   1      41.316  20.104  26.349  1.00  0.00     0.188 C 
BRANCH  30  31
ATOM     31  O   UNL A   1      42.658  19.568  26.608  1.00  0.00    -0.376 OA
BRANCH  31  32
ATOM     32  C   UNL A   1      43.196  18.416  25.905  1.00  0.00     0.202 C 
BRANCH  32  33
ATOM     33  C   UNL A   1      44.819  18.410  25.656  1.00  0.00     0.261 C 
BRANCH  33  34
ATOM     34  O   UNL A   1      45.551  19.651  25.247  1.00  0.00    -0.460 OA
BRANCH  34  35
ATOM     35  C   UNL A   1      45.043  20.531  24.296  1.00  0.00     0.338 C 
ATOM     36  O   UNL A   1      44.492  20.172  23.264  1.00  0.00    -0.246 OA
BRANCH  35  37
ATOM     37  C   UNL A   1      44.938  22.002  24.777  1.00  0.00     0.060 A 
ATOM     38  C   UNL A   1      45.686  22.549  25.817  1.00  0.00     0.016 A 
ATOM     39  C   UNL A   1      43.816  22.755  24.353  1.00  0.00     0.016 A 
ATOM     40  C   UNL A   1      45.211  23.687  26.535  1.00  0.00     0.010 A 
ATOM     41  C   UNL A   1      43.337  23.884  25.076  1.00  0.00     0.010 A 
ATOM     42  C   UNL A   1      43.996  24.339  26.220  1.00  0.00    -0.014 A 
BRANCH  42  43
ATOM     43  C   UNL A   1      43.623  25.592  26.962  1.00  0.00     0.031 A 
ATOM     44  C   UNL A   1      44.615  26.671  26.799  1.00  0.00     0.074 A 
ATOM     45  C   UNL A   1      42.515  25.993  27.642  1.00  0.00     0.049 A 
ATOM     46  N   UNL A   1      45.336  27.213  27.721  1.00  0.00    -0.248 NA
ATOM     47  C   UNL A   1      44.850  27.166  25.439  1.00  0.00     0.031 C 
ATOM     48  C   UNL A   1      41.288  25.237  27.787  1.00  0.00     0.029 A 
ATOM     49  N   UNL A   1      42.214  27.174  28.322  1.00  0.00    -0.354 N 
ATOM     50  C   UNL A   1      45.997  28.251  27.093  1.00  0.00     0.074 A 
ATOM     51  C   UNL A   1      45.775  28.096  25.673  1.00  0.00     0.031 C 
ATOM     52  C   UNL A   1      40.333  25.982  28.386  1.00  0.00     0.029 A 
ATOM     53  C   UNL A   1      40.880  27.282  28.725  1.00  0.00     0.049 A 
ATOM     54  H   UNL A   1      42.885  27.872  28.503  1.00  0.00     0.167 HD
ATOM     55  C   UNL A   1      46.474  29.313  27.786  1.00  0.00     0.031 A 
ATOM     56  C   UNL A   1      40.209  28.299  29.331  1.00  0.00     0.031 A 
ATOM     57  C   UNL A   1      46.554  29.090  29.203  1.00  0.00     0.049 A 
ATOM     58  C   UNL A   1      41.162  29.095  30.125  1.00  0.00     0.074 A 
ATOM     59  C   UNL A   1      47.283  28.259  30.027  1.00  0.00     0.029 A 
ATOM     60  N   UNL A   1      45.537  29.613  29.957  1.00  0.00    -0.354 N 
ATOM     61  N   UNL A   1      41.724  28.661  31.218  1.00  0.00    -0.248 NA
ATOM     62  C   UNL A   1      41.683  30.355  29.614  1.00  0.00     0.031 C 
ATOM     63  C   UNL A   1      46.519  28.111  31.219  1.00  0.00     0.029 A 
ATOM     64  C   UNL A   1      45.345  28.850  31.084  1.00  0.00     0.049 A 
ATOM     65  H   UNL A   1      45.019  30.419  29.725  1.00  0.00     0.167 HD
ATOM     66  C   UNL A   1      42.930  29.329  31.266  1.00  0.00     0.074 A 
ATOM     67  C   UNL A   1      42.770  30.471  30.381  1.00  0.00     0.031 C 
ATOM     68  C   UNL A   1      44.051  28.711  31.731  1.00  0.00     0.031 A 
BRANCH  55  69
ATOM     69  C   UNL A   1      46.518  30.684  27.183  1.00  0.00    -0.014 A 
ATOM     70  C   UNL A   1      45.344  31.395  26.858  1.00  0.00     0.009 A 
ATOM     71  C   UNL A   1      47.730  31.384  27.136  1.00  0.00     0.009 A 
ATOM     72  C   UNL A   1      45.382  32.721  26.428  1.00  0.00     0.001 A 
ATOM     73  C   UNL A   1      47.766  32.727  26.750  1.00  0.00     0.001 A 
ATOM     74  C   UNL A   1      46.596  33.390  26.383  1.00  0.00     0.000 A 
ENDBRANCH  55  69
BRANCH  56  75
ATOM     75  C   UNL A   1      38.757  28.646  29.285  1.00  0.00    -0.014 A 
ATOM     76  C   UNL A   1      38.184  29.131  28.093  1.00  0.00     0.009 A 
ATOM     77  C   UNL A   1      37.973  28.747  30.451  1.00  0.00     0.009 A 
ATOM     78  C   UNL A   1      36.914  29.724  28.070  1.00  0.00     0.001 A 
ATOM     79  C   UNL A   1      36.701  29.348  30.432  1.00  0.00     0.001 A 
ATOM     80  C   UNL A   1      36.180  29.852  29.243  1.00  0.00     0.000 A 
ENDBRANCH  56  75
BRANCH  68  81
ATOM     81  C   UNL A   1      43.901  27.622  32.764  1.00  0.00    -0.014 A 
ATOM     82  C   UNL A   1      43.652  28.014  34.092  1.00  0.00     0.009 A 
ATOM     83  C   UNL A   1      44.096  26.257  32.504  1.00  0.00     0.009 A 
ATOM     84  C   UNL A   1      43.616  27.079  35.128  1.00  0.00     0.001 A 
ATOM     85  C   UNL A   1      44.031  25.315  33.539  1.00  0.00     0.001 A 
ATOM     86  C   UNL A   1      43.803  25.727  34.851  1.00  0.00     0.000 A 
ENDBRANCH  68  81
ENDBRANCH  42  43
ENDBRANCH  35  37
ENDBRANCH  34  35
ENDBRANCH  33  34
ENDBRANCH  32  33
ENDBRANCH  31  32
ENDBRANCH  30  31
ENDBRANCH   1  30
TORSDOF 20
ENDMDL
MODEL 3
REMARK VINA RESULT:     -11.2      2.628      3.935
REMARK SMILES Cc1ccnc(C(=O)c2[nH]c3cc(Cl)c(F)cc3c2CC(=O)OCCOCCOCCOC(=O)c2ccc(-c3c4nc(c(-c5ccccc5)c5ccc([nH]5)c(-c5ccccc5)c5nc(c(-c6ccccc6)c6ccc3[nH]6)C=C5)C=C4)cc2)c1
REMARK SMILES IDX 27 1 26 2 25 3 24 4 23 5 21 6 22 7 20 8 19 9 9 10 10 11
REMARK SMILES IDX 11 12 18 14 12 15 17 16 13 17 15 18 14 19 16 20 7 21 8 22
REMARK SMILES IDX 6 23 1 24 2 25 3 26 83 27 4 28 5 29 28 30 29 31 30 32 31 33
REMARK SMILES IDX 32 34 33 35 34 36 35 37 36 38 82 39 37 40 81 41 38 42 39 43
REMARK SMILES IDX 40 44 75 45 41 46 80 47 74 48 76 49 42 50 79 51 73 52 72 53
REMARK SMILES IDX 43 55 65 56 50 57 64 58 51 59 54 60 63 61 77 62 52 63 53 64
REMARK SMILES IDX 62 66 78 67 55 68 44 69 45 70 49 71 46 72 48 73 47 74 66 75
REMARK SMILES IDX 67 76 71 77 68 78 70 79 69 80 56 81 57 82 61 83 58 84 60 85
REMARK SMILES IDX 59 86
REMARK H PARENT 10 13 76 54 54 65
REMARK Flexibility Score: inf
ROOT
ATOM      1  C   UNL A   1      36.624  21.486  25.765  1.00  0.00     0.188 C 
ENDROOT
BRANCH   1   2
ATOM      2  O   UNL A   1      35.632  22.124  24.924  1.00  0.00    -0.376 OA
BRANCH   2   3
ATOM      3  C   UNL A   1      35.578  23.585  25.120  1.00  0.00     0.202 C 
BRANCH   3   4
ATOM      4  C   UNL A   1      35.134  24.327  23.854  1.00  0.00     0.261 C 
BRANCH   4   5
ATOM      5  O   UNL A   1      34.664  23.337  22.917  1.00  0.00    -0.463 OA
BRANCH   5   6
ATOM      6  C   UNL A   1      33.448  23.608  22.414  1.00  0.00     0.310 C 
ATOM      7  O   UNL A   1      33.233  24.540  21.644  1.00  0.00    -0.252 OA
BRANCH   6   8
ATOM      8  C   UNL A   1      32.391  22.595  22.709  1.00  0.00     0.161 C 
BRANCH   8   9
ATOM      9  C   UNL A   1      32.239  21.834  23.995  1.00  0.00     0.000 A 
ATOM     10  C   UNL A   1      32.215  22.370  25.284  1.00  0.00     0.093 A 
ATOM     11  N   UNL A   1      32.586  21.285  26.105  1.00  0.00    -0.351 N 
ATOM     12  C   UNL A   1      32.614  20.087  25.468  1.00  0.00     0.048 A 
ATOM     13  H   UNL A   1      32.806  21.388  27.060  1.00  0.00     0.167 HD
ATOM     14  C   UNL A   1      32.411  20.382  24.126  1.00  0.00     0.007 A 
ATOM     15  C   UNL A   1      32.861  18.800  25.983  1.00  0.00     0.050 A 
ATOM     16  C   UNL A   1      32.503  19.301  23.226  1.00  0.00     0.051 A 
ATOM     17  C   UNL A   1      32.899  17.748  25.070  1.00  0.00     0.078 A 
ATOM     18  C   UNL A   1      32.731  18.001  23.714  1.00  0.00     0.142 A 
ATOM     19  Cl  UNL A   1      33.170  16.144  25.645  1.00  0.00    -0.081 Cl
ATOM     20  F   UNL A   1      32.797  16.993  22.830  1.00  0.00    -0.205 F 
BRANCH  10  21
ATOM     21  C   UNL A   1      32.051  23.636  26.067  1.00  0.00     0.227 C 
ATOM     22  O   UNL A   1      31.682  23.317  27.151  1.00  0.00    -0.285 OA
BRANCH  21  23
ATOM     23  C   UNL A   1      32.015  25.215  25.803  1.00  0.00     0.113 A 
ATOM     24  C   UNL A   1      34.108  28.354  26.586  1.00  0.00     0.044 C 
ATOM     25  C   UNL A   1      33.153  27.457  25.843  1.00  0.00    -0.047 A 
ATOM     26  C   UNL A   1      32.516  27.807  24.685  1.00  0.00     0.023 A 
ATOM     27  C   UNL A   1      32.925  26.152  26.319  1.00  0.00     0.036 A 
ATOM     28  C   UNL A   1      31.648  26.863  24.158  1.00  0.00     0.112 A 
ATOM     29  N   UNL A   1      31.363  25.623  24.694  1.00  0.00    -0.253 NA
ENDBRANCH  21  23
ENDBRANCH  10  21
ENDBRANCH   8   9
ENDBRANCH   6   8
ENDBRANCH   5   6
ENDBRANCH   4   5
ENDBRANCH   3   4
ENDBRANCH   2   3
ENDBRANCH   1   2
BRANCH   1  30
ATOM     30  C   UNL A   1      38.202  21.462  25.414  1.00  0.00     0.188 C 
BRANCH  30  31
ATOM     31  O   UNL A   1      38.847  20.160  25.202  1.00  0.00    -0.376 OA
BRANCH  31  32
ATOM     32  C   UNL A   1      39.852  19.622  26.103  1.00  0.00     0.202 C 
BRANCH  32  33
ATOM     33  C   UNL A   1      41.174  20.562  26.361  1.00  0.00     0.261 C 
BRANCH  33  34
ATOM     34  O   UNL A   1      41.096  21.813  27.180  1.00  0.00    -0.460 OA
BRANCH  34  35
ATOM     35  C   UNL A   1      41.827  22.954  26.861  1.00  0.00     0.338 C 
ATOM     36  O   UNL A   1      42.710  22.980  26.015  1.00  0.00    -0.246 OA
BRANCH  35  37
ATOM     37  C   UNL A   1      41.235  24.271  27.426  1.00  0.00     0.060 A 
ATOM     38  C   UNL A   1      40.247  25.027  26.801  1.00  0.00     0.016 A 
ATOM     39  C   UNL A   1      41.938  24.912  28.476  1.00  0.00     0.016 A 
ATOM     40  C   UNL A   1      40.116  26.422  27.071  1.00  0.00     0.010 A 
ATOM     41  C   UNL A   1      41.814  26.306  28.739  1.00  0.00     0.010 A 
ATOM     42  C   UNL A   1      40.937  27.102  27.999  1.00  0.00    -0.014 A 
BRANCH  42  43
ATOM     43  C   UNL A   1      40.662  28.549  28.299  1.00  0.00     0.031 A 
ATOM     44  C   UNL A   1      41.854  29.404  28.143  1.00  0.00     0.074 A 
ATOM     45  C   UNL A   1      39.532  29.263  28.556  1.00  0.00     0.049 A 
ATOM     46  N   UNL A   1      42.451  30.083  29.063  1.00  0.00    -0.248 NA
ATOM     47  C   UNL A   1      42.465  29.466  26.813  1.00  0.00     0.031 C 
ATOM     48  C   UNL A   1      38.181  28.741  28.556  1.00  0.00     0.029 A 
ATOM     49  N   UNL A   1      39.325  30.614  28.833  1.00  0.00    -0.354 N 
ATOM     50  C   UNL A   1      43.418  30.811  28.397  1.00  0.00     0.074 A 
ATOM     51  C   UNL A   1      43.480  30.297  27.048  1.00  0.00     0.031 C 
ATOM     52  C   UNL A   1      37.281  29.740  28.693  1.00  0.00     0.029 A 
ATOM     53  C   UNL A   1      37.982  31.001  28.841  1.00  0.00     0.049 A 
ATOM     54  H   UNL A   1      40.063  31.243  29.008  1.00  0.00     0.167 HD
ATOM     55  C   UNL A   1      43.931  31.954  28.916  1.00  0.00     0.031 A 
ATOM     56  C   UNL A   1      37.405  32.224  28.994  1.00  0.00     0.031 A 
ATOM     57  C   UNL A   1      43.662  32.124  30.316  1.00  0.00     0.049 A 
ATOM     58  C   UNL A   1      38.300  33.080  29.792  1.00  0.00     0.074 A 
ATOM     59  C   UNL A   1      44.023  31.469  31.473  1.00  0.00     0.029 A 
ATOM     60  N   UNL A   1      42.627  32.963  30.635  1.00  0.00    -0.354 N 
ATOM     61  N   UNL A   1      38.521  32.898  31.064  1.00  0.00    -0.248 NA
ATOM     62  C   UNL A   1      39.151  34.070  29.147  1.00  0.00     0.031 C 
ATOM     63  C   UNL A   1      43.008  31.757  32.428  1.00  0.00     0.029 A 
ATOM     64  C   UNL A   1      42.054  32.575  31.824  1.00  0.00     0.049 A 
ATOM     65  H   UNL A   1      42.334  33.732  30.093  1.00  0.00     0.167 HD
ATOM     66  C   UNL A   1      39.794  33.392  31.259  1.00  0.00     0.074 A 
ATOM     67  C   UNL A   1      40.050  34.254  30.116  1.00  0.00     0.031 C 
ATOM     68  C   UNL A   1      40.651  32.789  32.130  1.00  0.00     0.031 A 
BRANCH  55  69
ATOM     69  C   UNL A   1      44.365  33.085  28.035  1.00  0.00    -0.014 A 
ATOM     70  C   UNL A   1      43.503  34.153  27.710  1.00  0.00     0.009 A 
ATOM     71  C   UNL A   1      45.716  33.221  27.694  1.00  0.00     0.009 A 
ATOM     72  C   UNL A   1      43.949  35.272  27.008  1.00  0.00     0.001 A 
ATOM     73  C   UNL A   1      46.175  34.363  27.031  1.00  0.00     0.001 A 
ATOM     74  C   UNL A   1      45.290  35.380  26.675  1.00  0.00     0.000 A 
ENDBRANCH  55  69
BRANCH  56  75
ATOM     75  C   UNL A   1      36.090  32.729  28.494  1.00  0.00    -0.014 A 
ATOM     76  C   UNL A   1      35.701  34.057  28.751  1.00  0.00     0.009 A 
ATOM     77  C   UNL A   1      35.101  31.865  27.985  1.00  0.00     0.009 A 
ATOM     78  C   UNL A   1      34.384  34.495  28.550  1.00  0.00     0.001 A 
ATOM     79  C   UNL A   1      33.777  32.300  27.789  1.00  0.00     0.001 A 
ATOM     80  C   UNL A   1      33.416  33.611  28.088  1.00  0.00     0.000 A 
ENDBRANCH  56  75
BRANCH  68  81
ATOM     81  C   UNL A   1      40.077  32.059  33.319  1.00  0.00    -0.014 A 
ATOM     82  C   UNL A   1      39.969  32.768  34.529  1.00  0.00     0.009 A 
ATOM     83  C   UNL A   1      39.742  30.696  33.321  1.00  0.00     0.009 A 
ATOM     84  C   UNL A   1      39.558  32.137  35.705  1.00  0.00     0.001 A 
ATOM     85  C   UNL A   1      39.303  30.069  34.493  1.00  0.00     0.001 A 
ATOM     86  C   UNL A   1      39.223  30.786  35.686  1.00  0.00     0.000 A 
ENDBRANCH  68  81
ENDBRANCH  42  43
ENDBRANCH  35  37
ENDBRANCH  34  35
ENDBRANCH  33  34
ENDBRANCH  32  33
ENDBRANCH  31  32
ENDBRANCH  30  31
ENDBRANCH   1  30
TORSDOF 20
ENDMDL
