MODEL 1
REMARK VINA RESULT:      -9.7      0.000      0.000
REMARK SMILES CC(C)CCc1cc2c(cc1Cl)C=C(C(=O)OCCOCCOCCOC(=O)c1ccc(-c3c4nc(c(-c5ccccc5)c5ccc([nH]5)c(-c5ccccc5)c5nc(c(-c6ccccc6)c6ccc3[nH]6)C=C5)C=C4)cc1)[C@H](C(F)(F)F)O2
REMARK SMILES IDX 21 1 20 2 19 3 18 4 17 5 15 6 16 7 14 8 6 9 7 10 11 11 8 12
REMARK SMILES IDX 10 13 12 14 9 15 82 16 13 17 77 18 5 19 4 20 2 21 1 22 3 23
REMARK SMILES IDX 78 24 79 25 80 26 81 27 22 28 23 29 24 30 25 31 26 32 27 33
REMARK SMILES IDX 28 34 29 35 30 36 76 37 31 38 75 39 32 40 33 41 34 42 69 43
REMARK SMILES IDX 35 44 74 45 68 46 70 47 36 48 73 49 67 50 66 51 37 53 59 54
REMARK SMILES IDX 44 55 58 56 45 57 48 58 57 59 71 60 46 61 47 62 56 64 72 65
REMARK SMILES IDX 49 66 38 67 39 68 43 69 40 70 42 71 41 72 60 73 61 74 65 75
REMARK SMILES IDX 62 76 64 77 63 78 50 79 51 80 55 81 52 82 54 83 53 84
REMARK H PARENT 70 52 48 63
REMARK Flexibility Score: inf
ROOT
ATOM      1  C   UNL A   1      33.296  29.311  25.921  1.00  0.00     0.188 C 
ENDROOT
BRANCH   1   2
ATOM      2  O   UNL A   1      33.898  28.558  24.875  1.00  0.00    -0.376 OA
BRANCH   2   3
ATOM      3  C   UNL A   1      33.352  27.298  24.501  1.00  0.00     0.202 C 
BRANCH   3   4
ATOM      4  C   UNL A   1      33.638  26.110  25.423  1.00  0.00     0.261 C 
BRANCH   4   5
ATOM      5  O   UNL A   1      34.936  25.526  25.209  1.00  0.00    -0.460 OA
BRANCH   5   6
ATOM      6  C   UNL A   1      34.971  24.461  24.382  1.00  0.00     0.338 C 
ATOM      7  O   UNL A   1      34.426  24.367  23.293  1.00  0.00    -0.246 OA
BRANCH   6   8
ATOM      8  C   UNL A   1      35.896  23.432  24.895  1.00  0.00     0.087 C 
ATOM      9  C   UNL A   1      40.178  21.300  26.441  1.00  0.00    -0.026 A 
ATOM     10  C   UNL A   1      39.088  20.891  25.656  1.00  0.00     0.052 A 
ATOM     11  C   UNL A   1      40.072  22.530  27.114  1.00  0.00     0.045 A 
ATOM     12  C   UNL A   1      38.008  21.739  25.421  1.00  0.00     0.128 A 
ATOM     13  C   UNL A   1      38.960  23.361  26.924  1.00  0.00     0.032 A 
ATOM     14  Cl  UNL A   1      41.309  23.099  28.181  1.00  0.00    -0.084 Cl
ATOM     15  C   UNL A   1      37.941  22.979  26.049  1.00  0.00     0.019 A 
ATOM     16  O   UNL A   1      37.118  21.324  24.469  1.00  0.00    -0.475 OA
ATOM     17  C   UNL A   1      36.874  23.895  25.687  1.00  0.00     0.027 C 
ATOM     18  C   UNL A   1      35.837  22.011  24.394  1.00  0.00     0.316 C 
BRANCH   9  19
ATOM     19  C   UNL A   1      41.436  20.455  26.531  1.00  0.00     0.037 C 
BRANCH  19  20
ATOM     20  C   UNL A   1      42.698  20.993  25.826  1.00  0.00     0.008 C 
BRANCH  20  21
ATOM     21  C   UNL A   1      43.594  19.925  25.158  1.00  0.00    -0.017 C 
ATOM     22  C   UNL A   1      45.057  20.355  25.073  1.00  0.00     0.007 C 
ATOM     23  C   UNL A   1      43.472  18.599  25.913  1.00  0.00     0.007 C 
ENDBRANCH  20  21
ENDBRANCH  19  20
ENDBRANCH   9  19
BRANCH  18  24
ATOM     24  C   UNL A   1      34.787  21.097  25.050  1.00  0.00     0.430 C 
ATOM     25  F   UNL A   1      34.989  19.792  24.753  1.00  0.00    -0.167 F 
ATOM     26  F   UNL A   1      34.764  21.223  26.394  1.00  0.00    -0.167 F 
ATOM     27  F   UNL A   1      33.539  21.411  24.618  1.00  0.00    -0.167 F 
ENDBRANCH  18  24
ENDBRANCH   6   8
ENDBRANCH   5   6
ENDBRANCH   4   5
ENDBRANCH   3   4
ENDBRANCH   2   3
ENDBRANCH   1   2
BRANCH   1  28
ATOM     28  C   UNL A   1      34.113  29.709  27.163  1.00  0.00     0.188 C 
BRANCH  28  29
ATOM     29  O   UNL A   1      33.627  30.858  27.831  1.00  0.00    -0.376 OA
BRANCH  29  30
ATOM     30  C   UNL A   1      32.604  31.578  27.161  1.00  0.00     0.202 C 
BRANCH  30  31
ATOM     31  C   UNL A   1      32.893  33.079  27.088  1.00  0.00     0.261 C 
BRANCH  31  32
ATOM     32  O   UNL A   1      32.193  33.873  28.060  1.00  0.00    -0.460 OA
BRANCH  32  33
ATOM     33  C   UNL A   1      32.880  34.863  28.675  1.00  0.00     0.338 C 
ATOM     34  O   UNL A   1      32.512  36.006  28.875  1.00  0.00    -0.246 OA
BRANCH  33  35
ATOM     35  C   UNL A   1      34.087  34.237  29.255  1.00  0.00     0.060 A 
ATOM     36  C   UNL A   1      35.347  34.547  28.737  1.00  0.00     0.016 A 
ATOM     37  C   UNL A   1      33.953  33.273  30.264  1.00  0.00     0.016 A 
ATOM     38  C   UNL A   1      36.475  33.886  29.224  1.00  0.00     0.010 A 
ATOM     39  C   UNL A   1      35.084  32.604  30.742  1.00  0.00     0.010 A 
ATOM     40  C   UNL A   1      36.353  32.911  30.228  1.00  0.00    -0.014 A 
BRANCH  40  41
ATOM     41  C   UNL A   1      37.579  32.329  30.823  1.00  0.00     0.031 A 
ATOM     42  C   UNL A   1      38.026  32.666  32.212  1.00  0.00     0.074 A 
ATOM     43  C   UNL A   1      38.274  31.440  30.088  1.00  0.00     0.049 A 
ATOM     44  N   UNL A   1      39.002  32.137  32.906  1.00  0.00    -0.248 NA
ATOM     45  C   UNL A   1      37.293  33.729  32.914  1.00  0.00     0.031 C 
ATOM     46  C   UNL A   1      37.930  31.036  28.724  1.00  0.00     0.029 A 
ATOM     47  N   UNL A   1      39.394  30.706  30.386  1.00  0.00    -0.354 N 
ATOM     48  C   UNL A   1      38.988  32.780  34.135  1.00  0.00     0.074 A 
ATOM     49  C   UNL A   1      37.935  33.774  34.077  1.00  0.00     0.031 C 
ATOM     50  C   UNL A   1      38.803  30.105  28.312  1.00  0.00     0.029 A 
ATOM     51  C   UNL A   1      39.781  29.866  29.372  1.00  0.00     0.049 A 
ATOM     52  H   UNL A   1      39.872  30.775  31.244  1.00  0.00     0.167 HD
ATOM     53  C   UNL A   1      39.772  32.547  35.215  1.00  0.00     0.031 A 
ATOM     54  C   UNL A   1      40.801  28.990  29.298  1.00  0.00     0.031 A 
ATOM     55  C   UNL A   1      40.832  31.570  35.257  1.00  0.00     0.049 A 
ATOM     56  C   UNL A   1      41.697  28.799  30.488  1.00  0.00     0.074 A 
ATOM     57  C   UNL A   1      41.644  31.232  36.328  1.00  0.00     0.029 A 
ATOM     58  N   UNL A   1      41.240  30.788  34.188  1.00  0.00    -0.354 N 
ATOM     59  N   UNL A   1      41.618  29.355  31.673  1.00  0.00    -0.248 NA
ATOM     60  C   UNL A   1      42.810  27.851  30.339  1.00  0.00     0.031 C 
ATOM     61  C   UNL A   1      42.591  30.305  35.885  1.00  0.00     0.029 A 
ATOM     62  C   UNL A   1      42.322  30.006  34.560  1.00  0.00     0.049 A 
ATOM     63  H   UNL A   1      40.824  30.789  33.295  1.00  0.00     0.167 HD
ATOM     64  C   UNL A   1      42.660  28.815  32.415  1.00  0.00     0.074 A 
ATOM     65  C   UNL A   1      43.344  27.872  31.554  1.00  0.00     0.031 C 
ATOM     66  C   UNL A   1      43.012  29.080  33.696  1.00  0.00     0.031 A 
BRANCH  53  67
ATOM     67  C   UNL A   1      39.526  33.349  36.464  1.00  0.00    -0.014 A 
ATOM     68  C   UNL A   1      40.275  34.512  36.710  1.00  0.00     0.009 A 
ATOM     69  C   UNL A   1      38.655  32.883  37.460  1.00  0.00     0.009 A 
ATOM     70  C   UNL A   1      40.170  35.181  37.931  1.00  0.00     0.001 A 
ATOM     71  C   UNL A   1      38.531  33.569  38.672  1.00  0.00     0.001 A 
ATOM     72  C   UNL A   1      39.297  34.710  38.910  1.00  0.00     0.000 A 
ENDBRANCH  53  67
BRANCH  54  73
ATOM     73  C   UNL A   1      40.994  28.210  28.049  1.00  0.00    -0.014 A 
ATOM     74  C   UNL A   1      40.386  26.952  27.895  1.00  0.00     0.009 A 
ATOM     75  C   UNL A   1      41.837  28.684  27.035  1.00  0.00     0.009 A 
ATOM     76  C   UNL A   1      40.642  26.175  26.764  1.00  0.00     0.001 A 
ATOM     77  C   UNL A   1      42.068  27.916  25.890  1.00  0.00     0.001 A 
ATOM     78  C   UNL A   1      41.480  26.658  25.762  1.00  0.00     0.000 A 
ENDBRANCH  54  73
BRANCH  66  79
ATOM     79  C   UNL A   1      44.200  28.354  34.267  1.00  0.00    -0.014 A 
ATOM     80  C   UNL A   1      45.488  28.892  34.114  1.00  0.00     0.009 A 
ATOM     81  C   UNL A   1      44.058  27.091  34.859  1.00  0.00     0.009 A 
ATOM     82  C   UNL A   1      46.612  28.170  34.522  1.00  0.00     0.001 A 
ATOM     83  C   UNL A   1      45.182  26.384  35.294  1.00  0.00     0.001 A 
ATOM     84  C   UNL A   1      46.458  26.918  35.115  1.00  0.00     0.000 A 
ENDBRANCH  66  79
ENDBRANCH  40  41
ENDBRANCH  33  35
ENDBRANCH  32  33
ENDBRANCH  31  32
ENDBRANCH  30  31
ENDBRANCH  29  30
ENDBRANCH  28  29
ENDBRANCH   1  28
TORSDOF 21
ENDMDL
MODEL 2
REMARK VINA RESULT:      -9.4      4.400      8.536
REMARK SMILES CC(C)CCc1cc2c(cc1Cl)C=C(C(=O)OCCOCCOCCOC(=O)c1ccc(-c3c4nc(c(-c5ccccc5)c5ccc([nH]5)c(-c5ccccc5)c5nc(c(-c6ccccc6)c6ccc3[nH]6)C=C5)C=C4)cc1)[C@H](C(F)(F)F)O2
REMARK SMILES IDX 21 1 20 2 19 3 18 4 17 5 15 6 16 7 14 8 6 9 7 10 11 11 8 12
REMARK SMILES IDX 10 13 12 14 9 15 82 16 13 17 77 18 5 19 4 20 2 21 1 22 3 23
REMARK SMILES IDX 78 24 79 25 80 26 81 27 22 28 23 29 24 30 25 31 26 32 27 33
REMARK SMILES IDX 28 34 29 35 30 36 76 37 31 38 75 39 32 40 33 41 34 42 69 43
REMARK SMILES IDX 35 44 74 45 68 46 70 47 36 48 73 49 67 50 66 51 37 53 59 54
REMARK SMILES IDX 44 55 58 56 45 57 48 58 57 59 71 60 46 61 47 62 56 64 72 65
REMARK SMILES IDX 49 66 38 67 39 68 43 69 40 70 42 71 41 72 60 73 61 74 65 75
REMARK SMILES IDX 62 76 64 77 63 78 50 79 51 80 55 81 52 82 54 83 53 84
REMARK H PARENT 70 52 48 63
REMARK Flexibility Score: inf
ROOT
ATOM      1  C   UNL A   1      33.103  35.839  31.656  1.00  0.00     0.188 C 
ENDROOT
BRANCH   1   2
ATOM      2  O   UNL A   1      34.405  35.679  32.206  1.00  0.00    -0.376 OA
BRANCH   2   3
ATOM      3  C   UNL A   1      34.880  34.380  32.542  1.00  0.00     0.202 C 
BRANCH   3   4
ATOM      4  C   UNL A   1      35.646  33.614  31.459  1.00  0.00     0.261 C 
BRANCH   4   5
ATOM      5  O   UNL A   1      36.944  33.165  31.891  1.00  0.00    -0.460 OA
BRANCH   5   6
ATOM      6  C   UNL A   1      36.947  32.207  32.840  1.00  0.00     0.338 C 
ATOM      7  O   UNL A   1      35.997  31.522  33.185  1.00  0.00    -0.246 OA
BRANCH   6   8
ATOM      8  C   UNL A   1      38.316  31.971  33.337  1.00  0.00     0.087 C 
ATOM      9  C   UNL A   1      42.309  29.507  35.142  1.00  0.00    -0.026 A 
ATOM     10  C   UNL A   1      41.710  30.752  35.392  1.00  0.00     0.052 A 
ATOM     11  C   UNL A   1      41.835  28.763  34.047  1.00  0.00     0.045 A 
ATOM     12  C   UNL A   1      40.584  31.167  34.685  1.00  0.00     0.128 A 
ATOM     13  C   UNL A   1      40.737  29.205  33.298  1.00  0.00     0.032 A 
ATOM     14  Cl  UNL A   1      42.551  27.258  33.584  1.00  0.00    -0.084 Cl
ATOM     15  C   UNL A   1      40.088  30.394  33.639  1.00  0.00     0.019 A 
ATOM     16  O   UNL A   1      39.958  32.286  35.161  1.00  0.00    -0.475 OA
ATOM     17  C   UNL A   1      38.841  30.782  33.006  1.00  0.00     0.027 C 
ATOM     18  C   UNL A   1      38.970  32.926  34.304  1.00  0.00     0.316 C 
BRANCH   9  19
ATOM     19  C   UNL A   1      43.408  28.974  36.044  1.00  0.00     0.037 C 
BRANCH  19  20
ATOM     20  C   UNL A   1      44.864  29.279  35.635  1.00  0.00     0.008 C 
BRANCH  20  21
ATOM     21  C   UNL A   1      45.932  28.320  36.211  1.00  0.00    -0.017 C 
ATOM     22  C   UNL A   1      46.371  27.258  35.204  1.00  0.00     0.007 C 
ATOM     23  C   UNL A   1      47.139  29.122  36.700  1.00  0.00     0.007 C 
ENDBRANCH  20  21
ENDBRANCH  19  20
ENDBRANCH   9  19
BRANCH  18  24
ATOM     24  C   UNL A   1      39.632  34.172  33.692  1.00  0.00     0.430 C 
ATOM     25  F   UNL A   1      39.841  34.038  32.362  1.00  0.00    -0.167 F 
ATOM     26  F   UNL A   1      38.902  35.291  33.891  1.00  0.00    -0.167 F 
ATOM     27  F   UNL A   1      40.842  34.403  34.262  1.00  0.00    -0.167 F 
ENDBRANCH  18  24
ENDBRANCH   6   8
ENDBRANCH   5   6
ENDBRANCH   4   5
ENDBRANCH   3   4
ENDBRANCH   2   3
ENDBRANCH   1   2
BRANCH   1  28
ATOM     28  C   UNL A   1      32.900  35.872  30.131  1.00  0.00     0.188 C 
BRANCH  28  29
ATOM     29  O   UNL A   1      32.851  34.595  29.526  1.00  0.00    -0.376 OA
BRANCH  29  30
ATOM     30  C   UNL A   1      33.768  34.376  28.466  1.00  0.00     0.202 C 
BRANCH  30  31
ATOM     31  C   UNL A   1      33.686  32.955  27.901  1.00  0.00     0.261 C 
BRANCH  31  32
ATOM     32  O   UNL A   1      34.390  31.963  28.666  1.00  0.00    -0.460 OA
BRANCH  32  33
ATOM     33  C   UNL A   1      34.509  30.726  28.133  1.00  0.00     0.338 C 
ATOM     34  O   UNL A   1      33.701  30.139  27.436  1.00  0.00    -0.246 OA
BRANCH  33  35
ATOM     35  C   UNL A   1      35.902  30.296  28.378  1.00  0.00     0.060 A 
ATOM     36  C   UNL A   1      36.811  30.250  27.318  1.00  0.00     0.016 A 
ATOM     37  C   UNL A   1      36.279  29.860  29.656  1.00  0.00     0.016 A 
ATOM     38  C   UNL A   1      38.098  29.758  27.534  1.00  0.00     0.010 A 
ATOM     39  C   UNL A   1      37.567  29.357  29.867  1.00  0.00     0.010 A 
ATOM     40  C   UNL A   1      38.485  29.307  28.807  1.00  0.00    -0.014 A 
BRANCH  40  41
ATOM     41  C   UNL A   1      39.898  28.923  29.038  1.00  0.00     0.031 A 
ATOM     42  C   UNL A   1      40.867  29.833  29.728  1.00  0.00     0.074 A 
ATOM     43  C   UNL A   1      40.289  27.697  28.644  1.00  0.00     0.049 A 
ATOM     44  N   UNL A   1      42.093  29.580  30.112  1.00  0.00    -0.248 NA
ATOM     45  C   UNL A   1      40.412  31.198  30.025  1.00  0.00     0.031 C 
ATOM     46  C   UNL A   1      39.430  26.726  27.963  1.00  0.00     0.029 A 
ATOM     47  N   UNL A   1      41.492  27.051  28.773  1.00  0.00    -0.354 N 
ATOM     48  C   UNL A   1      42.550  30.741  30.719  1.00  0.00     0.074 A 
ATOM     49  C   UNL A   1      41.485  31.718  30.611  1.00  0.00     0.031 C 
ATOM     50  C   UNL A   1      40.124  25.597  27.760  1.00  0.00     0.029 A 
ATOM     51  C   UNL A   1      41.482  25.772  28.272  1.00  0.00     0.049 A 
ATOM     52  H   UNL A   1      42.285  27.464  29.185  1.00  0.00     0.167 HD
ATOM     53  C   UNL A   1      43.743  30.960  31.323  1.00  0.00     0.031 A 
ATOM     54  C   UNL A   1      42.448  24.836  28.233  1.00  0.00     0.031 A 
ATOM     55  C   UNL A   1      44.805  29.988  31.407  1.00  0.00     0.049 A 
ATOM     56  C   UNL A   1      43.785  25.130  28.854  1.00  0.00     0.074 A 
ATOM     57  C   UNL A   1      46.029  30.109  32.046  1.00  0.00     0.029 A 
ATOM     58  N   UNL A   1      44.783  28.730  30.826  1.00  0.00    -0.354 N 
ATOM     59  N   UNL A   1      44.172  26.203  29.498  1.00  0.00    -0.248 NA
ATOM     60  C   UNL A   1      44.809  24.080  28.757  1.00  0.00     0.031 C 
ATOM     61  C   UNL A   1      46.775  28.957  31.786  1.00  0.00     0.029 A 
ATOM     62  C   UNL A   1      45.989  28.085  31.051  1.00  0.00     0.049 A 
ATOM     63  H   UNL A   1      44.024  28.350  30.327  1.00  0.00     0.167 HD
ATOM     64  C   UNL A   1      45.480  25.955  29.896  1.00  0.00     0.074 A 
ATOM     65  C   UNL A   1      45.811  24.621  29.439  1.00  0.00     0.031 C 
ATOM     66  C   UNL A   1      46.323  26.764  30.581  1.00  0.00     0.031 A 
BRANCH  53  67
ATOM     67  C   UNL A   1      43.985  32.301  31.961  1.00  0.00    -0.014 A 
ATOM     68  C   UNL A   1      43.852  32.452  33.351  1.00  0.00     0.009 A 
ATOM     69  C   UNL A   1      44.209  33.442  31.175  1.00  0.00     0.009 A 
ATOM     70  C   UNL A   1      43.921  33.717  33.939  1.00  0.00     0.001 A 
ATOM     71  C   UNL A   1      44.304  34.704  31.769  1.00  0.00     0.001 A 
ATOM     72  C   UNL A   1      44.149  34.841  33.148  1.00  0.00     0.000 A 
ENDBRANCH  53  67
BRANCH  54  73
ATOM     73  C   UNL A   1      42.156  23.521  27.607  1.00  0.00    -0.014 A 
ATOM     74  C   UNL A   1      41.521  22.507  28.344  1.00  0.00     0.009 A 
ATOM     75  C   UNL A   1      42.568  23.250  26.295  1.00  0.00     0.009 A 
ATOM     76  C   UNL A   1      41.333  21.241  27.789  1.00  0.00     0.001 A 
ATOM     77  C   UNL A   1      42.350  21.990  25.732  1.00  0.00     0.001 A 
ATOM     78  C   UNL A   1      41.744  20.984  26.483  1.00  0.00     0.000 A 
ENDBRANCH  54  73
BRANCH  66  79
ATOM     79  C   UNL A   1      47.705  26.250  30.882  1.00  0.00    -0.014 A 
ATOM     80  C   UNL A   1      48.657  26.155  29.853  1.00  0.00     0.009 A 
ATOM     81  C   UNL A   1      48.032  25.761  32.155  1.00  0.00     0.009 A 
ATOM     82  C   UNL A   1      49.898  25.560  30.088  1.00  0.00     0.001 A 
ATOM     83  C   UNL A   1      49.287  25.194  32.395  1.00  0.00     0.001 A 
ATOM     84  C   UNL A   1      50.214  25.083  31.359  1.00  0.00     0.000 A 
ENDBRANCH  66  79
ENDBRANCH  40  41
ENDBRANCH  33  35
ENDBRANCH  32  33
ENDBRANCH  31  32
ENDBRANCH  30  31
ENDBRANCH  29  30
ENDBRANCH  28  29
ENDBRANCH   1  28
TORSDOF 21
ENDMDL
MODEL 3
REMARK VINA RESULT:      -9.4      4.614     10.156
REMARK SMILES CC(C)CCc1cc2c(cc1Cl)C=C(C(=O)OCCOCCOCCOC(=O)c1ccc(-c3c4nc(c(-c5ccccc5)c5ccc([nH]5)c(-c5ccccc5)c5nc(c(-c6ccccc6)c6ccc3[nH]6)C=C5)C=C4)cc1)[C@H](C(F)(F)F)O2
REMARK SMILES IDX 21 1 20 2 19 3 18 4 17 5 15 6 16 7 14 8 6 9 7 10 11 11 8 12
REMARK SMILES IDX 10 13 12 14 9 15 82 16 13 17 77 18 5 19 4 20 2 21 1 22 3 23
REMARK SMILES IDX 78 24 79 25 80 26 81 27 22 28 23 29 24 30 25 31 26 32 27 33
REMARK SMILES IDX 28 34 29 35 30 36 76 37 31 38 75 39 32 40 33 41 34 42 69 43
REMARK SMILES IDX 35 44 74 45 68 46 70 47 36 48 73 49 67 50 66 51 37 53 59 54
REMARK SMILES IDX 44 55 58 56 45 57 48 58 57 59 71 60 46 61 47 62 56 64 72 65
REMARK SMILES IDX 49 66 38 67 39 68 43 69 40 70 42 71 41 72 60 73 61 74 65 75
REMARK SMILES IDX 62 76 64 77 63 78 50 79 51 80 55 81 52 82 54 83 53 84
REMARK H PARENT 70 52 48 63
REMARK Flexibility Score: inf
ROOT
ATOM      1  C   UNL A   1      32.622  36.098  31.735  1.00  0.00     0.188 C 
ENDROOT
BRANCH   1   2
ATOM      2  O   UNL A   1      33.468  35.853  32.852  1.00  0.00    -0.376 OA
BRANCH   2   3
ATOM      3  C   UNL A   1      34.016  34.556  33.058  1.00  0.00     0.202 C 
BRANCH   3   4
ATOM      4  C   UNL A   1      35.529  34.399  32.881  1.00  0.00     0.261 C 
BRANCH   4   5
ATOM      5  O   UNL A   1      36.039  33.166  33.421  1.00  0.00    -0.460 OA
BRANCH   5   6
ATOM      6  C   UNL A   1      36.655  33.260  34.618  1.00  0.00     0.338 C 
ATOM      7  O   UNL A   1      36.137  33.569  35.679  1.00  0.00    -0.246 OA
BRANCH   6   8
ATOM      8  C   UNL A   1      38.050  32.790  34.524  1.00  0.00     0.087 C 
ATOM      9  C   UNL A   1      41.972  29.645  34.566  1.00  0.00    -0.026 A 
ATOM     10  C   UNL A   1      41.731  30.944  35.042  1.00  0.00     0.052 A 
ATOM     11  C   UNL A   1      40.990  29.058  33.747  1.00  0.00     0.045 A 
ATOM     12  C   UNL A   1      40.502  31.569  34.847  1.00  0.00     0.128 A 
ATOM     13  C   UNL A   1      39.774  29.708  33.503  1.00  0.00     0.032 A 
ATOM     14  Cl  UNL A   1      41.211  27.501  33.028  1.00  0.00    -0.084 Cl
ATOM     15  C   UNL A   1      39.516  30.953  34.082  1.00  0.00     0.019 A 
ATOM     16  O   UNL A   1      40.305  32.732  35.540  1.00  0.00    -0.475 OA
ATOM     17  C   UNL A   1      38.201  31.564  34.003  1.00  0.00     0.027 C 
ATOM     18  C   UNL A   1      39.178  33.568  35.154  1.00  0.00     0.316 C 
BRANCH   9  19
ATOM     19  C   UNL A   1      43.234  28.895  34.949  1.00  0.00     0.037 C 
BRANCH  19  20
ATOM     20  C   UNL A   1      43.120  27.860  36.088  1.00  0.00     0.008 C 
BRANCH  20  21
ATOM     21  C   UNL A   1      44.130  26.690  36.028  1.00  0.00    -0.017 C 
ATOM     22  C   UNL A   1      44.247  25.948  37.358  1.00  0.00     0.007 C 
ATOM     23  C   UNL A   1      43.737  25.722  34.910  1.00  0.00     0.007 C 
ENDBRANCH  20  21
ENDBRANCH  19  20
ENDBRANCH   9  19
BRANCH  18  24
ATOM     24  C   UNL A   1      39.739  34.744  34.336  1.00  0.00     0.430 C 
ATOM     25  F   UNL A   1      39.579  35.929  34.969  1.00  0.00    -0.167 F 
ATOM     26  F   UNL A   1      41.050  34.594  34.053  1.00  0.00    -0.167 F 
ATOM     27  F   UNL A   1      39.102  34.846  33.141  1.00  0.00    -0.167 F 
ENDBRANCH  18  24
ENDBRANCH   6   8
ENDBRANCH   5   6
ENDBRANCH   4   5
ENDBRANCH   3   4
ENDBRANCH   2   3
ENDBRANCH   1   2
BRANCH   1  28
ATOM     28  C   UNL A   1      33.133  35.857  30.304  1.00  0.00     0.188 C 
BRANCH  28  29
ATOM     29  O   UNL A   1      33.438  34.505  30.018  1.00  0.00    -0.376 OA
BRANCH  29  30
ATOM     30  C   UNL A   1      34.400  34.290  28.997  1.00  0.00     0.202 C 
BRANCH  30  31
ATOM     31  C   UNL A   1      34.148  32.998  28.215  1.00  0.00     0.261 C 
BRANCH  31  32
ATOM     32  O   UNL A   1      34.506  31.794  28.915  1.00  0.00    -0.460 OA
BRANCH  32  33
ATOM     33  C   UNL A   1      34.666  30.667  28.184  1.00  0.00     0.338 C 
ATOM     34  O   UNL A   1      33.919  30.225  27.331  1.00  0.00    -0.246 OA
BRANCH  33  35
ATOM     35  C   UNL A   1      36.034  30.180  28.462  1.00  0.00     0.060 A 
ATOM     36  C   UNL A   1      36.368  29.743  29.747  1.00  0.00     0.016 A 
ATOM     37  C   UNL A   1      37.010  30.239  27.457  1.00  0.00     0.016 A 
ATOM     38  C   UNL A   1      37.682  29.371  30.029  1.00  0.00     0.010 A 
ATOM     39  C   UNL A   1      38.329  29.876  27.747  1.00  0.00     0.010 A 
ATOM     40  C   UNL A   1      38.672  29.435  29.034  1.00  0.00    -0.014 A 
BRANCH  40  41
ATOM     41  C   UNL A   1      40.023  28.901  29.324  1.00  0.00     0.031 A 
ATOM     42  C   UNL A   1      40.439  27.523  28.911  1.00  0.00     0.074 A 
ATOM     43  C   UNL A   1      40.901  29.713  29.942  1.00  0.00     0.049 A 
ATOM     44  N   UNL A   1      41.625  26.973  28.982  1.00  0.00    -0.248 NA
ATOM     45  C   UNL A   1      39.401  26.648  28.349  1.00  0.00     0.031 C 
ATOM     46  C   UNL A   1      40.605  31.076  30.389  1.00  0.00     0.029 A 
ATOM     47  N   UNL A   1      42.216  29.524  30.284  1.00  0.00    -0.354 N 
ATOM     48  C   UNL A   1      41.487  25.698  28.453  1.00  0.00     0.074 A 
ATOM     49  C   UNL A   1      40.090  25.537  28.106  1.00  0.00     0.031 C 
ATOM     50  C   UNL A   1      41.714  31.611  30.919  1.00  0.00     0.029 A 
ATOM     51  C   UNL A   1      42.790  30.623  30.873  1.00  0.00     0.049 A 
ATOM     52  H   UNL A   1      42.700  28.683  30.121  1.00  0.00     0.167 HD
ATOM     53  C   UNL A   1      42.445  24.758  28.262  1.00  0.00     0.031 A 
ATOM     54  C   UNL A   1      44.044  30.825  31.321  1.00  0.00     0.031 A 
ATOM     55  C   UNL A   1      43.830  24.919  28.630  1.00  0.00     0.049 A 
ATOM     56  C   UNL A   1      45.070  29.741  31.155  1.00  0.00     0.074 A 
ATOM     57  C   UNL A   1      44.879  24.037  28.426  1.00  0.00     0.029 A 
ATOM     58  N   UNL A   1      44.358  26.018  29.289  1.00  0.00    -0.354 N 
ATOM     59  N   UNL A   1      44.943  28.573  30.576  1.00  0.00    -0.248 NA
ATOM     60  C   UNL A   1      46.413  30.008  31.688  1.00  0.00     0.031 C 
ATOM     61  C   UNL A   1      46.021  24.568  29.028  1.00  0.00     0.029 A 
ATOM     62  C   UNL A   1      45.705  25.815  29.541  1.00  0.00     0.049 A 
ATOM     63  H   UNL A   1      43.851  26.824  29.542  1.00  0.00     0.167 HD
ATOM     64  C   UNL A   1      46.191  27.970  30.661  1.00  0.00     0.074 A 
ATOM     65  C   UNL A   1      47.067  28.910  31.329  1.00  0.00     0.031 C 
ATOM     66  C   UNL A   1      46.571  26.746  30.222  1.00  0.00     0.031 A 
BRANCH  53  67
ATOM     67  C   UNL A   1      42.051  23.458  27.614  1.00  0.00    -0.014 A 
ATOM     68  C   UNL A   1      41.632  22.378  28.408  1.00  0.00     0.009 A 
ATOM     69  C   UNL A   1      42.226  23.258  26.237  1.00  0.00     0.009 A 
ATOM     70  C   UNL A   1      41.413  21.121  27.840  1.00  0.00     0.001 A 
ATOM     71  C   UNL A   1      41.980  22.006  25.666  1.00  0.00     0.001 A 
ATOM     72  C   UNL A   1      41.584  20.937  26.470  1.00  0.00     0.000 A 
ENDBRANCH  53  67
BRANCH  54  73
ATOM     73  C   UNL A   1      44.388  32.131  31.939  1.00  0.00    -0.014 A 
ATOM     74  C   UNL A   1      44.205  32.338  33.317  1.00  0.00     0.009 A 
ATOM     75  C   UNL A   1      44.836  33.197  31.147  1.00  0.00     0.009 A 
ATOM     76  C   UNL A   1      44.436  33.593  33.882  1.00  0.00     0.001 A 
ATOM     77  C   UNL A   1      45.097  34.445  31.722  1.00  0.00     0.001 A 
ATOM     78  C   UNL A   1      44.885  34.644  33.086  1.00  0.00     0.000 A 
ENDBRANCH  54  73
BRANCH  66  79
ATOM     79  C   UNL A   1      47.999  26.326  30.448  1.00  0.00    -0.014 A 
ATOM     80  C   UNL A   1      48.392  25.830  31.701  1.00  0.00     0.009 A 
ATOM     81  C   UNL A   1      48.974  26.521  29.459  1.00  0.00     0.009 A 
ATOM     82  C   UNL A   1      49.736  25.559  31.967  1.00  0.00     0.001 A 
ATOM     83  C   UNL A   1      50.313  26.220  29.718  1.00  0.00     0.001 A 
ATOM     84  C   UNL A   1      50.695  25.751  30.974  1.00  0.00     0.000 A 
ENDBRANCH  66  79
ENDBRANCH  40  41
ENDBRANCH  33  35
ENDBRANCH  32  33
ENDBRANCH  31  32
ENDBRANCH  30  31
ENDBRANCH  29  30
ENDBRANCH  28  29
ENDBRANCH   1  28
TORSDOF 21
ENDMDL
