MODEL 1
REMARK VINA RESULT:     -10.5      0.000      0.000
REMARK SMILES Cc1ccccc1C[C@H](CCSc1ccccc1)C(=O)OCCOCCOCCOC(=O)c1ccc(-c2c3nc(c(-c4ccccc4)c4ccc([nH]4)c(-c4ccccc4)c4nc(c(-c5ccccc5)c5ccc2[nH]5)C=C4)C=C3)cc1
REMARK SMILES IDX 25 1 24 2 23 3 22 4 21 5 19 6 20 7 9 8 8 9 7 10 1 11 2 12
REMARK SMILES IDX 3 13 4 14 6 15 5 16 10 17 11 18 12 19 13 20 14 21 18 22
REMARK SMILES IDX 15 23 17 24 16 25 26 26 27 27 28 28 29 29 30 30 31 31 32 32
REMARK SMILES IDX 33 33 34 34 80 35 35 36 79 37 36 38 37 39 38 40 73 41 39 42
REMARK SMILES IDX 78 43 72 44 74 45 40 46 77 47 71 48 70 49 41 51 63 52 48 53
REMARK SMILES IDX 62 54 49 55 52 56 61 57 75 58 50 59 51 60 60 62 76 63 53 64
REMARK SMILES IDX 42 65 43 66 47 67 44 68 46 69 45 70 64 71 65 72 69 73 66 74
REMARK SMILES IDX 68 75 67 76 54 77 55 78 59 79 56 80 58 81 57 82
REMARK H PARENT 74 50 52 61
REMARK Flexibility Score: inf
ROOT
ATOM      1  C   UNL A   1      35.801  23.387  24.950  1.00  0.00     0.188 C 
ENDROOT
BRANCH   1   2
ATOM      2  O   UNL A   1      34.596  23.452  25.689  1.00  0.00    -0.376 OA
BRANCH   2   3
ATOM      3  C   UNL A   1      34.682  22.703  26.909  1.00  0.00     0.202 C 
BRANCH   3   4
ATOM      4  C   UNL A   1      33.323  22.241  27.547  1.00  0.00     0.261 C 
BRANCH   4   5
ATOM      5  O   UNL A   1      31.919  22.992  27.656  1.00  0.00    -0.463 OA
BRANCH   5   6
ATOM      6  C   UNL A   1      30.896  23.441  26.815  1.00  0.00     0.309 C 
ATOM      7  O   UNL A   1      29.781  23.447  27.335  1.00  0.00    -0.252 OA
BRANCH   6   8
ATOM      8  C   UNL A   1      30.989  24.282  25.376  1.00  0.00     0.104 C 
BRANCH   8   9
ATOM      9  C   UNL A   1      30.514  25.808  25.263  1.00  0.00     0.051 C 
BRANCH   9  10
ATOM     10  C   UNL A   1      31.555  26.816  25.663  1.00  0.00    -0.044 A 
ATOM     11  C   UNL A   1      33.303  26.619  23.798  1.00  0.00     0.044 C 
ATOM     12  C   UNL A   1      32.863  26.993  25.178  1.00  0.00    -0.048 A 
ATOM     13  C   UNL A   1      33.804  27.692  25.966  1.00  0.00     0.004 A 
ATOM     14  C   UNL A   1      33.438  28.239  27.174  1.00  0.00     0.000 A 
ATOM     15  C   UNL A   1      31.175  27.577  26.734  1.00  0.00     0.004 A 
ATOM     16  C   UNL A   1      32.104  28.227  27.495  1.00  0.00     0.000 A 
ENDBRANCH   9  10
ENDBRANCH   8   9
BRANCH   8  17
ATOM     17  C   UNL A   1      30.923  23.676  23.947  1.00  0.00     0.027 C 
BRANCH  17  18
ATOM     18  C   UNL A   1      32.161  22.853  23.514  1.00  0.00     0.076 C 
BRANCH  18  19
ATOM     19  S   UNL A   1      31.788  21.441  22.398  1.00  0.00    -0.126 SA
BRANCH  19  20
ATOM     20  C   UNL A   1      32.497  20.029  23.239  1.00  0.00     0.007 A 
ATOM     21  C   UNL A   1      32.382  18.748  22.687  1.00  0.00     0.015 A 
ATOM     22  C   UNL A   1      33.279  20.189  24.386  1.00  0.00     0.015 A 
ATOM     23  C   UNL A   1      32.920  17.632  23.329  1.00  0.00     0.001 A 
ATOM     24  C   UNL A   1      33.894  19.081  24.983  1.00  0.00     0.001 A 
ATOM     25  C   UNL A   1      33.695  17.801  24.468  1.00  0.00     0.000 A 
ENDBRANCH  19  20
ENDBRANCH  18  19
ENDBRANCH  17  18
ENDBRANCH   8  17
ENDBRANCH   6   8
ENDBRANCH   5   6
ENDBRANCH   4   5
ENDBRANCH   3   4
ENDBRANCH   2   3
ENDBRANCH   1   2
BRANCH   1  26
ATOM     26  C   UNL A   1      37.020  23.415  25.883  1.00  0.00     0.188 C 
BRANCH  26  27
ATOM     27  O   UNL A   1      37.947  22.360  25.649  1.00  0.00    -0.376 OA
BRANCH  27  28
ATOM     28  C   UNL A   1      37.482  21.252  24.884  1.00  0.00     0.202 C 
BRANCH  28  29
ATOM     29  C   UNL A   1      38.459  20.093  25.115  1.00  0.00     0.261 C 
BRANCH  29  30
ATOM     30  O   UNL A   1      39.429  20.467  26.124  1.00  0.00    -0.460 OA
BRANCH  30  31
ATOM     31  C   UNL A   1      40.653  19.896  25.977  1.00  0.00     0.338 C 
ATOM     32  O   UNL A   1      40.862  18.725  25.677  1.00  0.00    -0.246 OA
BRANCH  31  33
ATOM     33  C   UNL A   1      41.670  20.834  26.553  1.00  0.00     0.060 A 
ATOM     34  C   UNL A   1      41.781  20.883  27.919  1.00  0.00     0.016 A 
ATOM     35  C   UNL A   1      42.276  21.869  25.832  1.00  0.00     0.016 A 
ATOM     36  C   UNL A   1      42.294  22.061  28.509  1.00  0.00     0.010 A 
ATOM     37  C   UNL A   1      42.757  23.052  26.474  1.00  0.00     0.010 A 
ATOM     38  C   UNL A   1      42.673  23.248  27.858  1.00  0.00    -0.014 A 
BRANCH  38  39
ATOM     39  C   UNL A   1      42.817  24.721  28.443  1.00  0.00     0.031 A 
ATOM     40  C   UNL A   1      41.589  25.578  28.286  1.00  0.00     0.074 A 
ATOM     41  C   UNL A   1      43.835  25.529  29.003  1.00  0.00     0.049 A 
ATOM     42  N   UNL A   1      41.610  26.864  28.446  1.00  0.00    -0.248 NA
ATOM     43  C   UNL A   1      40.303  25.091  27.804  1.00  0.00     0.031 C 
ATOM     44  C   UNL A   1      43.572  26.497  30.099  1.00  0.00     0.029 A 
ATOM     45  N   UNL A   1      45.231  25.756  28.858  1.00  0.00    -0.354 N 
ATOM     46  C   UNL A   1      40.362  27.360  28.285  1.00  0.00     0.074 A 
ATOM     47  C   UNL A   1      39.578  26.215  27.844  1.00  0.00     0.031 C 
ATOM     48  C   UNL A   1      44.638  27.278  30.345  1.00  0.00     0.029 A 
ATOM     49  C   UNL A   1      45.730  26.920  29.471  1.00  0.00     0.049 A 
ATOM     50  H   UNL A   1      45.813  25.139  28.361  1.00  0.00     0.167 HD
ATOM     51  C   UNL A   1      40.092  28.651  28.625  1.00  0.00     0.031 A 
ATOM     52  C   UNL A   1      46.874  27.636  29.205  1.00  0.00     0.031 A 
ATOM     53  C   UNL A   1      41.205  29.411  29.225  1.00  0.00     0.049 A 
ATOM     54  C   UNL A   1      46.713  29.155  29.303  1.00  0.00     0.074 A 
ATOM     55  C   UNL A   1      41.635  29.514  30.540  1.00  0.00     0.029 A 
ATOM     56  N   UNL A   1      42.163  30.093  28.470  1.00  0.00    -0.354 N 
ATOM     57  N   UNL A   1      45.654  29.761  29.777  1.00  0.00    -0.248 NA
ATOM     58  C   UNL A   1      47.614  30.098  28.627  1.00  0.00     0.031 C 
ATOM     59  C   UNL A   1      42.801  30.318  30.585  1.00  0.00     0.029 A 
ATOM     60  C   UNL A   1      43.131  30.697  29.295  1.00  0.00     0.049 A 
ATOM     61  H   UNL A   1      42.160  30.146  27.487  1.00  0.00     0.167 HD
ATOM     62  C   UNL A   1      45.523  30.966  29.096  1.00  0.00     0.074 A 
ATOM     63  C   UNL A   1      46.867  31.216  28.597  1.00  0.00     0.031 C 
ATOM     64  C   UNL A   1      44.281  31.471  28.752  1.00  0.00     0.031 A 
BRANCH  51  65
ATOM     65  C   UNL A   1      38.648  29.033  28.783  1.00  0.00    -0.014 A 
ATOM     66  C   UNL A   1      37.985  29.649  27.710  1.00  0.00     0.009 A 
ATOM     67  C   UNL A   1      37.950  28.936  29.999  1.00  0.00     0.009 A 
ATOM     68  C   UNL A   1      36.745  30.268  27.885  1.00  0.00     0.001 A 
ATOM     69  C   UNL A   1      36.738  29.606  30.195  1.00  0.00     0.001 A 
ATOM     70  C   UNL A   1      36.145  30.288  29.139  1.00  0.00     0.000 A 
ENDBRANCH  51  65
BRANCH  52  71
ATOM     71  C   UNL A   1      47.993  26.999  28.423  1.00  0.00    -0.014 A 
ATOM     72  C   UNL A   1      49.027  26.348  29.118  1.00  0.00     0.009 A 
ATOM     73  C   UNL A   1      47.978  26.840  27.030  1.00  0.00     0.009 A 
ATOM     74  C   UNL A   1      49.876  25.425  28.482  1.00  0.00     0.001 A 
ATOM     75  C   UNL A   1      48.814  25.901  26.392  1.00  0.00     0.001 A 
ATOM     76  C   UNL A   1      49.735  25.162  27.124  1.00  0.00     0.000 A 
ENDBRANCH  52  71
BRANCH  64  77
ATOM     77  C   UNL A   1      44.010  32.639  27.788  1.00  0.00    -0.014 A 
ATOM     78  C   UNL A   1      43.614  33.940  28.145  1.00  0.00     0.009 A 
ATOM     79  C   UNL A   1      44.188  32.440  26.399  1.00  0.00     0.009 A 
ATOM     80  C   UNL A   1      43.432  34.968  27.201  1.00  0.00     0.001 A 
ATOM     81  C   UNL A   1      44.035  33.465  25.451  1.00  0.00     0.001 A 
ATOM     82  C   UNL A   1      43.654  34.734  25.853  1.00  0.00     0.000 A 
ENDBRANCH  64  77
ENDBRANCH  38  39
ENDBRANCH  31  33
ENDBRANCH  30  31
ENDBRANCH  29  30
ENDBRANCH  28  29
ENDBRANCH  27  28
ENDBRANCH  26  27
ENDBRANCH   1  26
TORSDOF 23
ENDMDL
MODEL 2
REMARK VINA RESULT:      -9.4      4.159      8.885
REMARK SMILES Cc1ccccc1C[C@H](CCSc1ccccc1)C(=O)OCCOCCOCCOC(=O)c1ccc(-c2c3nc(c(-c4ccccc4)c4ccc([nH]4)c(-c4ccccc4)c4nc(c(-c5ccccc5)c5ccc2[nH]5)C=C4)C=C3)cc1
REMARK SMILES IDX 25 1 24 2 23 3 22 4 21 5 19 6 20 7 9 8 8 9 7 10 1 11 2 12
REMARK SMILES IDX 3 13 4 14 6 15 5 16 10 17 11 18 12 19 13 20 14 21 18 22
REMARK SMILES IDX 15 23 17 24 16 25 26 26 27 27 28 28 29 29 30 30 31 31 32 32
REMARK SMILES IDX 33 33 34 34 80 35 35 36 79 37 36 38 37 39 38 40 73 41 39 42
REMARK SMILES IDX 78 43 72 44 74 45 40 46 77 47 71 48 70 49 41 51 63 52 48 53
REMARK SMILES IDX 62 54 49 55 52 56 61 57 75 58 50 59 51 60 60 62 76 63 53 64
REMARK SMILES IDX 42 65 43 66 47 67 44 68 46 69 45 70 64 71 65 72 69 73 66 74
REMARK SMILES IDX 68 75 67 76 54 77 55 78 59 79 56 80 58 81 57 82
REMARK H PARENT 74 50 52 61
REMARK Flexibility Score: inf
ROOT
ATOM      1  C   UNL A   1      33.067  29.364  24.679  1.00  0.00     0.188 C 
ENDROOT
BRANCH   1   2
ATOM      2  O   UNL A   1      31.984  28.630  24.143  1.00  0.00    -0.376 OA
BRANCH   2   3
ATOM      3  C   UNL A   1      32.086  28.501  22.718  1.00  0.00     0.202 C 
BRANCH   3   4
ATOM      4  C   UNL A   1      33.407  27.854  22.164  1.00  0.00     0.261 C 
BRANCH   4   5
ATOM      5  O   UNL A   1      33.926  26.347  22.216  1.00  0.00    -0.463 OA
BRANCH   5   6
ATOM      6  C   UNL A   1      34.002  25.288  23.128  1.00  0.00     0.309 C 
ATOM      7  O   UNL A   1      34.367  25.618  24.255  1.00  0.00    -0.252 OA
BRANCH   6   8
ATOM      8  C   UNL A   1      33.359  23.751  23.034  1.00  0.00     0.104 C 
BRANCH   8   9
ATOM      9  C   UNL A   1      31.809  23.470  23.327  1.00  0.00     0.051 C 
BRANCH   9  10
ATOM     10  C   UNL A   1      31.116  24.554  24.105  1.00  0.00    -0.044 A 
ATOM     11  C   UNL A   1      32.060  24.268  26.472  1.00  0.00     0.044 C 
ATOM     12  C   UNL A   1      31.031  24.744  25.496  1.00  0.00    -0.048 A 
ATOM     13  C   UNL A   1      29.997  25.550  26.021  1.00  0.00     0.004 A 
ATOM     14  C   UNL A   1      29.110  26.186  25.184  1.00  0.00     0.000 A 
ATOM     15  C   UNL A   1      30.379  25.390  23.312  1.00  0.00     0.004 A 
ATOM     16  C   UNL A   1      29.370  26.145  23.838  1.00  0.00     0.000 A 
ENDBRANCH   9  10
ENDBRANCH   8   9
BRANCH   8  17
ATOM     17  C   UNL A   1      34.118  22.416  23.271  1.00  0.00     0.027 C 
BRANCH  17  18
ATOM     18  C   UNL A   1      33.326  21.324  24.031  1.00  0.00     0.076 C 
BRANCH  18  19
ATOM     19  S   UNL A   1      33.897  21.024  25.752  1.00  0.00    -0.126 SA
BRANCH  19  20
ATOM     20  C   UNL A   1      35.555  21.696  25.779  1.00  0.00     0.007 A 
ATOM     21  C   UNL A   1      36.635  20.931  25.321  1.00  0.00     0.015 A 
ATOM     22  C   UNL A   1      35.789  23.027  26.135  1.00  0.00     0.015 A 
ATOM     23  C   UNL A   1      37.936  21.432  25.339  1.00  0.00     0.001 A 
ATOM     24  C   UNL A   1      37.084  23.560  26.071  1.00  0.00     0.001 A 
ATOM     25  C   UNL A   1      38.160  22.756  25.696  1.00  0.00     0.000 A 
ENDBRANCH  19  20
ENDBRANCH  18  19
ENDBRANCH  17  18
ENDBRANCH   8  17
ENDBRANCH   6   8
ENDBRANCH   5   6
ENDBRANCH   4   5
ENDBRANCH   3   4
ENDBRANCH   2   3
ENDBRANCH   1   2
BRANCH   1  26
ATOM     26  C   UNL A   1      33.601  28.702  25.957  1.00  0.00     0.188 C 
BRANCH  26  27
ATOM     27  O   UNL A   1      33.538  29.538  27.108  1.00  0.00    -0.376 OA
BRANCH  27  28
ATOM     28  C   UNL A   1      32.601  30.611  27.074  1.00  0.00     0.202 C 
BRANCH  28  29
ATOM     29  C   UNL A   1      33.389  31.913  27.264  1.00  0.00     0.261 C 
BRANCH  29  30
ATOM     30  O   UNL A   1      33.306  32.337  28.647  1.00  0.00    -0.460 OA
BRANCH  30  31
ATOM     31  C   UNL A   1      33.498  33.666  28.849  1.00  0.00     0.338 C 
ATOM     32  O   UNL A   1      32.853  34.567  28.323  1.00  0.00    -0.246 OA
BRANCH  31  33
ATOM     33  C   UNL A   1      34.812  33.840  29.548  1.00  0.00     0.060 A 
ATOM     34  C   UNL A   1      35.900  34.158  28.776  1.00  0.00     0.016 A 
ATOM     35  C   UNL A   1      35.068  33.400  30.852  1.00  0.00     0.016 A 
ATOM     36  C   UNL A   1      37.186  33.818  29.257  1.00  0.00     0.010 A 
ATOM     37  C   UNL A   1      36.385  33.046  31.281  1.00  0.00     0.010 A 
ATOM     38  C   UNL A   1      37.501  33.131  30.441  1.00  0.00    -0.014 A 
BRANCH  38  39
ATOM     39  C   UNL A   1      38.822  32.330  30.824  1.00  0.00     0.031 A 
ATOM     40  C   UNL A   1      39.023  31.050  30.057  1.00  0.00     0.074 A 
ATOM     41  C   UNL A   1      39.858  32.420  31.785  1.00  0.00     0.049 A 
ATOM     42  N   UNL A   1      39.876  30.144  30.420  1.00  0.00    -0.248 NA
ATOM     43  C   UNL A   1      38.197  30.630  28.932  1.00  0.00     0.031 C 
ATOM     44  C   UNL A   1      41.266  32.060  31.475  1.00  0.00     0.029 A 
ATOM     45  N   UNL A   1      40.038  32.804  33.142  1.00  0.00    -0.354 N 
ATOM     46  C   UNL A   1      39.868  29.132  29.524  1.00  0.00     0.074 A 
ATOM     47  C   UNL A   1      38.770  29.459  28.625  1.00  0.00     0.031 C 
ATOM     48  C   UNL A   1      42.036  32.049  32.577  1.00  0.00     0.029 A 
ATOM     49  C   UNL A   1      41.253  32.412  33.735  1.00  0.00     0.049 A 
ATOM     50  H   UNL A   1      39.356  33.311  33.637  1.00  0.00     0.167 HD
ATOM     51  C   UNL A   1      40.836  28.174  29.568  1.00  0.00     0.031 A 
ATOM     52  C   UNL A   1      41.576  32.252  35.062  1.00  0.00     0.031 A 
ATOM     53  C   UNL A   1      41.889  28.362  30.584  1.00  0.00     0.049 A 
ATOM     54  C   UNL A   1      42.485  31.057  35.357  1.00  0.00     0.074 A 
ATOM     55  C   UNL A   1      43.077  29.076  30.544  1.00  0.00     0.029 A 
ATOM     56  N   UNL A   1      41.769  27.921  31.904  1.00  0.00    -0.354 N 
ATOM     57  N   UNL A   1      43.083  30.334  34.444  1.00  0.00    -0.248 NA
ATOM     58  C   UNL A   1      42.569  30.426  36.681  1.00  0.00     0.031 C 
ATOM     59  C   UNL A   1      43.706  29.000  31.811  1.00  0.00     0.029 A 
ATOM     60  C   UNL A   1      42.902  28.266  32.665  1.00  0.00     0.049 A 
ATOM     61  H   UNL A   1      40.992  27.429  32.257  1.00  0.00     0.167 HD
ATOM     62  C   UNL A   1      43.182  29.039  34.937  1.00  0.00     0.074 A 
ATOM     63  C   UNL A   1      43.078  29.219  36.377  1.00  0.00     0.031 C 
ATOM     64  C   UNL A   1      43.030  27.937  34.112  1.00  0.00     0.031 A 
BRANCH  51  65
ATOM     65  C   UNL A   1      41.001  27.307  28.353  1.00  0.00    -0.014 A 
ATOM     66  C   UNL A   1      41.692  27.814  27.242  1.00  0.00     0.009 A 
ATOM     67  C   UNL A   1      40.378  26.056  28.205  1.00  0.00     0.009 A 
ATOM     68  C   UNL A   1      41.641  27.173  26.002  1.00  0.00     0.001 A 
ATOM     69  C   UNL A   1      40.273  25.441  26.953  1.00  0.00     0.001 A 
ATOM     70  C   UNL A   1      40.891  26.012  25.847  1.00  0.00     0.000 A 
ENDBRANCH  51  65
BRANCH  52  71
ATOM     71  C   UNL A   1      40.715  32.885  36.125  1.00  0.00    -0.014 A 
ATOM     72  C   UNL A   1      40.948  34.223  36.484  1.00  0.00     0.009 A 
ATOM     73  C   UNL A   1      39.561  32.287  36.651  1.00  0.00     0.009 A 
ATOM     74  C   UNL A   1      39.979  34.984  37.162  1.00  0.00     0.001 A 
ATOM     75  C   UNL A   1      38.579  33.051  37.314  1.00  0.00     0.001 A 
ATOM     76  C   UNL A   1      38.769  34.409  37.533  1.00  0.00     0.000 A 
ENDBRANCH  52  71
BRANCH  64  77
ATOM     77  C   UNL A   1      42.860  26.477  34.566  1.00  0.00    -0.014 A 
ATOM     78  C   UNL A   1      41.860  25.983  35.422  1.00  0.00     0.009 A 
ATOM     79  C   UNL A   1      43.757  25.497  34.082  1.00  0.00     0.009 A 
ATOM     80  C   UNL A   1      41.746  24.619  35.753  1.00  0.00     0.001 A 
ATOM     81  C   UNL A   1      43.636  24.131  34.384  1.00  0.00     0.001 A 
ATOM     82  C   UNL A   1      42.628  23.690  35.224  1.00  0.00     0.000 A 
ENDBRANCH  64  77
ENDBRANCH  38  39
ENDBRANCH  31  33
ENDBRANCH  30  31
ENDBRANCH  29  30
ENDBRANCH  28  29
ENDBRANCH  27  28
ENDBRANCH  26  27
ENDBRANCH   1  26
TORSDOF 23
ENDMDL
MODEL 3
REMARK VINA RESULT:      -9.2      5.598     10.296
REMARK SMILES Cc1ccccc1C[C@H](CCSc1ccccc1)C(=O)OCCOCCOCCOC(=O)c1ccc(-c2c3nc(c(-c4ccccc4)c4ccc([nH]4)c(-c4ccccc4)c4nc(c(-c5ccccc5)c5ccc2[nH]5)C=C4)C=C3)cc1
REMARK SMILES IDX 25 1 24 2 23 3 22 4 21 5 19 6 20 7 9 8 8 9 7 10 1 11 2 12
REMARK SMILES IDX 3 13 4 14 6 15 5 16 10 17 11 18 12 19 13 20 14 21 18 22
REMARK SMILES IDX 15 23 17 24 16 25 26 26 27 27 28 28 29 29 30 30 31 31 32 32
REMARK SMILES IDX 33 33 34 34 80 35 35 36 79 37 36 38 37 39 38 40 73 41 39 42
REMARK SMILES IDX 78 43 72 44 74 45 40 46 77 47 71 48 70 49 41 51 63 52 48 53
REMARK SMILES IDX 62 54 49 55 52 56 61 57 75 58 50 59 51 60 60 62 76 63 53 64
REMARK SMILES IDX 42 65 43 66 47 67 44 68 46 69 45 70 64 71 65 72 69 73 66 74
REMARK SMILES IDX 68 75 67 76 54 77 55 78 59 79 56 80 58 81 57 82
REMARK H PARENT 74 50 52 61
REMARK Flexibility Score: inf
ROOT
ATOM      1  C   UNL A   1      45.940  23.159  24.715  1.00  0.00     0.188 C 
ENDROOT
BRANCH   1   2
ATOM      2  O   UNL A   1      46.550  24.324  24.192  1.00  0.00    -0.376 OA
BRANCH   2   3
ATOM      3  C   UNL A   1      47.485  24.894  25.118  1.00  0.00     0.202 C 
BRANCH   3   4
ATOM      4  C   UNL A   1      48.115  26.277  24.718  1.00  0.00     0.261 C 
BRANCH   4   5
ATOM      5  O   UNL A   1      48.355  27.596  25.583  1.00  0.00    -0.463 OA
BRANCH   5   6
ATOM      6  C   UNL A   1      47.935  28.154  26.794  1.00  0.00     0.309 C 
ATOM      7  O   UNL A   1      48.399  29.270  27.024  1.00  0.00    -0.252 OA
BRANCH   6   8
ATOM      8  C   UNL A   1      46.665  27.719  27.787  1.00  0.00     0.104 C 
BRANCH   8   9
ATOM      9  C   UNL A   1      45.336  27.043  27.202  1.00  0.00     0.051 C 
BRANCH   9  10
ATOM     10  C   UNL A   1      44.772  25.938  28.051  1.00  0.00    -0.044 A 
ATOM     11  C   UNL A   1      42.862  27.090  29.314  1.00  0.00     0.044 C 
ATOM     12  C   UNL A   1      43.879  26.007  29.134  1.00  0.00    -0.048 A 
ATOM     13  C   UNL A   1      43.817  24.933  30.049  1.00  0.00     0.004 A 
ATOM     14  C   UNL A   1      44.584  23.807  29.861  1.00  0.00     0.000 A 
ATOM     15  C   UNL A   1      45.322  24.717  27.769  1.00  0.00     0.004 A 
ATOM     16  C   UNL A   1      45.269  23.699  28.677  1.00  0.00     0.000 A 
ENDBRANCH   9  10
ENDBRANCH   8   9
BRANCH   8  17
ATOM     17  C   UNL A   1      46.285  28.377  29.142  1.00  0.00     0.027 C 
BRANCH  17  18
ATOM     18  C   UNL A   1      46.222  29.924  29.137  1.00  0.00     0.076 C 
BRANCH  18  19
ATOM     19  S   UNL A   1      44.649  30.622  28.488  1.00  0.00    -0.126 SA
BRANCH  19  20
ATOM     20  C   UNL A   1      43.673  30.923  29.958  1.00  0.00     0.007 A 
ATOM     21  C   UNL A   1      44.283  31.398  31.125  1.00  0.00     0.015 A 
ATOM     22  C   UNL A   1      42.280  30.810  29.936  1.00  0.00     0.015 A 
ATOM     23  C   UNL A   1      43.543  31.632  32.284  1.00  0.00     0.001 A 
ATOM     24  C   UNL A   1      41.526  31.129  31.074  1.00  0.00     0.001 A 
ATOM     25  C   UNL A   1      42.160  31.517  32.253  1.00  0.00     0.000 A 
ENDBRANCH  19  20
ENDBRANCH  18  19
ENDBRANCH  17  18
ENDBRANCH   8  17
ENDBRANCH   6   8
ENDBRANCH   5   6
ENDBRANCH   4   5
ENDBRANCH   3   4
ENDBRANCH   2   3
ENDBRANCH   1   2
BRANCH   1  26
ATOM     26  C   UNL A   1      44.863  22.626  23.759  1.00  0.00     0.188 C 
BRANCH  26  27
ATOM     27  O   UNL A   1      43.574  22.512  24.353  1.00  0.00    -0.376 OA
BRANCH  27  28
ATOM     28  C   UNL A   1      43.527  22.146  25.729  1.00  0.00     0.202 C 
BRANCH  28  29
ATOM     29  C   UNL A   1      42.562  23.110  26.428  1.00  0.00     0.261 C 
BRANCH  29  30
ATOM     30  O   UNL A   1      41.845  23.887  25.437  1.00  0.00    -0.460 OA
BRANCH  30  31
ATOM     31  C   UNL A   1      42.191  25.199  25.381  1.00  0.00     0.338 C 
ATOM     32  O   UNL A   1      43.313  25.629  25.132  1.00  0.00    -0.246 OA
BRANCH  31  33
ATOM     33  C   UNL A   1      41.076  25.996  25.986  1.00  0.00     0.060 A 
ATOM     34  C   UNL A   1      41.183  27.362  25.946  1.00  0.00     0.016 A 
ATOM     35  C   UNL A   1      40.112  25.462  26.849  1.00  0.00     0.016 A 
ATOM     36  C   UNL A   1      40.486  28.118  26.916  1.00  0.00     0.010 A 
ATOM     37  C   UNL A   1      39.454  26.266  27.830  1.00  0.00     0.010 A 
ATOM     38  C   UNL A   1      39.711  27.633  27.983  1.00  0.00    -0.014 A 
BRANCH  38  39
ATOM     39  C   UNL A   1      39.290  28.355  29.338  1.00  0.00     0.031 A 
ATOM     40  C   UNL A   1      38.515  29.633  29.151  1.00  0.00     0.074 A 
ATOM     41  C   UNL A   1      39.523  28.195  30.724  1.00  0.00     0.049 A 
ATOM     42  N   UNL A   1      38.333  30.486  30.110  1.00  0.00    -0.248 NA
ATOM     43  C   UNL A   1      38.023  30.114  27.867  1.00  0.00     0.031 C 
ATOM     44  C   UNL A   1      38.483  28.483  31.746  1.00  0.00     0.029 A 
ATOM     45  N   UNL A   1      40.565  27.783  31.601  1.00  0.00    -0.354 N 
ATOM     46  C   UNL A   1      37.571  31.510  29.664  1.00  0.00     0.074 A 
ATOM     47  C   UNL A   1      37.431  31.256  28.237  1.00  0.00     0.031 C 
ATOM     48  C   UNL A   1      38.980  28.436  32.995  1.00  0.00     0.029 A 
ATOM     49  C   UNL A   1      40.384  28.099  32.960  1.00  0.00     0.049 A 
ATOM     50  H   UNL A   1      41.362  27.306  31.278  1.00  0.00     0.167 HD
ATOM     51  C   UNL A   1      37.059  32.413  30.546  1.00  0.00     0.031 A 
ATOM     52  C   UNL A   1      41.312  28.222  33.968  1.00  0.00     0.031 A 
ATOM     53  C   UNL A   1      37.331  32.154  31.972  1.00  0.00     0.049 A 
ATOM     54  C   UNL A   1      41.036  29.361  34.951  1.00  0.00     0.074 A 
ATOM     55  C   UNL A   1      36.657  31.376  32.903  1.00  0.00     0.029 A 
ATOM     56  N   UNL A   1      38.491  32.582  32.622  1.00  0.00    -0.354 N 
ATOM     57  N   UNL A   1      39.932  30.064  34.986  1.00  0.00    -0.248 NA
ATOM     58  C   UNL A   1      42.085  29.968  35.784  1.00  0.00     0.031 C 
ATOM     59  C   UNL A   1      37.367  31.400  34.128  1.00  0.00     0.029 A 
ATOM     60  C   UNL A   1      38.509  32.164  33.967  1.00  0.00     0.049 A 
ATOM     61  H   UNL A   1      39.204  33.110  32.195  1.00  0.00     0.167 HD
ATOM     62  C   UNL A   1      40.265  31.345  35.409  1.00  0.00     0.074 A 
ATOM     63  C   UNL A   1      41.529  31.149  36.105  1.00  0.00     0.031 C 
ATOM     64  C   UNL A   1      39.641  32.465  34.887  1.00  0.00     0.031 A 
BRANCH  51  65
ATOM     65  C   UNL A   1      35.938  33.288  30.061  1.00  0.00    -0.014 A 
ATOM     66  C   UNL A   1      35.291  34.135  30.973  1.00  0.00     0.009 A 
ATOM     67  C   UNL A   1      35.398  33.206  28.766  1.00  0.00     0.009 A 
ATOM     68  C   UNL A   1      34.082  34.757  30.652  1.00  0.00     0.001 A 
ATOM     69  C   UNL A   1      34.158  33.777  28.460  1.00  0.00     0.001 A 
ATOM     70  C   UNL A   1      33.492  34.539  29.412  1.00  0.00     0.000 A 
ENDBRANCH  51  65
BRANCH  52  71
ATOM     71  C   UNL A   1      42.684  27.622  33.802  1.00  0.00    -0.014 A 
ATOM     72  C   UNL A   1      42.939  26.346  34.332  1.00  0.00     0.009 A 
ATOM     73  C   UNL A   1      43.680  28.169  32.979  1.00  0.00     0.009 A 
ATOM     74  C   UNL A   1      44.034  25.574  33.903  1.00  0.00     0.001 A 
ATOM     75  C   UNL A   1      44.767  27.392  32.531  1.00  0.00     0.001 A 
ATOM     76  C   UNL A   1      44.922  26.080  32.961  1.00  0.00     0.000 A 
ENDBRANCH  52  71
BRANCH  64  77
ATOM     77  C   UNL A   1      40.088  33.925  35.073  1.00  0.00    -0.014 A 
ATOM     78  C   UNL A   1      39.519  34.865  35.950  1.00  0.00     0.009 A 
ATOM     79  C   UNL A   1      41.191  34.407  34.330  1.00  0.00     0.009 A 
ATOM     80  C   UNL A   1      40.020  36.174  36.095  1.00  0.00     0.001 A 
ATOM     81  C   UNL A   1      41.715  35.700  34.485  1.00  0.00     0.001 A 
ATOM     82  C   UNL A   1      41.127  36.588  35.370  1.00  0.00     0.000 A 
ENDBRANCH  64  77
ENDBRANCH  38  39
ENDBRANCH  31  33
ENDBRANCH  30  31
ENDBRANCH  29  30
ENDBRANCH  28  29
ENDBRANCH  27  28
ENDBRANCH  26  27
ENDBRANCH   1  26
TORSDOF 23
ENDMDL
