MODEL 1
REMARK VINA RESULT:     -10.2      0.000      0.000
REMARK SMILES Cc1cc(OC(F)(F)F)cc2c1O[C@H](C(F)(F)F)C(C(=O)OCCOCCOCCOC(=O)c1ccc(-c3c4nc(c(-c5ccccc5)c5ccc([nH]5)c(-c5ccccc5)c5nc(c(-c6ccccc6)c6ccc3[nH]6)C=C5)C=C4)cc1)=C2
REMARK SMILES IDX 26 1 25 2 24 3 23 4 22 5 20 6 21 7 19 8 1 9 2 10 3 11 12 12
REMARK SMILES IDX 4 13 11 14 13 15 10 16 82 17 14 18 5 19 6 20 7 21 8 22 9 23
REMARK SMILES IDX 15 24 16 25 17 26 18 27 27 28 28 29 29 30 30 31 31 32 32 33
REMARK SMILES IDX 33 34 34 35 35 36 81 37 36 38 80 39 37 40 38 41 39 42 74 43
REMARK SMILES IDX 40 44 79 45 73 46 75 47 41 48 78 49 72 50 71 51 42 53 64 54
REMARK SMILES IDX 49 55 63 56 50 57 53 58 62 59 76 60 51 61 52 62 61 64 77 65
REMARK SMILES IDX 54 66 43 67 44 68 48 69 45 70 47 71 46 72 65 73 66 74 70 75
REMARK SMILES IDX 67 76 69 77 68 78 55 79 56 80 60 81 57 82 59 83 58 84
REMARK H PARENT 75 52 53 63
REMARK Flexibility Score: inf
ROOT
ATOM      1  C   UNL A   1      35.075  31.298  27.866  1.00  0.00     0.188 C 
ENDROOT
BRANCH   1   2
ATOM      2  O   UNL A   1      34.011  30.385  27.725  1.00  0.00    -0.376 OA
BRANCH   2   3
ATOM      3  C   UNL A   1      32.875  30.691  26.937  1.00  0.00     0.202 C 
BRANCH   3   4
ATOM      4  C   UNL A   1      32.111  29.667  26.085  1.00  0.00     0.261 C 
BRANCH   4   5
ATOM      5  O   UNL A   1      32.678  28.356  26.008  1.00  0.00    -0.460 OA
BRANCH   5   6
ATOM      6  C   UNL A   1      31.945  27.376  26.591  1.00  0.00     0.338 C 
ATOM      7  O   UNL A   1      31.047  27.520  27.403  1.00  0.00    -0.246 OA
BRANCH   6   8
ATOM      8  C   UNL A   1      32.287  26.075  25.983  1.00  0.00     0.087 C 
ATOM      9  C   UNL A   1      32.292  21.772  23.238  1.00  0.00     0.048 C 
ATOM     10  C   UNL A   1      33.341  22.610  23.918  1.00  0.00    -0.005 A 
ATOM     11  C   UNL A   1      34.701  22.289  23.764  1.00  0.00     0.054 A 
ATOM     12  C   UNL A   1      32.977  23.721  24.693  1.00  0.00     0.131 A 
ATOM     13  C   UNL A   1      35.689  23.067  24.369  1.00  0.00     0.130 A 
ATOM     14  C   UNL A   1      33.961  24.525  25.269  1.00  0.00     0.021 A 
ATOM     15  O   UNL A   1      31.640  23.958  24.838  1.00  0.00    -0.475 OA
ATOM     16  C   UNL A   1      35.310  24.178  25.128  1.00  0.00     0.058 A 
ATOM     17  C   UNL A   1      33.587  25.756  25.944  1.00  0.00     0.027 C 
ATOM     18  C   UNL A   1      31.190  25.196  25.451  1.00  0.00     0.316 C 
BRANCH  13  19
ATOM     19  O   UNL A   1      37.038  22.865  24.294  1.00  0.00    -0.406 OA
BRANCH  19  20
ATOM     20  C   UNL A   1      37.591  21.807  25.060  1.00  0.00     0.573 C 
ATOM     21  F   UNL A   1      37.710  20.684  24.319  1.00  0.00    -0.132 F 
ATOM     22  F   UNL A   1      38.798  22.146  25.561  1.00  0.00    -0.132 F 
ATOM     23  F   UNL A   1      36.764  21.542  26.095  1.00  0.00    -0.132 F 
ENDBRANCH  19  20
ENDBRANCH  13  19
BRANCH  18  24
ATOM     24  C   UNL A   1      30.287  25.925  24.448  1.00  0.00     0.430 C 
ATOM     25  F   UNL A   1      29.942  25.117  23.418  1.00  0.00    -0.167 F 
ATOM     26  F   UNL A   1      29.133  26.339  25.020  1.00  0.00    -0.167 F 
ATOM     27  F   UNL A   1      30.893  27.015  23.925  1.00  0.00    -0.167 F 
ENDBRANCH  18  24
ENDBRANCH   6   8
ENDBRANCH   5   6
ENDBRANCH   4   5
ENDBRANCH   3   4
ENDBRANCH   2   3
ENDBRANCH   1   2
BRANCH   1  28
ATOM     28  C   UNL A   1      34.844  32.650  28.575  1.00  0.00     0.188 C 
BRANCH  28  29
ATOM     29  O   UNL A   1      34.629  33.826  27.828  1.00  0.00    -0.376 OA
BRANCH  29  30
ATOM     30  C   UNL A   1      34.147  34.989  28.483  1.00  0.00     0.202 C 
BRANCH  30  31
ATOM     31  C   UNL A   1      33.046  34.953  29.557  1.00  0.00     0.261 C 
BRANCH  31  32
ATOM     32  O   UNL A   1      33.099  35.982  30.554  1.00  0.00    -0.460 OA
BRANCH  32  33
ATOM     33  C   UNL A   1      32.798  35.583  31.817  1.00  0.00     0.338 C 
ATOM     34  O   UNL A   1      31.720  35.632  32.377  1.00  0.00    -0.246 OA
BRANCH  33  35
ATOM     35  C   UNL A   1      33.969  34.895  32.391  1.00  0.00     0.060 A 
ATOM     36  C   UNL A   1      35.223  35.521  32.329  1.00  0.00     0.016 A 
ATOM     37  C   UNL A   1      33.835  33.620  32.937  1.00  0.00     0.016 A 
ATOM     38  C   UNL A   1      36.352  34.871  32.822  1.00  0.00     0.010 A 
ATOM     39  C   UNL A   1      34.975  32.951  33.389  1.00  0.00     0.010 A 
ATOM     40  C   UNL A   1      36.238  33.565  33.311  1.00  0.00    -0.014 A 
BRANCH  40  41
ATOM     41  C   UNL A   1      37.459  32.761  33.532  1.00  0.00     0.031 A 
ATOM     42  C   UNL A   1      38.228  32.979  34.804  1.00  0.00     0.074 A 
ATOM     43  C   UNL A   1      37.875  31.851  32.634  1.00  0.00     0.049 A 
ATOM     44  N   UNL A   1      39.357  32.443  35.188  1.00  0.00    -0.248 NA
ATOM     45  C   UNL A   1      37.647  33.923  35.775  1.00  0.00     0.031 C 
ATOM     46  C   UNL A   1      37.183  31.501  31.395  1.00  0.00     0.029 A 
ATOM     47  N   UNL A   1      38.994  31.056  32.633  1.00  0.00    -0.354 N 
ATOM     48  C   UNL A   1      39.619  32.983  36.440  1.00  0.00     0.074 A 
ATOM     49  C   UNL A   1      38.546  33.900  36.748  1.00  0.00     0.031 C 
ATOM     50  C   UNL A   1      37.901  30.568  30.746  1.00  0.00     0.029 A 
ATOM     51  C   UNL A   1      39.117  30.280  31.507  1.00  0.00     0.049 A 
ATOM     52  H   UNL A   1      39.647  31.043  33.370  1.00  0.00     0.167 HD
ATOM     53  C   UNL A   1      40.662  32.732  37.260  1.00  0.00     0.031 A 
ATOM     54  C   UNL A   1      40.109  29.450  31.125  1.00  0.00     0.031 A 
ATOM     55  C   UNL A   1      41.737  31.833  36.952  1.00  0.00     0.049 A 
ATOM     56  C   UNL A   1      41.309  29.262  32.014  1.00  0.00     0.074 A 
ATOM     57  C   UNL A   1      42.836  31.518  37.730  1.00  0.00     0.029 A 
ATOM     58  N   UNL A   1      41.849  31.110  35.778  1.00  0.00    -0.354 N 
ATOM     59  N   UNL A   1      41.548  29.779  33.195  1.00  0.00    -0.248 NA
ATOM     60  C   UNL A   1      42.378  28.379  31.521  1.00  0.00     0.031 C 
ATOM     61  C   UNL A   1      43.643  30.642  37.004  1.00  0.00     0.029 A 
ATOM     62  C   UNL A   1      43.015  30.367  35.799  1.00  0.00     0.049 A 
ATOM     63  H   UNL A   1      41.198  31.122  35.039  1.00  0.00     0.167 HD
ATOM     64  C   UNL A   1      42.775  29.266  33.595  1.00  0.00     0.074 A 
ATOM     65  C   UNL A   1      43.234  28.395  32.535  1.00  0.00     0.031 C 
ATOM     66  C   UNL A   1      43.457  29.497  34.742  1.00  0.00     0.031 A 
BRANCH  53  67
ATOM     67  C   UNL A   1      40.712  33.445  38.577  1.00  0.00    -0.014 A 
ATOM     68  C   UNL A   1      41.345  34.691  38.692  1.00  0.00     0.009 A 
ATOM     69  C   UNL A   1      40.018  32.923  39.678  1.00  0.00     0.009 A 
ATOM     70  C   UNL A   1      41.274  35.406  39.889  1.00  0.00     0.001 A 
ATOM     71  C   UNL A   1      39.932  33.649  40.867  1.00  0.00     0.001 A 
ATOM     72  C   UNL A   1      40.559  34.890  40.970  1.00  0.00     0.000 A 
ENDBRANCH  53  67
BRANCH  54  73
ATOM     73  C   UNL A   1      40.009  28.737  29.825  1.00  0.00    -0.014 A 
ATOM     74  C   UNL A   1      40.406  29.366  28.635  1.00  0.00     0.009 A 
ATOM     75  C   UNL A   1      39.538  27.416  29.770  1.00  0.00     0.009 A 
ATOM     76  C   UNL A   1      40.328  28.688  27.417  1.00  0.00     0.001 A 
ATOM     77  C   UNL A   1      39.482  26.733  28.554  1.00  0.00     0.001 A 
ATOM     78  C   UNL A   1      39.874  27.369  27.378  1.00  0.00     0.000 A 
ENDBRANCH  54  73
BRANCH  66  79
ATOM     79  C   UNL A   1      44.766  28.792  34.952  1.00  0.00    -0.014 A 
ATOM     80  C   UNL A   1      44.810  27.504  35.502  1.00  0.00     0.009 A 
ATOM     81  C   UNL A   1      45.948  29.363  34.453  1.00  0.00     0.009 A 
ATOM     82  C   UNL A   1      46.016  26.801  35.550  1.00  0.00     0.001 A 
ATOM     83  C   UNL A   1      47.145  28.649  34.479  1.00  0.00     0.001 A 
ATOM     84  C   UNL A   1      47.178  27.368  35.028  1.00  0.00     0.000 A 
ENDBRANCH  66  79
ENDBRANCH  40  41
ENDBRANCH  33  35
ENDBRANCH  32  33
ENDBRANCH  31  32
ENDBRANCH  30  31
ENDBRANCH  29  30
ENDBRANCH  28  29
ENDBRANCH   1  28
TORSDOF 20
ENDMDL
MODEL 2
REMARK VINA RESULT:      -9.6      0.644      5.674
REMARK SMILES Cc1cc(OC(F)(F)F)cc2c1O[C@H](C(F)(F)F)C(C(=O)OCCOCCOCCOC(=O)c1ccc(-c3c4nc(c(-c5ccccc5)c5ccc([nH]5)c(-c5ccccc5)c5nc(c(-c6ccccc6)c6ccc3[nH]6)C=C5)C=C4)cc1)=C2
REMARK SMILES IDX 26 1 25 2 24 3 23 4 22 5 20 6 21 7 19 8 1 9 2 10 3 11 12 12
REMARK SMILES IDX 4 13 11 14 13 15 10 16 82 17 14 18 5 19 6 20 7 21 8 22 9 23
REMARK SMILES IDX 15 24 16 25 17 26 18 27 27 28 28 29 29 30 30 31 31 32 32 33
REMARK SMILES IDX 33 34 34 35 35 36 81 37 36 38 80 39 37 40 38 41 39 42 74 43
REMARK SMILES IDX 40 44 79 45 73 46 75 47 41 48 78 49 72 50 71 51 42 53 64 54
REMARK SMILES IDX 49 55 63 56 50 57 53 58 62 59 76 60 51 61 52 62 61 64 77 65
REMARK SMILES IDX 54 66 43 67 44 68 48 69 45 70 47 71 46 72 65 73 66 74 70 75
REMARK SMILES IDX 67 76 69 77 68 78 55 79 56 80 60 81 57 82 59 83 58 84
REMARK H PARENT 75 52 53 63
REMARK Flexibility Score: inf
ROOT
ATOM      1  C   UNL A   1      35.213  31.232  27.843  1.00  0.00     0.188 C 
ENDROOT
BRANCH   1   2
ATOM      2  O   UNL A   1      33.870  30.831  27.985  1.00  0.00    -0.376 OA
BRANCH   2   3
ATOM      3  C   UNL A   1      32.906  31.112  26.986  1.00  0.00     0.202 C 
BRANCH   3   4
ATOM      4  C   UNL A   1      32.147  30.040  26.189  1.00  0.00     0.261 C 
BRANCH   4   5
ATOM      5  O   UNL A   1      32.761  28.749  26.118  1.00  0.00    -0.460 OA
BRANCH   5   6
ATOM      6  C   UNL A   1      32.063  27.747  26.705  1.00  0.00     0.338 C 
ATOM      7  O   UNL A   1      31.207  27.860  27.567  1.00  0.00    -0.246 OA
BRANCH   6   8
ATOM      8  C   UNL A   1      32.379  26.468  26.039  1.00  0.00     0.087 C 
ATOM      9  C   UNL A   1      32.342  22.336  23.044  1.00  0.00     0.048 C 
ATOM     10  C   UNL A   1      33.388  23.081  23.827  1.00  0.00    -0.005 A 
ATOM     11  C   UNL A   1      34.739  22.705  23.725  1.00  0.00     0.054 A 
ATOM     12  C   UNL A   1      33.033  24.162  24.647  1.00  0.00     0.131 A 
ATOM     13  C   UNL A   1      35.726  23.397  24.427  1.00  0.00     0.130 A 
ATOM     14  C   UNL A   1      34.019  24.883  25.321  1.00  0.00     0.021 A 
ATOM     15  O   UNL A   1      31.701  24.455  24.736  1.00  0.00    -0.475 OA
ATOM     16  C   UNL A   1      35.356  24.480  25.231  1.00  0.00     0.058 A 
ATOM     17  C   UNL A   1      33.663  26.089  26.049  1.00  0.00     0.027 C 
ATOM     18  C   UNL A   1      31.275  25.675  25.398  1.00  0.00     0.316 C 
BRANCH  13  19
ATOM     19  O   UNL A   1      37.067  23.135  24.411  1.00  0.00    -0.406 OA
BRANCH  19  20
ATOM     20  C   UNL A   1      37.597  22.347  25.464  1.00  0.00     0.573 C 
ATOM     21  F   UNL A   1      36.617  21.683  26.113  1.00  0.00    -0.132 F 
ATOM     22  F   UNL A   1      38.508  21.464  25.001  1.00  0.00    -0.132 F 
ATOM     23  F   UNL A   1      38.212  23.160  26.349  1.00  0.00    -0.132 F 
ENDBRANCH  19  20
ENDBRANCH  13  19
BRANCH  18  24
ATOM     24  C   UNL A   1      30.462  26.504  24.395  1.00  0.00     0.430 C 
ATOM     25  F   UNL A   1      31.091  26.582  23.197  1.00  0.00    -0.167 F 
ATOM     26  F   UNL A   1      29.247  25.958  24.161  1.00  0.00    -0.167 F 
ATOM     27  F   UNL A   1      30.261  27.768  24.832  1.00  0.00    -0.167 F 
ENDBRANCH  18  24
ENDBRANCH   6   8
ENDBRANCH   5   6
ENDBRANCH   4   5
ENDBRANCH   3   4
ENDBRANCH   2   3
ENDBRANCH   1   2
BRANCH   1  28
ATOM     28  C   UNL A   1      35.645  32.650  28.275  1.00  0.00     0.188 C 
BRANCH  28  29
ATOM     29  O   UNL A   1      35.128  33.788  27.623  1.00  0.00    -0.376 OA
BRANCH  29  30
ATOM     30  C   UNL A   1      34.312  34.695  28.348  1.00  0.00     0.202 C 
BRANCH  30  31
ATOM     31  C   UNL A   1      33.714  34.370  29.727  1.00  0.00     0.261 C 
BRANCH  31  32
ATOM     32  O   UNL A   1      33.395  35.492  30.561  1.00  0.00    -0.460 OA
BRANCH  32  33
ATOM     33  C   UNL A   1      33.131  35.194  31.860  1.00  0.00     0.338 C 
ATOM     34  O   UNL A   1      32.056  35.221  32.427  1.00  0.00    -0.246 OA
BRANCH  33  35
ATOM     35  C   UNL A   1      34.352  34.647  32.481  1.00  0.00     0.060 A 
ATOM     36  C   UNL A   1      35.564  35.335  32.318  1.00  0.00     0.016 A 
ATOM     37  C   UNL A   1      34.306  33.437  33.171  1.00  0.00     0.016 A 
ATOM     38  C   UNL A   1      36.739  34.814  32.856  1.00  0.00     0.010 A 
ATOM     39  C   UNL A   1      35.492  32.894  33.669  1.00  0.00     0.010 A 
ATOM     40  C   UNL A   1      36.714  33.568  33.492  1.00  0.00    -0.014 A 
BRANCH  40  41
ATOM     41  C   UNL A   1      37.986  32.869  33.774  1.00  0.00     0.031 A 
ATOM     42  C   UNL A   1      38.466  31.849  32.781  1.00  0.00     0.074 A 
ATOM     43  C   UNL A   1      38.705  33.134  34.879  1.00  0.00     0.049 A 
ATOM     44  N   UNL A   1      39.511  31.065  32.844  1.00  0.00    -0.248 NA
ATOM     45  C   UNL A   1      37.667  31.693  31.553  1.00  0.00     0.031 C 
ATOM     46  C   UNL A   1      38.380  34.145  35.883  1.00  0.00     0.029 A 
ATOM     47  N   UNL A   1      39.866  32.561  35.337  1.00  0.00    -0.354 N 
ATOM     48  C   UNL A   1      39.493  30.327  31.667  1.00  0.00     0.074 A 
ATOM     49  C   UNL A   1      38.330  30.739  30.916  1.00  0.00     0.031 C 
ATOM     50  C   UNL A   1      39.315  34.113  36.849  1.00  0.00     0.029 A 
ATOM     51  C   UNL A   1      40.284  33.059  36.546  1.00  0.00     0.049 A 
ATOM     52  H   UNL A   1      40.352  31.861  34.845  1.00  0.00     0.167 HD
ATOM     53  C   UNL A   1      40.373  29.392  31.251  1.00  0.00     0.031 A 
ATOM     54  C   UNL A   1      41.317  32.690  37.330  1.00  0.00     0.031 A 
ATOM     55  C   UNL A   1      41.522  28.970  32.000  1.00  0.00     0.049 A 
ATOM     56  C   UNL A   1      42.229  31.575  36.887  1.00  0.00     0.074 A 
ATOM     57  C   UNL A   1      42.469  28.025  31.650  1.00  0.00     0.029 A 
ATOM     58  N   UNL A   1      41.877  29.460  33.244  1.00  0.00    -0.354 N 
ATOM     59  N   UNL A   1      42.201  30.883  35.774  1.00  0.00    -0.248 NA
ATOM     60  C   UNL A   1      43.310  31.188  37.806  1.00  0.00     0.031 C 
ATOM     61  C   UNL A   1      43.372  27.905  32.707  1.00  0.00     0.029 A 
ATOM     62  C   UNL A   1      43.018  28.819  33.688  1.00  0.00     0.049 A 
ATOM     63  H   UNL A   1      41.391  30.160  33.738  1.00  0.00     0.167 HD
ATOM     64  C   UNL A   1      43.273  30.001  35.848  1.00  0.00     0.074 A 
ATOM     65  C   UNL A   1      43.933  30.243  37.112  1.00  0.00     0.031 C 
ATOM     66  C   UNL A   1      43.672  29.075  34.944  1.00  0.00     0.031 A 
BRANCH  53  67
ATOM     67  C   UNL A   1      40.133  28.738  29.924  1.00  0.00    -0.014 A 
ATOM     68  C   UNL A   1      40.594  29.331  28.740  1.00  0.00     0.009 A 
ATOM     69  C   UNL A   1      39.549  27.463  29.872  1.00  0.00     0.009 A 
ATOM     70  C   UNL A   1      40.480  28.652  27.525  1.00  0.00     0.001 A 
ATOM     71  C   UNL A   1      39.456  26.779  28.660  1.00  0.00     0.001 A 
ATOM     72  C   UNL A   1      39.922  27.374  27.488  1.00  0.00     0.000 A 
ENDBRANCH  53  67
BRANCH  54  73
ATOM     73  C   UNL A   1      41.541  33.382  38.625  1.00  0.00    -0.014 A 
ATOM     74  C   UNL A   1      42.278  34.574  38.678  1.00  0.00     0.009 A 
ATOM     75  C   UNL A   1      40.998  32.866  39.813  1.00  0.00     0.009 A 
ATOM     76  C   UNL A   1      42.472  35.232  39.895  1.00  0.00     0.001 A 
ATOM     77  C   UNL A   1      41.174  33.538  41.024  1.00  0.00     0.001 A 
ATOM     78  C   UNL A   1      41.914  34.719  41.065  1.00  0.00     0.000 A 
ENDBRANCH  54  73
BRANCH  66  79
ATOM     79  C   UNL A   1      44.892  28.255  35.249  1.00  0.00    -0.014 A 
ATOM     80  C   UNL A   1      46.151  28.627  34.759  1.00  0.00     0.009 A 
ATOM     81  C   UNL A   1      44.799  27.188  36.159  1.00  0.00     0.009 A 
ATOM     82  C   UNL A   1      47.296  27.945  35.176  1.00  0.00     0.001 A 
ATOM     83  C   UNL A   1      45.947  26.526  36.592  1.00  0.00     0.001 A 
ATOM     84  C   UNL A   1      47.195  26.905  36.099  1.00  0.00     0.000 A 
ENDBRANCH  66  79
ENDBRANCH  40  41
ENDBRANCH  33  35
ENDBRANCH  32  33
ENDBRANCH  31  32
ENDBRANCH  30  31
ENDBRANCH  29  30
ENDBRANCH  28  29
ENDBRANCH   1  28
TORSDOF 20
ENDMDL
MODEL 3
REMARK VINA RESULT:      -9.5      4.093      7.447
REMARK SMILES Cc1cc(OC(F)(F)F)cc2c1O[C@H](C(F)(F)F)C(C(=O)OCCOCCOCCOC(=O)c1ccc(-c3c4nc(c(-c5ccccc5)c5ccc([nH]5)c(-c5ccccc5)c5nc(c(-c6ccccc6)c6ccc3[nH]6)C=C5)C=C4)cc1)=C2
REMARK SMILES IDX 26 1 25 2 24 3 23 4 22 5 20 6 21 7 19 8 1 9 2 10 3 11 12 12
REMARK SMILES IDX 4 13 11 14 13 15 10 16 82 17 14 18 5 19 6 20 7 21 8 22 9 23
REMARK SMILES IDX 15 24 16 25 17 26 18 27 27 28 28 29 29 30 30 31 31 32 32 33
REMARK SMILES IDX 33 34 34 35 35 36 81 37 36 38 80 39 37 40 38 41 39 42 74 43
REMARK SMILES IDX 40 44 79 45 73 46 75 47 41 48 78 49 72 50 71 51 42 53 64 54
REMARK SMILES IDX 49 55 63 56 50 57 53 58 62 59 76 60 51 61 52 62 61 64 77 65
REMARK SMILES IDX 54 66 43 67 44 68 48 69 45 70 47 71 46 72 65 73 66 74 70 75
REMARK SMILES IDX 67 76 69 77 68 78 55 79 56 80 60 81 57 82 59 83 58 84
REMARK H PARENT 75 52 53 63
REMARK Flexibility Score: inf
ROOT
ATOM      1  C   UNL A   1      34.066  32.269  27.647  1.00  0.00     0.188 C 
ENDROOT
BRANCH   1   2
ATOM      2  O   UNL A   1      34.341  30.946  28.044  1.00  0.00    -0.376 OA
BRANCH   2   3
ATOM      3  C   UNL A   1      33.840  29.838  27.319  1.00  0.00     0.202 C 
BRANCH   3   4
ATOM      4  C   UNL A   1      33.614  29.828  25.800  1.00  0.00     0.261 C 
BRANCH   4   5
ATOM      5  O   UNL A   1      32.302  29.469  25.355  1.00  0.00    -0.460 OA
BRANCH   5   6
ATOM      6  C   UNL A   1      32.261  28.537  24.372  1.00  0.00     0.338 C 
ATOM      7  O   UNL A   1      32.452  28.722  23.182  1.00  0.00    -0.246 OA
BRANCH   6   8
ATOM      8  C   UNL A   1      32.097  27.197  24.969  1.00  0.00     0.087 C 
ATOM      9  C   UNL A   1      30.276  22.690  26.525  1.00  0.00     0.048 C 
ATOM     10  C   UNL A   1      31.644  23.260  26.266  1.00  0.00    -0.005 A 
ATOM     11  C   UNL A   1      32.776  22.431  26.351  1.00  0.00     0.054 A 
ATOM     12  C   UNL A   1      31.802  24.611  25.923  1.00  0.00     0.131 A 
ATOM     13  C   UNL A   1      34.051  22.937  26.093  1.00  0.00     0.130 A 
ATOM     14  C   UNL A   1      33.070  25.114  25.627  1.00  0.00     0.021 A 
ATOM     15  O   UNL A   1      30.670  25.376  25.896  1.00  0.00    -0.475 OA
ATOM     16  C   UNL A   1      34.190  24.283  25.741  1.00  0.00     0.058 A 
ATOM     17  C   UNL A   1      33.211  26.471  25.129  1.00  0.00     0.027 C 
ATOM     18  C   UNL A   1      30.724  26.723  25.356  1.00  0.00     0.316 C 
BRANCH  13  19
ATOM     19  O   UNL A   1      35.224  22.239  26.138  1.00  0.00    -0.406 OA
BRANCH  19  20
ATOM     20  C   UNL A   1      35.504  21.349  25.069  1.00  0.00     0.573 C 
ATOM     21  F   UNL A   1      34.442  20.556  24.809  1.00  0.00    -0.132 F 
ATOM     22  F   UNL A   1      35.847  22.023  23.951  1.00  0.00    -0.132 F 
ATOM     23  F   UNL A   1      36.542  20.561  25.421  1.00  0.00    -0.132 F 
ENDBRANCH  19  20
ENDBRANCH  13  19
BRANCH  18  24
ATOM     24  C   UNL A   1      29.723  26.814  24.198  1.00  0.00     0.430 C 
ATOM     25  F   UNL A   1      30.162  26.133  23.112  1.00  0.00    -0.167 F 
ATOM     26  F   UNL A   1      28.523  26.284  24.528  1.00  0.00    -0.167 F 
ATOM     27  F   UNL A   1      29.508  28.094  23.816  1.00  0.00    -0.167 F 
ENDBRANCH  18  24
ENDBRANCH   6   8
ENDBRANCH   5   6
ENDBRANCH   4   5
ENDBRANCH   3   4
ENDBRANCH   2   3
ENDBRANCH   1   2
BRANCH   1  28
ATOM     28  C   UNL A   1      33.334  33.229  28.610  1.00  0.00     0.188 C 
BRANCH  28  29
ATOM     29  O   UNL A   1      33.823  34.531  28.836  1.00  0.00    -0.376 OA
BRANCH  29  30
ATOM     30  C   UNL A   1      33.692  35.110  30.125  1.00  0.00     0.202 C 
BRANCH  30  31
ATOM     31  C   UNL A   1      34.422  34.571  31.368  1.00  0.00     0.261 C 
BRANCH  31  32
ATOM     32  O   UNL A   1      34.401  33.149  31.548  1.00  0.00    -0.460 OA
BRANCH  32  33
ATOM     33  C   UNL A   1      35.265  32.668  32.480  1.00  0.00     0.338 C 
ATOM     34  O   UNL A   1      35.146  32.692  33.690  1.00  0.00    -0.246 OA
BRANCH  33  35
ATOM     35  C   UNL A   1      36.341  31.928  31.795  1.00  0.00     0.060 A 
ATOM     36  C   UNL A   1      37.315  31.276  32.566  1.00  0.00     0.016 A 
ATOM     37  C   UNL A   1      36.415  31.926  30.404  1.00  0.00     0.016 A 
ATOM     38  C   UNL A   1      38.367  30.609  31.942  1.00  0.00     0.010 A 
ATOM     39  C   UNL A   1      37.495  31.297  29.781  1.00  0.00     0.010 A 
ATOM     40  C   UNL A   1      38.486  30.658  30.549  1.00  0.00    -0.014 A 
BRANCH  40  41
ATOM     41  C   UNL A   1      39.751  30.238  29.910  1.00  0.00     0.031 A 
ATOM     42  C   UNL A   1      39.811  28.869  29.293  1.00  0.00     0.074 A 
ATOM     43  C   UNL A   1      40.823  31.050  29.869  1.00  0.00     0.049 A 
ATOM     44  N   UNL A   1      40.825  28.259  28.737  1.00  0.00    -0.248 NA
ATOM     45  C   UNL A   1      38.563  28.086  29.297  1.00  0.00     0.031 C 
ATOM     46  C   UNL A   1      40.870  32.420  30.373  1.00  0.00     0.029 A 
ATOM     47  N   UNL A   1      42.084  30.825  29.376  1.00  0.00    -0.354 N 
ATOM     48  C   UNL A   1      40.337  27.025  28.328  1.00  0.00     0.074 A 
ATOM     49  C   UNL A   1      38.945  26.961  28.710  1.00  0.00     0.031 C 
ATOM     50  C   UNL A   1      42.105  32.913  30.174  1.00  0.00     0.029 A 
ATOM     51  C   UNL A   1      42.942  31.881  29.559  1.00  0.00     0.049 A 
ATOM     52  H   UNL A   1      42.348  29.987  28.933  1.00  0.00     0.167 HD
ATOM     53  C   UNL A   1      40.992  26.034  27.686  1.00  0.00     0.031 A 
ATOM     54  C   UNL A   1      44.257  31.993  29.284  1.00  0.00     0.031 A 
ATOM     55  C   UNL A   1      42.378  26.087  27.316  1.00  0.00     0.049 A 
ATOM     56  C   UNL A   1      44.989  30.837  28.655  1.00  0.00     0.074 A 
ATOM     57  C   UNL A   1      43.124  25.124  26.660  1.00  0.00     0.029 A 
ATOM     58  N   UNL A   1      43.223  27.153  27.570  1.00  0.00    -0.354 N 
ATOM     59  N   UNL A   1      44.519  29.674  28.275  1.00  0.00    -0.248 NA
ATOM     60  C   UNL A   1      46.432  31.005  28.421  1.00  0.00     0.031 C 
ATOM     61  C   UNL A   1      44.436  25.587  26.563  1.00  0.00     0.029 A 
ATOM     62  C   UNL A   1      44.492  26.861  27.105  1.00  0.00     0.049 A 
ATOM     63  H   UNL A   1      42.960  27.991  28.015  1.00  0.00     0.167 HD
ATOM     64  C   UNL A   1      45.597  28.985  27.734  1.00  0.00     0.074 A 
ATOM     65  C   UNL A   1      46.747  29.857  27.832  1.00  0.00     0.031 C 
ATOM     66  C   UNL A   1      45.626  27.740  27.201  1.00  0.00     0.031 A 
BRANCH  53  67
ATOM     67  C   UNL A   1      40.232  24.789  27.344  1.00  0.00    -0.014 A 
ATOM     68  C   UNL A   1      39.126  24.839  26.483  1.00  0.00     0.009 A 
ATOM     69  C   UNL A   1      40.699  23.544  27.792  1.00  0.00     0.009 A 
ATOM     70  C   UNL A   1      38.506  23.659  26.070  1.00  0.00     0.001 A 
ATOM     71  C   UNL A   1      40.089  22.366  27.361  1.00  0.00     0.001 A 
ATOM     72  C   UNL A   1      38.994  22.424  26.499  1.00  0.00     0.000 A 
ENDBRANCH  53  67
BRANCH  54  73
ATOM     73  C   UNL A   1      44.970  33.255  29.610  1.00  0.00    -0.014 A 
ATOM     74  C   UNL A   1      45.579  33.425  30.863  1.00  0.00     0.009 A 
ATOM     75  C   UNL A   1      45.066  34.286  28.663  1.00  0.00     0.009 A 
ATOM     76  C   UNL A   1      46.264  34.605  31.161  1.00  0.00     0.001 A 
ATOM     77  C   UNL A   1      45.771  35.455  28.956  1.00  0.00     0.001 A 
ATOM     78  C   UNL A   1      46.367  35.616  30.205  1.00  0.00     0.000 A 
ENDBRANCH  54  73
BRANCH  66  79
ATOM     79  C   UNL A   1      46.926  27.227  26.651  1.00  0.00    -0.014 A 
ATOM     80  C   UNL A   1      47.561  27.874  25.583  1.00  0.00     0.009 A 
ATOM     81  C   UNL A   1      47.590  26.178  27.309  1.00  0.00     0.009 A 
ATOM     82  C   UNL A   1      48.840  27.479  25.183  1.00  0.00     0.001 A 
ATOM     83  C   UNL A   1      48.876  25.803  26.923  1.00  0.00     0.001 A 
ATOM     84  C   UNL A   1      49.500  26.453  25.860  1.00  0.00     0.000 A 
ENDBRANCH  66  79
ENDBRANCH  40  41
ENDBRANCH  33  35
ENDBRANCH  32  33
ENDBRANCH  31  32
ENDBRANCH  30  31
ENDBRANCH  29  30
ENDBRANCH  28  29
ENDBRANCH   1  28
TORSDOF 20
ENDMDL
