MODEL 1
REMARK VINA RESULT:      -9.6      0.000      0.000
REMARK SMILES CN(C)c1cccc(C(C)(C)C(=O)OCCOCCOCCOC(=O)c2ccc(-c3c4nc(c(-c5ccccc5)c5ccc([nH]5)c(-c5ccccc5)c5nc(c(-c6ccccc6)c6ccc3[nH]6)C=C5)C=C4)cc2)c1
REMARK SMILES IDX 18 1 17 2 16 3 15 4 14 5 12 6 13 7 9 8 10 9 11 10 8 11 4 12
REMARK SMILES IDX 5 13 74 14 6 15 7 16 2 17 1 18 3 19 19 20 20 21 21 22 22 23
REMARK SMILES IDX 23 24 24 25 25 26 26 27 27 28 73 29 28 30 72 31 29 32 30 33
REMARK SMILES IDX 31 34 66 35 32 36 71 37 65 38 67 39 33 40 70 41 64 42 63 43
REMARK SMILES IDX 34 45 56 46 41 47 55 48 42 49 45 50 54 51 68 52 43 53 44 54
REMARK SMILES IDX 53 56 69 57 46 58 35 59 36 60 40 61 37 62 39 63 38 64 57 65
REMARK SMILES IDX 58 66 62 67 59 68 61 69 60 70 47 71 48 72 52 73 49 74 51 75
REMARK SMILES IDX 50 76
REMARK H PARENT 67 44 45 55
REMARK Flexibility Score: inf
ROOT
ATOM      1  C   UNL A   1      34.345  32.651  28.928  1.00  0.00     0.188 C 
ENDROOT
BRANCH   1   2
ATOM      2  O   UNL A   1      33.977  32.185  27.649  1.00  0.00    -0.376 OA
BRANCH   2   3
ATOM      3  C   UNL A   1      33.945  30.787  27.403  1.00  0.00     0.202 C 
BRANCH   3   4
ATOM      4  C   UNL A   1      32.735  30.080  26.764  1.00  0.00     0.261 C 
BRANCH   4   5
ATOM      5  O   UNL A   1      32.968  28.746  26.271  1.00  0.00    -0.463 OA
BRANCH   5   6
ATOM      6  C   UNL A   1      32.804  28.578  24.929  1.00  0.00     0.316 C 
ATOM      7  O   UNL A   1      33.324  29.325  24.100  1.00  0.00    -0.251 OA
BRANCH   6   8
ATOM      8  C   UNL A   1      31.991  27.313  24.521  1.00  0.00     0.087 C 
ATOM      9  C   UNL A   1      31.918  26.485  25.825  1.00  0.00     0.028 C 
ATOM     10  C   UNL A   1      32.691  26.413  23.471  1.00  0.00     0.028 C 
BRANCH   8  11
ATOM     11  C   UNL A   1      30.556  27.657  24.056  1.00  0.00    -0.029 A 
ATOM     12  C   UNL A   1      28.924  29.295  23.181  1.00  0.00     0.036 A 
ATOM     13  C   UNL A   1      27.940  28.305  23.207  1.00  0.00     0.026 A 
ATOM     14  C   UNL A   1      30.206  28.954  23.635  1.00  0.00     0.030 A 
ATOM     15  C   UNL A   1      28.242  27.011  23.633  1.00  0.00     0.002 A 
ATOM     16  C   UNL A   1      29.540  26.687  24.042  1.00  0.00     0.005 A 
BRANCH  12  17
ATOM     17  N   UNL A   1      28.630  30.582  22.739  1.00  0.00    -0.378 N 
ATOM     18  C   UNL A   1      27.708  31.405  23.512  1.00  0.00     0.143 C 
ATOM     19  C   UNL A   1      28.664  30.770  21.295  1.00  0.00     0.143 C 
ENDBRANCH  12  17
ENDBRANCH   8  11
ENDBRANCH   6   8
ENDBRANCH   5   6
ENDBRANCH   4   5
ENDBRANCH   3   4
ENDBRANCH   2   3
ENDBRANCH   1   2
BRANCH   1  20
ATOM     20  C   UNL A   1      35.239  33.888  29.062  1.00  0.00     0.188 C 
BRANCH  20  21
ATOM     21  O   UNL A   1      35.398  34.532  30.302  1.00  0.00    -0.376 OA
BRANCH  21  22
ATOM     22  C   UNL A   1      34.344  34.512  31.245  1.00  0.00     0.202 C 
BRANCH  22  23
ATOM     23  C   UNL A   1      34.359  33.684  32.545  1.00  0.00     0.261 C 
BRANCH  23  24
ATOM     24  O   UNL A   1      34.974  32.389  32.514  1.00  0.00    -0.460 OA
BRANCH  24  25
ATOM     25  C   UNL A   1      36.132  32.275  33.208  1.00  0.00     0.338 C 
ATOM     26  O   UNL A   1      36.332  32.608  34.371  1.00  0.00    -0.246 OA
BRANCH  25  27
ATOM     27  C   UNL A   1      37.116  31.516  32.409  1.00  0.00     0.060 A 
ATOM     28  C   UNL A   1      38.127  30.798  33.064  1.00  0.00     0.016 A 
ATOM     29  C   UNL A   1      37.080  31.566  31.016  1.00  0.00     0.016 A 
ATOM     30  C   UNL A   1      39.128  30.159  32.327  1.00  0.00     0.010 A 
ATOM     31  C   UNL A   1      38.095  30.944  30.281  1.00  0.00     0.010 A 
ATOM     32  C   UNL A   1      39.146  30.270  30.931  1.00  0.00    -0.014 A 
BRANCH  32  33
ATOM     33  C   UNL A   1      40.328  29.824  30.146  1.00  0.00     0.031 A 
ATOM     34  C   UNL A   1      41.439  30.791  29.889  1.00  0.00     0.074 A 
ATOM     35  C   UNL A   1      40.416  28.585  29.631  1.00  0.00     0.049 A 
ATOM     36  N   UNL A   1      42.523  30.626  29.176  1.00  0.00    -0.248 NA
ATOM     37  C   UNL A   1      41.307  32.117  30.506  1.00  0.00     0.031 C 
ATOM     38  C   UNL A   1      39.432  27.545  29.849  1.00  0.00     0.029 A 
ATOM     39  N   UNL A   1      41.357  27.992  28.826  1.00  0.00    -0.354 N 
ATOM     40  C   UNL A   1      43.197  31.834  29.244  1.00  0.00     0.074 A 
ATOM     41  C   UNL A   1      42.384  32.730  30.039  1.00  0.00     0.031 C 
ATOM     42  C   UNL A   1      39.805  26.435  29.195  1.00  0.00     0.029 A 
ATOM     43  C   UNL A   1      41.049  26.694  28.489  1.00  0.00     0.049 A 
ATOM     44  H   UNL A   1      42.172  28.450  28.519  1.00  0.00     0.167 HD
ATOM     45  C   UNL A   1      44.387  32.166  28.689  1.00  0.00     0.031 A 
ATOM     46  C   UNL A   1      41.682  25.806  27.699  1.00  0.00     0.031 A 
ATOM     47  C   UNL A   1      45.176  31.285  27.867  1.00  0.00     0.049 A 
ATOM     48  C   UNL A   1      42.957  26.222  27.029  1.00  0.00     0.074 A 
ATOM     49  C   UNL A   1      46.400  31.532  27.271  1.00  0.00     0.029 A 
ATOM     50  N   UNL A   1      44.811  29.995  27.508  1.00  0.00    -0.354 N 
ATOM     51  N   UNL A   1      43.601  27.359  27.125  1.00  0.00    -0.248 NA
ATOM     52  C   UNL A   1      43.595  25.236  26.147  1.00  0.00     0.031 C 
ATOM     53  C   UNL A   1      46.743  30.419  26.497  1.00  0.00     0.029 A 
ATOM     54  C   UNL A   1      45.769  29.447  26.668  1.00  0.00     0.049 A 
ATOM     55  H   UNL A   1      43.993  29.535  27.806  1.00  0.00     0.167 HD
ATOM     56  C   UNL A   1      44.735  27.217  26.341  1.00  0.00     0.074 A 
ATOM     57  C   UNL A   1      44.701  25.877  25.791  1.00  0.00     0.031 C 
ATOM     58  C   UNL A   1      45.718  28.121  26.106  1.00  0.00     0.031 A 
BRANCH  45  59
ATOM     59  C   UNL A   1      44.860  33.573  28.915  1.00  0.00    -0.014 A 
ATOM     60  C   UNL A   1      45.662  33.911  30.019  1.00  0.00     0.009 A 
ATOM     61  C   UNL A   1      44.471  34.584  28.023  1.00  0.00     0.009 A 
ATOM     62  C   UNL A   1      46.016  35.242  30.252  1.00  0.00     0.001 A 
ATOM     63  C   UNL A   1      44.857  35.907  28.240  1.00  0.00     0.001 A 
ATOM     64  C   UNL A   1      45.616  36.237  29.362  1.00  0.00     0.000 A 
ENDBRANCH  45  59
BRANCH  46  65
ATOM     65  C   UNL A   1      41.137  24.431  27.520  1.00  0.00    -0.014 A 
ATOM     66  C   UNL A   1      41.712  23.347  28.202  1.00  0.00     0.009 A 
ATOM     67  C   UNL A   1      40.040  24.191  26.676  1.00  0.00     0.009 A 
ATOM     68  C   UNL A   1      41.214  22.053  28.030  1.00  0.00     0.001 A 
ATOM     69  C   UNL A   1      39.525  22.900  26.530  1.00  0.00     0.001 A 
ATOM     70  C   UNL A   1      40.117  21.831  27.199  1.00  0.00     0.000 A 
ENDBRANCH  46  65
BRANCH  58  71
ATOM     71  C   UNL A   1      46.855  27.671  25.232  1.00  0.00    -0.014 A 
ATOM     72  C   UNL A   1      46.889  27.972  23.861  1.00  0.00     0.009 A 
ATOM     73  C   UNL A   1      47.917  26.946  25.794  1.00  0.00     0.009 A 
ATOM     74  C   UNL A   1      47.943  27.519  23.064  1.00  0.00     0.001 A 
ATOM     75  C   UNL A   1      48.986  26.524  25.003  1.00  0.00     0.001 A 
ATOM     76  C   UNL A   1      48.993  26.801  23.638  1.00  0.00     0.000 A 
ENDBRANCH  58  71
ENDBRANCH  32  33
ENDBRANCH  25  27
ENDBRANCH  24  25
ENDBRANCH  23  24
ENDBRANCH  22  23
ENDBRANCH  21  22
ENDBRANCH  20  21
ENDBRANCH   1  20
TORSDOF 19
ENDMDL
MODEL 2
REMARK VINA RESULT:      -9.5      4.617      7.678
REMARK SMILES CN(C)c1cccc(C(C)(C)C(=O)OCCOCCOCCOC(=O)c2ccc(-c3c4nc(c(-c5ccccc5)c5ccc([nH]5)c(-c5ccccc5)c5nc(c(-c6ccccc6)c6ccc3[nH]6)C=C5)C=C4)cc2)c1
REMARK SMILES IDX 18 1 17 2 16 3 15 4 14 5 12 6 13 7 9 8 10 9 11 10 8 11 4 12
REMARK SMILES IDX 5 13 74 14 6 15 7 16 2 17 1 18 3 19 19 20 20 21 21 22 22 23
REMARK SMILES IDX 23 24 24 25 25 26 26 27 27 28 73 29 28 30 72 31 29 32 30 33
REMARK SMILES IDX 31 34 66 35 32 36 71 37 65 38 67 39 33 40 70 41 64 42 63 43
REMARK SMILES IDX 34 45 56 46 41 47 55 48 42 49 45 50 54 51 68 52 43 53 44 54
REMARK SMILES IDX 53 56 69 57 46 58 35 59 36 60 40 61 37 62 39 63 38 64 57 65
REMARK SMILES IDX 58 66 62 67 59 68 61 69 60 70 47 71 48 72 52 73 49 74 51 75
REMARK SMILES IDX 50 76
REMARK H PARENT 67 44 45 55
REMARK Flexibility Score: inf
ROOT
ATOM      1  C   UNL A   1      32.501  36.641  30.546  1.00  0.00     0.188 C 
ENDROOT
BRANCH   1   2
ATOM      2  O   UNL A   1      33.057  37.147  31.740  1.00  0.00    -0.376 OA
BRANCH   2   3
ATOM      3  C   UNL A   1      33.074  36.326  32.898  1.00  0.00     0.202 C 
BRANCH   3   4
ATOM      4  C   UNL A   1      34.352  36.063  33.716  1.00  0.00     0.261 C 
BRANCH   4   5
ATOM      5  O   UNL A   1      35.385  35.308  33.052  1.00  0.00    -0.463 OA
BRANCH   5   6
ATOM      6  C   UNL A   1      35.626  34.068  33.562  1.00  0.00     0.316 C 
ATOM      7  O   UNL A   1      35.114  33.672  34.609  1.00  0.00    -0.251 OA
BRANCH   6   8
ATOM      8  C   UNL A   1      36.520  33.156  32.669  1.00  0.00     0.087 C 
ATOM      9  C   UNL A   1      35.887  33.281  31.264  1.00  0.00     0.028 C 
ATOM     10  C   UNL A   1      36.470  31.651  33.039  1.00  0.00     0.028 C 
BRANCH   8  11
ATOM     11  C   UNL A   1      37.988  33.641  32.612  1.00  0.00    -0.029 A 
ATOM     12  C   UNL A   1      39.981  34.279  31.297  1.00  0.00     0.036 A 
ATOM     13  C   UNL A   1      40.669  34.523  32.487  1.00  0.00     0.026 A 
ATOM     14  C   UNL A   1      38.662  33.815  31.388  1.00  0.00     0.030 A 
ATOM     15  C   UNL A   1      40.042  34.347  33.721  1.00  0.00     0.002 A 
ATOM     16  C   UNL A   1      38.711  33.922  33.783  1.00  0.00     0.005 A 
BRANCH  12  17
ATOM     17  N   UNL A   1      40.598  34.472  30.064  1.00  0.00    -0.378 N 
ATOM     18  C   UNL A   1      42.018  34.804  30.024  1.00  0.00     0.143 C 
ATOM     19  C   UNL A   1      39.744  35.008  29.014  1.00  0.00     0.143 C 
ENDBRANCH  12  17
ENDBRANCH   8  11
ENDBRANCH   6   8
ENDBRANCH   5   6
ENDBRANCH   4   5
ENDBRANCH   3   4
ENDBRANCH   2   3
ENDBRANCH   1   2
BRANCH   1  20
ATOM     20  C   UNL A   1      33.168  35.461  29.832  1.00  0.00     0.188 C 
BRANCH  20  21
ATOM     21  O   UNL A   1      32.574  34.874  28.701  1.00  0.00    -0.376 OA
BRANCH  21  22
ATOM     22  C   UNL A   1      33.304  33.942  27.926  1.00  0.00     0.202 C 
BRANCH  22  23
ATOM     23  C   UNL A   1      34.813  33.675  28.087  1.00  0.00     0.261 C 
BRANCH  23  24
ATOM     24  O   UNL A   1      35.357  32.492  27.489  1.00  0.00    -0.460 OA
BRANCH  24  25
ATOM     25  C   UNL A   1      34.892  31.319  27.984  1.00  0.00     0.338 C 
ATOM     26  O   UNL A   1      33.727  30.935  28.000  1.00  0.00    -0.246 OA
BRANCH  25  27
ATOM     27  C   UNL A   1      36.028  30.456  28.366  1.00  0.00     0.060 A 
ATOM     28  C   UNL A   1      36.055  29.881  29.645  1.00  0.00     0.016 A 
ATOM     29  C   UNL A   1      37.095  30.268  27.488  1.00  0.00     0.016 A 
ATOM     30  C   UNL A   1      37.169  29.147  30.063  1.00  0.00     0.010 A 
ATOM     31  C   UNL A   1      38.218  29.552  27.917  1.00  0.00     0.010 A 
ATOM     32  C   UNL A   1      38.279  29.019  29.219  1.00  0.00    -0.014 A 
BRANCH  32  33
ATOM     33  C   UNL A   1      39.565  28.470  29.727  1.00  0.00     0.031 A 
ATOM     34  C   UNL A   1      40.271  29.180  30.838  1.00  0.00     0.074 A 
ATOM     35  C   UNL A   1      40.131  27.372  29.198  1.00  0.00     0.049 A 
ATOM     36  N   UNL A   1      41.429  28.908  31.381  1.00  0.00    -0.248 NA
ATOM     37  C   UNL A   1      39.589  30.352  31.402  1.00  0.00     0.031 C 
ATOM     38  C   UNL A   1      39.525  26.571  28.153  1.00  0.00     0.029 A 
ATOM     39  N   UNL A   1      41.325  26.744  29.449  1.00  0.00    -0.354 N 
ATOM     40  C   UNL A   1      41.625  29.886  32.342  1.00  0.00     0.074 A 
ATOM     41  C   UNL A   1      40.482  30.773  32.284  1.00  0.00     0.031 C 
ATOM     42  C   UNL A   1      40.343  25.556  27.840  1.00  0.00     0.029 A 
ATOM     43  C   UNL A   1      41.548  25.648  28.648  1.00  0.00     0.049 A 
ATOM     44  H   UNL A   1      41.962  27.049  30.136  1.00  0.00     0.167 HD
ATOM     45  C   UNL A   1      42.667  30.030  33.195  1.00  0.00     0.031 A 
ATOM     46  C   UNL A   1      42.598  24.810  28.560  1.00  0.00     0.031 A 
ATOM     47  C   UNL A   1      43.821  29.168  33.225  1.00  0.00     0.049 A 
ATOM     48  C   UNL A   1      43.777  25.038  29.457  1.00  0.00     0.074 A 
ATOM     49  C   UNL A   1      44.920  29.232  34.062  1.00  0.00     0.029 A 
ATOM     50  N   UNL A   1      44.034  28.097  32.368  1.00  0.00    -0.354 N 
ATOM     51  N   UNL A   1      43.937  25.949  30.384  1.00  0.00    -0.248 NA
ATOM     52  C   UNL A   1      44.915  24.122  29.302  1.00  0.00     0.031 C 
ATOM     53  C   UNL A   1      45.829  28.244  33.668  1.00  0.00     0.029 A 
ATOM     54  C   UNL A   1      45.265  27.516  32.633  1.00  0.00     0.049 A 
ATOM     55  H   UNL A   1      43.404  27.794  31.675  1.00  0.00     0.167 HD
ATOM     56  C   UNL A   1      45.181  25.701  30.945  1.00  0.00     0.074 A 
ATOM     57  C   UNL A   1      45.724  24.542  30.265  1.00  0.00     0.031 C 
ATOM     58  C   UNL A   1      45.809  26.376  31.939  1.00  0.00     0.031 A 
BRANCH  45  59
ATOM     59  C   UNL A   1      42.616  31.214  34.118  1.00  0.00    -0.014 A 
ATOM     60  C   UNL A   1      43.377  32.370  33.873  1.00  0.00     0.009 A 
ATOM     61  C   UNL A   1      41.817  31.157  35.269  1.00  0.00     0.009 A 
ATOM     62  C   UNL A   1      43.378  33.421  34.793  1.00  0.00     0.001 A 
ATOM     63  C   UNL A   1      41.793  32.224  36.167  1.00  0.00     0.001 A 
ATOM     64  C   UNL A   1      42.584  33.349  35.936  1.00  0.00     0.000 A 
ENDBRANCH  45  59
BRANCH  46  65
ATOM     65  C   UNL A   1      42.571  23.665  27.606  1.00  0.00    -0.014 A 
ATOM     66  C   UNL A   1      42.109  22.407  28.024  1.00  0.00     0.009 A 
ATOM     67  C   UNL A   1      43.000  23.819  26.278  1.00  0.00     0.009 A 
ATOM     68  C   UNL A   1      42.093  21.326  27.139  1.00  0.00     0.001 A 
ATOM     69  C   UNL A   1      42.954  22.742  25.386  1.00  0.00     0.001 A 
ATOM     70  C   UNL A   1      42.509  21.496  25.820  1.00  0.00     0.000 A 
ENDBRANCH  46  65
BRANCH  58  71
ATOM     71  C   UNL A   1      47.151  25.852  32.367  1.00  0.00    -0.014 A 
ATOM     72  C   UNL A   1      48.334  26.253  31.726  1.00  0.00     0.009 A 
ATOM     73  C   UNL A   1      47.233  24.953  33.442  1.00  0.00     0.009 A 
ATOM     74  C   UNL A   1      49.566  25.731  32.126  1.00  0.00     0.001 A 
ATOM     75  C   UNL A   1      48.469  24.460  33.862  1.00  0.00     0.001 A 
ATOM     76  C   UNL A   1      49.632  24.840  33.197  1.00  0.00     0.000 A 
ENDBRANCH  58  71
ENDBRANCH  32  33
ENDBRANCH  25  27
ENDBRANCH  24  25
ENDBRANCH  23  24
ENDBRANCH  22  23
ENDBRANCH  21  22
ENDBRANCH  20  21
ENDBRANCH   1  20
TORSDOF 19
ENDMDL
MODEL 3
REMARK VINA RESULT:      -9.3      0.742      5.971
REMARK SMILES CN(C)c1cccc(C(C)(C)C(=O)OCCOCCOCCOC(=O)c2ccc(-c3c4nc(c(-c5ccccc5)c5ccc([nH]5)c(-c5ccccc5)c5nc(c(-c6ccccc6)c6ccc3[nH]6)C=C5)C=C4)cc2)c1
REMARK SMILES IDX 18 1 17 2 16 3 15 4 14 5 12 6 13 7 9 8 10 9 11 10 8 11 4 12
REMARK SMILES IDX 5 13 74 14 6 15 7 16 2 17 1 18 3 19 19 20 20 21 21 22 22 23
REMARK SMILES IDX 23 24 24 25 25 26 26 27 27 28 73 29 28 30 72 31 29 32 30 33
REMARK SMILES IDX 31 34 66 35 32 36 71 37 65 38 67 39 33 40 70 41 64 42 63 43
REMARK SMILES IDX 34 45 56 46 41 47 55 48 42 49 45 50 54 51 68 52 43 53 44 54
REMARK SMILES IDX 53 56 69 57 46 58 35 59 36 60 40 61 37 62 39 63 38 64 57 65
REMARK SMILES IDX 58 66 62 67 59 68 61 69 60 70 47 71 48 72 52 73 49 74 51 75
REMARK SMILES IDX 50 76
REMARK H PARENT 67 44 45 55
REMARK Flexibility Score: inf
ROOT
ATOM      1  C   UNL A   1      34.998  32.076  27.975  1.00  0.00     0.188 C 
ENDROOT
BRANCH   1   2
ATOM      2  O   UNL A   1      34.272  30.871  27.861  1.00  0.00    -0.376 OA
BRANCH   2   3
ATOM      3  C   UNL A   1      32.955  30.903  27.334  1.00  0.00     0.202 C 
BRANCH   3   4
ATOM      4  C   UNL A   1      32.145  29.627  27.036  1.00  0.00     0.261 C 
BRANCH   4   5
ATOM      5  O   UNL A   1      31.909  29.337  25.644  1.00  0.00    -0.463 OA
BRANCH   5   6
ATOM      6  C   UNL A   1      32.870  28.595  25.027  1.00  0.00     0.316 C 
ATOM      7  O   UNL A   1      34.025  28.527  25.446  1.00  0.00    -0.251 OA
BRANCH   6   8
ATOM      8  C   UNL A   1      32.372  27.760  23.809  1.00  0.00     0.087 C 
ATOM      9  C   UNL A   1      32.793  26.313  24.155  1.00  0.00     0.028 C 
ATOM     10  C   UNL A   1      33.065  28.108  22.467  1.00  0.00     0.028 C 
BRANCH   8  11
ATOM     11  C   UNL A   1      30.834  27.817  23.644  1.00  0.00    -0.029 A 
ATOM     12  C   UNL A   1      28.794  29.056  22.999  1.00  0.00     0.036 A 
ATOM     13  C   UNL A   1      28.027  27.940  23.339  1.00  0.00     0.026 A 
ATOM     14  C   UNL A   1      30.181  28.977  23.187  1.00  0.00     0.030 A 
ATOM     15  C   UNL A   1      28.635  26.776  23.812  1.00  0.00     0.002 A 
ATOM     16  C   UNL A   1      30.025  26.710  23.951  1.00  0.00     0.005 A 
BRANCH  12  17
ATOM     17  N   UNL A   1      28.193  30.212  22.510  1.00  0.00    -0.378 N 
ATOM     18  C   UNL A   1      28.632  30.754  21.229  1.00  0.00     0.143 C 
ATOM     19  C   UNL A   1      27.726  31.149  23.522  1.00  0.00     0.143 C 
ENDBRANCH  12  17
ENDBRANCH   8  11
ENDBRANCH   6   8
ENDBRANCH   5   6
ENDBRANCH   4   5
ENDBRANCH   3   4
ENDBRANCH   2   3
ENDBRANCH   1   2
BRANCH   1  20
ATOM     20  C   UNL A   1      34.402  33.256  28.752  1.00  0.00     0.188 C 
BRANCH  20  21
ATOM     21  O   UNL A   1      35.102  33.841  29.821  1.00  0.00    -0.376 OA
BRANCH  21  22
ATOM     22  C   UNL A   1      34.425  34.133  31.029  1.00  0.00     0.202 C 
BRANCH  22  23
ATOM     23  C   UNL A   1      34.540  33.290  32.313  1.00  0.00     0.261 C 
BRANCH  23  24
ATOM     24  O   UNL A   1      35.206  32.023  32.232  1.00  0.00    -0.460 OA
BRANCH  24  25
ATOM     25  C   UNL A   1      36.358  31.922  32.937  1.00  0.00     0.338 C 
ATOM     26  O   UNL A   1      36.531  32.214  34.115  1.00  0.00    -0.246 OA
BRANCH  25  27
ATOM     27  C   UNL A   1      37.379  31.230  32.123  1.00  0.00     0.060 A 
ATOM     28  C   UNL A   1      38.455  30.596  32.762  1.00  0.00     0.016 A 
ATOM     29  C   UNL A   1      37.308  31.262  30.730  1.00  0.00     0.016 A 
ATOM     30  C   UNL A   1      39.485  30.026  32.009  1.00  0.00     0.010 A 
ATOM     31  C   UNL A   1      38.351  30.710  29.979  1.00  0.00     0.010 A 
ATOM     32  C   UNL A   1      39.464  30.122  30.611  1.00  0.00    -0.014 A 
BRANCH  32  33
ATOM     33  C   UNL A   1      40.659  29.757  29.804  1.00  0.00     0.031 A 
ATOM     34  C   UNL A   1      40.756  28.381  29.227  1.00  0.00     0.074 A 
ATOM     35  C   UNL A   1      41.672  30.616  29.602  1.00  0.00     0.049 A 
ATOM     36  N   UNL A   1      41.736  27.840  28.552  1.00  0.00    -0.248 NA
ATOM     37  C   UNL A   1      39.603  27.497  29.448  1.00  0.00     0.031 C 
ATOM     38  C   UNL A   1      41.676  31.989  30.066  1.00  0.00     0.029 A 
ATOM     39  N   UNL A   1      42.882  30.474  28.970  1.00  0.00    -0.354 N 
ATOM     40  C   UNL A   1      41.328  26.545  28.280  1.00  0.00     0.074 A 
ATOM     41  C   UNL A   1      40.026  26.373  28.891  1.00  0.00     0.031 C 
ATOM     42  C   UNL A   1      42.830  32.574  29.714  1.00  0.00     0.029 A 
ATOM     43  C   UNL A   1      43.662  31.607  29.016  1.00  0.00     0.049 A 
ATOM     44  H   UNL A   1      43.166  29.642  28.526  1.00  0.00     0.167 HD
ATOM     45  C   UNL A   1      41.983  25.586  27.585  1.00  0.00     0.031 A 
ATOM     46  C   UNL A   1      44.905  31.851  28.560  1.00  0.00     0.031 A 
ATOM     47  C   UNL A   1      43.294  25.747  27.010  1.00  0.00     0.049 A 
ATOM     48  C   UNL A   1      45.644  30.748  27.865  1.00  0.00     0.074 A 
ATOM     49  C   UNL A   1      44.031  24.832  26.280  1.00  0.00     0.029 A 
ATOM     50  N   UNL A   1      44.072  26.891  27.118  1.00  0.00    -0.354 N 
ATOM     51  N   UNL A   1      45.235  29.535  27.587  1.00  0.00    -0.248 NA
ATOM     52  C   UNL A   1      47.011  31.045  27.416  1.00  0.00     0.031 C 
ATOM     53  C   UNL A   1      45.281  25.397  26.004  1.00  0.00     0.029 A 
ATOM     54  C   UNL A   1      45.297  26.692  26.498  1.00  0.00     0.049 A 
ATOM     55  H   UNL A   1      43.796  27.723  27.566  1.00  0.00     0.167 HD
ATOM     56  C   UNL A   1      46.281  28.931  26.905  1.00  0.00     0.074 A 
ATOM     57  C   UNL A   1      47.336  29.919  26.796  1.00  0.00     0.031 C 
ATOM     58  C   UNL A   1      46.351  27.671  26.411  1.00  0.00     0.031 A 
BRANCH  45  59
ATOM     59  C   UNL A   1      41.297  24.255  27.474  1.00  0.00    -0.014 A 
ATOM     60  C   UNL A   1      41.731  23.140  28.211  1.00  0.00     0.009 A 
ATOM     61  C   UNL A   1      40.216  24.107  26.592  1.00  0.00     0.009 A 
ATOM     62  C   UNL A   1      41.130  21.893  28.025  1.00  0.00     0.001 A 
ATOM     63  C   UNL A   1      39.595  22.867  26.434  1.00  0.00     0.001 A 
ATOM     64  C   UNL A   1      40.062  21.759  27.139  1.00  0.00     0.000 A 
ENDBRANCH  45  59
BRANCH  46  65
ATOM     65  C   UNL A   1      45.518  33.200  28.723  1.00  0.00    -0.014 A 
ATOM     66  C   UNL A   1      46.154  33.547  29.924  1.00  0.00     0.009 A 
ATOM     67  C   UNL A   1      45.478  34.143  27.683  1.00  0.00     0.009 A 
ATOM     68  C   UNL A   1      46.721  34.814  30.089  1.00  0.00     0.001 A 
ATOM     69  C   UNL A   1      46.072  35.399  27.839  1.00  0.00     0.001 A 
ATOM     70  C   UNL A   1      46.685  35.736  29.044  1.00  0.00     0.000 A 
ENDBRANCH  46  65
BRANCH  58  71
ATOM     71  C   UNL A   1      47.612  27.301  25.680  1.00  0.00    -0.014 A 
ATOM     72  C   UNL A   1      47.736  27.482  24.294  1.00  0.00     0.009 A 
ATOM     73  C   UNL A   1      48.699  26.776  26.397  1.00  0.00     0.009 A 
ATOM     74  C   UNL A   1      48.908  27.105  23.635  1.00  0.00     0.001 A 
ATOM     75  C   UNL A   1      49.881  26.432  25.741  1.00  0.00     0.001 A 
ATOM     76  C   UNL A   1      49.981  26.586  24.360  1.00  0.00     0.000 A 
ENDBRANCH  58  71
ENDBRANCH  32  33
ENDBRANCH  25  27
ENDBRANCH  24  25
ENDBRANCH  23  24
ENDBRANCH  22  23
ENDBRANCH  21  22
ENDBRANCH  20  21
ENDBRANCH   1  20
TORSDOF 19
ENDMDL
