MODEL 1
REMARK VINA RESULT:     -10.2      0.000      0.000
REMARK SMILES C[C@@H](NC(=O)c1cc(C(=O)OCCOCCOCCOC(=O)c2ccc(-c3c4nc(c(-c5ccccc5)c5ccc([nH]5)c(-c5ccccc5)c5nc(c(-c6ccccc6)c6ccc3[nH]6)C=C5)C=C4)cc2)n(C)n1)c1ccccc1
REMARK SMILES IDX 15 1 14 2 13 3 12 4 11 5 9 6 10 7 8 8 6 9 7 10 73 11 71 12
REMARK SMILES IDX 72 13 4 14 3 15 5 17 2 18 1 19 74 20 75 21 79 22 76 23 78 24
REMARK SMILES IDX 77 25 16 26 17 27 18 28 19 29 20 30 21 31 22 32 23 33 24 34
REMARK SMILES IDX 70 35 25 36 69 37 26 38 27 39 28 40 63 41 29 42 68 43 62 44
REMARK SMILES IDX 64 45 30 46 67 47 61 48 60 49 31 51 53 52 38 53 52 54 39 55
REMARK SMILES IDX 42 56 51 57 65 58 40 59 41 60 50 62 66 63 43 64 32 65 33 66
REMARK SMILES IDX 37 67 34 68 36 69 35 70 54 71 55 72 59 73 56 74 58 75 57 76
REMARK SMILES IDX 44 77 45 78 49 79 46 80 48 81 47 82
REMARK H PARENT 3 16 64 50 42 61
REMARK Flexibility Score: inf
ROOT
ATOM      1  C   UNL A   1      39.982  21.771  26.330  1.00  0.00     0.188 C 
ENDROOT
BRANCH   1   2
ATOM      2  O   UNL A   1      39.668  22.885  27.156  1.00  0.00    -0.376 OA
BRANCH   2   3
ATOM      3  C   UNL A   1      38.672  23.778  26.657  1.00  0.00     0.202 C 
BRANCH   3   4
ATOM      4  C   UNL A   1      37.619  23.118  25.751  1.00  0.00     0.261 C 
BRANCH   4   5
ATOM      5  O   UNL A   1      36.916  24.061  24.905  1.00  0.00    -0.459 OA
BRANCH   5   6
ATOM      6  C   UNL A   1      35.905  23.498  24.161  1.00  0.00     0.356 C 
ATOM      7  O   UNL A   1      36.053  23.101  23.010  1.00  0.00    -0.244 OA
BRANCH   6   8
ATOM      8  C   UNL A   1      34.680  23.352  24.917  1.00  0.00     0.146 A 
ATOM      9  C   UNL A   1      32.720  23.742  25.987  1.00  0.00     0.151 A 
ATOM     10  C   UNL A   1      33.877  24.365  25.439  1.00  0.00     0.071 A 
ATOM     11  N   UNL A   1      32.881  22.403  25.962  1.00  0.00    -0.167 NA
ATOM     12  N   UNL A   1      34.060  22.199  25.329  1.00  0.00    -0.260 N 
ATOM     13  C   UNL A   1      34.555  20.842  25.270  1.00  0.00     0.174 C 
BRANCH   9  14
ATOM     14  C   UNL A   1      31.577  24.368  26.688  1.00  0.00     0.272 C 
ATOM     15  N   UNL A   1      31.310  25.730  26.663  1.00  0.00    -0.344 N 
ATOM     16  H   UNL A   1      30.350  25.942  26.705  1.00  0.00     0.164 HD
ATOM     17  O   UNL A   1      30.760  23.668  27.293  1.00  0.00    -0.267 OA
BRANCH  15  18
ATOM     18  C   UNL A   1      32.169  26.920  26.587  1.00  0.00     0.109 C 
ATOM     19  C   UNL A   1      31.799  27.955  27.656  1.00  0.00     0.036 C 
BRANCH  18  20
ATOM     20  C   UNL A   1      32.179  27.548  25.225  1.00  0.00    -0.026 A 
ATOM     21  C   UNL A   1      30.999  27.612  24.467  1.00  0.00     0.006 A 
ATOM     22  C   UNL A   1      33.417  27.871  24.654  1.00  0.00     0.006 A 
ATOM     23  C   UNL A   1      31.082  27.806  23.104  1.00  0.00     0.000 A 
ATOM     24  C   UNL A   1      33.499  28.056  23.291  1.00  0.00     0.000 A 
ATOM     25  C   UNL A   1      32.336  27.946  22.530  1.00  0.00     0.000 A 
ENDBRANCH  18  20
ENDBRANCH  15  18
ENDBRANCH   9  14
ENDBRANCH   6   8
ENDBRANCH   5   6
ENDBRANCH   4   5
ENDBRANCH   3   4
ENDBRANCH   2   3
ENDBRANCH   1   2
BRANCH   1  26
ATOM     26  C   UNL A   1      41.398  21.192  26.515  1.00  0.00     0.188 C 
BRANCH  26  27
ATOM     27  O   UNL A   1      42.280  21.292  25.408  1.00  0.00    -0.376 OA
BRANCH  27  28
ATOM     28  C   UNL A   1      43.661  21.458  25.712  1.00  0.00     0.202 C 
BRANCH  28  29
ATOM     29  C   UNL A   1      44.432  22.334  24.721  1.00  0.00     0.261 C 
BRANCH  29  30
ATOM     30  O   UNL A   1      43.802  23.625  24.549  1.00  0.00    -0.460 OA
BRANCH  30  31
ATOM     31  C   UNL A   1      44.493  24.679  25.049  1.00  0.00     0.338 C 
ATOM     32  O   UNL A   1      45.600  25.059  24.707  1.00  0.00    -0.246 OA
BRANCH  31  33
ATOM     33  C   UNL A   1      43.677  25.421  26.032  1.00  0.00     0.060 A 
ATOM     34  C   UNL A   1      44.043  26.738  26.322  1.00  0.00     0.016 A 
ATOM     35  C   UNL A   1      42.650  24.808  26.755  1.00  0.00     0.016 A 
ATOM     36  C   UNL A   1      43.397  27.445  27.339  1.00  0.00     0.010 A 
ATOM     37  C   UNL A   1      42.018  25.511  27.791  1.00  0.00     0.010 A 
ATOM     38  C   UNL A   1      42.399  26.829  28.102  1.00  0.00    -0.014 A 
BRANCH  38  39
ATOM     39  C   UNL A   1      41.876  27.504  29.318  1.00  0.00     0.031 A 
ATOM     40  C   UNL A   1      40.585  28.272  29.228  1.00  0.00     0.074 A 
ATOM     41  C   UNL A   1      42.515  27.428  30.500  1.00  0.00     0.049 A 
ATOM     42  N   UNL A   1      39.989  29.001  30.138  1.00  0.00    -0.248 NA
ATOM     43  C   UNL A   1      39.868  28.200  27.945  1.00  0.00     0.031 C 
ATOM     44  C   UNL A   1      43.726  26.655  30.766  1.00  0.00     0.029 A 
ATOM     45  N   UNL A   1      42.226  28.027  31.704  1.00  0.00    -0.354 N 
ATOM     46  C   UNL A   1      38.831  29.479  29.538  1.00  0.00     0.074 A 
ATOM     47  C   UNL A   1      38.811  28.962  28.186  1.00  0.00     0.031 C 
ATOM     48  C   UNL A   1      44.089  26.843  32.048  1.00  0.00     0.029 A 
ATOM     49  C   UNL A   1      43.161  27.781  32.680  1.00  0.00     0.049 A 
ATOM     50  H   UNL A   1      41.426  28.579  31.852  1.00  0.00     0.167 HD
ATOM     51  C   UNL A   1      37.872  30.281  30.057  1.00  0.00     0.031 A 
ATOM     52  C   UNL A   1      43.275  28.284  33.926  1.00  0.00     0.031 A 
ATOM     53  C   UNL A   1      37.888  30.828  31.387  1.00  0.00     0.049 A 
ATOM     54  C   UNL A   1      42.263  29.280  34.436  1.00  0.00     0.074 A 
ATOM     55  C   UNL A   1      36.961  31.666  31.984  1.00  0.00     0.029 A 
ATOM     56  N   UNL A   1      38.885  30.606  32.319  1.00  0.00    -0.354 N 
ATOM     57  N   UNL A   1      41.173  29.723  33.859  1.00  0.00    -0.248 NA
ATOM     58  C   UNL A   1      42.505  29.848  35.772  1.00  0.00     0.031 C 
ATOM     59  C   UNL A   1      37.425  31.993  33.261  1.00  0.00     0.029 A 
ATOM     60  C   UNL A   1      38.611  31.313  33.478  1.00  0.00     0.049 A 
ATOM     61  H   UNL A   1      39.671  30.031  32.181  1.00  0.00     0.167 HD
ATOM     62  C   UNL A   1      40.587  30.594  34.773  1.00  0.00     0.074 A 
ATOM     63  C   UNL A   1      41.433  30.608  35.946  1.00  0.00     0.031 C 
ATOM     64  C   UNL A   1      39.447  31.317  34.649  1.00  0.00     0.031 A 
BRANCH  51  65
ATOM     65  C   UNL A   1      36.733  30.660  29.157  1.00  0.00    -0.014 A 
ATOM     66  C   UNL A   1      36.618  31.957  28.634  1.00  0.00     0.009 A 
ATOM     67  C   UNL A   1      35.786  29.690  28.795  1.00  0.00     0.009 A 
ATOM     68  C   UNL A   1      35.561  32.281  27.783  1.00  0.00     0.001 A 
ATOM     69  C   UNL A   1      34.743  30.011  27.925  1.00  0.00     0.001 A 
ATOM     70  C   UNL A   1      34.627  31.308  27.425  1.00  0.00     0.000 A 
ENDBRANCH  51  65
BRANCH  52  71
ATOM     71  C   UNL A   1      44.431  27.912  34.787  1.00  0.00    -0.014 A 
ATOM     72  C   UNL A   1      44.341  26.831  35.678  1.00  0.00     0.009 A 
ATOM     73  C   UNL A   1      45.601  28.687  34.777  1.00  0.00     0.009 A 
ATOM     74  C   UNL A   1      45.384  26.559  36.567  1.00  0.00     0.001 A 
ATOM     75  C   UNL A   1      46.654  28.395  35.645  1.00  0.00     0.001 A 
ATOM     76  C   UNL A   1      46.539  27.340  36.548  1.00  0.00     0.000 A 
ENDBRANCH  52  71
BRANCH  64  77
ATOM     77  C   UNL A   1      39.013  32.148  35.824  1.00  0.00    -0.014 A 
ATOM     78  C   UNL A   1      39.404  33.489  35.956  1.00  0.00     0.009 A 
ATOM     79  C   UNL A   1      38.155  31.594  36.788  1.00  0.00     0.009 A 
ATOM     80  C   UNL A   1      38.965  34.250  37.044  1.00  0.00     0.001 A 
ATOM     81  C   UNL A   1      37.696  32.363  37.859  1.00  0.00     0.001 A 
ATOM     82  C   UNL A   1      38.107  33.689  37.990  1.00  0.00     0.000 A 
ENDBRANCH  64  77
ENDBRANCH  38  39
ENDBRANCH  31  33
ENDBRANCH  30  31
ENDBRANCH  29  30
ENDBRANCH  28  29
ENDBRANCH  27  28
ENDBRANCH  26  27
ENDBRANCH   1  26
TORSDOF 20
ENDMDL
MODEL 2
REMARK VINA RESULT:     -10.0      4.477      8.275
REMARK SMILES C[C@@H](NC(=O)c1cc(C(=O)OCCOCCOCCOC(=O)c2ccc(-c3c4nc(c(-c5ccccc5)c5ccc([nH]5)c(-c5ccccc5)c5nc(c(-c6ccccc6)c6ccc3[nH]6)C=C5)C=C4)cc2)n(C)n1)c1ccccc1
REMARK SMILES IDX 15 1 14 2 13 3 12 4 11 5 9 6 10 7 8 8 6 9 7 10 73 11 71 12
REMARK SMILES IDX 72 13 4 14 3 15 5 17 2 18 1 19 74 20 75 21 79 22 76 23 78 24
REMARK SMILES IDX 77 25 16 26 17 27 18 28 19 29 20 30 21 31 22 32 23 33 24 34
REMARK SMILES IDX 70 35 25 36 69 37 26 38 27 39 28 40 63 41 29 42 68 43 62 44
REMARK SMILES IDX 64 45 30 46 67 47 61 48 60 49 31 51 53 52 38 53 52 54 39 55
REMARK SMILES IDX 42 56 51 57 65 58 40 59 41 60 50 62 66 63 43 64 32 65 33 66
REMARK SMILES IDX 37 67 34 68 36 69 35 70 54 71 55 72 59 73 56 74 58 75 57 76
REMARK SMILES IDX 44 77 45 78 49 79 46 80 48 81 47 82
REMARK H PARENT 3 16 64 50 42 61
REMARK Flexibility Score: inf
ROOT
ATOM      1  C   UNL A   1      39.857  21.824  26.869  1.00  0.00     0.188 C 
ENDROOT
BRANCH   1   2
ATOM      2  O   UNL A   1      38.569  22.241  26.432  1.00  0.00    -0.376 OA
BRANCH   2   3
ATOM      3  C   UNL A   1      38.062  21.593  25.265  1.00  0.00     0.202 C 
BRANCH   3   4
ATOM      4  C   UNL A   1      36.553  21.303  25.300  1.00  0.00     0.261 C 
BRANCH   4   5
ATOM      5  O   UNL A   1      35.788  22.119  24.378  1.00  0.00    -0.459 OA
BRANCH   5   6
ATOM      6  C   UNL A   1      34.933  23.004  24.992  1.00  0.00     0.356 C 
ATOM      7  O   UNL A   1      35.025  23.326  26.172  1.00  0.00    -0.244 OA
BRANCH   6   8
ATOM      8  C   UNL A   1      33.974  23.574  24.070  1.00  0.00     0.146 A 
ATOM      9  C   UNL A   1      32.985  24.763  22.414  1.00  0.00     0.151 A 
ATOM     10  C   UNL A   1      34.159  24.657  23.212  1.00  0.00     0.071 A 
ATOM     11  N   UNL A   1      32.054  23.903  22.874  1.00  0.00    -0.167 NA
ATOM     12  N   UNL A   1      32.665  23.214  23.865  1.00  0.00    -0.260 N 
ATOM     13  C   UNL A   1      31.854  22.297  24.634  1.00  0.00     0.174 C 
BRANCH   9  14
ATOM     14  C   UNL A   1      32.662  25.765  21.373  1.00  0.00     0.272 C 
ATOM     15  N   UNL A   1      32.067  26.990  21.641  1.00  0.00    -0.344 N 
ATOM     16  H   UNL A   1      32.354  27.707  21.031  1.00  0.00     0.164 HD
ATOM     17  O   UNL A   1      32.975  25.562  20.196  1.00  0.00    -0.267 OA
BRANCH  15  18
ATOM     18  C   UNL A   1      31.094  27.434  22.650  1.00  0.00     0.109 C 
ATOM     19  C   UNL A   1      30.553  28.834  22.335  1.00  0.00     0.036 C 
BRANCH  18  20
ATOM     20  C   UNL A   1      31.635  27.378  24.047  1.00  0.00    -0.026 A 
ATOM     21  C   UNL A   1      32.872  27.967  24.352  1.00  0.00     0.006 A 
ATOM     22  C   UNL A   1      30.985  26.553  24.975  1.00  0.00     0.006 A 
ATOM     23  C   UNL A   1      33.543  27.579  25.493  1.00  0.00     0.000 A 
ATOM     24  C   UNL A   1      31.660  26.159  26.110  1.00  0.00     0.000 A 
ATOM     25  C   UNL A   1      32.959  26.623  26.310  1.00  0.00     0.000 A 
ENDBRANCH  18  20
ENDBRANCH  15  18
ENDBRANCH   9  14
ENDBRANCH   6   8
ENDBRANCH   5   6
ENDBRANCH   4   5
ENDBRANCH   3   4
ENDBRANCH   2   3
ENDBRANCH   1   2
BRANCH   1  26
ATOM     26  C   UNL A   1      41.037  22.335  26.020  1.00  0.00     0.188 C 
BRANCH  26  27
ATOM     27  O   UNL A   1      42.011  21.377  25.635  1.00  0.00    -0.376 OA
BRANCH  27  28
ATOM     28  C   UNL A   1      41.854  20.066  26.168  1.00  0.00     0.202 C 
BRANCH  28  29
ATOM     29  C   UNL A   1      42.869  19.042  25.652  1.00  0.00     0.261 C 
BRANCH  29  30
ATOM     30  O   UNL A   1      43.433  19.444  24.383  1.00  0.00    -0.460 OA
BRANCH  30  31
ATOM     31  C   UNL A   1      44.779  19.603  24.370  1.00  0.00     0.338 C 
ATOM     32  O   UNL A   1      45.616  18.761  24.089  1.00  0.00    -0.246 OA
BRANCH  31  33
ATOM     33  C   UNL A   1      45.142  21.008  24.649  1.00  0.00     0.060 A 
ATOM     34  C   UNL A   1      45.572  21.326  25.941  1.00  0.00     0.016 A 
ATOM     35  C   UNL A   1      44.948  22.024  23.710  1.00  0.00     0.016 A 
ATOM     36  C   UNL A   1      45.799  22.656  26.304  1.00  0.00     0.010 A 
ATOM     37  C   UNL A   1      45.154  23.361  24.083  1.00  0.00     0.010 A 
ATOM     38  C   UNL A   1      45.564  23.687  25.388  1.00  0.00    -0.014 A 
BRANCH  38  39
ATOM     39  C   UNL A   1      45.591  25.101  25.845  1.00  0.00     0.031 A 
ATOM     40  C   UNL A   1      46.905  25.835  25.866  1.00  0.00     0.074 A 
ATOM     41  C   UNL A   1      44.471  25.746  26.218  1.00  0.00     0.049 A 
ATOM     42  N   UNL A   1      47.173  27.041  26.301  1.00  0.00    -0.248 NA
ATOM     43  C   UNL A   1      48.066  25.119  25.316  1.00  0.00     0.031 C 
ATOM     44  C   UNL A   1      43.117  25.198  26.171  1.00  0.00     0.029 A 
ATOM     45  N   UNL A   1      44.304  27.015  26.722  1.00  0.00    -0.354 N 
ATOM     46  C   UNL A   1      48.532  27.227  26.083  1.00  0.00     0.074 A 
ATOM     47  C   UNL A   1      49.034  26.008  25.483  1.00  0.00     0.031 C 
ATOM     48  C   UNL A   1      42.260  26.119  26.648  1.00  0.00     0.029 A 
ATOM     49  C   UNL A   1      43.008  27.303  27.071  1.00  0.00     0.049 A 
ATOM     50  H   UNL A   1      45.044  27.655  26.823  1.00  0.00     0.167 HD
ATOM     51  C   UNL A   1      49.300  28.306  26.362  1.00  0.00     0.031 A 
ATOM     52  C   UNL A   1      42.490  28.381  27.695  1.00  0.00     0.031 A 
ATOM     53  C   UNL A   1      48.827  29.513  26.984  1.00  0.00     0.049 A 
ATOM     54  C   UNL A   1      43.390  29.517  28.113  1.00  0.00     0.074 A 
ATOM     55  C   UNL A   1      49.547  30.648  27.317  1.00  0.00     0.029 A 
ATOM     56  N   UNL A   1      47.521  29.737  27.379  1.00  0.00    -0.354 N 
ATOM     57  N   UNL A   1      44.673  29.680  27.901  1.00  0.00    -0.248 NA
ATOM     58  C   UNL A   1      42.764  30.617  28.865  1.00  0.00     0.031 C 
ATOM     59  C   UNL A   1      48.685  31.539  27.963  1.00  0.00     0.029 A 
ATOM     60  C   UNL A   1      47.419  30.981  27.980  1.00  0.00     0.049 A 
ATOM     61  H   UNL A   1      46.775  29.108  27.253  1.00  0.00     0.167 HD
ATOM     62  C   UNL A   1      44.998  30.910  28.464  1.00  0.00     0.074 A 
ATOM     63  C   UNL A   1      43.778  31.458  29.015  1.00  0.00     0.031 C 
ATOM     64  C   UNL A   1      46.202  31.531  28.517  1.00  0.00     0.031 A 
BRANCH  51  65
ATOM     65  C   UNL A   1      50.761  28.211  26.036  1.00  0.00    -0.014 A 
ATOM     66  C   UNL A   1      51.671  27.629  26.931  1.00  0.00     0.009 A 
ATOM     67  C   UNL A   1      51.224  28.675  24.795  1.00  0.00     0.009 A 
ATOM     68  C   UNL A   1      53.023  27.535  26.597  1.00  0.00     0.001 A 
ATOM     69  C   UNL A   1      52.573  28.558  24.455  1.00  0.00     0.001 A 
ATOM     70  C   UNL A   1      53.472  27.994  25.360  1.00  0.00     0.000 A 
ENDBRANCH  51  65
BRANCH  52  71
ATOM     71  C   UNL A   1      41.041  28.436  28.030  1.00  0.00    -0.014 A 
ATOM     72  C   UNL A   1      40.136  29.096  27.186  1.00  0.00     0.009 A 
ATOM     73  C   UNL A   1      40.573  27.895  29.238  1.00  0.00     0.009 A 
ATOM     74  C   UNL A   1      38.798  29.246  27.564  1.00  0.00     0.001 A 
ATOM     75  C   UNL A   1      39.231  28.020  29.599  1.00  0.00     0.001 A 
ATOM     76  C   UNL A   1      38.348  28.707  28.768  1.00  0.00     0.000 A 
ENDBRANCH  52  71
BRANCH  64  77
ATOM     77  C   UNL A   1      46.261  32.894  29.148  1.00  0.00    -0.014 A 
ATOM     78  C   UNL A   1      46.556  33.058  30.510  1.00  0.00     0.009 A 
ATOM     79  C   UNL A   1      46.071  34.036  28.353  1.00  0.00     0.009 A 
ATOM     80  C   UNL A   1      46.632  34.338  31.068  1.00  0.00     0.001 A 
ATOM     81  C   UNL A   1      46.173  35.313  28.906  1.00  0.00     0.001 A 
ATOM     82  C   UNL A   1      46.447  35.463  30.265  1.00  0.00     0.000 A 
ENDBRANCH  64  77
ENDBRANCH  38  39
ENDBRANCH  31  33
ENDBRANCH  30  31
ENDBRANCH  29  30
ENDBRANCH  28  29
ENDBRANCH  27  28
ENDBRANCH  26  27
ENDBRANCH   1  26
TORSDOF 20
ENDMDL
MODEL 3
REMARK VINA RESULT:     -10.0      3.533      9.468
REMARK SMILES C[C@@H](NC(=O)c1cc(C(=O)OCCOCCOCCOC(=O)c2ccc(-c3c4nc(c(-c5ccccc5)c5ccc([nH]5)c(-c5ccccc5)c5nc(c(-c6ccccc6)c6ccc3[nH]6)C=C5)C=C4)cc2)n(C)n1)c1ccccc1
REMARK SMILES IDX 15 1 14 2 13 3 12 4 11 5 9 6 10 7 8 8 6 9 7 10 73 11 71 12
REMARK SMILES IDX 72 13 4 14 3 15 5 17 2 18 1 19 74 20 75 21 79 22 76 23 78 24
REMARK SMILES IDX 77 25 16 26 17 27 18 28 19 29 20 30 21 31 22 32 23 33 24 34
REMARK SMILES IDX 70 35 25 36 69 37 26 38 27 39 28 40 63 41 29 42 68 43 62 44
REMARK SMILES IDX 64 45 30 46 67 47 61 48 60 49 31 51 53 52 38 53 52 54 39 55
REMARK SMILES IDX 42 56 51 57 65 58 40 59 41 60 50 62 66 63 43 64 32 65 33 66
REMARK SMILES IDX 37 67 34 68 36 69 35 70 54 71 55 72 59 73 56 74 58 75 57 76
REMARK SMILES IDX 44 77 45 78 49 79 46 80 48 81 47 82
REMARK H PARENT 3 16 64 50 42 61
REMARK Flexibility Score: inf
ROOT
ATOM      1  C   UNL A   1      34.817  31.648  28.281  1.00  0.00     0.188 C 
ENDROOT
BRANCH   1   2
ATOM      2  O   UNL A   1      33.733  31.227  27.461  1.00  0.00    -0.376 OA
BRANCH   2   3
ATOM      3  C   UNL A   1      33.499  29.819  27.404  1.00  0.00     0.202 C 
BRANCH   3   4
ATOM      4  C   UNL A   1      32.157  29.420  26.768  1.00  0.00     0.261 C 
BRANCH   4   5
ATOM      5  O   UNL A   1      32.097  29.678  25.343  1.00  0.00    -0.459 OA
BRANCH   5   6
ATOM      6  C   UNL A   1      32.589  28.652  24.569  1.00  0.00     0.356 C 
ATOM      7  O   UNL A   1      33.532  28.780  23.794  1.00  0.00    -0.244 OA
BRANCH   6   8
ATOM      8  C   UNL A   1      31.927  27.393  24.837  1.00  0.00     0.146 A 
ATOM      9  C   UNL A   1      31.363  25.361  25.668  1.00  0.00     0.151 A 
ATOM     10  C   UNL A   1      32.416  26.315  25.572  1.00  0.00     0.071 A 
ATOM     11  N   UNL A   1      30.336  25.751  24.886  1.00  0.00    -0.167 NA
ATOM     12  N   UNL A   1      30.702  26.960  24.396  1.00  0.00    -0.260 N 
ATOM     13  C   UNL A   1      29.834  27.566  23.412  1.00  0.00     0.174 C 
BRANCH   9  14
ATOM     14  C   UNL A   1      31.377  24.031  26.315  1.00  0.00     0.272 C 
ATOM     15  N   UNL A   1      32.266  23.019  25.979  1.00  0.00    -0.344 N 
ATOM     16  H   UNL A   1      32.512  22.444  26.739  1.00  0.00     0.164 HD
ATOM     17  O   UNL A   1      30.608  23.786  27.250  1.00  0.00    -0.267 OA
BRANCH  15  18
ATOM     18  C   UNL A   1      32.914  22.631  24.718  1.00  0.00     0.109 C 
ATOM     19  C   UNL A   1      32.865  21.113  24.501  1.00  0.00     0.036 C 
BRANCH  18  20
ATOM     20  C   UNL A   1      34.321  23.136  24.605  1.00  0.00    -0.026 A 
ATOM     21  C   UNL A   1      35.038  22.973  23.410  1.00  0.00     0.006 A 
ATOM     22  C   UNL A   1      34.961  23.577  25.772  1.00  0.00     0.006 A 
ATOM     23  C   UNL A   1      36.415  23.060  23.430  1.00  0.00     0.000 A 
ATOM     24  C   UNL A   1      36.337  23.654  25.792  1.00  0.00     0.000 A 
ATOM     25  C   UNL A   1      37.043  23.321  24.638  1.00  0.00     0.000 A 
ENDBRANCH  18  20
ENDBRANCH  15  18
ENDBRANCH   9  14
ENDBRANCH   6   8
ENDBRANCH   5   6
ENDBRANCH   4   5
ENDBRANCH   3   4
ENDBRANCH   2   3
ENDBRANCH   1   2
BRANCH   1  26
ATOM     26  C   UNL A   1      34.544  32.896  29.142  1.00  0.00     0.188 C 
BRANCH  26  27
ATOM     27  O   UNL A   1      34.410  34.131  28.454  1.00  0.00    -0.376 OA
BRANCH  27  28
ATOM     28  C   UNL A   1      33.119  34.731  28.477  1.00  0.00     0.202 C 
BRANCH  28  29
ATOM     29  C   UNL A   1      32.942  35.824  29.534  1.00  0.00     0.261 C 
BRANCH  29  30
ATOM     30  O   UNL A   1      32.313  35.310  30.731  1.00  0.00    -0.460 OA
BRANCH  30  31
ATOM     31  C   UNL A   1      32.707  35.893  31.890  1.00  0.00     0.338 C 
ATOM     32  O   UNL A   1      32.195  36.853  32.440  1.00  0.00    -0.246 OA
BRANCH  31  33
ATOM     33  C   UNL A   1      33.821  35.139  32.502  1.00  0.00     0.060 A 
ATOM     34  C   UNL A   1      35.107  35.676  32.397  1.00  0.00     0.016 A 
ATOM     35  C   UNL A   1      33.639  33.870  33.059  1.00  0.00     0.016 A 
ATOM     36  C   UNL A   1      36.217  34.948  32.833  1.00  0.00     0.010 A 
ATOM     37  C   UNL A   1      34.757  33.131  33.476  1.00  0.00     0.010 A 
ATOM     38  C   UNL A   1      36.054  33.658  33.350  1.00  0.00    -0.014 A 
BRANCH  38  39
ATOM     39  C   UNL A   1      37.247  32.808  33.603  1.00  0.00     0.031 A 
ATOM     40  C   UNL A   1      38.045  33.027  34.860  1.00  0.00     0.074 A 
ATOM     41  C   UNL A   1      37.618  31.836  32.749  1.00  0.00     0.049 A 
ATOM     42  N   UNL A   1      39.162  32.459  35.242  1.00  0.00    -0.248 NA
ATOM     43  C   UNL A   1      37.508  34.009  35.815  1.00  0.00     0.031 C 
ATOM     44  C   UNL A   1      36.900  31.448  31.537  1.00  0.00     0.029 A 
ATOM     45  N   UNL A   1      38.709  31.000  32.778  1.00  0.00    -0.354 N 
ATOM     46  C   UNL A   1      39.464  33.017  36.478  1.00  0.00     0.074 A 
ATOM     47  C   UNL A   1      38.418  33.972  36.778  1.00  0.00     0.031 C 
ATOM     48  C   UNL A   1      37.582  30.463  30.926  1.00  0.00     0.029 A 
ATOM     49  C   UNL A   1      38.804  30.180  31.680  1.00  0.00     0.049 A 
ATOM     50  H   UNL A   1      39.361  30.991  33.515  1.00  0.00     0.167 HD
ATOM     51  C   UNL A   1      40.519  32.768  37.289  1.00  0.00     0.031 A 
ATOM     52  C   UNL A   1      39.780  29.328  31.308  1.00  0.00     0.031 A 
ATOM     53  C   UNL A   1      41.583  31.847  36.996  1.00  0.00     0.049 A 
ATOM     54  C   UNL A   1      41.010  29.165  32.167  1.00  0.00     0.074 A 
ATOM     55  C   UNL A   1      42.699  31.550  37.760  1.00  0.00     0.029 A 
ATOM     56  N   UNL A   1      41.672  31.085  35.845  1.00  0.00    -0.354 N 
ATOM     57  N   UNL A   1      41.284  29.698  33.333  1.00  0.00    -0.248 NA
ATOM     58  C   UNL A   1      42.069  28.283  31.650  1.00  0.00     0.031 C 
ATOM     59  C   UNL A   1      43.492  30.647  37.045  1.00  0.00     0.029 A 
ATOM     60  C   UNL A   1      42.839  30.340  35.863  1.00  0.00     0.049 A 
ATOM     61  H   UNL A   1      41.006  31.074  35.120  1.00  0.00     0.167 HD
ATOM     62  C   UNL A   1      42.527  29.192  33.699  1.00  0.00     0.074 A 
ATOM     63  C   UNL A   1      42.949  28.301  32.641  1.00  0.00     0.031 C 
ATOM     64  C   UNL A   1      43.253  29.444  34.816  1.00  0.00     0.031 A 
BRANCH  51  65
ATOM     65  C   UNL A   1      40.600  33.549  38.567  1.00  0.00    -0.014 A 
ATOM     66  C   UNL A   1      41.331  34.744  38.646  1.00  0.00     0.009 A 
ATOM     67  C   UNL A   1      39.898  33.101  39.697  1.00  0.00     0.009 A 
ATOM     68  C   UNL A   1      41.376  35.463  39.841  1.00  0.00     0.001 A 
ATOM     69  C   UNL A   1      39.927  33.835  40.884  1.00  0.00     0.001 A 
ATOM     70  C   UNL A   1      40.672  35.012  40.956  1.00  0.00     0.000 A 
ENDBRANCH  51  65
BRANCH  52  71
ATOM     71  C   UNL A   1      39.686  28.587  30.021  1.00  0.00    -0.014 A 
ATOM     72  C   UNL A   1      39.250  27.254  29.993  1.00  0.00     0.009 A 
ATOM     73  C   UNL A   1      40.109  29.188  28.825  1.00  0.00     0.009 A 
ATOM     74  C   UNL A   1      39.274  26.526  28.799  1.00  0.00     0.001 A 
ATOM     75  C   UNL A   1      40.105  28.469  27.629  1.00  0.00     0.001 A 
ATOM     76  C   UNL A   1      39.700  27.135  27.619  1.00  0.00     0.000 A 
ENDBRANCH  52  71
BRANCH  64  77
ATOM     77  C   UNL A   1      44.556  28.715  34.984  1.00  0.00    -0.014 A 
ATOM     78  C   UNL A   1      45.769  29.275  34.555  1.00  0.00     0.009 A 
ATOM     79  C   UNL A   1      44.577  27.469  35.632  1.00  0.00     0.009 A 
ATOM     80  C   UNL A   1      46.972  28.589  34.747  1.00  0.00     0.001 A 
ATOM     81  C   UNL A   1      45.782  26.798  35.846  1.00  0.00     0.001 A 
ATOM     82  C   UNL A   1      46.978  27.355  35.397  1.00  0.00     0.000 A 
ENDBRANCH  64  77
ENDBRANCH  38  39
ENDBRANCH  31  33
ENDBRANCH  30  31
ENDBRANCH  29  30
ENDBRANCH  28  29
ENDBRANCH  27  28
ENDBRANCH  26  27
ENDBRANCH   1  26
TORSDOF 20
ENDMDL
