MODEL 1
REMARK VINA RESULT:     -12.0      0.000      0.000
REMARK SMILES Cc1c(NC(=O)c2cccc(-c3cc4ccccc4oc3=O)c2)cccc1C(=O)OCCOCCOCCOC(=O)c1ccc(-c2c3nc(c(-c4ccccc4)c4ccc([nH]4)c(-c4ccccc4)c4nc(c(-c5ccccc5)c5ccc2[nH]5)C=C4)C=C3)cc1
REMARK SMILES IDX 34 1 33 2 32 3 31 4 30 5 28 6 29 7 27 8 1 9 2 10 3 11 24 12
REMARK SMILES IDX 26 13 25 14 4 15 5 16 6 18 7 19 8 20 23 21 9 22 11 23 10 24
REMARK SMILES IDX 12 25 13 26 21 27 14 28 20 29 22 30 15 31 19 32 16 33 18 34
REMARK SMILES IDX 17 35 35 36 36 37 37 38 38 39 39 40 40 41 41 42 42 43 43 44
REMARK SMILES IDX 89 45 44 46 88 47 45 48 46 49 47 50 82 51 48 52 87 53 81 54
REMARK SMILES IDX 83 55 49 56 86 57 80 58 79 59 50 61 72 62 57 63 71 64 58 65
REMARK SMILES IDX 61 66 70 67 84 68 59 69 60 70 69 72 85 73 62 74 51 75 52 76
REMARK SMILES IDX 56 77 53 78 55 79 54 80 73 81 74 82 78 83 75 84 77 85 76 86
REMARK SMILES IDX 63 87 64 88 68 89 65 90 67 91 66 92
REMARK H PARENT 4 17 83 60 61 71
REMARK Flexibility Score: inf
ROOT
ATOM      1  C   UNL A   1      34.226  23.627  23.403  1.00  0.00     0.188 C 
ENDROOT
BRANCH   1   2
ATOM      2  O   UNL A   1      34.376  23.348  21.990  1.00  0.00    -0.376 OA
BRANCH   2   3
ATOM      3  C   UNL A   1      33.345  23.544  20.996  1.00  0.00     0.202 C 
BRANCH   3   4
ATOM      4  C   UNL A   1      32.811  25.042  20.447  1.00  0.00     0.261 C 
BRANCH   4   5
ATOM      5  O   UNL A   1      32.157  26.493  21.220  1.00  0.00    -0.460 OA
BRANCH   5   6
ATOM      6  C   UNL A   1      31.790  26.963  22.539  1.00  0.00     0.338 C 
ATOM      7  O   UNL A   1      31.194  28.008  22.782  1.00  0.00    -0.246 OA
BRANCH   6   8
ATOM      8  C   UNL A   1      32.113  26.442  23.918  1.00  0.00     0.065 A 
ATOM      9  C   UNL A   1      30.246  24.802  24.073  1.00  0.00     0.047 C 
ATOM     10  C   UNL A   1      31.320  25.627  24.702  1.00  0.00    -0.013 A 
ATOM     11  C   UNL A   1      31.609  25.572  26.098  1.00  0.00     0.045 A 
ATOM     12  C   UNL A   1      32.722  26.218  26.671  1.00  0.00     0.026 A 
ATOM     13  C   UNL A   1      33.307  26.999  24.522  1.00  0.00     0.016 A 
ATOM     14  C   UNL A   1      33.605  26.905  25.872  1.00  0.00     0.003 A 
BRANCH  11  15
ATOM     15  N   UNL A   1      30.796  24.786  26.919  1.00  0.00    -0.322 N 
ATOM     16  C   UNL A   1      30.661  23.421  27.011  1.00  0.00     0.255 C 
ATOM     17  H   UNL A   1      30.222  25.296  27.535  1.00  0.00     0.170 HD
ATOM     18  O   UNL A   1      29.584  22.977  27.413  1.00  0.00    -0.269 OA
BRANCH  16  19
ATOM     19  C   UNL A   1      31.795  22.465  26.799  1.00  0.00     0.040 A 
ATOM     20  C   UNL A   1      32.843  22.515  27.726  1.00  0.00     0.014 A 
ATOM     21  C   UNL A   1      31.962  21.702  25.630  1.00  0.00     0.022 A 
ATOM     22  C   UNL A   1      34.036  21.834  27.492  1.00  0.00     0.001 A 
ATOM     23  C   UNL A   1      33.179  21.029  25.370  1.00  0.00    -0.010 A 
ATOM     24  C   UNL A   1      34.206  21.103  26.317  1.00  0.00     0.009 A 
BRANCH  23  25
ATOM     25  C   UNL A   1      33.530  20.363  24.086  1.00  0.00     0.068 A 
ATOM     26  C   UNL A   1      34.471  19.400  23.977  1.00  0.00     0.028 A 
ATOM     27  C   UNL A   1      32.376  20.046  23.183  1.00  0.00     0.344 A 
ATOM     28  C   UNL A   1      33.922  18.122  24.458  1.00  0.00     0.018 A 
ATOM     29  O   UNL A   1      31.830  18.776  23.397  1.00  0.00    -0.422 OA
ATOM     30  O   UNL A   1      31.922  20.849  22.380  1.00  0.00    -0.246 OA
ATOM     31  C   UNL A   1      34.659  17.252  25.241  1.00  0.00     0.012 A 
ATOM     32  C   UNL A   1      32.560  17.881  24.207  1.00  0.00     0.138 A 
ATOM     33  C   UNL A   1      33.993  16.191  25.836  1.00  0.00     0.001 A 
ATOM     34  C   UNL A   1      31.886  16.840  24.815  1.00  0.00     0.048 A 
ATOM     35  C   UNL A   1      32.610  16.015  25.663  1.00  0.00     0.004 A 
ENDBRANCH  23  25
ENDBRANCH  16  19
ENDBRANCH  11  15
ENDBRANCH   6   8
ENDBRANCH   5   6
ENDBRANCH   4   5
ENDBRANCH   3   4
ENDBRANCH   2   3
ENDBRANCH   1   2
BRANCH   1  36
ATOM     36  C   UNL A   1      35.366  24.093  24.324  1.00  0.00     0.188 C 
BRANCH  36  37
ATOM     37  O   UNL A   1      36.597  23.529  23.926  1.00  0.00    -0.376 OA
BRANCH  37  38
ATOM     38  C   UNL A   1      36.697  22.117  23.968  1.00  0.00     0.202 C 
BRANCH  38  39
ATOM     39  C   UNL A   1      37.840  21.611  24.866  1.00  0.00     0.261 C 
BRANCH  39  40
ATOM     40  O   UNL A   1      38.120  22.517  25.953  1.00  0.00    -0.460 OA
BRANCH  40  41
ATOM     41  C   UNL A   1      39.373  22.380  26.526  1.00  0.00     0.338 C 
ATOM     42  O   UNL A   1      39.921  21.340  26.724  1.00  0.00    -0.246 OA
BRANCH  41  43
ATOM     43  C   UNL A   1      39.872  23.722  26.943  1.00  0.00     0.060 A 
ATOM     44  C   UNL A   1      40.966  23.967  27.777  1.00  0.00     0.016 A 
ATOM     45  C   UNL A   1      39.114  24.795  26.615  1.00  0.00     0.016 A 
ATOM     46  C   UNL A   1      41.154  25.250  28.423  1.00  0.00     0.010 A 
ATOM     47  C   UNL A   1      39.278  25.974  27.340  1.00  0.00     0.010 A 
ATOM     48  C   UNL A   1      40.235  26.316  28.339  1.00  0.00    -0.014 A 
BRANCH  48  49
ATOM     49  C   UNL A   1      40.336  27.751  29.315  1.00  0.00     0.031 A 
ATOM     50  C   UNL A   1      39.358  29.198  29.494  1.00  0.00     0.074 A 
ATOM     51  C   UNL A   1      41.532  27.911  29.929  1.00  0.00     0.049 A 
ATOM     52  N   UNL A   1      39.834  30.418  29.714  1.00  0.00    -0.248 NA
ATOM     53  C   UNL A   1      37.852  29.429  29.361  1.00  0.00     0.031 C 
ATOM     54  C   UNL A   1      41.913  28.895  30.936  1.00  0.00     0.029 A 
ATOM     55  N   UNL A   1      42.750  27.304  29.585  1.00  0.00    -0.354 N 
ATOM     56  C   UNL A   1      38.731  31.285  29.873  1.00  0.00     0.074 A 
ATOM     57  C   UNL A   1      37.662  30.719  29.181  1.00  0.00     0.031 C 
ATOM     58  C   UNL A   1      43.248  29.047  30.894  1.00  0.00     0.029 A 
ATOM     59  C   UNL A   1      43.724  28.294  29.745  1.00  0.00     0.049 A 
ATOM     60  H   UNL A   1      42.890  26.374  29.293  1.00  0.00     0.167 HD
ATOM     61  C   UNL A   1      38.605  32.239  30.841  1.00  0.00     0.031 A 
ATOM     62  C   UNL A   1      44.422  28.798  28.688  1.00  0.00     0.031 A 
ATOM     63  C   UNL A   1      39.913  32.671  31.218  1.00  0.00     0.049 A 
ATOM     64  C   UNL A   1      44.400  30.307  28.628  1.00  0.00     0.074 A 
ATOM     65  C   UNL A   1      40.760  32.379  32.262  1.00  0.00     0.029 A 
ATOM     66  N   UNL A   1      40.672  33.215  30.203  1.00  0.00    -0.354 N 
ATOM     67  N   UNL A   1      43.522  31.052  29.244  1.00  0.00    -0.248 NA
ATOM     68  C   UNL A   1      45.365  31.099  27.872  1.00  0.00     0.031 C 
ATOM     69  C   UNL A   1      42.085  32.558  31.764  1.00  0.00     0.029 A 
ATOM     70  C   UNL A   1      42.009  33.033  30.463  1.00  0.00     0.049 A 
ATOM     71  H   UNL A   1      40.310  33.668  29.408  1.00  0.00     0.167 HD
ATOM     72  C   UNL A   1      43.760  32.368  28.963  1.00  0.00     0.074 A 
ATOM     73  C   UNL A   1      44.938  32.350  28.118  1.00  0.00     0.031 C 
ATOM     74  C   UNL A   1      42.951  33.370  29.409  1.00  0.00     0.031 A 
BRANCH  61  75
ATOM     75  C   UNL A   1      37.283  32.669  31.510  1.00  0.00    -0.014 A 
ATOM     76  C   UNL A   1      36.478  33.643  30.891  1.00  0.00     0.009 A 
ATOM     77  C   UNL A   1      36.821  32.269  32.792  1.00  0.00     0.009 A 
ATOM     78  C   UNL A   1      35.311  34.158  31.497  1.00  0.00     0.001 A 
ATOM     79  C   UNL A   1      35.638  32.744  33.386  1.00  0.00     0.001 A 
ATOM     80  C   UNL A   1      34.882  33.701  32.738  1.00  0.00     0.000 A 
ENDBRANCH  61  75
BRANCH  62  81
ATOM     81  C   UNL A   1      44.612  27.878  27.519  1.00  0.00    -0.014 A 
ATOM     82  C   UNL A   1      45.492  26.781  27.661  1.00  0.00     0.009 A 
ATOM     83  C   UNL A   1      43.771  27.894  26.394  1.00  0.00     0.009 A 
ATOM     84  C   UNL A   1      45.478  25.705  26.764  1.00  0.00     0.001 A 
ATOM     85  C   UNL A   1      43.769  26.818  25.485  1.00  0.00     0.001 A 
ATOM     86  C   UNL A   1      44.608  25.719  25.679  1.00  0.00     0.000 A 
ENDBRANCH  62  81
BRANCH  74  87
ATOM     87  C   UNL A   1      42.902  34.760  28.819  1.00  0.00    -0.014 A 
ATOM     88  C   UNL A   1      42.204  35.075  27.647  1.00  0.00     0.009 A 
ATOM     89  C   UNL A   1      43.400  35.845  29.576  1.00  0.00     0.009 A 
ATOM     90  C   UNL A   1      42.046  36.402  27.228  1.00  0.00     0.001 A 
ATOM     91  C   UNL A   1      43.187  37.171  29.197  1.00  0.00     0.001 A 
ATOM     92  C   UNL A   1      42.521  37.449  28.012  1.00  0.00     0.000 A 
ENDBRANCH  74  87
ENDBRANCH  48  49
ENDBRANCH  41  43
ENDBRANCH  40  41
ENDBRANCH  39  40
ENDBRANCH  38  39
ENDBRANCH  37  38
ENDBRANCH  36  37
ENDBRANCH   1  36
TORSDOF 20
ENDMDL
MODEL 2
REMARK VINA RESULT:     -11.8      6.161     11.004
REMARK SMILES Cc1c(NC(=O)c2cccc(-c3cc4ccccc4oc3=O)c2)cccc1C(=O)OCCOCCOCCOC(=O)c1ccc(-c2c3nc(c(-c4ccccc4)c4ccc([nH]4)c(-c4ccccc4)c4nc(c(-c5ccccc5)c5ccc2[nH]5)C=C4)C=C3)cc1
REMARK SMILES IDX 34 1 33 2 32 3 31 4 30 5 28 6 29 7 27 8 1 9 2 10 3 11 24 12
REMARK SMILES IDX 26 13 25 14 4 15 5 16 6 18 7 19 8 20 23 21 9 22 11 23 10 24
REMARK SMILES IDX 12 25 13 26 21 27 14 28 20 29 22 30 15 31 19 32 16 33 18 34
REMARK SMILES IDX 17 35 35 36 36 37 37 38 38 39 39 40 40 41 41 42 42 43 43 44
REMARK SMILES IDX 89 45 44 46 88 47 45 48 46 49 47 50 82 51 48 52 87 53 81 54
REMARK SMILES IDX 83 55 49 56 86 57 80 58 79 59 50 61 72 62 57 63 71 64 58 65
REMARK SMILES IDX 61 66 70 67 84 68 59 69 60 70 69 72 85 73 62 74 51 75 52 76
REMARK SMILES IDX 56 77 53 78 55 79 54 80 73 81 74 82 78 83 75 84 77 85 76 86
REMARK SMILES IDX 63 87 64 88 68 89 65 90 67 91 66 92
REMARK H PARENT 4 17 83 60 61 71
REMARK Flexibility Score: inf
ROOT
ATOM      1  C   UNL A   1      45.283  19.715  24.179  1.00  0.00     0.188 C 
ENDROOT
BRANCH   1   2
ATOM      2  O   UNL A   1      44.838  19.073  25.400  1.00  0.00    -0.376 OA
BRANCH   2   3
ATOM      3  C   UNL A   1      43.529  18.496  25.598  1.00  0.00     0.202 C 
BRANCH   3   4
ATOM      4  C   UNL A   1      42.207  19.308  26.251  1.00  0.00     0.261 C 
BRANCH   4   5
ATOM      5  O   UNL A   1      41.898  20.971  26.771  1.00  0.00    -0.460 OA
BRANCH   5   6
ATOM      6  C   UNL A   1      41.134  22.127  26.353  1.00  0.00     0.338 C 
ATOM      7  O   UNL A   1      41.603  23.226  26.072  1.00  0.00    -0.246 OA
BRANCH   6   8
ATOM      8  C   UNL A   1      39.648  22.374  26.270  1.00  0.00     0.065 A 
ATOM      9  C   UNL A   1      39.008  20.122  25.419  1.00  0.00     0.047 C 
ATOM     10  C   UNL A   1      38.707  21.564  25.663  1.00  0.00    -0.013 A 
ATOM     11  C   UNL A   1      37.444  22.148  25.344  1.00  0.00     0.045 A 
ATOM     12  C   UNL A   1      37.094  23.459  25.721  1.00  0.00     0.026 A 
ATOM     13  C   UNL A   1      39.213  23.675  26.737  1.00  0.00     0.016 A 
ATOM     14  C   UNL A   1      37.969  24.218  26.461  1.00  0.00     0.003 A 
BRANCH  11  15
ATOM     15  N   UNL A   1      36.489  21.360  24.695  1.00  0.00    -0.322 N 
ATOM     16  C   UNL A   1      35.222  20.988  25.072  1.00  0.00     0.255 C 
ATOM     17  H   UNL A   1      36.774  21.013  23.818  1.00  0.00     0.170 HD
ATOM     18  O   UNL A   1      34.772  19.936  24.613  1.00  0.00    -0.269 OA
BRANCH  16  19
ATOM     19  C   UNL A   1      34.311  21.863  25.877  1.00  0.00     0.040 A 
ATOM     20  C   UNL A   1      34.203  21.573  27.243  1.00  0.00     0.014 A 
ATOM     21  C   UNL A   1      33.416  22.787  25.310  1.00  0.00     0.022 A 
ATOM     22  C   UNL A   1      33.221  22.176  28.026  1.00  0.00     0.001 A 
ATOM     23  C   UNL A   1      32.398  23.384  26.090  1.00  0.00    -0.010 A 
ATOM     24  C   UNL A   1      32.318  23.069  27.452  1.00  0.00     0.009 A 
BRANCH  23  25
ATOM     25  C   UNL A   1      31.286  24.216  25.554  1.00  0.00     0.068 A 
ATOM     26  C   UNL A   1      30.867  25.364  26.128  1.00  0.00     0.028 A 
ATOM     27  C   UNL A   1      31.239  24.351  24.061  1.00  0.00     0.344 A 
ATOM     28  C   UNL A   1      31.804  26.449  25.792  1.00  0.00     0.018 A 
ATOM     29  O   UNL A   1      31.956  25.450  23.576  1.00  0.00    -0.422 OA
ATOM     30  O   UNL A   1      30.679  23.539  23.338  1.00  0.00    -0.246 OA
ATOM     31  C   UNL A   1      32.207  27.389  26.724  1.00  0.00     0.012 A 
ATOM     32  C   UNL A   1      32.388  26.411  24.515  1.00  0.00     0.138 A 
ATOM     33  C   UNL A   1      33.258  28.228  26.387  1.00  0.00     0.001 A 
ATOM     34  C   UNL A   1      33.451  27.228  24.181  1.00  0.00     0.048 A 
ATOM     35  C   UNL A   1      33.906  28.115  25.145  1.00  0.00     0.004 A 
ENDBRANCH  23  25
ENDBRANCH  16  19
ENDBRANCH  11  15
ENDBRANCH   6   8
ENDBRANCH   5   6
ENDBRANCH   4   5
ENDBRANCH   3   4
ENDBRANCH   2   3
ENDBRANCH   1   2
BRANCH   1  36
ATOM     36  C   UNL A   1      45.146  21.218  23.886  1.00  0.00     0.188 C 
BRANCH  36  37
ATOM     37  O   UNL A   1      44.659  21.909  25.016  1.00  0.00    -0.376 OA
BRANCH  37  38
ATOM     38  C   UNL A   1      45.521  22.870  25.598  1.00  0.00     0.202 C 
BRANCH  38  39
ATOM     39  C   UNL A   1      45.422  24.258  24.941  1.00  0.00     0.261 C 
BRANCH  39  40
ATOM     40  O   UNL A   1      46.719  24.804  24.623  1.00  0.00    -0.460 OA
BRANCH  40  41
ATOM     41  C   UNL A   1      46.942  26.094  25.074  1.00  0.00     0.338 C 
ATOM     42  O   UNL A   1      46.650  27.085  24.476  1.00  0.00    -0.246 OA
BRANCH  41  43
ATOM     43  C   UNL A   1      47.688  26.043  26.363  1.00  0.00     0.060 A 
ATOM     44  C   UNL A   1      48.202  24.892  26.967  1.00  0.00     0.016 A 
ATOM     45  C   UNL A   1      47.742  27.181  27.095  1.00  0.00     0.016 A 
ATOM     46  C   UNL A   1      48.575  24.874  28.367  1.00  0.00     0.010 A 
ATOM     47  C   UNL A   1      48.013  27.086  28.458  1.00  0.00     0.010 A 
ATOM     48  C   UNL A   1      48.384  25.959  29.247  1.00  0.00    -0.014 A 
BRANCH  48  49
ATOM     49  C   UNL A   1      48.593  25.847  30.970  1.00  0.00     0.031 A 
ATOM     50  C   UNL A   1      49.620  24.900  32.033  1.00  0.00     0.074 A 
ATOM     51  C   UNL A   1      47.616  26.460  31.680  1.00  0.00     0.049 A 
ATOM     52  N   UNL A   1      49.255  24.417  33.216  1.00  0.00    -0.248 NA
ATOM     53  C   UNL A   1      51.037  24.354  31.855  1.00  0.00     0.031 C 
ATOM     54  C   UNL A   1      47.552  26.704  33.116  1.00  0.00     0.029 A 
ATOM     55  N   UNL A   1      46.335  26.815  31.228  1.00  0.00    -0.354 N 
ATOM     56  C   UNL A   1      50.381  23.786  33.786  1.00  0.00     0.074 A 
ATOM     57  C   UNL A   1      51.204  23.388  32.733  1.00  0.00     0.031 C 
ATOM     58  C   UNL A   1      46.262  26.849  33.463  1.00  0.00     0.029 A 
ATOM     59  C   UNL A   1      45.469  26.527  32.288  1.00  0.00     0.049 A 
ATOM     60  H   UNL A   1      46.096  27.189  30.349  1.00  0.00     0.167 HD
ATOM     61  C   UNL A   1      50.793  23.917  35.080  1.00  0.00     0.031 A 
ATOM     62  C   UNL A   1      44.521  25.551  32.200  1.00  0.00     0.031 A 
ATOM     63  C   UNL A   1      49.652  24.205  35.888  1.00  0.00     0.049 A 
ATOM     64  C   UNL A   1      44.565  24.577  33.354  1.00  0.00     0.074 A 
ATOM     65  C   UNL A   1      49.117  25.353  36.425  1.00  0.00     0.029 A 
ATOM     66  N   UNL A   1      48.657  23.248  35.868  1.00  0.00    -0.354 N 
ATOM     67  N   UNL A   1      45.598  24.414  34.136  1.00  0.00    -0.248 NA
ATOM     68  C   UNL A   1      43.450  23.709  33.721  1.00  0.00     0.031 C 
ATOM     69  C   UNL A   1      47.711  25.129  36.526  1.00  0.00     0.029 A 
ATOM     70  C   UNL A   1      47.439  23.829  36.129  1.00  0.00     0.049 A 
ATOM     71  H   UNL A   1      48.799  22.290  35.694  1.00  0.00     0.167 HD
ATOM     72  C   UNL A   1      45.326  23.442  35.057  1.00  0.00     0.074 A 
ATOM     73  C   UNL A   1      43.961  23.046  34.772  1.00  0.00     0.031 C 
ATOM     74  C   UNL A   1      46.253  23.006  35.957  1.00  0.00     0.031 A 
BRANCH  61  75
ATOM     75  C   UNL A   1      52.260  23.898  35.562  1.00  0.00    -0.014 A 
ATOM     76  C   UNL A   1      52.989  25.100  35.607  1.00  0.00     0.009 A 
ATOM     77  C   UNL A   1      53.030  22.744  35.862  1.00  0.00     0.009 A 
ATOM     78  C   UNL A   1      54.362  25.141  35.937  1.00  0.00     0.001 A 
ATOM     79  C   UNL A   1      54.387  22.777  36.233  1.00  0.00     0.001 A 
ATOM     80  C   UNL A   1      55.059  23.983  36.263  1.00  0.00     0.000 A 
ENDBRANCH  61  75
BRANCH  62  81
ATOM     81  C   UNL A   1      43.993  25.259  30.828  1.00  0.00    -0.014 A 
ATOM     82  C   UNL A   1      43.333  26.293  30.126  1.00  0.00     0.009 A 
ATOM     83  C   UNL A   1      44.349  24.109  30.105  1.00  0.00     0.009 A 
ATOM     84  C   UNL A   1      43.110  26.220  28.744  1.00  0.00     0.001 A 
ATOM     85  C   UNL A   1      44.109  24.029  28.719  1.00  0.00     0.001 A 
ATOM     86  C   UNL A   1      43.506  25.089  28.039  1.00  0.00     0.000 A 
ENDBRANCH  62  81
BRANCH  74  87
ATOM     87  C   UNL A   1      46.174  21.695  36.702  1.00  0.00    -0.014 A 
ATOM     88  C   UNL A   1      46.058  20.453  36.065  1.00  0.00     0.009 A 
ATOM     89  C   UNL A   1      46.437  21.677  38.090  1.00  0.00     0.009 A 
ATOM     90  C   UNL A   1      46.156  19.255  36.783  1.00  0.00     0.001 A 
ATOM     91  C   UNL A   1      46.603  20.485  38.798  1.00  0.00     0.001 A 
ATOM     92  C   UNL A   1      46.446  19.271  38.144  1.00  0.00     0.000 A 
ENDBRANCH  74  87
ENDBRANCH  48  49
ENDBRANCH  41  43
ENDBRANCH  40  41
ENDBRANCH  39  40
ENDBRANCH  38  39
ENDBRANCH  37  38
ENDBRANCH  36  37
ENDBRANCH   1  36
TORSDOF 20
ENDMDL
MODEL 3
REMARK VINA RESULT:     -11.4      2.567      7.009
REMARK SMILES Cc1c(NC(=O)c2cccc(-c3cc4ccccc4oc3=O)c2)cccc1C(=O)OCCOCCOCCOC(=O)c1ccc(-c2c3nc(c(-c4ccccc4)c4ccc([nH]4)c(-c4ccccc4)c4nc(c(-c5ccccc5)c5ccc2[nH]5)C=C4)C=C3)cc1
REMARK SMILES IDX 34 1 33 2 32 3 31 4 30 5 28 6 29 7 27 8 1 9 2 10 3 11 24 12
REMARK SMILES IDX 26 13 25 14 4 15 5 16 6 18 7 19 8 20 23 21 9 22 11 23 10 24
REMARK SMILES IDX 12 25 13 26 21 27 14 28 20 29 22 30 15 31 19 32 16 33 18 34
REMARK SMILES IDX 17 35 35 36 36 37 37 38 38 39 39 40 40 41 41 42 42 43 43 44
REMARK SMILES IDX 89 45 44 46 88 47 45 48 46 49 47 50 82 51 48 52 87 53 81 54
REMARK SMILES IDX 83 55 49 56 86 57 80 58 79 59 50 61 72 62 57 63 71 64 58 65
REMARK SMILES IDX 61 66 70 67 84 68 59 69 60 70 69 72 85 73 62 74 51 75 52 76
REMARK SMILES IDX 56 77 53 78 55 79 54 80 73 81 74 82 78 83 75 84 77 85 76 86
REMARK SMILES IDX 63 87 64 88 68 89 65 90 67 91 66 92
REMARK H PARENT 4 17 83 60 61 71
REMARK Flexibility Score: inf
ROOT
ATOM      1  C   UNL A   1      36.122  20.604  25.005  1.00  0.00     0.188 C 
ENDROOT
BRANCH   1   2
ATOM      2  O   UNL A   1      35.132  21.128  25.923  1.00  0.00    -0.376 OA
BRANCH   2   3
ATOM      3  C   UNL A   1      34.822  22.530  26.090  1.00  0.00     0.202 C 
BRANCH   3   4
ATOM      4  C   UNL A   1      33.557  23.131  27.023  1.00  0.00     0.261 C 
BRANCH   4   5
ATOM      5  O   UNL A   1      31.954  23.792  26.672  1.00  0.00    -0.460 OA
BRANCH   5   6
ATOM      6  C   UNL A   1      31.334  25.065  26.368  1.00  0.00     0.338 C 
ATOM      7  O   UNL A   1      30.141  25.323  26.492  1.00  0.00    -0.246 OA
BRANCH   6   8
ATOM      8  C   UNL A   1      31.877  26.321  25.732  1.00  0.00     0.065 A 
ATOM      9  C   UNL A   1      31.140  27.908  27.503  1.00  0.00     0.047 C 
ATOM     10  C   UNL A   1      31.622  27.622  26.119  1.00  0.00    -0.013 A 
ATOM     11  C   UNL A   1      31.893  28.656  25.173  1.00  0.00     0.045 A 
ATOM     12  C   UNL A   1      32.502  28.407  23.928  1.00  0.00     0.026 A 
ATOM     13  C   UNL A   1      32.602  26.119  24.493  1.00  0.00     0.016 A 
ATOM     14  C   UNL A   1      32.900  27.134  23.599  1.00  0.00     0.003 A 
BRANCH  11  15
ATOM     15  N   UNL A   1      31.606  29.977  25.528  1.00  0.00    -0.322 N 
ATOM     16  C   UNL A   1      32.117  30.772  26.525  1.00  0.00     0.255 C 
ATOM     17  H   UNL A   1      30.924  30.412  24.967  1.00  0.00     0.170 HD
ATOM     18  O   UNL A   1      31.403  31.679  26.958  1.00  0.00    -0.269 OA
BRANCH  16  19
ATOM     19  C   UNL A   1      33.536  30.693  26.998  1.00  0.00     0.040 A 
ATOM     20  C   UNL A   1      34.221  29.500  26.737  1.00  0.00     0.014 A 
ATOM     21  C   UNL A   1      34.124  31.635  27.859  1.00  0.00     0.022 A 
ATOM     22  C   UNL A   1      35.457  29.242  27.328  1.00  0.00     0.001 A 
ATOM     23  C   UNL A   1      35.365  31.371  28.486  1.00  0.00    -0.010 A 
ATOM     24  C   UNL A   1      36.021  30.167  28.204  1.00  0.00     0.009 A 
BRANCH  23  25
ATOM     25  C   UNL A   1      35.976  32.204  29.557  1.00  0.00     0.068 A 
ATOM     26  C   UNL A   1      36.434  33.459  29.359  1.00  0.00     0.028 A 
ATOM     27  C   UNL A   1      35.322  32.112  30.903  1.00  0.00     0.344 A 
ATOM     28  C   UNL A   1      35.297  34.394  29.319  1.00  0.00     0.018 A 
ATOM     29  O   UNL A   1      34.309  33.058  31.099  1.00  0.00    -0.422 OA
ATOM     30  O   UNL A   1      35.608  31.251  31.723  1.00  0.00    -0.246 OA
ATOM     31  C   UNL A   1      35.226  35.427  28.402  1.00  0.00     0.012 A 
ATOM     32  C   UNL A   1      34.211  34.110  30.164  1.00  0.00     0.138 A 
ATOM     33  C   UNL A   1      34.024  36.110  28.286  1.00  0.00     0.001 A 
ATOM     34  C   UNL A   1      33.004  34.770  30.037  1.00  0.00     0.048 A 
ATOM     35  C   UNL A   1      32.909  35.751  29.063  1.00  0.00     0.004 A 
ENDBRANCH  23  25
ENDBRANCH  16  19
ENDBRANCH  11  15
ENDBRANCH   6   8
ENDBRANCH   5   6
ENDBRANCH   4   5
ENDBRANCH   3   4
ENDBRANCH   2   3
ENDBRANCH   1   2
BRANCH   1  36
ATOM     36  C   UNL A   1      37.633  20.564  25.282  1.00  0.00     0.188 C 
BRANCH  36  37
ATOM     37  O   UNL A   1      38.225  21.821  25.032  1.00  0.00    -0.376 OA
BRANCH  37  38
ATOM     38  C   UNL A   1      38.499  22.634  26.158  1.00  0.00     0.202 C 
BRANCH  38  39
ATOM     39  C   UNL A   1      39.890  22.388  26.767  1.00  0.00     0.261 C 
BRANCH  39  40
ATOM     40  O   UNL A   1      40.940  22.489  25.783  1.00  0.00    -0.460 OA
BRANCH  40  41
ATOM     41  C   UNL A   1      42.079  23.155  26.204  1.00  0.00     0.338 C 
ATOM     42  O   UNL A   1      43.196  22.811  25.965  1.00  0.00    -0.246 OA
BRANCH  41  43
ATOM     43  C   UNL A   1      41.687  24.297  27.079  1.00  0.00     0.060 A 
ATOM     44  C   UNL A   1      41.104  25.493  26.653  1.00  0.00     0.016 A 
ATOM     45  C   UNL A   1      42.068  24.242  28.378  1.00  0.00     0.016 A 
ATOM     46  C   UNL A   1      41.099  26.674  27.492  1.00  0.00     0.010 A 
ATOM     47  C   UNL A   1      42.133  25.428  29.104  1.00  0.00     0.010 A 
ATOM     48  C   UNL A   1      41.736  26.750  28.748  1.00  0.00    -0.014 A 
BRANCH  48  49
ATOM     49  C   UNL A   1      41.947  28.234  29.629  1.00  0.00     0.031 A 
ATOM     50  C   UNL A   1      40.916  29.603  30.013  1.00  0.00     0.074 A 
ATOM     51  C   UNL A   1      43.239  28.522  29.914  1.00  0.00     0.049 A 
ATOM     52  N   UNL A   1      41.318  30.867  30.074  1.00  0.00    -0.248 NA
ATOM     53  C   UNL A   1      39.411  29.702  30.262  1.00  0.00     0.031 C 
ATOM     54  C   UNL A   1      43.769  29.581  30.766  1.00  0.00     0.029 A 
ATOM     55  N   UNL A   1      44.382  28.000  29.287  1.00  0.00    -0.354 N 
ATOM     56  C   UNL A   1      40.217  31.647  30.486  1.00  0.00     0.074 A 
ATOM     57  C   UNL A   1      39.064  30.962  30.104  1.00  0.00     0.031 C 
ATOM     58  C   UNL A   1      45.031  29.840  30.381  1.00  0.00     0.029 A 
ATOM     59  C   UNL A   1      45.270  29.074  29.169  1.00  0.00     0.049 A 
ATOM     60  H   UNL A   1      44.529  27.072  28.993  1.00  0.00     0.167 HD
ATOM     61  C   UNL A   1      40.251  32.632  31.429  1.00  0.00     0.031 A 
ATOM     62  C   UNL A   1      45.631  29.582  27.956  1.00  0.00     0.031 A 
ATOM     63  C   UNL A   1      41.566  33.188  31.450  1.00  0.00     0.049 A 
ATOM     64  C   UNL A   1      45.457  31.080  27.865  1.00  0.00     0.074 A 
ATOM     65  C   UNL A   1      42.671  33.017  32.252  1.00  0.00     0.029 A 
ATOM     66  N   UNL A   1      41.992  33.743  30.261  1.00  0.00    -0.354 N 
ATOM     67  N   UNL A   1      44.696  31.779  28.665  1.00  0.00    -0.248 NA
ATOM     68  C   UNL A   1      46.124  31.911  26.868  1.00  0.00     0.031 C 
ATOM     69  C   UNL A   1      43.806  33.281  31.428  1.00  0.00     0.029 A 
ATOM     70  C   UNL A   1      43.363  33.685  30.178  1.00  0.00     0.049 A 
ATOM     71  H   UNL A   1      41.402  34.126  29.573  1.00  0.00     0.167 HD
ATOM     72  C   UNL A   1      44.735  33.095  28.299  1.00  0.00     0.074 A 
ATOM     73  C   UNL A   1      45.660  33.133  27.183  1.00  0.00     0.031 C 
ATOM     74  C   UNL A   1      43.975  34.047  28.910  1.00  0.00     0.031 A 
BRANCH  61  75
ATOM     75  C   UNL A   1      39.105  32.984  32.402  1.00  0.00    -0.014 A 
ATOM     76  C   UNL A   1      38.688  32.036  33.352  1.00  0.00     0.009 A 
ATOM     77  C   UNL A   1      38.307  34.158  32.369  1.00  0.00     0.009 A 
ATOM     78  C   UNL A   1      37.579  32.251  34.201  1.00  0.00     0.001 A 
ATOM     79  C   UNL A   1      37.228  34.401  33.238  1.00  0.00     0.001 A 
ATOM     80  C   UNL A   1      36.857  33.437  34.155  1.00  0.00     0.000 A 
ENDBRANCH  61  75
BRANCH  62  81
ATOM     81  C   UNL A   1      45.605  28.626  26.802  1.00  0.00    -0.014 A 
ATOM     82  C   UNL A   1      46.806  27.977  26.437  1.00  0.00     0.009 A 
ATOM     83  C   UNL A   1      44.411  28.145  26.239  1.00  0.00     0.009 A 
ATOM     84  C   UNL A   1      46.810  26.845  25.612  1.00  0.00     0.001 A 
ATOM     85  C   UNL A   1      44.418  27.017  25.396  1.00  0.00     0.001 A 
ATOM     86  C   UNL A   1      45.613  26.358  25.098  1.00  0.00     0.000 A 
ENDBRANCH  62  81
BRANCH  74  87
ATOM     87  C   UNL A   1      43.653  35.398  28.317  1.00  0.00    -0.014 A 
ATOM     88  C   UNL A   1      44.494  36.511  28.435  1.00  0.00     0.009 A 
ATOM     89  C   UNL A   1      42.565  35.514  27.422  1.00  0.00     0.009 A 
ATOM     90  C   UNL A   1      44.239  37.695  27.731  1.00  0.00     0.001 A 
ATOM     91  C   UNL A   1      42.347  36.668  26.667  1.00  0.00     0.001 A 
ATOM     92  C   UNL A   1      43.178  37.766  26.835  1.00  0.00     0.000 A 
ENDBRANCH  74  87
ENDBRANCH  48  49
ENDBRANCH  41  43
ENDBRANCH  40  41
ENDBRANCH  39  40
ENDBRANCH  38  39
ENDBRANCH  37  38
ENDBRANCH  36  37
ENDBRANCH   1  36
TORSDOF 20
ENDMDL
