MODEL 1
REMARK VINA RESULT:     -10.0      0.000      0.000
REMARK SMILES O=C(CCc1nc(-c2ccccc2)c(-c2ccccc2)o1)OCCOCCOCCOC(=O)c1ccc(-c2c3nc(c(-c4ccccc4)c4ccc([nH]4)c(-c4ccccc4)c4nc(c(-c5ccccc5)c5ccc2[nH]5)C=C4)C=C3)cc1
REMARK SMILES IDX 26 1 25 2 24 3 23 4 22 5 2 6 1 7 3 8 4 9 5 10 6 11 21 12
REMARK SMILES IDX 7 13 14 14 8 15 9 16 13 17 10 18 12 19 11 20 15 21 16 22
REMARK SMILES IDX 20 23 17 24 19 25 18 26 27 27 28 28 29 29 30 30 31 31 32 32
REMARK SMILES IDX 33 33 34 34 35 35 81 36 36 37 80 38 37 39 38 40 39 41 74 42
REMARK SMILES IDX 40 43 79 44 73 45 75 46 41 47 78 48 72 49 71 50 42 52 64 53
REMARK SMILES IDX 49 54 63 55 50 56 53 57 62 58 76 59 51 60 52 61 61 63 77 64
REMARK SMILES IDX 54 65 43 66 44 67 48 68 45 69 47 70 46 71 65 72 66 73 70 74
REMARK SMILES IDX 67 75 69 76 68 77 55 78 56 79 60 80 57 81 59 82 58 83
REMARK H PARENT 75 51 53 62
REMARK Flexibility Score: inf
ROOT
ATOM      1  C   UNL A   1      35.686  21.557  25.798  1.00  0.00     0.188 C 
ENDROOT
BRANCH   1   2
ATOM      2  O   UNL A   1      35.826  22.878  25.317  1.00  0.00    -0.376 OA
BRANCH   2   3
ATOM      3  C   UNL A   1      35.637  23.082  23.929  1.00  0.00     0.202 C 
BRANCH   3   4
ATOM      4  C   UNL A   1      34.451  23.933  23.484  1.00  0.00     0.261 C 
BRANCH   4   5
ATOM      5  O   UNL A   1      33.316  23.332  22.824  1.00  0.00    -0.463 OA
BRANCH   5   6
ATOM      6  C   UNL A   1      32.524  22.324  23.233  1.00  0.00     0.306 C 
ATOM      7  O   UNL A   1      31.867  21.684  22.413  1.00  0.00    -0.252 OA
BRANCH   6   8
ATOM      8  C   UNL A   1      32.326  22.082  24.703  1.00  0.00     0.132 C 
BRANCH   8   9
ATOM      9  C   UNL A   1      31.036  22.667  25.250  1.00  0.00     0.109 C 
BRANCH   9  10
ATOM     10  C   UNL A   1      31.051  24.151  25.341  1.00  0.00     0.196 A 
ATOM     11  N   UNL A   1      31.742  24.915  26.165  1.00  0.00    -0.213 NA
ATOM     12  O   UNL A   1      30.346  24.840  24.391  1.00  0.00    -0.440 OA
ATOM     13  C   UNL A   1      31.546  26.192  25.682  1.00  0.00     0.117 A 
ATOM     14  C   UNL A   1      30.659  26.155  24.628  1.00  0.00     0.162 A 
BRANCH  13  15
ATOM     15  C   UNL A   1      32.266  27.364  26.140  1.00  0.00     0.004 A 
ATOM     16  C   UNL A   1      33.651  27.443  25.998  1.00  0.00     0.010 A 
ATOM     17  C   UNL A   1      31.586  28.418  26.775  1.00  0.00     0.010 A 
ATOM     18  C   UNL A   1      34.339  28.560  26.481  1.00  0.00     0.001 A 
ATOM     19  C   UNL A   1      32.271  29.539  27.242  1.00  0.00     0.001 A 
ATOM     20  C   UNL A   1      33.650  29.608  27.097  1.00  0.00     0.000 A 
ENDBRANCH  13  15
BRANCH  14  21
ATOM     21  C   UNL A   1      30.028  27.146  23.787  1.00  0.00     0.020 A 
ATOM     22  C   UNL A   1      28.632  27.237  23.778  1.00  0.00     0.012 A 
ATOM     23  C   UNL A   1      30.784  28.090  23.082  1.00  0.00     0.012 A 
ATOM     24  C   UNL A   1      28.000  28.291  23.120  1.00  0.00     0.001 A 
ATOM     25  C   UNL A   1      30.151  29.140  22.416  1.00  0.00     0.001 A 
ATOM     26  C   UNL A   1      28.761  29.248  22.450  1.00  0.00     0.000 A 
ENDBRANCH  14  21
ENDBRANCH   9  10
ENDBRANCH   8   9
ENDBRANCH   6   8
ENDBRANCH   5   6
ENDBRANCH   4   5
ENDBRANCH   3   4
ENDBRANCH   2   3
ENDBRANCH   1   2
BRANCH   1  27
ATOM     27  C   UNL A   1      35.983  20.424  24.794  1.00  0.00     0.188 C 
BRANCH  27  28
ATOM     28  O   UNL A   1      37.013  19.479  25.029  1.00  0.00    -0.376 OA
BRANCH  28  29
ATOM     29  C   UNL A   1      38.385  19.843  25.026  1.00  0.00     0.202 C 
BRANCH  29  30
ATOM     30  C   UNL A   1      39.464  19.053  25.782  1.00  0.00     0.261 C 
BRANCH  30  31
ATOM     31  O   UNL A   1      40.806  19.204  25.303  1.00  0.00    -0.460 OA
BRANCH  31  32
ATOM     32  C   UNL A   1      41.751  19.383  26.253  1.00  0.00     0.338 C 
ATOM     33  O   UNL A   1      42.585  18.573  26.630  1.00  0.00    -0.246 OA
BRANCH  32  34
ATOM     34  C   UNL A   1      41.770  20.800  26.661  1.00  0.00     0.060 A 
ATOM     35  C   UNL A   1      41.994  21.774  25.674  1.00  0.00     0.016 A 
ATOM     36  C   UNL A   1      41.572  21.172  27.991  1.00  0.00     0.016 A 
ATOM     37  C   UNL A   1      42.011  23.124  26.013  1.00  0.00     0.010 A 
ATOM     38  C   UNL A   1      41.648  22.523  28.339  1.00  0.00     0.010 A 
ATOM     39  C   UNL A   1      41.891  23.500  27.355  1.00  0.00    -0.014 A 
BRANCH  39  40
ATOM     40  C   UNL A   1      42.274  24.873  27.755  1.00  0.00     0.031 A 
ATOM     41  C   UNL A   1      43.742  25.190  27.842  1.00  0.00     0.074 A 
ATOM     42  C   UNL A   1      41.357  25.821  28.013  1.00  0.00     0.049 A 
ATOM     43  N   UNL A   1      44.334  26.294  28.212  1.00  0.00    -0.248 NA
ATOM     44  C   UNL A   1      44.666  24.108  27.459  1.00  0.00     0.031 C 
ATOM     45  C   UNL A   1      39.909  25.658  27.904  1.00  0.00     0.029 A 
ATOM     46  N   UNL A   1      41.522  27.118  28.430  1.00  0.00    -0.354 N 
ATOM     47  C   UNL A   1      45.695  26.039  28.114  1.00  0.00     0.074 A 
ATOM     48  C   UNL A   1      45.844  24.670  27.676  1.00  0.00     0.031 C 
ATOM     49  C   UNL A   1      39.315  26.811  28.262  1.00  0.00     0.029 A 
ATOM     50  C   UNL A   1      40.339  27.778  28.658  1.00  0.00     0.049 A 
ATOM     51  H   UNL A   1      42.405  27.537  28.555  1.00  0.00     0.167 HD
ATOM     52  C   UNL A   1      46.732  26.871  28.366  1.00  0.00     0.031 A 
ATOM     53  C   UNL A   1      40.114  29.011  29.153  1.00  0.00     0.031 A 
ATOM     54  C   UNL A   1      46.584  28.224  28.827  1.00  0.00     0.049 A 
ATOM     55  C   UNL A   1      41.288  29.885  29.521  1.00  0.00     0.074 A 
ATOM     56  C   UNL A   1      47.573  29.150  29.106  1.00  0.00     0.029 A 
ATOM     57  N   UNL A   1      45.371  28.840  29.088  1.00  0.00    -0.354 N 
ATOM     58  N   UNL A   1      42.572  29.645  29.401  1.00  0.00    -0.248 NA
ATOM     59  C   UNL A   1      40.978  31.207  30.085  1.00  0.00     0.031 C 
ATOM     60  C   UNL A   1      46.960  30.305  29.601  1.00  0.00     0.029 A 
ATOM     61  C   UNL A   1      45.586  30.123  29.556  1.00  0.00     0.049 A 
ATOM     62  H   UNL A   1      44.487  28.425  28.959  1.00  0.00     0.167 HD
ATOM     63  C   UNL A   1      43.218  30.796  29.838  1.00  0.00     0.074 A 
ATOM     64  C   UNL A   1      42.185  31.739  30.212  1.00  0.00     0.031 C 
ATOM     65  C   UNL A   1      44.547  31.053  29.919  1.00  0.00     0.031 A 
BRANCH  52  66
ATOM     66  C   UNL A   1      48.119  26.321  28.191  1.00  0.00    -0.014 A 
ATOM     67  C   UNL A   1      48.728  26.254  26.929  1.00  0.00     0.009 A 
ATOM     68  C   UNL A   1      48.840  25.893  29.317  1.00  0.00     0.009 A 
ATOM     69  C   UNL A   1      50.020  25.742  26.793  1.00  0.00     0.001 A 
ATOM     70  C   UNL A   1      50.143  25.411  29.182  1.00  0.00     0.001 A 
ATOM     71  C   UNL A   1      50.728  25.328  27.921  1.00  0.00     0.000 A 
ENDBRANCH  52  66
BRANCH  53  72
ATOM     72  C   UNL A   1      38.723  29.495  29.367  1.00  0.00    -0.014 A 
ATOM     73  C   UNL A   1      38.075  30.276  28.397  1.00  0.00     0.009 A 
ATOM     74  C   UNL A   1      38.052  29.220  30.569  1.00  0.00     0.009 A 
ATOM     75  C   UNL A   1      36.802  30.797  28.639  1.00  0.00     0.001 A 
ATOM     76  C   UNL A   1      36.765  29.714  30.795  1.00  0.00     0.001 A 
ATOM     77  C   UNL A   1      36.146  30.512  29.835  1.00  0.00     0.000 A 
ENDBRANCH  53  72
BRANCH  65  78
ATOM     78  C   UNL A   1      44.966  32.423  30.381  1.00  0.00    -0.014 A 
ATOM     79  C   UNL A   1      45.143  32.721  31.741  1.00  0.00     0.009 A 
ATOM     80  C   UNL A   1      45.238  33.418  29.427  1.00  0.00     0.009 A 
ATOM     81  C   UNL A   1      45.547  33.997  32.137  1.00  0.00     0.001 A 
ATOM     82  C   UNL A   1      45.676  34.682  29.825  1.00  0.00     0.001 A 
ATOM     83  C   UNL A   1      45.820  34.974  31.179  1.00  0.00     0.000 A 
ENDBRANCH  65  78
ENDBRANCH  39  40
ENDBRANCH  32  34
ENDBRANCH  31  32
ENDBRANCH  30  31
ENDBRANCH  29  30
ENDBRANCH  28  29
ENDBRANCH  27  28
ENDBRANCH   1  27
TORSDOF 21
ENDMDL
MODEL 2
REMARK VINA RESULT:      -9.9      1.353      2.667
REMARK SMILES O=C(CCc1nc(-c2ccccc2)c(-c2ccccc2)o1)OCCOCCOCCOC(=O)c1ccc(-c2c3nc(c(-c4ccccc4)c4ccc([nH]4)c(-c4ccccc4)c4nc(c(-c5ccccc5)c5ccc2[nH]5)C=C4)C=C3)cc1
REMARK SMILES IDX 26 1 25 2 24 3 23 4 22 5 2 6 1 7 3 8 4 9 5 10 6 11 21 12
REMARK SMILES IDX 7 13 14 14 8 15 9 16 13 17 10 18 12 19 11 20 15 21 16 22
REMARK SMILES IDX 20 23 17 24 19 25 18 26 27 27 28 28 29 29 30 30 31 31 32 32
REMARK SMILES IDX 33 33 34 34 35 35 81 36 36 37 80 38 37 39 38 40 39 41 74 42
REMARK SMILES IDX 40 43 79 44 73 45 75 46 41 47 78 48 72 49 71 50 42 52 64 53
REMARK SMILES IDX 49 54 63 55 50 56 53 57 62 58 76 59 51 60 52 61 61 63 77 64
REMARK SMILES IDX 54 65 43 66 44 67 48 68 45 69 47 70 46 71 65 72 66 73 70 74
REMARK SMILES IDX 67 75 69 76 68 77 55 78 56 79 60 80 57 81 59 82 58 83
REMARK H PARENT 75 51 53 62
REMARK Flexibility Score: inf
ROOT
ATOM      1  C   UNL A   1      35.714  21.647  26.084  1.00  0.00     0.188 C 
ENDROOT
BRANCH   1   2
ATOM      2  O   UNL A   1      35.438  22.963  25.654  1.00  0.00    -0.376 OA
BRANCH   2   3
ATOM      3  C   UNL A   1      35.584  23.234  24.272  1.00  0.00     0.202 C 
BRANCH   3   4
ATOM      4  C   UNL A   1      34.353  23.691  23.496  1.00  0.00     0.261 C 
BRANCH   4   5
ATOM      5  O   UNL A   1      33.559  22.746  22.747  1.00  0.00    -0.463 OA
BRANCH   5   6
ATOM      6  C   UNL A   1      32.518  21.992  23.151  1.00  0.00     0.306 C 
ATOM      7  O   UNL A   1      31.606  21.731  22.368  1.00  0.00    -0.252 OA
BRANCH   6   8
ATOM      8  C   UNL A   1      32.400  21.601  24.596  1.00  0.00     0.132 C 
BRANCH   8   9
ATOM      9  C   UNL A   1      31.289  22.324  25.336  1.00  0.00     0.109 C 
BRANCH   9  10
ATOM     10  C   UNL A   1      31.253  23.786  25.067  1.00  0.00     0.196 A 
ATOM     11  N   UNL A   1      30.524  24.439  24.183  1.00  0.00    -0.213 NA
ATOM     12  O   UNL A   1      31.984  24.590  25.899  1.00  0.00    -0.440 OA
ATOM     13  C   UNL A   1      30.723  25.767  24.499  1.00  0.00     0.117 A 
ATOM     14  C   UNL A   1      31.648  25.864  25.516  1.00  0.00     0.162 A 
BRANCH  13  15
ATOM     15  C   UNL A   1      29.974  26.869  23.930  1.00  0.00     0.004 A 
ATOM     16  C   UNL A   1      28.582  26.819  23.864  1.00  0.00     0.010 A 
ATOM     17  C   UNL A   1      30.640  27.985  23.393  1.00  0.00     0.010 A 
ATOM     18  C   UNL A   1      27.872  27.869  23.275  1.00  0.00     0.001 A 
ATOM     19  C   UNL A   1      29.931  29.041  22.821  1.00  0.00     0.001 A 
ATOM     20  C   UNL A   1      28.545  28.980  22.759  1.00  0.00     0.000 A 
ENDBRANCH  13  15
BRANCH  14  21
ATOM     21  C   UNL A   1      32.299  26.955  26.206  1.00  0.00     0.020 A 
ATOM     22  C   UNL A   1      33.649  27.209  25.951  1.00  0.00     0.012 A 
ATOM     23  C   UNL A   1      31.576  27.831  27.026  1.00  0.00     0.012 A 
ATOM     24  C   UNL A   1      34.259  28.355  26.460  1.00  0.00     0.001 A 
ATOM     25  C   UNL A   1      32.188  28.973  27.542  1.00  0.00     0.001 A 
ATOM     26  C   UNL A   1      33.524  29.242  27.245  1.00  0.00     0.000 A 
ENDBRANCH  14  21
ENDBRANCH   9  10
ENDBRANCH   8   9
ENDBRANCH   6   8
ENDBRANCH   5   6
ENDBRANCH   4   5
ENDBRANCH   3   4
ENDBRANCH   2   3
ENDBRANCH   1   2
BRANCH   1  27
ATOM     27  C   UNL A   1      35.828  20.572  24.983  1.00  0.00     0.188 C 
BRANCH  27  28
ATOM     28  O   UNL A   1      36.870  19.611  24.993  1.00  0.00    -0.376 OA
BRANCH  28  29
ATOM     29  C   UNL A   1      38.240  19.984  25.000  1.00  0.00     0.202 C 
BRANCH  29  30
ATOM     30  C   UNL A   1      39.318  19.203  25.765  1.00  0.00     0.261 C 
BRANCH  30  31
ATOM     31  O   UNL A   1      40.672  19.442  25.364  1.00  0.00    -0.460 OA
BRANCH  31  32
ATOM     32  C   UNL A   1      41.558  19.627  26.369  1.00  0.00     0.338 C 
ATOM     33  O   UNL A   1      42.356  18.813  26.811  1.00  0.00    -0.246 OA
BRANCH  32  34
ATOM     34  C   UNL A   1      41.570  21.050  26.753  1.00  0.00     0.060 A 
ATOM     35  C   UNL A   1      41.143  21.998  25.810  1.00  0.00     0.016 A 
ATOM     36  C   UNL A   1      41.994  21.453  28.020  1.00  0.00     0.016 A 
ATOM     37  C   UNL A   1      41.129  23.352  26.133  1.00  0.00     0.010 A 
ATOM     38  C   UNL A   1      42.036  22.817  28.322  1.00  0.00     0.010 A 
ATOM     39  C   UNL A   1      41.627  23.770  27.371  1.00  0.00    -0.014 A 
BRANCH  39  40
ATOM     40  C   UNL A   1      41.955  25.200  27.570  1.00  0.00     0.031 A 
ATOM     41  C   UNL A   1      43.252  25.703  26.999  1.00  0.00     0.074 A 
ATOM     42  C   UNL A   1      41.125  26.039  28.215  1.00  0.00     0.049 A 
ATOM     43  N   UNL A   1      43.789  26.892  27.076  1.00  0.00    -0.248 NA
ATOM     44  C   UNL A   1      44.052  24.727  26.238  1.00  0.00     0.031 C 
ATOM     45  C   UNL A   1      39.814  25.689  28.759  1.00  0.00     0.029 A 
ATOM     46  N   UNL A   1      41.278  27.367  28.525  1.00  0.00    -0.354 N 
ATOM     47  C   UNL A   1      44.989  26.805  26.383  1.00  0.00     0.074 A 
ATOM     48  C   UNL A   1      45.115  25.444  25.914  1.00  0.00     0.031 C 
ATOM     49  C   UNL A   1      39.287  26.776  29.351  1.00  0.00     0.029 A 
ATOM     50  C   UNL A   1      40.238  27.884  29.259  1.00  0.00     0.049 A 
ATOM     51  H   UNL A   1      42.059  27.899  28.248  1.00  0.00     0.167 HD
ATOM     52  C   UNL A   1      45.906  27.773  26.154  1.00  0.00     0.031 A 
ATOM     53  C   UNL A   1      40.087  29.103  29.811  1.00  0.00     0.031 A 
ATOM     54  C   UNL A   1      45.793  29.120  26.643  1.00  0.00     0.049 A 
ATOM     55  C   UNL A   1      41.172  30.137  29.626  1.00  0.00     0.074 A 
ATOM     56  C   UNL A   1      46.666  30.177  26.461  1.00  0.00     0.029 A 
ATOM     57  N   UNL A   1      44.747  29.591  27.419  1.00  0.00    -0.354 N 
ATOM     58  N   UNL A   1      42.291  30.054  28.947  1.00  0.00    -0.248 NA
ATOM     59  C   UNL A   1      40.964  31.439  30.279  1.00  0.00     0.031 C 
ATOM     60  C   UNL A   1      46.182  31.270  27.185  1.00  0.00     0.029 A 
ATOM     61  C   UNL A   1      44.969  30.916  27.753  1.00  0.00     0.049 A 
ATOM     62  H   UNL A   1      43.963  29.063  27.694  1.00  0.00     0.167 HD
ATOM     63  C   UNL A   1      42.899  31.300  29.061  1.00  0.00     0.074 A 
ATOM     64  C   UNL A   1      42.019  32.124  29.861  1.00  0.00     0.031 C 
ATOM     65  C   UNL A   1      44.080  31.725  28.546  1.00  0.00     0.031 A 
BRANCH  52  66
ATOM     66  C   UNL A   1      47.135  27.393  25.379  1.00  0.00    -0.014 A 
ATOM     67  C   UNL A   1      47.203  27.556  23.986  1.00  0.00     0.009 A 
ATOM     68  C   UNL A   1      48.256  26.894  26.060  1.00  0.00     0.009 A 
ATOM     69  C   UNL A   1      48.359  27.199  23.289  1.00  0.00     0.001 A 
ATOM     70  C   UNL A   1      49.421  26.567  25.364  1.00  0.00     0.001 A 
ATOM     71  C   UNL A   1      49.468  26.712  23.979  1.00  0.00     0.000 A 
ENDBRANCH  52  66
BRANCH  53  72
ATOM     72  C   UNL A   1      38.881  29.420  30.624  1.00  0.00    -0.014 A 
ATOM     73  C   UNL A   1      37.734  29.968  30.027  1.00  0.00     0.009 A 
ATOM     74  C   UNL A   1      38.888  29.221  32.014  1.00  0.00     0.009 A 
ATOM     75  C   UNL A   1      36.637  30.340  30.807  1.00  0.00     0.001 A 
ATOM     76  C   UNL A   1      37.777  29.563  32.787  1.00  0.00     0.001 A 
ATOM     77  C   UNL A   1      36.657  30.134  32.185  1.00  0.00     0.000 A 
ENDBRANCH  53  72
BRANCH  65  78
ATOM     78  C   UNL A   1      44.467  33.160  28.783  1.00  0.00    -0.014 A 
ATOM     79  C   UNL A   1      45.261  33.538  29.878  1.00  0.00     0.009 A 
ATOM     80  C   UNL A   1      44.070  34.143  27.862  1.00  0.00     0.009 A 
ATOM     81  C   UNL A   1      45.617  34.876  30.063  1.00  0.00     0.001 A 
ATOM     82  C   UNL A   1      44.457  35.473  28.031  1.00  0.00     0.001 A 
ATOM     83  C   UNL A   1      45.221  35.840  29.136  1.00  0.00     0.000 A 
ENDBRANCH  65  78
ENDBRANCH  39  40
ENDBRANCH  32  34
ENDBRANCH  31  32
ENDBRANCH  30  31
ENDBRANCH  29  30
ENDBRANCH  28  29
ENDBRANCH  27  28
ENDBRANCH   1  27
TORSDOF 21
ENDMDL
MODEL 3
REMARK VINA RESULT:      -9.8      3.097      4.862
REMARK SMILES O=C(CCc1nc(-c2ccccc2)c(-c2ccccc2)o1)OCCOCCOCCOC(=O)c1ccc(-c2c3nc(c(-c4ccccc4)c4ccc([nH]4)c(-c4ccccc4)c4nc(c(-c5ccccc5)c5ccc2[nH]5)C=C4)C=C3)cc1
REMARK SMILES IDX 26 1 25 2 24 3 23 4 22 5 2 6 1 7 3 8 4 9 5 10 6 11 21 12
REMARK SMILES IDX 7 13 14 14 8 15 9 16 13 17 10 18 12 19 11 20 15 21 16 22
REMARK SMILES IDX 20 23 17 24 19 25 18 26 27 27 28 28 29 29 30 30 31 31 32 32
REMARK SMILES IDX 33 33 34 34 35 35 81 36 36 37 80 38 37 39 38 40 39 41 74 42
REMARK SMILES IDX 40 43 79 44 73 45 75 46 41 47 78 48 72 49 71 50 42 52 64 53
REMARK SMILES IDX 49 54 63 55 50 56 53 57 62 58 76 59 51 60 52 61 61 63 77 64
REMARK SMILES IDX 54 65 43 66 44 67 48 68 45 69 47 70 46 71 65 72 66 73 70 74
REMARK SMILES IDX 67 75 69 76 68 77 55 78 56 79 60 80 57 81 59 82 58 83
REMARK H PARENT 75 51 53 62
REMARK Flexibility Score: inf
ROOT
ATOM      1  C   UNL A   1      37.143  20.377  24.953  1.00  0.00     0.188 C 
ENDROOT
BRANCH   1   2
ATOM      2  O   UNL A   1      36.974  21.553  24.189  1.00  0.00    -0.376 OA
BRANCH   2   3
ATOM      3  C   UNL A   1      37.133  22.788  24.862  1.00  0.00     0.202 C 
BRANCH   3   4
ATOM      4  C   UNL A   1      36.250  23.062  26.076  1.00  0.00     0.261 C 
BRANCH   4   5
ATOM      5  O   UNL A   1      34.833  23.292  25.922  1.00  0.00    -0.463 OA
BRANCH   5   6
ATOM      6  C   UNL A   1      33.828  22.402  25.817  1.00  0.00     0.306 C 
ATOM      7  O   UNL A   1      33.723  21.708  24.808  1.00  0.00    -0.252 OA
BRANCH   6   8
ATOM      8  C   UNL A   1      32.752  22.368  26.865  1.00  0.00     0.132 C 
BRANCH   8   9
ATOM      9  C   UNL A   1      31.400  22.849  26.369  1.00  0.00     0.109 C 
BRANCH   9  10
ATOM     10  C   UNL A   1      31.428  24.233  25.825  1.00  0.00     0.196 A 
ATOM     11  N   UNL A   1      30.783  24.716  24.780  1.00  0.00    -0.213 NA
ATOM     12  O   UNL A   1      32.123  25.170  26.542  1.00  0.00    -0.440 OA
ATOM     13  C   UNL A   1      31.000  26.076  24.853  1.00  0.00     0.117 A 
ATOM     14  C   UNL A   1      31.853  26.352  25.899  1.00  0.00     0.162 A 
BRANCH  13  15
ATOM     15  C   UNL A   1      30.326  27.061  24.030  1.00  0.00     0.004 A 
ATOM     16  C   UNL A   1      31.049  28.081  23.413  1.00  0.00     0.010 A 
ATOM     17  C   UNL A   1      28.929  27.031  23.879  1.00  0.00     0.010 A 
ATOM     18  C   UNL A   1      30.383  29.050  22.656  1.00  0.00     0.001 A 
ATOM     19  C   UNL A   1      28.266  27.987  23.109  1.00  0.00     0.001 A 
ATOM     20  C   UNL A   1      28.996  29.001  22.500  1.00  0.00     0.000 A 
ENDBRANCH  13  15
BRANCH  14  21
ATOM     21  C   UNL A   1      32.486  27.544  26.417  1.00  0.00     0.020 A 
ATOM     22  C   UNL A   1      33.871  27.685  26.292  1.00  0.00     0.012 A 
ATOM     23  C   UNL A   1      31.729  28.606  26.926  1.00  0.00     0.012 A 
ATOM     24  C   UNL A   1      34.488  28.892  26.617  1.00  0.00     0.001 A 
ATOM     25  C   UNL A   1      32.348  29.812  27.260  1.00  0.00     0.001 A 
ATOM     26  C   UNL A   1      33.724  29.958  27.089  1.00  0.00     0.000 A 
ENDBRANCH  14  21
ENDBRANCH   9  10
ENDBRANCH   8   9
ENDBRANCH   6   8
ENDBRANCH   5   6
ENDBRANCH   4   5
ENDBRANCH   3   4
ENDBRANCH   2   3
ENDBRANCH   1   2
BRANCH   1  27
ATOM     27  C   UNL A   1      38.526  19.697  24.873  1.00  0.00     0.188 C 
BRANCH  27  28
ATOM     28  O   UNL A   1      39.348  19.558  26.020  1.00  0.00    -0.376 OA
BRANCH  28  29
ATOM     29  C   UNL A   1      40.748  19.792  25.977  1.00  0.00     0.202 C 
BRANCH  29  30
ATOM     30  C   UNL A   1      41.417  21.002  26.646  1.00  0.00     0.261 C 
BRANCH  30  31
ATOM     31  O   UNL A   1      40.849  22.282  26.344  1.00  0.00    -0.460 OA
BRANCH  31  32
ATOM     32  C   UNL A   1      41.734  23.264  26.059  1.00  0.00     0.338 C 
ATOM     33  O   UNL A   1      42.624  23.238  25.222  1.00  0.00    -0.246 OA
BRANCH  32  34
ATOM     34  C   UNL A   1      41.353  24.489  26.785  1.00  0.00     0.060 A 
ATOM     35  C   UNL A   1      42.001  25.689  26.453  1.00  0.00     0.016 A 
ATOM     36  C   UNL A   1      40.372  24.465  27.777  1.00  0.00     0.016 A 
ATOM     37  C   UNL A   1      41.666  26.872  27.107  1.00  0.00     0.010 A 
ATOM     38  C   UNL A   1      40.078  25.641  28.474  1.00  0.00     0.010 A 
ATOM     39  C   UNL A   1      40.742  26.841  28.156  1.00  0.00    -0.014 A 
BRANCH  39  40
ATOM     40  C   UNL A   1      40.662  27.996  29.079  1.00  0.00     0.031 A 
ATOM     41  C   UNL A   1      41.713  28.108  30.149  1.00  0.00     0.074 A 
ATOM     42  C   UNL A   1      39.704  28.933  28.966  1.00  0.00     0.049 A 
ATOM     43  N   UNL A   1      41.837  28.991  31.104  1.00  0.00    -0.248 NA
ATOM     44  C   UNL A   1      42.766  27.077  30.138  1.00  0.00     0.031 C 
ATOM     45  C   UNL A   1      38.668  28.971  27.936  1.00  0.00     0.029 A 
ATOM     46  N   UNL A   1      39.451  30.035  29.743  1.00  0.00    -0.354 N 
ATOM     47  C   UNL A   1      42.974  28.621  31.809  1.00  0.00     0.074 A 
ATOM     48  C   UNL A   1      43.489  27.420  31.192  1.00  0.00     0.031 C 
ATOM     49  C   UNL A   1      37.878  30.039  28.156  1.00  0.00     0.029 A 
ATOM     50  C   UNL A   1      38.334  30.735  29.360  1.00  0.00     0.049 A 
ATOM     51  H   UNL A   1      40.018  30.300  30.505  1.00  0.00     0.167 HD
ATOM     52  C   UNL A   1      43.542  29.227  32.878  1.00  0.00     0.031 A 
ATOM     53  C   UNL A   1      37.736  31.799  29.932  1.00  0.00     0.031 A 
ATOM     54  C   UNL A   1      43.015  30.406  33.507  1.00  0.00     0.049 A 
ATOM     55  C   UNL A   1      38.333  32.397  31.182  1.00  0.00     0.074 A 
ATOM     56  C   UNL A   1      43.519  31.099  34.592  1.00  0.00     0.029 A 
ATOM     57  N   UNL A   1      41.857  31.058  33.116  1.00  0.00    -0.354 N 
ATOM     58  N   UNL A   1      39.423  32.056  31.828  1.00  0.00    -0.248 NA
ATOM     59  C   UNL A   1      37.619  33.537  31.777  1.00  0.00     0.031 C 
ATOM     60  C   UNL A   1      42.629  32.132  34.900  1.00  0.00     0.029 A 
ATOM     61  C   UNL A   1      41.612  32.128  33.959  1.00  0.00     0.049 A 
ATOM     62  H   UNL A   1      41.292  30.798  32.353  1.00  0.00     0.167 HD
ATOM     63  C   UNL A   1      39.543  32.959  32.878  1.00  0.00     0.074 A 
ATOM     64  C   UNL A   1      38.424  33.871  32.775  1.00  0.00     0.031 C 
ATOM     65  C   UNL A   1      40.496  33.031  33.840  1.00  0.00     0.031 A 
BRANCH  52  66
ATOM     66  C   UNL A   1      44.773  28.593  33.459  1.00  0.00    -0.014 A 
ATOM     67  C   UNL A   1      44.692  27.505  34.341  1.00  0.00     0.009 A 
ATOM     68  C   UNL A   1      46.039  29.074  33.090  1.00  0.00     0.009 A 
ATOM     69  C   UNL A   1      45.852  26.931  34.865  1.00  0.00     0.001 A 
ATOM     70  C   UNL A   1      47.197  28.479  33.590  1.00  0.00     0.001 A 
ATOM     71  C   UNL A   1      47.103  27.414  34.483  1.00  0.00     0.000 A 
ENDBRANCH  52  66
BRANCH  53  72
ATOM     72  C   UNL A   1      36.482  32.359  29.358  1.00  0.00    -0.014 A 
ATOM     73  C   UNL A   1      36.525  33.312  28.328  1.00  0.00     0.009 A 
ATOM     74  C   UNL A   1      35.233  31.978  29.873  1.00  0.00     0.009 A 
ATOM     75  C   UNL A   1      35.348  33.895  27.852  1.00  0.00     0.001 A 
ATOM     76  C   UNL A   1      34.056  32.538  29.371  1.00  0.00     0.001 A 
ATOM     77  C   UNL A   1      34.115  33.505  28.370  1.00  0.00     0.000 A 
ENDBRANCH  53  72
BRANCH  65  78
ATOM     78  C   UNL A   1      40.405  34.162  34.829  1.00  0.00    -0.014 A 
ATOM     79  C   UNL A   1      39.604  34.073  35.978  1.00  0.00     0.009 A 
ATOM     80  C   UNL A   1      41.180  35.317  34.628  1.00  0.00     0.009 A 
ATOM     81  C   UNL A   1      39.553  35.134  36.886  1.00  0.00     0.001 A 
ATOM     82  C   UNL A   1      41.152  36.360  35.555  1.00  0.00     0.001 A 
ATOM     83  C   UNL A   1      40.331  36.273  36.677  1.00  0.00     0.000 A 
ENDBRANCH  65  78
ENDBRANCH  39  40
ENDBRANCH  32  34
ENDBRANCH  31  32
ENDBRANCH  30  31
ENDBRANCH  29  30
ENDBRANCH  28  29
ENDBRANCH  27  28
ENDBRANCH   1  27
TORSDOF 21
ENDMDL
