MODEL 1
REMARK VINA RESULT:      -9.8      0.000      0.000
REMARK SMILES COc1ccccc1[C@H](C)NC(=O)[C@@H]1CC=CC[C@@H]1C(=O)OCCOCCOCCOC(=O)c1ccc(-c2c3nc(c(-c4ccccc4)c4ccc([nH]4)c(-c4ccccc4)c4nc(c(-c5ccccc5)c5ccc2[nH]5)C=C4)C=C3)cc1
REMARK SMILES IDX 26 1 25 2 24 3 23 4 22 5 20 6 21 7 19 8 14 9 15 10 16 11
REMARK SMILES IDX 18 12 17 13 12 14 11 15 13 17 9 18 10 19 8 20 3 21 4 22 5 23
REMARK SMILES IDX 7 24 6 25 2 26 1 27 27 28 28 29 29 30 30 31 31 32 32 33
REMARK SMILES IDX 33 34 34 35 35 36 81 37 36 38 80 39 37 40 38 41 39 42 74 43
REMARK SMILES IDX 40 44 79 45 73 46 75 47 41 48 78 49 72 50 71 51 42 53 64 54
REMARK SMILES IDX 49 55 63 56 50 57 53 58 62 59 76 60 51 61 52 62 61 64 77 65
REMARK SMILES IDX 54 66 43 67 44 68 48 69 45 70 47 71 46 72 65 73 66 74 70 75
REMARK SMILES IDX 67 76 69 77 68 78 55 79 56 80 60 81 57 82 59 83 58 84
REMARK H PARENT 11 16 75 52 53 63
REMARK Flexibility Score: inf
ROOT
ATOM      1  C   UNL A   1      28.520  31.569  23.578  1.00  0.00     0.188 C 
ENDROOT
BRANCH   1   2
ATOM      2  O   UNL A   1      28.008  30.996  22.370  1.00  0.00    -0.376 OA
BRANCH   2   3
ATOM      3  C   UNL A   1      28.467  29.707  22.034  1.00  0.00     0.202 C 
BRANCH   3   4
ATOM      4  C   UNL A   1      29.966  29.477  22.238  1.00  0.00     0.261 C 
BRANCH   4   5
ATOM      5  O   UNL A   1      30.494  28.237  22.756  1.00  0.00    -0.463 OA
BRANCH   5   6
ATOM      6  C   UNL A   1      31.197  28.027  23.891  1.00  0.00     0.310 C 
ATOM      7  O   UNL A   1      30.783  27.638  24.974  1.00  0.00    -0.252 OA
BRANCH   6   8
ATOM      8  C   UNL A   1      32.652  28.419  23.723  1.00  0.00     0.115 C 
ATOM      9  C   UNL A   1      33.606  27.229  23.731  1.00  0.00     0.097 C 
ATOM     10  C   UNL A   1      33.777  26.625  25.159  1.00  0.00     0.041 C 
ATOM     11  C   UNL A   1      33.712  27.629  26.280  1.00  0.00    -0.030 C 
ATOM     12  C   UNL A   1      33.042  29.486  24.763  1.00  0.00     0.043 C 
ATOM     13  C   UNL A   1      33.411  28.921  26.102  1.00  0.00    -0.030 C 
BRANCH   9  14
ATOM     14  C   UNL A   1      33.422  26.083  22.721  1.00  0.00     0.224 C 
ATOM     15  N   UNL A   1      32.739  24.923  22.845  1.00  0.00    -0.349 N 
ATOM     16  H   UNL A   1      32.799  24.405  22.010  1.00  0.00     0.164 HD
ATOM     17  O   UNL A   1      33.926  26.236  21.595  1.00  0.00    -0.275 OA
BRANCH  15  18
ATOM     18  C   UNL A   1      31.939  24.192  23.835  1.00  0.00     0.113 C 
ATOM     19  C   UNL A   1      30.611  23.652  23.311  1.00  0.00     0.036 C 
BRANCH  18  20
ATOM     20  C   UNL A   1      32.702  23.171  24.689  1.00  0.00     0.016 A 
ATOM     21  C   UNL A   1      32.485  22.792  26.027  1.00  0.00     0.124 A 
ATOM     22  C   UNL A   1      33.159  21.658  26.545  1.00  0.00     0.047 A 
ATOM     23  C   UNL A   1      34.059  20.910  25.790  1.00  0.00     0.004 A 
ATOM     24  C   UNL A   1      33.699  22.439  23.976  1.00  0.00     0.010 A 
ATOM     25  C   UNL A   1      34.347  21.318  24.502  1.00  0.00     0.001 A 
BRANCH  21  26
ATOM     26  O   UNL A   1      31.588  23.263  26.941  1.00  0.00    -0.496 OA
ATOM     27  C   UNL A   1      30.207  22.970  26.852  1.00  0.00     0.278 C 
ENDBRANCH  21  26
ENDBRANCH  18  20
ENDBRANCH  15  18
ENDBRANCH   9  14
ENDBRANCH   6   8
ENDBRANCH   5   6
ENDBRANCH   4   5
ENDBRANCH   3   4
ENDBRANCH   2   3
ENDBRANCH   1   2
BRANCH   1  28
ATOM     28  C   UNL A   1      29.294  32.899  23.500  1.00  0.00     0.188 C 
BRANCH  28  29
ATOM     29  O   UNL A   1      30.129  33.110  24.628  1.00  0.00    -0.376 OA
BRANCH  29  30
ATOM     30  C   UNL A   1      30.450  31.952  25.382  1.00  0.00     0.202 C 
BRANCH  30  31
ATOM     31  C   UNL A   1      31.185  32.200  26.711  1.00  0.00     0.261 C 
BRANCH  31  32
ATOM     32  O   UNL A   1      32.553  32.660  26.629  1.00  0.00    -0.460 OA
BRANCH  32  33
ATOM     33  C   UNL A   1      33.048  33.427  27.635  1.00  0.00     0.338 C 
ATOM     34  O   UNL A   1      32.470  34.310  28.221  1.00  0.00    -0.246 OA
BRANCH  33  35
ATOM     35  C   UNL A   1      34.338  32.816  28.079  1.00  0.00     0.060 A 
ATOM     36  C   UNL A   1      34.344  31.485  28.527  1.00  0.00     0.016 A 
ATOM     37  C   UNL A   1      35.530  33.541  28.047  1.00  0.00     0.016 A 
ATOM     38  C   UNL A   1      35.527  30.894  28.986  1.00  0.00     0.010 A 
ATOM     39  C   UNL A   1      36.707  32.960  28.539  1.00  0.00     0.010 A 
ATOM     40  C   UNL A   1      36.705  31.647  29.048  1.00  0.00    -0.014 A 
BRANCH  40  41
ATOM     41  C   UNL A   1      37.851  31.173  29.871  1.00  0.00     0.031 A 
ATOM     42  C   UNL A   1      38.810  30.195  29.241  1.00  0.00     0.074 A 
ATOM     43  C   UNL A   1      38.057  31.582  31.137  1.00  0.00     0.049 A 
ATOM     44  N   UNL A   1      39.824  29.558  29.771  1.00  0.00    -0.248 NA
ATOM     45  C   UNL A   1      38.591  29.893  27.814  1.00  0.00     0.031 C 
ATOM     46  C   UNL A   1      37.254  32.566  31.859  1.00  0.00     0.029 A 
ATOM     47  N   UNL A   1      39.013  31.195  32.048  1.00  0.00    -0.354 N 
ATOM     48  C   UNL A   1      40.343  28.765  28.755  1.00  0.00     0.074 A 
ATOM     49  C   UNL A   1      39.532  28.991  27.579  1.00  0.00     0.031 C 
ATOM     50  C   UNL A   1      37.736  32.688  33.110  1.00  0.00     0.029 A 
ATOM     51  C   UNL A   1      38.855  31.764  33.290  1.00  0.00     0.049 A 
ATOM     52  H   UNL A   1      39.743  30.571  31.831  1.00  0.00     0.167 HD
ATOM     53  C   UNL A   1      41.396  27.916  28.793  1.00  0.00     0.031 A 
ATOM     54  C   UNL A   1      39.513  31.536  34.446  1.00  0.00     0.031 A 
ATOM     55  C   UNL A   1      42.210  27.683  29.955  1.00  0.00     0.049 A 
ATOM     56  C   UNL A   1      40.636  30.526  34.482  1.00  0.00     0.074 A 
ATOM     57  C   UNL A   1      43.318  26.862  30.077  1.00  0.00     0.029 A 
ATOM     58  N   UNL A   1      41.999  28.260  31.195  1.00  0.00    -0.354 N 
ATOM     59  N   UNL A   1      41.140  29.808  33.507  1.00  0.00    -0.248 NA
ATOM     60  C   UNL A   1      41.288  30.300  35.784  1.00  0.00     0.031 C 
ATOM     61  C   UNL A   1      43.737  26.890  31.409  1.00  0.00     0.029 A 
ATOM     62  C   UNL A   1      42.933  27.783  32.099  1.00  0.00     0.049 A 
ATOM     63  H   UNL A   1      41.290  28.912  31.403  1.00  0.00     0.167 HD
ATOM     64  C   UNL A   1      42.178  29.073  34.070  1.00  0.00     0.074 A 
ATOM     65  C   UNL A   1      42.248  29.446  35.466  1.00  0.00     0.031 C 
ATOM     66  C   UNL A   1      42.999  28.168  33.484  1.00  0.00     0.031 A 
BRANCH  53  67
ATOM     67  C   UNL A   1      41.705  27.129  27.551  1.00  0.00    -0.014 A 
ATOM     68  C   UNL A   1      42.684  27.548  26.639  1.00  0.00     0.009 A 
ATOM     69  C   UNL A   1      41.039  25.913  27.327  1.00  0.00     0.009 A 
ATOM     70  C   UNL A   1      42.975  26.773  25.514  1.00  0.00     0.001 A 
ATOM     71  C   UNL A   1      41.352  25.128  26.217  1.00  0.00     0.001 A 
ATOM     72  C   UNL A   1      42.316  25.561  25.309  1.00  0.00     0.000 A 
ENDBRANCH  53  67
BRANCH  54  73
ATOM     73  C   UNL A   1      39.101  32.225  35.702  1.00  0.00    -0.014 A 
ATOM     74  C   UNL A   1      38.166  31.644  36.574  1.00  0.00     0.009 A 
ATOM     75  C   UNL A   1      39.590  33.509  35.998  1.00  0.00     0.009 A 
ATOM     76  C   UNL A   1      37.701  32.348  37.688  1.00  0.00     0.001 A 
ATOM     77  C   UNL A   1      39.150  34.195  37.131  1.00  0.00     0.001 A 
ATOM     78  C   UNL A   1      38.196  33.621  37.967  1.00  0.00     0.000 A 
ENDBRANCH  54  73
BRANCH  66  79
ATOM     79  C   UNL A   1      44.077  27.550  34.333  1.00  0.00    -0.014 A 
ATOM     80  C   UNL A   1      45.364  28.107  34.406  1.00  0.00     0.009 A 
ATOM     81  C   UNL A   1      43.783  26.419  35.112  1.00  0.00     0.009 A 
ATOM     82  C   UNL A   1      46.343  27.521  35.212  1.00  0.00     0.001 A 
ATOM     83  C   UNL A   1      44.754  25.855  35.941  1.00  0.00     0.001 A 
ATOM     84  C   UNL A   1      46.036  26.399  35.982  1.00  0.00     0.000 A 
ENDBRANCH  66  79
ENDBRANCH  40  41
ENDBRANCH  33  35
ENDBRANCH  32  33
ENDBRANCH  31  32
ENDBRANCH  30  31
ENDBRANCH  29  30
ENDBRANCH  28  29
ENDBRANCH   1  28
TORSDOF 21
ENDMDL
MODEL 2
REMARK VINA RESULT:      -9.8      3.825      6.056
REMARK SMILES COc1ccccc1[C@H](C)NC(=O)[C@@H]1CC=CC[C@@H]1C(=O)OCCOCCOCCOC(=O)c1ccc(-c2c3nc(c(-c4ccccc4)c4ccc([nH]4)c(-c4ccccc4)c4nc(c(-c5ccccc5)c5ccc2[nH]5)C=C4)C=C3)cc1
REMARK SMILES IDX 26 1 25 2 24 3 23 4 22 5 20 6 21 7 19 8 14 9 15 10 16 11
REMARK SMILES IDX 18 12 17 13 12 14 11 15 13 17 9 18 10 19 8 20 3 21 4 22 5 23
REMARK SMILES IDX 7 24 6 25 2 26 1 27 27 28 28 29 29 30 30 31 31 32 32 33
REMARK SMILES IDX 33 34 34 35 35 36 81 37 36 38 80 39 37 40 38 41 39 42 74 43
REMARK SMILES IDX 40 44 79 45 73 46 75 47 41 48 78 49 72 50 71 51 42 53 64 54
REMARK SMILES IDX 49 55 63 56 50 57 53 58 62 59 76 60 51 61 52 62 61 64 77 65
REMARK SMILES IDX 54 66 43 67 44 68 48 69 45 70 47 71 46 72 65 73 66 74 70 75
REMARK SMILES IDX 67 76 69 77 68 78 55 79 56 80 60 81 57 82 59 83 58 84
REMARK H PARENT 11 16 75 52 53 63
REMARK Flexibility Score: inf
ROOT
ATOM      1  C   UNL A   1      34.527  29.476  27.585  1.00  0.00     0.188 C 
ENDROOT
BRANCH   1   2
ATOM      2  O   UNL A   1      34.256  28.479  26.595  1.00  0.00    -0.376 OA
BRANCH   2   3
ATOM      3  C   UNL A   1      33.689  28.924  25.384  1.00  0.00     0.202 C 
BRANCH   3   4
ATOM      4  C   UNL A   1      33.704  27.901  24.246  1.00  0.00     0.261 C 
BRANCH   4   5
ATOM      5  O   UNL A   1      33.109  26.591  24.376  1.00  0.00    -0.463 OA
BRANCH   5   6
ATOM      6  C   UNL A   1      31.962  26.242  24.998  1.00  0.00     0.310 C 
ATOM      7  O   UNL A   1      31.692  26.327  26.188  1.00  0.00    -0.252 OA
BRANCH   6   8
ATOM      8  C   UNL A   1      30.977  25.611  24.034  1.00  0.00     0.115 C 
ATOM      9  C   UNL A   1      31.395  25.734  22.573  1.00  0.00     0.097 C 
ATOM     10  C   UNL A   1      31.219  27.188  22.034  1.00  0.00     0.041 C 
ATOM     11  C   UNL A   1      30.053  27.940  22.618  1.00  0.00    -0.030 C 
ATOM     12  C   UNL A   1      29.558  26.156  24.284  1.00  0.00     0.043 C 
ATOM     13  C   UNL A   1      29.286  27.467  23.609  1.00  0.00    -0.030 C 
BRANCH   9  14
ATOM     14  C   UNL A   1      32.756  25.188  22.109  1.00  0.00     0.224 C 
ATOM     15  N   UNL A   1      33.428  24.086  22.510  1.00  0.00    -0.349 N 
ATOM     16  H   UNL A   1      34.271  24.002  22.007  1.00  0.00     0.164 HD
ATOM     17  O   UNL A   1      33.331  25.807  21.197  1.00  0.00    -0.275 OA
BRANCH  15  18
ATOM     18  C   UNL A   1      33.297  22.975  23.461  1.00  0.00     0.113 C 
ATOM     19  C   UNL A   1      32.446  21.807  22.966  1.00  0.00     0.036 C 
BRANCH  18  20
ATOM     20  C   UNL A   1      34.594  22.522  24.142  1.00  0.00     0.016 A 
ATOM     21  C   UNL A   1      34.763  21.757  25.312  1.00  0.00     0.124 A 
ATOM     22  C   UNL A   1      36.049  21.254  25.631  1.00  0.00     0.047 A 
ATOM     23  C   UNL A   1      37.171  21.509  24.846  1.00  0.00     0.004 A 
ATOM     24  C   UNL A   1      35.781  22.839  23.414  1.00  0.00     0.010 A 
ATOM     25  C   UNL A   1      37.038  22.326  23.741  1.00  0.00     0.001 A 
BRANCH  21  26
ATOM     26  O   UNL A   1      33.837  21.266  26.185  1.00  0.00    -0.496 OA
ATOM     27  C   UNL A   1      33.136  22.107  27.081  1.00  0.00     0.278 C 
ENDBRANCH  21  26
ENDBRANCH  18  20
ENDBRANCH  15  18
ENDBRANCH   9  14
ENDBRANCH   6   8
ENDBRANCH   5   6
ENDBRANCH   4   5
ENDBRANCH   3   4
ENDBRANCH   2   3
ENDBRANCH   1   2
BRANCH   1  28
ATOM     28  C   UNL A   1      33.938  30.889  27.400  1.00  0.00     0.188 C 
BRANCH  28  29
ATOM     29  O   UNL A   1      34.859  31.913  27.740  1.00  0.00    -0.376 OA
BRANCH  29  30
ATOM     30  C   UNL A   1      34.335  32.981  28.514  1.00  0.00     0.202 C 
BRANCH  30  31
ATOM     31  C   UNL A   1      34.583  32.895  30.030  1.00  0.00     0.261 C 
BRANCH  31  32
ATOM     32  O   UNL A   1      35.170  31.671  30.530  1.00  0.00    -0.460 OA
BRANCH  32  33
ATOM     33  C   UNL A   1      36.198  31.752  31.414  1.00  0.00     0.338 C 
ATOM     34  O   UNL A   1      36.148  32.175  32.544  1.00  0.00    -0.246 OA
BRANCH  33  35
ATOM     35  C   UNL A   1      37.346  30.983  30.846  1.00  0.00     0.060 A 
ATOM     36  C   UNL A   1      38.225  30.324  31.722  1.00  0.00     0.016 A 
ATOM     37  C   UNL A   1      37.552  30.901  29.468  1.00  0.00     0.016 A 
ATOM     38  C   UNL A   1      39.333  29.625  31.226  1.00  0.00     0.010 A 
ATOM     39  C   UNL A   1      38.680  30.231  28.974  1.00  0.00     0.010 A 
ATOM     40  C   UNL A   1      39.599  29.623  29.852  1.00  0.00    -0.014 A 
BRANCH  40  41
ATOM     41  C   UNL A   1      40.944  29.226  29.354  1.00  0.00     0.031 A 
ATOM     42  C   UNL A   1      41.119  27.813  28.856  1.00  0.00     0.074 A 
ATOM     43  C   UNL A   1      41.991  30.072  29.330  1.00  0.00     0.049 A 
ATOM     44  N   UNL A   1      42.204  27.192  28.466  1.00  0.00    -0.248 NA
ATOM     45  C   UNL A   1      39.900  26.986  28.795  1.00  0.00     0.031 C 
ATOM     46  C   UNL A   1      41.961  31.480  29.720  1.00  0.00     0.029 A 
ATOM     47  N   UNL A   1      43.301  29.851  28.972  1.00  0.00    -0.354 N 
ATOM     48  C   UNL A   1      41.803  25.903  28.141  1.00  0.00     0.074 A 
ATOM     49  C   UNL A   1      40.380  25.823  28.384  1.00  0.00     0.031 C 
ATOM     50  C   UNL A   1      43.201  31.990  29.602  1.00  0.00     0.029 A 
ATOM     51  C   UNL A   1      44.119  30.938  29.168  1.00  0.00     0.049 A 
ATOM     52  H   UNL A   1      43.622  28.994  28.607  1.00  0.00     0.167 HD
ATOM     53  C   UNL A   1      42.550  24.870  27.685  1.00  0.00     0.031 A 
ATOM     54  C   UNL A   1      45.458  31.058  29.047  1.00  0.00     0.031 A 
ATOM     55  C   UNL A   1      43.965  24.937  27.440  1.00  0.00     0.049 A 
ATOM     56  C   UNL A   1      46.280  29.868  28.611  1.00  0.00     0.074 A 
ATOM     57  C   UNL A   1      44.798  23.947  26.948  1.00  0.00     0.029 A 
ATOM     58  N   UNL A   1      44.755  26.048  27.675  1.00  0.00    -0.354 N 
ATOM     59  N   UNL A   1      45.885  28.664  28.273  1.00  0.00    -0.248 NA
ATOM     60  C   UNL A   1      47.738  30.058  28.535  1.00  0.00     0.031 C 
ATOM     61  C   UNL A   1      46.106  24.438  26.951  1.00  0.00     0.029 A 
ATOM     62  C   UNL A   1      46.075  25.756  27.376  1.00  0.00     0.049 A 
ATOM     63  H   UNL A   1      44.427  26.916  28.006  1.00  0.00     0.167 HD
ATOM     64  C   UNL A   1      47.037  27.969  27.919  1.00  0.00     0.074 A 
ATOM     65  C   UNL A   1      48.143  28.890  28.062  1.00  0.00     0.031 C 
ATOM     66  C   UNL A   1      47.167  26.682  27.513  1.00  0.00     0.031 A 
BRANCH  53  67
ATOM     67  C   UNL A   1      41.861  23.552  27.470  1.00  0.00    -0.014 A 
ATOM     68  C   UNL A   1      41.224  23.244  26.259  1.00  0.00     0.009 A 
ATOM     69  C   UNL A   1      41.907  22.580  28.483  1.00  0.00     0.009 A 
ATOM     70  C   UNL A   1      40.628  21.994  26.076  1.00  0.00     0.001 A 
ATOM     71  C   UNL A   1      41.335  21.323  28.286  1.00  0.00     0.001 A 
ATOM     72  C   UNL A   1      40.692  21.033  27.085  1.00  0.00     0.000 A 
ENDBRANCH  53  67
BRANCH  54  73
ATOM     73  C   UNL A   1      46.140  32.336  29.400  1.00  0.00    -0.014 A 
ATOM     74  C   UNL A   1      46.432  32.656  30.735  1.00  0.00     0.009 A 
ATOM     75  C   UNL A   1      46.436  33.279  28.401  1.00  0.00     0.009 A 
ATOM     76  C   UNL A   1      46.967  33.904  31.065  1.00  0.00     0.001 A 
ATOM     77  C   UNL A   1      47.002  34.512  28.731  1.00  0.00     0.001 A 
ATOM     78  C   UNL A   1      47.254  34.829  30.063  1.00  0.00     0.000 A 
ENDBRANCH  54  73
BRANCH  66  79
ATOM     79  C   UNL A   1      48.545  26.202  27.148  1.00  0.00    -0.014 A 
ATOM     80  C   UNL A   1      49.082  26.415  25.869  1.00  0.00     0.009 A 
ATOM     81  C   UNL A   1      49.338  25.567  28.118  1.00  0.00     0.009 A 
ATOM     82  C   UNL A   1      50.370  25.969  25.559  1.00  0.00     0.001 A 
ATOM     83  C   UNL A   1      50.636  25.152  27.815  1.00  0.00     0.001 A 
ATOM     84  C   UNL A   1      51.147  25.343  26.534  1.00  0.00     0.000 A 
ENDBRANCH  66  79
ENDBRANCH  40  41
ENDBRANCH  33  35
ENDBRANCH  32  33
ENDBRANCH  31  32
ENDBRANCH  30  31
ENDBRANCH  29  30
ENDBRANCH  28  29
ENDBRANCH   1  28
TORSDOF 21
ENDMDL
MODEL 3
REMARK VINA RESULT:      -9.7      2.930      8.765
REMARK SMILES COc1ccccc1[C@H](C)NC(=O)[C@@H]1CC=CC[C@@H]1C(=O)OCCOCCOCCOC(=O)c1ccc(-c2c3nc(c(-c4ccccc4)c4ccc([nH]4)c(-c4ccccc4)c4nc(c(-c5ccccc5)c5ccc2[nH]5)C=C4)C=C3)cc1
REMARK SMILES IDX 26 1 25 2 24 3 23 4 22 5 20 6 21 7 19 8 14 9 15 10 16 11
REMARK SMILES IDX 18 12 17 13 12 14 11 15 13 17 9 18 10 19 8 20 3 21 4 22 5 23
REMARK SMILES IDX 7 24 6 25 2 26 1 27 27 28 28 29 29 30 30 31 31 32 32 33
REMARK SMILES IDX 33 34 34 35 35 36 81 37 36 38 80 39 37 40 38 41 39 42 74 43
REMARK SMILES IDX 40 44 79 45 73 46 75 47 41 48 78 49 72 50 71 51 42 53 64 54
REMARK SMILES IDX 49 55 63 56 50 57 53 58 62 59 76 60 51 61 52 62 61 64 77 65
REMARK SMILES IDX 54 66 43 67 44 68 48 69 45 70 47 71 46 72 65 73 66 74 70 75
REMARK SMILES IDX 67 76 69 77 68 78 55 79 56 80 60 81 57 82 59 83 58 84
REMARK H PARENT 11 16 75 52 53 63
REMARK Flexibility Score: inf
ROOT
ATOM      1  C   UNL A   1      41.214  21.097  27.028  1.00  0.00     0.188 C 
ENDROOT
BRANCH   1   2
ATOM      2  O   UNL A   1      39.918  21.626  27.327  1.00  0.00    -0.376 OA
BRANCH   2   3
ATOM      3  C   UNL A   1      39.250  22.298  26.285  1.00  0.00     0.202 C 
BRANCH   3   4
ATOM      4  C   UNL A   1      38.370  21.412  25.399  1.00  0.00     0.261 C 
BRANCH   4   5
ATOM      5  O   UNL A   1      36.929  21.419  25.488  1.00  0.00    -0.463 OA
BRANCH   5   6
ATOM      6  C   UNL A   1      36.092  22.477  25.564  1.00  0.00     0.310 C 
ATOM      7  O   UNL A   1      36.327  23.595  26.000  1.00  0.00    -0.252 OA
BRANCH   6   8
ATOM      8  C   UNL A   1      34.696  22.114  25.096  1.00  0.00     0.115 C 
ATOM      9  C   UNL A   1      33.775  23.319  24.943  1.00  0.00     0.097 C 
ATOM     10  C   UNL A   1      33.327  23.893  26.323  1.00  0.00     0.041 C 
ATOM     11  C   UNL A   1      33.152  22.862  27.407  1.00  0.00    -0.030 C 
ATOM     12  C   UNL A   1      34.092  21.030  26.007  1.00  0.00     0.043 C 
ATOM     13  C   UNL A   1      33.467  21.569  27.259  1.00  0.00    -0.030 C 
BRANCH   9  14
ATOM     14  C   UNL A   1      34.174  24.485  24.021  1.00  0.00     0.224 C 
ATOM     15  N   UNL A   1      33.835  25.793  24.086  1.00  0.00    -0.349 N 
ATOM     16  H   UNL A   1      34.268  26.290  23.355  1.00  0.00     0.164 HD
ATOM     17  O   UNL A   1      34.961  24.229  23.094  1.00  0.00    -0.275 OA
BRANCH  15  18
ATOM     18  C   UNL A   1      33.023  26.703  24.902  1.00  0.00     0.113 C 
ATOM     19  C   UNL A   1      33.820  27.588  25.858  1.00  0.00     0.036 C 
BRANCH  18  20
ATOM     20  C   UNL A   1      31.925  27.470  24.155  1.00  0.00     0.016 A 
ATOM     21  C   UNL A   1      31.032  27.008  23.170  1.00  0.00     0.124 A 
ATOM     22  C   UNL A   1      29.941  27.826  22.784  1.00  0.00     0.047 A 
ATOM     23  C   UNL A   1      29.726  29.093  23.322  1.00  0.00     0.004 A 
ATOM     24  C   UNL A   1      31.727  28.807  24.614  1.00  0.00     0.010 A 
ATOM     25  C   UNL A   1      30.640  29.595  24.228  1.00  0.00     0.001 A 
BRANCH  21  26
ATOM     26  O   UNL A   1      30.936  25.786  22.571  1.00  0.00    -0.496 OA
ATOM     27  C   UNL A   1      30.451  24.651  23.262  1.00  0.00     0.278 C 
ENDBRANCH  21  26
ENDBRANCH  18  20
ENDBRANCH  15  18
ENDBRANCH   9  14
ENDBRANCH   6   8
ENDBRANCH   5   6
ENDBRANCH   4   5
ENDBRANCH   3   4
ENDBRANCH   2   3
ENDBRANCH   1   2
BRANCH   1  28
ATOM     28  C   UNL A   1      42.042  21.748  25.903  1.00  0.00     0.188 C 
BRANCH  28  29
ATOM     29  O   UNL A   1      43.420  21.842  26.224  1.00  0.00    -0.376 OA
BRANCH  29  30
ATOM     30  C   UNL A   1      44.320  21.629  25.148  1.00  0.00     0.202 C 
BRANCH  30  31
ATOM     31  C   UNL A   1      44.457  22.790  24.148  1.00  0.00     0.261 C 
BRANCH  31  32
ATOM     32  O   UNL A   1      43.865  24.054  24.525  1.00  0.00    -0.460 OA
BRANCH  32  33
ATOM     33  C   UNL A   1      44.654  25.005  25.089  1.00  0.00     0.338 C 
ATOM     34  O   UNL A   1      45.749  25.349  24.716  1.00  0.00    -0.246 OA
BRANCH  33  35
ATOM     35  C   UNL A   1      43.829  25.743  26.093  1.00  0.00     0.060 A 
ATOM     36  C   UNL A   1      44.126  27.090  26.362  1.00  0.00     0.016 A 
ATOM     37  C   UNL A   1      42.769  25.123  26.756  1.00  0.00     0.016 A 
ATOM     38  C   UNL A   1      43.398  27.801  27.323  1.00  0.00     0.010 A 
ATOM     39  C   UNL A   1      42.063  25.824  27.743  1.00  0.00     0.010 A 
ATOM     40  C   UNL A   1      42.399  27.155  28.061  1.00  0.00    -0.014 A 
BRANCH  40  41
ATOM     41  C   UNL A   1      41.890  27.763  29.320  1.00  0.00     0.031 A 
ATOM     42  C   UNL A   1      40.598  28.538  29.254  1.00  0.00     0.074 A 
ATOM     43  C   UNL A   1      42.533  27.646  30.497  1.00  0.00     0.049 A 
ATOM     44  N   UNL A   1      39.997  29.243  30.179  1.00  0.00    -0.248 NA
ATOM     45  C   UNL A   1      39.889  28.516  27.961  1.00  0.00     0.031 C 
ATOM     46  C   UNL A   1      43.755  26.881  30.731  1.00  0.00     0.029 A 
ATOM     47  N   UNL A   1      42.242  28.196  31.725  1.00  0.00    -0.354 N 
ATOM     48  C   UNL A   1      38.861  29.766  29.575  1.00  0.00     0.074 A 
ATOM     49  C   UNL A   1      38.855  29.306  28.203  1.00  0.00     0.031 C 
ATOM     50  C   UNL A   1      44.123  27.029  32.017  1.00  0.00     0.029 A 
ATOM     51  C   UNL A   1      43.187  27.930  32.688  1.00  0.00     0.049 A 
ATOM     52  H   UNL A   1      41.432  28.729  31.898  1.00  0.00     0.167 HD
ATOM     53  C   UNL A   1      37.905  30.563  30.107  1.00  0.00     0.031 A 
ATOM     54  C   UNL A   1      43.301  28.392  33.951  1.00  0.00     0.031 A 
ATOM     55  C   UNL A   1      37.899  31.026  31.468  1.00  0.00     0.049 A 
ATOM     56  C   UNL A   1      42.262  29.343  34.498  1.00  0.00     0.074 A 
ATOM     57  C   UNL A   1      36.953  31.813  32.102  1.00  0.00     0.029 A 
ATOM     58  N   UNL A   1      38.886  30.753  32.398  1.00  0.00    -0.354 N 
ATOM     59  N   UNL A   1      41.175  29.803  33.927  1.00  0.00    -0.248 NA
ATOM     60  C   UNL A   1      42.468  29.836  35.870  1.00  0.00     0.031 C 
ATOM     61  C   UNL A   1      37.404  32.074  33.399  1.00  0.00     0.029 A 
ATOM     62  C   UNL A   1      38.593  31.390  33.592  1.00  0.00     0.049 A 
ATOM     63  H   UNL A   1      39.679  30.191  32.236  1.00  0.00     0.167 HD
ATOM     64  C   UNL A   1      40.557  30.610  34.877  1.00  0.00     0.074 A 
ATOM     65  C   UNL A   1      41.378  30.561  36.068  1.00  0.00     0.031 C 
ATOM     66  C   UNL A   1      39.412  31.328  34.773  1.00  0.00     0.031 A 
BRANCH  53  67
ATOM     67  C   UNL A   1      36.805  31.036  29.199  1.00  0.00    -0.014 A 
ATOM     68  C   UNL A   1      35.735  30.202  28.844  1.00  0.00     0.009 A 
ATOM     69  C   UNL A   1      36.815  32.364  28.743  1.00  0.00     0.009 A 
ATOM     70  C   UNL A   1      34.706  30.685  28.032  1.00  0.00     0.001 A 
ATOM     71  C   UNL A   1      35.773  32.851  27.954  1.00  0.00     0.001 A 
ATOM     72  C   UNL A   1      34.722  32.009  27.595  1.00  0.00     0.000 A 
ENDBRANCH  53  67
BRANCH  54  73
ATOM     73  C   UNL A   1      44.476  28.021  34.791  1.00  0.00    -0.014 A 
ATOM     74  C   UNL A   1      45.666  28.764  34.738  1.00  0.00     0.009 A 
ATOM     75  C   UNL A   1      44.433  26.872  35.598  1.00  0.00     0.009 A 
ATOM     76  C   UNL A   1      46.798  28.341  35.441  1.00  0.00     0.001 A 
ATOM     77  C   UNL A   1      45.555  26.472  36.326  1.00  0.00     0.001 A 
ATOM     78  C   UNL A   1      46.740  27.198  36.237  1.00  0.00     0.000 A 
ENDBRANCH  54  73
BRANCH  66  79
ATOM     79  C   UNL A   1      38.949  32.085  35.989  1.00  0.00    -0.014 A 
ATOM     80  C   UNL A   1      39.344  33.411  36.223  1.00  0.00     0.009 A 
ATOM     81  C   UNL A   1      38.063  31.472  36.890  1.00  0.00     0.009 A 
ATOM     82  C   UNL A   1      38.890  34.095  37.354  1.00  0.00     0.001 A 
ATOM     83  C   UNL A   1      37.585  32.169  38.001  1.00  0.00     0.001 A 
ATOM     84  C   UNL A   1      38.007  33.475  38.239  1.00  0.00     0.000 A 
ENDBRANCH  66  79
ENDBRANCH  40  41
ENDBRANCH  33  35
ENDBRANCH  32  33
ENDBRANCH  31  32
ENDBRANCH  30  31
ENDBRANCH  29  30
ENDBRANCH  28  29
ENDBRANCH   1  28
TORSDOF 21
ENDMDL
