MODEL 1
REMARK VINA RESULT:     -10.8      0.000      0.000
REMARK SMILES C[C@@H](C(=O)OCCOCCOCCOC(=O)c1ccc(-c2c3nc(c(-c4ccccc4)c4ccc([nH]4)c(-c4ccccc4)c4nc(c(-c5ccccc5)c5ccc2[nH]5)C=C4)C=C3)cc1)c1ccc(-c2cccc(OC(=O)Nc3ccccc3)c2)c(F)c1
REMARK SMILES IDX 8 1 7 2 6 3 5 4 3 5 4 6 2 7 1 8 65 9 66 10 87 11 67 12 85 13
REMARK SMILES IDX 68 14 86 15 69 16 70 17 84 18 71 19 73 20 72 21 74 22 75 23
REMARK SMILES IDX 76 24 77 25 78 27 79 28 83 29 80 30 82 31 81 32 9 33 10 34
REMARK SMILES IDX 11 35 12 36 13 37 14 38 15 39 16 40 17 41 18 42 64 43 19 44
REMARK SMILES IDX 63 45 20 46 21 47 22 48 57 49 23 50 62 51 56 52 58 53 24 54
REMARK SMILES IDX 61 55 55 56 54 57 25 59 47 60 32 61 46 62 33 63 36 64 45 65
REMARK SMILES IDX 59 66 34 67 35 68 44 70 60 71 37 72 26 73 27 74 31 75 28 76
REMARK SMILES IDX 30 77 29 78 48 79 49 80 53 81 50 82 52 83 51 84 38 85 39 86
REMARK SMILES IDX 43 87 40 88 42 89 41 90
REMARK H PARENT 77 26 58 58 36 69
REMARK Flexibility Score: inf
ROOT
ATOM      1  O   UNL A   1      40.880  21.275  25.665  1.00  0.00    -0.376 OA
ENDROOT
BRANCH   1   2
ATOM      2  C   UNL A   1      39.869  21.889  26.463  1.00  0.00     0.202 C 
BRANCH   2   3
ATOM      3  C   UNL A   1      38.621  22.426  25.747  1.00  0.00     0.261 C 
BRANCH   3   4
ATOM      4  O   UNL A   1      37.386  21.881  26.255  1.00  0.00    -0.463 OA
BRANCH   4   5
ATOM      5  C   UNL A   1      36.682  21.088  25.404  1.00  0.00     0.313 C 
ATOM      6  O   UNL A   1      37.180  20.167  24.763  1.00  0.00    -0.252 OA
BRANCH   5   7
ATOM      7  C   UNL A   1      35.177  21.393  25.374  1.00  0.00     0.126 C 
ATOM      8  C   UNL A   1      34.320  20.263  24.776  1.00  0.00     0.025 C 
BRANCH   7   9
ATOM      9  C   UNL A   1      34.805  22.797  24.872  1.00  0.00    -0.031 A 
ATOM     10  C   UNL A   1      34.895  23.940  25.687  1.00  0.00     0.005 A 
ATOM     11  C   UNL A   1      34.219  22.964  23.605  1.00  0.00     0.044 A 
ATOM     12  C   UNL A   1      34.385  25.182  25.272  1.00  0.00     0.012 A 
ATOM     13  C   UNL A   1      33.704  24.199  23.203  1.00  0.00     0.131 A 
ATOM     14  C   UNL A   1      33.742  25.320  24.037  1.00  0.00     0.018 A 
ATOM     15  F   UNL A   1      33.121  24.279  21.996  1.00  0.00    -0.206 F 
BRANCH  14  16
ATOM     16  C   UNL A   1      33.030  26.554  23.685  1.00  0.00    -0.012 A 
ATOM     17  C   UNL A   1      33.630  27.570  22.935  1.00  0.00     0.009 A 
ATOM     18  C   UNL A   1      31.704  26.736  24.114  1.00  0.00     0.056 A 
ATOM     19  C   UNL A   1      32.940  28.747  22.629  1.00  0.00     0.004 A 
ATOM     20  C   UNL A   1      31.012  27.900  23.787  1.00  0.00     0.133 A 
ATOM     21  C   UNL A   1      31.631  28.918  23.065  1.00  0.00     0.047 A 
BRANCH  20  22
ATOM     22  O   UNL A   1      29.670  28.159  24.148  1.00  0.00    -0.410 OA
BRANCH  22  23
ATOM     23  C   UNL A   1      28.527  27.611  23.569  1.00  0.00     0.417 C 
ATOM     24  O   UNL A   1      28.200  26.428  23.614  1.00  0.00    -0.224 OA
ATOM     25  N   UNL A   1      27.693  28.534  22.995  1.00  0.00    -0.291 N 
ATOM     26  H   UNL A   1      26.795  28.202  22.767  1.00  0.00     0.173 HD
BRANCH  25  27
ATOM     27  C   UNL A   1      27.928  29.882  22.684  1.00  0.00     0.044 A 
ATOM     28  C   UNL A   1      28.160  30.199  21.342  1.00  0.00     0.026 A 
ATOM     29  C   UNL A   1      27.985  30.899  23.641  1.00  0.00     0.026 A 
ATOM     30  C   UNL A   1      28.393  31.521  20.955  1.00  0.00     0.002 A 
ATOM     31  C   UNL A   1      28.237  32.219  23.257  1.00  0.00     0.002 A 
ATOM     32  C   UNL A   1      28.429  32.531  21.914  1.00  0.00     0.000 A 
ENDBRANCH  25  27
ENDBRANCH  22  23
ENDBRANCH  20  22
ENDBRANCH  14  16
ENDBRANCH   7   9
ENDBRANCH   5   7
ENDBRANCH   4   5
ENDBRANCH   3   4
ENDBRANCH   2   3
ENDBRANCH   1   2
BRANCH   1  33
ATOM     33  C   UNL A   1      41.964  20.620  26.319  1.00  0.00     0.188 C 
BRANCH  33  34
ATOM     34  C   UNL A   1      43.188  20.200  25.487  1.00  0.00     0.188 C 
BRANCH  34  35
ATOM     35  O   UNL A   1      44.426  20.534  26.079  1.00  0.00    -0.376 OA
BRANCH  35  36
ATOM     36  C   UNL A   1      45.451  21.007  25.223  1.00  0.00     0.202 C 
BRANCH  36  37
ATOM     37  C   UNL A   1      45.734  22.516  25.263  1.00  0.00     0.261 C 
BRANCH  37  38
ATOM     38  O   UNL A   1      44.809  23.308  26.027  1.00  0.00    -0.460 OA
BRANCH  38  39
ATOM     39  C   UNL A   1      43.782  23.880  25.360  1.00  0.00     0.338 C 
ATOM     40  O   UNL A   1      43.351  23.574  24.264  1.00  0.00    -0.246 OA
BRANCH  39  41
ATOM     41  C   UNL A   1      43.126  24.818  26.299  1.00  0.00     0.060 A 
ATOM     42  C   UNL A   1      43.423  26.186  26.226  1.00  0.00     0.016 A 
ATOM     43  C   UNL A   1      42.199  24.343  27.231  1.00  0.00     0.016 A 
ATOM     44  C   UNL A   1      42.803  27.081  27.101  1.00  0.00     0.010 A 
ATOM     45  C   UNL A   1      41.597  25.236  28.120  1.00  0.00     0.010 A 
ATOM     46  C   UNL A   1      41.914  26.604  28.075  1.00  0.00    -0.014 A 
BRANCH  46  47
ATOM     47  C   UNL A   1      41.462  27.492  29.173  1.00  0.00     0.031 A 
ATOM     48  C   UNL A   1      42.323  27.596  30.402  1.00  0.00     0.074 A 
ATOM     49  C   UNL A   1      40.319  28.196  29.083  1.00  0.00     0.049 A 
ATOM     50  N   UNL A   1      42.153  28.322  31.477  1.00  0.00    -0.248 NA
ATOM     51  C   UNL A   1      43.530  26.754  30.424  1.00  0.00     0.031 C 
ATOM     52  C   UNL A   1      39.427  28.214  27.924  1.00  0.00     0.029 A 
ATOM     53  N   UNL A   1      39.746  29.078  29.965  1.00  0.00    -0.354 N 
ATOM     54  C   UNL A   1      43.203  27.984  32.323  1.00  0.00     0.074 A 
ATOM     55  C   UNL A   1      44.012  27.006  31.631  1.00  0.00     0.031 C 
ATOM     56  C   UNL A   1      38.466  29.132  28.133  1.00  0.00     0.029 A 
ATOM     57  C   UNL A   1      38.647  29.730  29.455  1.00  0.00     0.049 A 
ATOM     58  H   UNL A   1      40.088  29.229  30.876  1.00  0.00     0.167 HD
ATOM     59  C   UNL A   1      43.454  28.427  33.577  1.00  0.00     0.031 A 
ATOM     60  C   UNL A   1      37.910  30.728  29.983  1.00  0.00     0.031 A 
ATOM     61  C   UNL A   1      42.648  29.395  34.268  1.00  0.00     0.049 A 
ATOM     62  C   UNL A   1      38.233  31.231  31.369  1.00  0.00     0.074 A 
ATOM     63  C   UNL A   1      42.810  29.895  35.549  1.00  0.00     0.029 A 
ATOM     64  N   UNL A   1      41.527  30.010  33.735  1.00  0.00    -0.354 N 
ATOM     65  N   UNL A   1      39.239  30.923  32.151  1.00  0.00    -0.248 NA
ATOM     66  C   UNL A   1      37.308  32.220  31.945  1.00  0.00     0.031 C 
ATOM     67  C   UNL A   1      41.752  30.771  35.810  1.00  0.00     0.029 A 
ATOM     68  C   UNL A   1      40.970  30.865  34.670  1.00  0.00     0.049 A 
ATOM     69  H   UNL A   1      41.179  29.861  32.827  1.00  0.00     0.167 HD
ATOM     70  C   UNL A   1      39.067  31.676  33.307  1.00  0.00     0.074 A 
ATOM     71  C   UNL A   1      37.891  32.496  33.102  1.00  0.00     0.031 C 
ATOM     72  C   UNL A   1      39.801  31.675  34.448  1.00  0.00     0.031 A 
BRANCH  59  73
ATOM     73  C   UNL A   1      44.604  27.800  34.312  1.00  0.00    -0.014 A 
ATOM     74  C   UNL A   1      44.446  26.637  35.081  1.00  0.00     0.009 A 
ATOM     75  C   UNL A   1      45.877  28.384  34.216  1.00  0.00     0.009 A 
ATOM     76  C   UNL A   1      45.536  26.090  35.763  1.00  0.00     0.001 A 
ATOM     77  C   UNL A   1      46.970  27.819  34.876  1.00  0.00     0.001 A 
ATOM     78  C   UNL A   1      46.796  26.677  35.656  1.00  0.00     0.000 A 
ENDBRANCH  59  73
BRANCH  60  79
ATOM     79  C   UNL A   1      36.826  31.375  29.192  1.00  0.00    -0.014 A 
ATOM     80  C   UNL A   1      36.929  32.733  28.845  1.00  0.00     0.009 A 
ATOM     81  C   UNL A   1      35.679  30.667  28.805  1.00  0.00     0.009 A 
ATOM     82  C   UNL A   1      35.897  33.374  28.154  1.00  0.00     0.001 A 
ATOM     83  C   UNL A   1      34.664  31.300  28.082  1.00  0.00     0.001 A 
ATOM     84  C   UNL A   1      34.768  32.655  27.766  1.00  0.00     0.000 A 
ENDBRANCH  60  79
BRANCH  72  85
ATOM     85  C   UNL A   1      39.358  32.583  35.564  1.00  0.00    -0.014 A 
ATOM     86  C   UNL A   1      38.440  32.147  36.532  1.00  0.00     0.009 A 
ATOM     87  C   UNL A   1      39.914  33.866  35.686  1.00  0.00     0.009 A 
ATOM     88  C   UNL A   1      38.061  32.989  37.580  1.00  0.00     0.001 A 
ATOM     89  C   UNL A   1      39.558  34.694  36.752  1.00  0.00     0.001 A 
ATOM     90  C   UNL A   1      38.625  34.259  37.693  1.00  0.00     0.000 A 
ENDBRANCH  72  85
ENDBRANCH  46  47
ENDBRANCH  39  41
ENDBRANCH  38  39
ENDBRANCH  37  38
ENDBRANCH  36  37
ENDBRANCH  35  36
ENDBRANCH  34  35
ENDBRANCH  33  34
ENDBRANCH   1  33
TORSDOF 22
ENDMDL
MODEL 2
REMARK VINA RESULT:     -10.7      5.342      7.902
REMARK SMILES C[C@@H](C(=O)OCCOCCOCCOC(=O)c1ccc(-c2c3nc(c(-c4ccccc4)c4ccc([nH]4)c(-c4ccccc4)c4nc(c(-c5ccccc5)c5ccc2[nH]5)C=C4)C=C3)cc1)c1ccc(-c2cccc(OC(=O)Nc3ccccc3)c2)c(F)c1
REMARK SMILES IDX 8 1 7 2 6 3 5 4 3 5 4 6 2 7 1 8 65 9 66 10 87 11 67 12 85 13
REMARK SMILES IDX 68 14 86 15 69 16 70 17 84 18 71 19 73 20 72 21 74 22 75 23
REMARK SMILES IDX 76 24 77 25 78 27 79 28 83 29 80 30 82 31 81 32 9 33 10 34
REMARK SMILES IDX 11 35 12 36 13 37 14 38 15 39 16 40 17 41 18 42 64 43 19 44
REMARK SMILES IDX 63 45 20 46 21 47 22 48 57 49 23 50 62 51 56 52 58 53 24 54
REMARK SMILES IDX 61 55 55 56 54 57 25 59 47 60 32 61 46 62 33 63 36 64 45 65
REMARK SMILES IDX 59 66 34 67 35 68 44 70 60 71 37 72 26 73 27 74 31 75 28 76
REMARK SMILES IDX 30 77 29 78 48 79 49 80 53 81 50 82 52 83 51 84 38 85 39 86
REMARK SMILES IDX 43 87 40 88 42 89 41 90
REMARK H PARENT 77 26 58 58 36 69
REMARK Flexibility Score: inf
ROOT
ATOM      1  O   UNL A   1      44.609  18.249  25.169  1.00  0.00    -0.376 OA
ENDROOT
BRANCH   1   2
ATOM      2  C   UNL A   1      43.420  19.020  25.000  1.00  0.00     0.202 C 
BRANCH   2   3
ATOM      3  C   UNL A   1      42.926  19.842  26.200  1.00  0.00     0.261 C 
BRANCH   3   4
ATOM      4  O   UNL A   1      42.181  21.019  25.823  1.00  0.00    -0.463 OA
BRANCH   4   5
ATOM      5  C   UNL A   1      41.617  21.726  26.838  1.00  0.00     0.313 C 
ATOM      6  O   UNL A   1      40.686  21.310  27.521  1.00  0.00    -0.252 OA
BRANCH   5   7
ATOM      7  C   UNL A   1      42.306  23.070  27.115  1.00  0.00     0.126 C 
ATOM      8  C   UNL A   1      43.647  22.946  27.858  1.00  0.00     0.025 C 
BRANCH   7   9
ATOM      9  C   UNL A   1      41.386  24.175  27.659  1.00  0.00    -0.031 A 
ATOM     10  C   UNL A   1      40.096  24.405  27.146  1.00  0.00     0.005 A 
ATOM     11  C   UNL A   1      41.868  25.096  28.605  1.00  0.00     0.044 A 
ATOM     12  C   UNL A   1      39.341  25.527  27.529  1.00  0.00     0.012 A 
ATOM     13  C   UNL A   1      41.116  26.215  28.974  1.00  0.00     0.131 A 
ATOM     14  C   UNL A   1      39.859  26.473  28.420  1.00  0.00     0.018 A 
ATOM     15  F   UNL A   1      41.653  27.076  29.853  1.00  0.00    -0.206 F 
BRANCH  14  16
ATOM     16  C   UNL A   1      39.167  27.744  28.666  1.00  0.00    -0.012 A 
ATOM     17  C   UNL A   1      38.626  28.507  27.626  1.00  0.00     0.009 A 
ATOM     18  C   UNL A   1      39.042  28.224  29.981  1.00  0.00     0.056 A 
ATOM     19  C   UNL A   1      37.989  29.726  27.880  1.00  0.00     0.004 A 
ATOM     20  C   UNL A   1      38.385  29.426  30.232  1.00  0.00     0.133 A 
ATOM     21  C   UNL A   1      37.877  30.192  29.185  1.00  0.00     0.047 A 
BRANCH  20  22
ATOM     22  O   UNL A   1      38.185  29.973  31.519  1.00  0.00    -0.410 OA
BRANCH  22  23
ATOM     23  C   UNL A   1      37.401  29.441  32.541  1.00  0.00     0.417 C 
ATOM     24  O   UNL A   1      37.403  28.270  32.910  1.00  0.00    -0.224 OA
ATOM     25  N   UNL A   1      36.653  30.373  33.214  1.00  0.00    -0.291 N 
ATOM     26  H   UNL A   1      36.257  30.059  34.059  1.00  0.00     0.173 HD
BRANCH  25  27
ATOM     27  C   UNL A   1      36.368  31.705  32.878  1.00  0.00     0.044 A 
ATOM     28  C   UNL A   1      36.873  32.700  33.721  1.00  0.00     0.026 A 
ATOM     29  C   UNL A   1      35.577  32.076  31.788  1.00  0.00     0.026 A 
ATOM     30  C   UNL A   1      36.637  34.049  33.446  1.00  0.00     0.002 A 
ATOM     31  C   UNL A   1      35.325  33.425  31.523  1.00  0.00     0.002 A 
ATOM     32  C   UNL A   1      35.864  34.411  32.345  1.00  0.00     0.000 A 
ENDBRANCH  25  27
ENDBRANCH  22  23
ENDBRANCH  20  22
ENDBRANCH  14  16
ENDBRANCH   7   9
ENDBRANCH   5   7
ENDBRANCH   4   5
ENDBRANCH   3   4
ENDBRANCH   2   3
ENDBRANCH   1   2
BRANCH   1  33
ATOM     33  C   UNL A   1      45.798  18.909  25.596  1.00  0.00     0.188 C 
BRANCH  33  34
ATOM     34  C   UNL A   1      46.385  20.025  24.716  1.00  0.00     0.188 C 
BRANCH  34  35
ATOM     35  O   UNL A   1      46.024  21.328  25.124  1.00  0.00    -0.376 OA
BRANCH  35  36
ATOM     36  C   UNL A   1      45.203  22.081  24.250  1.00  0.00     0.202 C 
BRANCH  36  37
ATOM     37  C   UNL A   1      44.998  23.560  24.607  1.00  0.00     0.261 C 
BRANCH  37  38
ATOM     38  O   UNL A   1      45.911  24.105  25.574  1.00  0.00    -0.460 OA
BRANCH  38  39
ATOM     39  C   UNL A   1      46.492  25.291  25.282  1.00  0.00     0.338 C 
ATOM     40  O   UNL A   1      47.164  25.564  24.305  1.00  0.00    -0.246 OA
BRANCH  39  41
ATOM     41  C   UNL A   1      45.985  26.274  26.266  1.00  0.00     0.060 A 
ATOM     42  C   UNL A   1      46.886  26.909  27.132  1.00  0.00     0.016 A 
ATOM     43  C   UNL A   1      44.623  26.583  26.310  1.00  0.00     0.016 A 
ATOM     44  C   UNL A   1      46.419  27.846  28.057  1.00  0.00     0.010 A 
ATOM     45  C   UNL A   1      44.155  27.503  27.251  1.00  0.00     0.010 A 
ATOM     46  C   UNL A   1      45.047  28.119  28.144  1.00  0.00    -0.014 A 
BRANCH  46  47
ATOM     47  C   UNL A   1      44.511  28.897  29.288  1.00  0.00     0.031 A 
ATOM     48  C   UNL A   1      44.159  30.341  29.061  1.00  0.00     0.074 A 
ATOM     49  C   UNL A   1      44.334  28.337  30.498  1.00  0.00     0.049 A 
ATOM     50  N   UNL A   1      43.654  31.215  29.892  1.00  0.00    -0.248 NA
ATOM     51  C   UNL A   1      44.431  30.874  27.715  1.00  0.00     0.031 C 
ATOM     52  C   UNL A   1      44.593  26.936  30.826  1.00  0.00     0.029 A 
ATOM     53  N   UNL A   1      43.837  28.871  31.661  1.00  0.00    -0.354 N 
ATOM     54  C   UNL A   1      43.596  32.411  29.187  1.00  0.00     0.074 A 
ATOM     55  C   UNL A   1      44.099  32.147  27.857  1.00  0.00     0.031 C 
ATOM     56  C   UNL A   1      44.169  26.701  32.082  1.00  0.00     0.029 A 
ATOM     57  C   UNL A   1      43.655  27.943  32.659  1.00  0.00     0.049 A 
ATOM     58  H   UNL A   1      43.630  29.827  31.770  1.00  0.00     0.167 HD
ATOM     59  C   UNL A   1      43.188  33.628  29.617  1.00  0.00     0.031 A 
ATOM     60  C   UNL A   1      43.093  28.079  33.877  1.00  0.00     0.031 A 
ATOM     61  C   UNL A   1      42.694  33.893  30.940  1.00  0.00     0.049 A 
ATOM     62  C   UNL A   1      42.611  29.439  34.320  1.00  0.00     0.074 A 
ATOM     63  C   UNL A   1      42.274  35.097  31.478  1.00  0.00     0.029 A 
ATOM     64  N   UNL A   1      42.554  32.937  31.933  1.00  0.00    -0.354 N 
ATOM     65  N   UNL A   1      42.540  30.557  33.639  1.00  0.00    -0.248 NA
ATOM     66  C   UNL A   1      42.138  29.551  35.709  1.00  0.00     0.031 C 
ATOM     67  C   UNL A   1      41.932  34.879  32.817  1.00  0.00     0.029 A 
ATOM     68  C   UNL A   1      42.079  33.529  33.091  1.00  0.00     0.049 A 
ATOM     69  H   UNL A   1      42.762  31.981  31.831  1.00  0.00     0.167 HD
ATOM     70  C   UNL A   1      42.017  31.503  34.515  1.00  0.00     0.074 A 
ATOM     71  C   UNL A   1      41.738  30.814  35.758  1.00  0.00     0.031 C 
ATOM     72  C   UNL A   1      41.806  32.828  34.318  1.00  0.00     0.031 A 
BRANCH  59  73
ATOM     73  C   UNL A   1      43.344  34.782  28.669  1.00  0.00    -0.014 A 
ATOM     74  C   UNL A   1      44.572  35.439  28.495  1.00  0.00     0.009 A 
ATOM     75  C   UNL A   1      42.234  35.207  27.921  1.00  0.00     0.009 A 
ATOM     76  C   UNL A   1      44.675  36.518  27.615  1.00  0.00     0.001 A 
ATOM     77  C   UNL A   1      42.348  36.268  27.021  1.00  0.00     0.001 A 
ATOM     78  C   UNL A   1      43.566  36.928  26.876  1.00  0.00     0.000 A 
ENDBRANCH  59  73
BRANCH  60  79
ATOM     79  C   UNL A   1      42.888  26.895  34.758  1.00  0.00    -0.014 A 
ATOM     80  C   UNL A   1      43.928  26.463  35.600  1.00  0.00     0.009 A 
ATOM     81  C   UNL A   1      41.686  26.174  34.750  1.00  0.00     0.009 A 
ATOM     82  C   UNL A   1      43.777  25.321  36.391  1.00  0.00     0.001 A 
ATOM     83  C   UNL A   1      41.524  25.053  35.569  1.00  0.00     0.001 A 
ATOM     84  C   UNL A   1      42.573  24.621  36.380  1.00  0.00     0.000 A 
ENDBRANCH  60  79
BRANCH  72  85
ATOM     85  C   UNL A   1      41.250  33.624  35.468  1.00  0.00    -0.014 A 
ATOM     86  C   UNL A   1      39.865  33.736  35.669  1.00  0.00     0.009 A 
ATOM     87  C   UNL A   1      42.120  34.213  36.399  1.00  0.00     0.009 A 
ATOM     88  C   UNL A   1      39.362  34.452  36.759  1.00  0.00     0.001 A 
ATOM     89  C   UNL A   1      41.615  34.901  37.505  1.00  0.00     0.001 A 
ATOM     90  C   UNL A   1      40.238  35.028  37.678  1.00  0.00     0.000 A 
ENDBRANCH  72  85
ENDBRANCH  46  47
ENDBRANCH  39  41
ENDBRANCH  38  39
ENDBRANCH  37  38
ENDBRANCH  36  37
ENDBRANCH  35  36
ENDBRANCH  34  35
ENDBRANCH  33  34
ENDBRANCH   1  33
TORSDOF 22
ENDMDL
MODEL 3
REMARK VINA RESULT:     -10.7      5.410      6.862
REMARK SMILES C[C@@H](C(=O)OCCOCCOCCOC(=O)c1ccc(-c2c3nc(c(-c4ccccc4)c4ccc([nH]4)c(-c4ccccc4)c4nc(c(-c5ccccc5)c5ccc2[nH]5)C=C4)C=C3)cc1)c1ccc(-c2cccc(OC(=O)Nc3ccccc3)c2)c(F)c1
REMARK SMILES IDX 8 1 7 2 6 3 5 4 3 5 4 6 2 7 1 8 65 9 66 10 87 11 67 12 85 13
REMARK SMILES IDX 68 14 86 15 69 16 70 17 84 18 71 19 73 20 72 21 74 22 75 23
REMARK SMILES IDX 76 24 77 25 78 27 79 28 83 29 80 30 82 31 81 32 9 33 10 34
REMARK SMILES IDX 11 35 12 36 13 37 14 38 15 39 16 40 17 41 18 42 64 43 19 44
REMARK SMILES IDX 63 45 20 46 21 47 22 48 57 49 23 50 62 51 56 52 58 53 24 54
REMARK SMILES IDX 61 55 55 56 54 57 25 59 47 60 32 61 46 62 33 63 36 64 45 65
REMARK SMILES IDX 59 66 34 67 35 68 44 70 60 71 37 72 26 73 27 74 31 75 28 76
REMARK SMILES IDX 30 77 29 78 48 79 49 80 53 81 50 82 52 83 51 84 38 85 39 86
REMARK SMILES IDX 43 87 40 88 42 89 41 90
REMARK H PARENT 77 26 58 58 36 69
REMARK Flexibility Score: inf
ROOT
ATOM      1  O   UNL A   1      45.617  18.832  25.374  1.00  0.00    -0.376 OA
ENDROOT
BRANCH   1   2
ATOM      2  C   UNL A   1      44.266  18.832  24.914  1.00  0.00     0.202 C 
BRANCH   2   3
ATOM      3  C   UNL A   1      43.152  18.941  25.966  1.00  0.00     0.261 C 
BRANCH   3   4
ATOM      4  O   UNL A   1      42.121  19.888  25.616  1.00  0.00    -0.463 OA
BRANCH   4   5
ATOM      5  C   UNL A   1      42.380  21.192  25.898  1.00  0.00     0.313 C 
ATOM      6  O   UNL A   1      42.836  21.987  25.081  1.00  0.00    -0.252 OA
BRANCH   5   7
ATOM      7  C   UNL A   1      41.970  21.613  27.317  1.00  0.00     0.126 C 
ATOM      8  C   UNL A   1      40.807  20.794  27.903  1.00  0.00     0.025 C 
BRANCH   7   9
ATOM      9  C   UNL A   1      41.844  23.129  27.536  1.00  0.00    -0.031 A 
ATOM     10  C   UNL A   1      42.793  23.869  28.265  1.00  0.00     0.005 A 
ATOM     11  C   UNL A   1      40.683  23.810  27.129  1.00  0.00     0.044 A 
ATOM     12  C   UNL A   1      42.573  25.214  28.608  1.00  0.00     0.012 A 
ATOM     13  C   UNL A   1      40.466  25.145  27.482  1.00  0.00     0.131 A 
ATOM     14  C   UNL A   1      41.383  25.861  28.256  1.00  0.00     0.018 A 
ATOM     15  F   UNL A   1      39.317  25.723  27.094  1.00  0.00    -0.206 F 
BRANCH  14  16
ATOM     16  C   UNL A   1      41.058  27.192  28.783  1.00  0.00    -0.012 A 
ATOM     17  C   UNL A   1      41.237  28.354  28.025  1.00  0.00     0.009 A 
ATOM     18  C   UNL A   1      40.556  27.319  30.089  1.00  0.00     0.056 A 
ATOM     19  C   UNL A   1      40.940  29.614  28.554  1.00  0.00     0.004 A 
ATOM     20  C   UNL A   1      40.239  28.573  30.603  1.00  0.00     0.133 A 
ATOM     21  C   UNL A   1      40.451  29.726  29.850  1.00  0.00     0.047 A 
BRANCH  20  22
ATOM     22  O   UNL A   1      39.704  28.796  31.892  1.00  0.00    -0.410 OA
BRANCH  22  23
ATOM     23  C   UNL A   1      38.449  28.405  32.356  1.00  0.00     0.417 C 
ATOM     24  O   UNL A   1      38.202  27.364  32.958  1.00  0.00    -0.224 OA
ATOM     25  N   UNL A   1      37.468  29.345  32.174  1.00  0.00    -0.291 N 
ATOM     26  H   UNL A   1      36.634  29.180  32.671  1.00  0.00     0.173 HD
BRANCH  25  27
ATOM     27  C   UNL A   1      37.474  30.506  31.387  1.00  0.00     0.044 A 
ATOM     28  C   UNL A   1      36.960  30.404  30.090  1.00  0.00     0.026 A 
ATOM     29  C   UNL A   1      38.003  31.727  31.813  1.00  0.00     0.026 A 
ATOM     30  C   UNL A   1      36.925  31.520  29.251  1.00  0.00     0.002 A 
ATOM     31  C   UNL A   1      37.986  32.840  30.967  1.00  0.00     0.002 A 
ATOM     32  C   UNL A   1      37.437  32.738  29.691  1.00  0.00     0.000 A 
ENDBRANCH  25  27
ENDBRANCH  22  23
ENDBRANCH  20  22
ENDBRANCH  14  16
ENDBRANCH   7   9
ENDBRANCH   5   7
ENDBRANCH   4   5
ENDBRANCH   3   4
ENDBRANCH   2   3
ENDBRANCH   1   2
BRANCH   1  33
ATOM     33  C   UNL A   1      46.450  19.941  25.049  1.00  0.00     0.188 C 
BRANCH  33  34
ATOM     34  C   UNL A   1      45.794  21.251  24.580  1.00  0.00     0.188 C 
BRANCH  34  35
ATOM     35  O   UNL A   1      46.476  22.416  24.995  1.00  0.00    -0.376 OA
BRANCH  35  36
ATOM     36  C   UNL A   1      46.703  23.420  24.022  1.00  0.00     0.202 C 
BRANCH  36  37
ATOM     37  C   UNL A   1      47.498  24.651  24.482  1.00  0.00     0.261 C 
BRANCH  37  38
ATOM     38  O   UNL A   1      47.263  25.082  25.832  1.00  0.00    -0.460 OA
BRANCH  38  39
ATOM     39  C   UNL A   1      48.031  26.089  26.306  1.00  0.00     0.338 C 
ATOM     40  O   UNL A   1      49.184  26.342  26.008  1.00  0.00    -0.246 OA
BRANCH  39  41
ATOM     41  C   UNL A   1      47.147  26.970  27.101  1.00  0.00     0.060 A 
ATOM     42  C   UNL A   1      47.712  27.870  28.015  1.00  0.00     0.016 A 
ATOM     43  C   UNL A   1      45.762  26.920  26.921  1.00  0.00     0.016 A 
ATOM     44  C   UNL A   1      46.887  28.713  28.764  1.00  0.00     0.010 A 
ATOM     45  C   UNL A   1      44.937  27.747  27.688  1.00  0.00     0.010 A 
ATOM     46  C   UNL A   1      45.494  28.629  28.629  1.00  0.00    -0.014 A 
BRANCH  46  47
ATOM     47  C   UNL A   1      44.606  29.314  29.599  1.00  0.00     0.031 A 
ATOM     48  C   UNL A   1      44.224  28.577  30.853  1.00  0.00     0.074 A 
ATOM     49  C   UNL A   1      44.153  30.561  29.379  1.00  0.00     0.049 A 
ATOM     50  N   UNL A   1      43.485  28.972  31.857  1.00  0.00    -0.248 NA
ATOM     51  C   UNL A   1      44.733  27.201  30.981  1.00  0.00     0.031 C 
ATOM     52  C   UNL A   1      44.493  31.392  28.225  1.00  0.00     0.029 A 
ATOM     53  N   UNL A   1      43.353  31.366  30.152  1.00  0.00    -0.354 N 
ATOM     54  C   UNL A   1      43.399  27.878  32.710  1.00  0.00     0.074 A 
ATOM     55  C   UNL A   1      44.174  26.812  32.116  1.00  0.00     0.031 C 
ATOM     56  C   UNL A   1      43.976  32.621  28.410  1.00  0.00     0.029 A 
ATOM     57  C   UNL A   1      43.232  32.648  29.669  1.00  0.00     0.049 A 
ATOM     58  H   UNL A   1      42.909  31.055  30.974  1.00  0.00     0.167 HD
ATOM     59  C   UNL A   1      42.711  27.761  33.870  1.00  0.00     0.031 A 
ATOM     60  C   UNL A   1      42.629  33.725  30.212  1.00  0.00     0.031 A 
ATOM     61  C   UNL A   1      41.935  28.818  34.458  1.00  0.00     0.049 A 
ATOM     62  C   UNL A   1      41.900  33.579  31.525  1.00  0.00     0.074 A 
ATOM     63  C   UNL A   1      41.187  28.793  35.622  1.00  0.00     0.029 A 
ATOM     64  N   UNL A   1      41.809  30.091  33.926  1.00  0.00    -0.354 N 
ATOM     65  N   UNL A   1      41.843  32.548  32.333  1.00  0.00    -0.248 NA
ATOM     66  C   UNL A   1      41.144  34.751  31.994  1.00  0.00     0.031 C 
ATOM     67  C   UNL A   1      40.561  30.035  35.764  1.00  0.00     0.029 A 
ATOM     68  C   UNL A   1      40.972  30.853  34.724  1.00  0.00     0.049 A 
ATOM     69  H   UNL A   1      42.248  30.406  33.104  1.00  0.00     0.167 HD
ATOM     70  C   UNL A   1      41.047  32.947  33.402  1.00  0.00     0.074 A 
ATOM     71  C   UNL A   1      40.690  34.330  33.166  1.00  0.00     0.031 C 
ATOM     72  C   UNL A   1      40.629  32.228  34.474  1.00  0.00     0.031 A 
BRANCH  59  73
ATOM     73  C   UNL A   1      42.699  26.413  34.531  1.00  0.00    -0.014 A 
ATOM     74  C   UNL A   1      41.538  25.886  35.117  1.00  0.00     0.009 A 
ATOM     75  C   UNL A   1      43.877  25.650  34.551  1.00  0.00     0.009 A 
ATOM     76  C   UNL A   1      41.568  24.634  35.737  1.00  0.00     0.001 A 
ATOM     77  C   UNL A   1      43.897  24.388  35.146  1.00  0.00     0.001 A 
ATOM     78  C   UNL A   1      42.745  23.885  35.746  1.00  0.00     0.000 A 
ENDBRANCH  59  73
BRANCH  60  79
ATOM     79  C   UNL A   1      42.728  35.061  29.561  1.00  0.00    -0.014 A 
ATOM     80  C   UNL A   1      41.806  35.423  28.564  1.00  0.00     0.009 A 
ATOM     81  C   UNL A   1      43.743  35.967  29.899  1.00  0.00     0.009 A 
ATOM     82  C   UNL A   1      41.916  36.648  27.900  1.00  0.00     0.001 A 
ATOM     83  C   UNL A   1      43.830  37.207  29.260  1.00  0.00     0.001 A 
ATOM     84  C   UNL A   1      42.924  37.542  28.254  1.00  0.00     0.000 A 
ENDBRANCH  60  79
BRANCH  72  85
ATOM     85  C   UNL A   1      39.738  32.918  35.472  1.00  0.00    -0.014 A 
ATOM     86  C   UNL A   1      38.342  32.791  35.406  1.00  0.00     0.009 A 
ATOM     87  C   UNL A   1      40.303  33.650  36.529  1.00  0.00     0.009 A 
ATOM     88  C   UNL A   1      37.528  33.410  36.358  1.00  0.00     0.001 A 
ATOM     89  C   UNL A   1      39.489  34.242  37.496  1.00  0.00     0.001 A 
ATOM     90  C   UNL A   1      38.103  34.130  37.405  1.00  0.00     0.000 A 
ENDBRANCH  72  85
ENDBRANCH  46  47
ENDBRANCH  39  41
ENDBRANCH  38  39
ENDBRANCH  37  38
ENDBRANCH  36  37
ENDBRANCH  35  36
ENDBRANCH  34  35
ENDBRANCH  33  34
ENDBRANCH   1  33
TORSDOF 22
ENDMDL
