MODEL 1
REMARK VINA RESULT:      -8.1      0.000      0.000
REMARK SMILES Nc1cc(C(=O)OCCOCCOCCOC(=O)c2ccc(-c3c4nc(c(-c5ccccc5)c5ccc([nH]5)c(-c5ccccc5)c5nc(c(-c6ccccc6)c6ccc3[nH]6)C=C5)C=C4)cc2)nc2ccccc12
REMARK SMILES IDX 12 1 11 2 10 3 9 4 8 5 7 6 5 7 6 8 4 9 2 10 3 11 73 12 68 13
REMARK SMILES IDX 72 14 67 15 69 16 71 17 70 18 1 19 13 22 14 23 15 24 16 25
REMARK SMILES IDX 17 26 18 27 19 28 20 29 66 30 21 31 65 32 22 33 23 34 24 35
REMARK SMILES IDX 59 36 25 37 64 38 58 39 60 40 26 41 63 42 57 43 56 44 27 46
REMARK SMILES IDX 49 47 34 48 48 49 35 50 38 51 47 52 61 53 36 54 37 55 46 57
REMARK SMILES IDX 62 58 39 59 28 60 29 61 33 62 30 63 32 64 31 65 50 66 51 67
REMARK SMILES IDX 55 68 52 69 54 70 53 71 40 72 41 73 45 74 42 75 44 76 43 77
REMARK H PARENT 1 20 1 21 60 45 38 56
REMARK Flexibility Score: inf
ROOT
ATOM      1  C   UNL A   1      34.755  35.937  32.540  1.00  0.00     0.188 C 
ENDROOT
BRANCH   1   2
ATOM      2  C   UNL A   1      34.550  35.277  33.921  1.00  0.00     0.188 C 
BRANCH   2   3
ATOM      3  O   UNL A   1      34.826  33.905  34.107  1.00  0.00    -0.376 OA
BRANCH   3   4
ATOM      4  C   UNL A   1      36.147  33.455  34.357  1.00  0.00     0.202 C 
BRANCH   4   5
ATOM      5  C   UNL A   1      37.079  34.092  35.396  1.00  0.00     0.261 C 
BRANCH   5   6
ATOM      6  O   UNL A   1      38.438  33.642  35.364  1.00  0.00    -0.459 OA
BRANCH   6   7
ATOM      7  C   UNL A   1      38.696  32.549  36.137  1.00  0.00     0.357 C 
ATOM      8  O   UNL A   1      38.455  32.430  37.327  1.00  0.00    -0.244 OA
BRANCH   7   9
ATOM      9  C   UNL A   1      39.179  31.441  35.274  1.00  0.00     0.151 A 
ATOM     10  C   UNL A   1      40.894  29.985  34.483  1.00  0.00     0.043 A 
ATOM     11  C   UNL A   1      40.501  31.035  35.313  1.00  0.00     0.062 A 
ATOM     12  C   UNL A   1      39.916  29.336  33.682  1.00  0.00     0.023 A 
ATOM     13  C   UNL A   1      38.605  29.865  33.690  1.00  0.00     0.073 A 
ATOM     14  C   UNL A   1      40.172  28.196  32.879  1.00  0.00     0.012 A 
ATOM     15  N   UNL A   1      38.243  30.897  34.458  1.00  0.00    -0.241 NA
ATOM     16  C   UNL A   1      37.635  29.293  32.879  1.00  0.00     0.029 A 
ATOM     17  C   UNL A   1      39.172  27.623  32.090  1.00  0.00     0.001 A 
ATOM     18  C   UNL A   1      37.904  28.182  32.079  1.00  0.00     0.002 A 
BRANCH  10  19
ATOM     19  N   UNL A   1      42.211  29.530  34.572  1.00  0.00    -0.398 N 
ATOM     20  H   UNL A   1      42.919  30.134  34.893  1.00  0.00     0.156 HD
ATOM     21  H   UNL A   1      42.431  28.606  34.313  1.00  0.00     0.156 HD
ENDBRANCH  10  19
ENDBRANCH   7   9
ENDBRANCH   6   7
ENDBRANCH   5   6
ENDBRANCH   4   5
ENDBRANCH   3   4
ENDBRANCH   2   3
ENDBRANCH   1   2
BRANCH   1  22
ATOM     22  O   UNL A   1      33.973  37.043  32.138  1.00  0.00    -0.376 OA
BRANCH  22  23
ATOM     23  C   UNL A   1      32.894  36.868  31.232  1.00  0.00     0.202 C 
BRANCH  23  24
ATOM     24  C   UNL A   1      33.042  36.178  29.869  1.00  0.00     0.261 C 
BRANCH  24  25
ATOM     25  O   UNL A   1      32.619  34.812  29.813  1.00  0.00    -0.460 OA
BRANCH  25  26
ATOM     26  C   UNL A   1      33.153  34.083  28.802  1.00  0.00     0.338 C 
ATOM     27  O   UNL A   1      32.714  33.936  27.674  1.00  0.00    -0.246 OA
BRANCH  26  28
ATOM     28  C   UNL A   1      34.482  33.611  29.222  1.00  0.00     0.060 A 
ATOM     29  C   UNL A   1      34.644  32.947  30.438  1.00  0.00     0.016 A 
ATOM     30  C   UNL A   1      35.578  33.843  28.380  1.00  0.00     0.016 A 
ATOM     31  C   UNL A   1      35.914  32.507  30.811  1.00  0.00     0.010 A 
ATOM     32  C   UNL A   1      36.849  33.415  28.762  1.00  0.00     0.010 A 
ATOM     33  C   UNL A   1      37.023  32.734  29.974  1.00  0.00    -0.014 A 
BRANCH  33  34
ATOM     34  C   UNL A   1      38.337  32.142  30.317  1.00  0.00     0.031 A 
ATOM     35  C   UNL A   1      38.786  30.838  29.733  1.00  0.00     0.074 A 
ATOM     36  C   UNL A   1      39.133  32.812  31.169  1.00  0.00     0.049 A 
ATOM     37  N   UNL A   1      39.948  30.246  29.858  1.00  0.00    -0.248 NA
ATOM     38  C   UNL A   1      37.817  30.101  28.908  1.00  0.00     0.031 C 
ATOM     39  C   UNL A   1      38.790  34.085  31.808  1.00  0.00     0.029 A 
ATOM     40  N   UNL A   1      40.394  32.532  31.633  1.00  0.00    -0.354 N 
ATOM     41  C   UNL A   1      39.863  29.083  29.106  1.00  0.00     0.074 A 
ATOM     42  C   UNL A   1      38.519  29.025  28.569  1.00  0.00     0.031 C 
ATOM     43  C   UNL A   1      39.829  34.492  32.553  1.00  0.00     0.029 A 
ATOM     44  C   UNL A   1      40.896  33.498  32.470  1.00  0.00     0.049 A 
ATOM     45  H   UNL A   1      40.890  31.718  31.389  1.00  0.00     0.167 HD
ATOM     46  C   UNL A   1      40.828  28.162  28.873  1.00  0.00     0.031 A 
ATOM     47  C   UNL A   1      42.087  33.586  33.095  1.00  0.00     0.031 A 
ATOM     48  C   UNL A   1      42.155  28.216  29.434  1.00  0.00     0.049 A 
ATOM     49  C   UNL A   1      43.117  32.516  32.869  1.00  0.00     0.074 A 
ATOM     50  C   UNL A   1      43.208  27.341  29.227  1.00  0.00     0.029 A 
ATOM     51  N   UNL A   1      42.608  29.182  30.320  1.00  0.00    -0.354 N 
ATOM     52  N   UNL A   1      43.052  31.461  32.093  1.00  0.00    -0.248 NA
ATOM     53  C   UNL A   1      44.391  32.652  33.591  1.00  0.00     0.031 C 
ATOM     54  C   UNL A   1      44.270  27.732  30.043  1.00  0.00     0.029 A 
ATOM     55  C   UNL A   1      43.912  28.900  30.696  1.00  0.00     0.049 A 
ATOM     56  H   UNL A   1      42.082  29.952  30.635  1.00  0.00     0.167 HD
ATOM     57  C   UNL A   1      44.282  30.827  32.207  1.00  0.00     0.074 A 
ATOM     58  C   UNL A   1      45.080  31.618  33.121  1.00  0.00     0.031 C 
ATOM     59  C   UNL A   1      44.706  29.692  31.602  1.00  0.00     0.031 A 
BRANCH  46  60
ATOM     60  C   UNL A   1      40.511  27.008  27.962  1.00  0.00    -0.014 A 
ATOM     61  C   UNL A   1      39.850  25.875  28.465  1.00  0.00     0.009 A 
ATOM     62  C   UNL A   1      40.986  26.984  26.641  1.00  0.00     0.009 A 
ATOM     63  C   UNL A   1      39.692  24.736  27.674  1.00  0.00     0.001 A 
ATOM     64  C   UNL A   1      40.802  25.852  25.843  1.00  0.00     0.001 A 
ATOM     65  C   UNL A   1      40.166  24.726  26.363  1.00  0.00     0.000 A 
ENDBRANCH  46  60
BRANCH  47  66
ATOM     66  C   UNL A   1      42.369  34.765  33.955  1.00  0.00    -0.014 A 
ATOM     67  C   UNL A   1      42.969  35.915  33.418  1.00  0.00     0.009 A 
ATOM     68  C   UNL A   1      42.096  34.724  35.331  1.00  0.00     0.009 A 
ATOM     69  C   UNL A   1      43.314  36.988  34.242  1.00  0.00     0.001 A 
ATOM     70  C   UNL A   1      42.412  35.811  36.148  1.00  0.00     0.001 A 
ATOM     71  C   UNL A   1      43.031  36.937  35.605  1.00  0.00     0.000 A 
ENDBRANCH  47  66
BRANCH  59  72
ATOM     72  C   UNL A   1      46.108  29.218  31.875  1.00  0.00    -0.014 A 
ATOM     73  C   UNL A   1      46.342  28.312  32.924  1.00  0.00     0.009 A 
ATOM     74  C   UNL A   1      47.206  29.764  31.194  1.00  0.00     0.009 A 
ATOM     75  C   UNL A   1      47.645  27.986  33.304  1.00  0.00     0.001 A 
ATOM     76  C   UNL A   1      48.508  29.410  31.555  1.00  0.00     0.001 A 
ATOM     77  C   UNL A   1      48.727  28.534  32.618  1.00  0.00     0.000 A 
ENDBRANCH  59  72
ENDBRANCH  33  34
ENDBRANCH  26  28
ENDBRANCH  25  26
ENDBRANCH  24  25
ENDBRANCH  23  24
ENDBRANCH  22  23
ENDBRANCH   1  22
TORSDOF 18
ENDMDL
MODEL 2
REMARK VINA RESULT:      -7.7      0.871      6.184
REMARK SMILES Nc1cc(C(=O)OCCOCCOCCOC(=O)c2ccc(-c3c4nc(c(-c5ccccc5)c5ccc([nH]5)c(-c5ccccc5)c5nc(c(-c6ccccc6)c6ccc3[nH]6)C=C5)C=C4)cc2)nc2ccccc12
REMARK SMILES IDX 12 1 11 2 10 3 9 4 8 5 7 6 5 7 6 8 4 9 2 10 3 11 73 12 68 13
REMARK SMILES IDX 72 14 67 15 69 16 71 17 70 18 1 19 13 22 14 23 15 24 16 25
REMARK SMILES IDX 17 26 18 27 19 28 20 29 66 30 21 31 65 32 22 33 23 34 24 35
REMARK SMILES IDX 59 36 25 37 64 38 58 39 60 40 26 41 63 42 57 43 56 44 27 46
REMARK SMILES IDX 49 47 34 48 48 49 35 50 38 51 47 52 61 53 36 54 37 55 46 57
REMARK SMILES IDX 62 58 39 59 28 60 29 61 33 62 30 63 32 64 31 65 50 66 51 67
REMARK SMILES IDX 55 68 52 69 54 70 53 71 40 72 41 73 45 74 42 75 44 76 43 77
REMARK H PARENT 1 20 1 21 60 45 38 56
REMARK Flexibility Score: inf
ROOT
ATOM      1  C   UNL A   1      34.711  36.101  32.829  1.00  0.00     0.188 C 
ENDROOT
BRANCH   1   2
ATOM      2  C   UNL A   1      34.150  34.683  33.073  1.00  0.00     0.188 C 
BRANCH   2   3
ATOM      3  O   UNL A   1      34.816  33.788  33.938  1.00  0.00    -0.376 OA
BRANCH   3   4
ATOM      4  C   UNL A   1      35.415  34.246  35.140  1.00  0.00     0.202 C 
BRANCH   4   5
ATOM      5  C   UNL A   1      36.669  33.615  35.758  1.00  0.00     0.261 C 
BRANCH   5   6
ATOM      6  O   UNL A   1      37.426  32.765  34.889  1.00  0.00    -0.459 OA
BRANCH   6   7
ATOM      7  C   UNL A   1      38.730  32.601  35.246  1.00  0.00     0.357 C 
ATOM      8  O   UNL A   1      39.373  33.318  35.995  1.00  0.00    -0.244 OA
BRANCH   7   9
ATOM      9  C   UNL A   1      39.228  31.309  34.705  1.00  0.00     0.151 A 
ATOM     10  C   UNL A   1      39.037  29.417  33.268  1.00  0.00     0.043 A 
ATOM     11  C   UNL A   1      38.516  30.621  33.740  1.00  0.00     0.062 A 
ATOM     12  C   UNL A   1      40.301  28.977  33.747  1.00  0.00     0.023 A 
ATOM     13  C   UNL A   1      40.917  29.739  34.766  1.00  0.00     0.073 A 
ATOM     14  C   UNL A   1      40.978  27.828  33.269  1.00  0.00     0.012 A 
ATOM     15  N   UNL A   1      40.394  30.873  35.242  1.00  0.00    -0.241 NA
ATOM     16  C   UNL A   1      42.127  29.313  35.298  1.00  0.00     0.029 A 
ATOM     17  C   UNL A   1      42.206  27.433  33.804  1.00  0.00     0.001 A 
ATOM     18  C   UNL A   1      42.775  28.170  34.830  1.00  0.00     0.002 A 
BRANCH  10  19
ATOM     19  N   UNL A   1      38.353  28.756  32.246  1.00  0.00    -0.398 N 
ATOM     20  H   UNL A   1      38.799  28.588  31.385  1.00  0.00     0.156 HD
ATOM     21  H   UNL A   1      37.424  28.461  32.385  1.00  0.00     0.156 HD
ENDBRANCH  10  19
ENDBRANCH   7   9
ENDBRANCH   6   7
ENDBRANCH   5   6
ENDBRANCH   4   5
ENDBRANCH   3   4
ENDBRANCH   2   3
ENDBRANCH   1   2
BRANCH   1  22
ATOM     22  O   UNL A   1      33.888  37.134  32.329  1.00  0.00    -0.376 OA
BRANCH  22  23
ATOM     23  C   UNL A   1      32.847  36.840  31.410  1.00  0.00     0.202 C 
BRANCH  23  24
ATOM     24  C   UNL A   1      33.088  36.181  30.045  1.00  0.00     0.261 C 
BRANCH  24  25
ATOM     25  O   UNL A   1      32.652  34.824  29.923  1.00  0.00    -0.460 OA
BRANCH  25  26
ATOM     26  C   UNL A   1      33.045  34.191  28.790  1.00  0.00     0.338 C 
ATOM     27  O   UNL A   1      32.500  34.203  27.700  1.00  0.00    -0.246 OA
BRANCH  26  28
ATOM     28  C   UNL A   1      34.372  33.599  29.026  1.00  0.00     0.060 A 
ATOM     29  C   UNL A   1      35.416  33.828  28.130  1.00  0.00     0.016 A 
ATOM     30  C   UNL A   1      34.563  32.800  30.161  1.00  0.00     0.016 A 
ATOM     31  C   UNL A   1      36.664  33.257  28.377  1.00  0.00     0.010 A 
ATOM     32  C   UNL A   1      35.807  32.218  30.398  1.00  0.00     0.010 A 
ATOM     33  C   UNL A   1      36.870  32.453  29.514  1.00  0.00    -0.014 A 
BRANCH  33  34
ATOM     34  C   UNL A   1      38.232  31.967  29.836  1.00  0.00     0.031 A 
ATOM     35  C   UNL A   1      39.165  32.762  30.696  1.00  0.00     0.074 A 
ATOM     36  C   UNL A   1      38.616  30.777  29.341  1.00  0.00     0.049 A 
ATOM     37  N   UNL A   1      40.346  32.422  31.149  1.00  0.00    -0.248 NA
ATOM     38  C   UNL A   1      38.726  34.106  31.101  1.00  0.00     0.031 C 
ATOM     39  C   UNL A   1      37.792  29.924  28.481  1.00  0.00     0.029 A 
ATOM     40  N   UNL A   1      39.782  30.070  29.497  1.00  0.00    -0.354 N 
ATOM     41  C   UNL A   1      40.781  33.494  31.914  1.00  0.00     0.074 A 
ATOM     42  C   UNL A   1      39.761  34.519  31.825  1.00  0.00     0.031 C 
ATOM     43  C   UNL A   1      38.466  28.795  28.214  1.00  0.00     0.029 A 
ATOM     44  C   UNL A   1      39.777  28.856  28.856  1.00  0.00     0.049 A 
ATOM     45  H   UNL A   1      40.548  30.402  30.019  1.00  0.00     0.167 HD
ATOM     46  C   UNL A   1      41.920  33.600  32.639  1.00  0.00     0.031 A 
ATOM     47  C   UNL A   1      40.714  27.889  28.797  1.00  0.00     0.031 A 
ATOM     48  C   UNL A   1      42.942  32.585  32.700  1.00  0.00     0.049 A 
ATOM     49  C   UNL A   1      41.997  28.061  29.560  1.00  0.00     0.074 A 
ATOM     50  C   UNL A   1      44.116  32.595  33.435  1.00  0.00     0.029 A 
ATOM     51  N   UNL A   1      42.924  31.391  31.994  1.00  0.00    -0.354 N 
ATOM     52  N   UNL A   1      42.362  29.046  30.344  1.00  0.00    -0.248 NA
ATOM     53  C   UNL A   1      42.992  26.985  29.446  1.00  0.00     0.031 C 
ATOM     54  C   UNL A   1      44.842  31.447  33.116  1.00  0.00     0.029 A 
ATOM     55  C   UNL A   1      44.084  30.677  32.248  1.00  0.00     0.049 A 
ATOM     56  H   UNL A   1      42.196  31.096  31.401  1.00  0.00     0.167 HD
ATOM     57  C   UNL A   1      43.610  28.696  30.840  1.00  0.00     0.074 A 
ATOM     58  C   UNL A   1      43.939  27.403  30.276  1.00  0.00     0.031 C 
ATOM     59  C   UNL A   1      44.407  29.388  31.690  1.00  0.00     0.031 A 
BRANCH  46  60
ATOM     60  C   UNL A   1      42.140  34.850  33.447  1.00  0.00    -0.014 A 
ATOM     61  C   UNL A   1      42.892  35.910  32.913  1.00  0.00     0.009 A 
ATOM     62  C   UNL A   1      41.722  34.923  34.785  1.00  0.00     0.009 A 
ATOM     63  C   UNL A   1      43.238  37.004  33.706  1.00  0.00     0.001 A 
ATOM     64  C   UNL A   1      42.047  36.034  35.568  1.00  0.00     0.001 A 
ATOM     65  C   UNL A   1      42.814  37.067  35.033  1.00  0.00     0.000 A 
ENDBRANCH  46  60
BRANCH  47  66
ATOM     66  C   UNL A   1      40.434  26.655  28.018  1.00  0.00    -0.014 A 
ATOM     67  C   UNL A   1      40.895  26.524  26.697  1.00  0.00     0.009 A 
ATOM     68  C   UNL A   1      39.654  25.627  28.567  1.00  0.00     0.009 A 
ATOM     69  C   UNL A   1      40.558  25.404  25.934  1.00  0.00     0.001 A 
ATOM     70  C   UNL A   1      39.346  24.493  27.813  1.00  0.00     0.001 A 
ATOM     71  C   UNL A   1      39.788  24.387  26.495  1.00  0.00     0.000 A 
ENDBRANCH  47  66
BRANCH  59  72
ATOM     72  C   UNL A   1      45.718  28.774  32.099  1.00  0.00    -0.014 A 
ATOM     73  C   UNL A   1      46.836  28.899  31.256  1.00  0.00     0.009 A 
ATOM     74  C   UNL A   1      45.818  27.964  33.240  1.00  0.00     0.009 A 
ATOM     75  C   UNL A   1      48.015  28.203  31.529  1.00  0.00     0.001 A 
ATOM     76  C   UNL A   1      47.009  27.294  33.529  1.00  0.00     0.001 A 
ATOM     77  C   UNL A   1      48.100  27.402  32.666  1.00  0.00     0.000 A 
ENDBRANCH  59  72
ENDBRANCH  33  34
ENDBRANCH  26  28
ENDBRANCH  25  26
ENDBRANCH  24  25
ENDBRANCH  23  24
ENDBRANCH  22  23
ENDBRANCH   1  22
TORSDOF 18
ENDMDL
MODEL 3
REMARK VINA RESULT:      -7.7      4.612      7.670
REMARK SMILES Nc1cc(C(=O)OCCOCCOCCOC(=O)c2ccc(-c3c4nc(c(-c5ccccc5)c5ccc([nH]5)c(-c5ccccc5)c5nc(c(-c6ccccc6)c6ccc3[nH]6)C=C5)C=C4)cc2)nc2ccccc12
REMARK SMILES IDX 12 1 11 2 10 3 9 4 8 5 7 6 5 7 6 8 4 9 2 10 3 11 73 12 68 13
REMARK SMILES IDX 72 14 67 15 69 16 71 17 70 18 1 19 13 22 14 23 15 24 16 25
REMARK SMILES IDX 17 26 18 27 19 28 20 29 66 30 21 31 65 32 22 33 23 34 24 35
REMARK SMILES IDX 59 36 25 37 64 38 58 39 60 40 26 41 63 42 57 43 56 44 27 46
REMARK SMILES IDX 49 47 34 48 48 49 35 50 38 51 47 52 61 53 36 54 37 55 46 57
REMARK SMILES IDX 62 58 39 59 28 60 29 61 33 62 30 63 32 64 31 65 50 66 51 67
REMARK SMILES IDX 55 68 52 69 54 70 53 71 40 72 41 73 45 74 42 75 44 76 43 77
REMARK H PARENT 1 20 1 21 60 45 38 56
REMARK Flexibility Score: inf
ROOT
ATOM      1  C   UNL A   1      32.054  28.598  23.654  1.00  0.00     0.188 C 
ENDROOT
BRANCH   1   2
ATOM      2  C   UNL A   1      30.673  27.942  23.872  1.00  0.00     0.188 C 
BRANCH   2   3
ATOM      3  O   UNL A   1      30.511  26.912  24.824  1.00  0.00    -0.376 OA
BRANCH   3   4
ATOM      4  C   UNL A   1      31.512  25.924  25.007  1.00  0.00     0.202 C 
BRANCH   4   5
ATOM      5  C   UNL A   1      31.488  24.553  24.320  1.00  0.00     0.261 C 
BRANCH   5   6
ATOM      6  O   UNL A   1      31.186  23.441  25.170  1.00  0.00    -0.459 OA
BRANCH   6   7
ATOM      7  C   UNL A   1      31.910  23.392  26.324  1.00  0.00     0.357 C 
ATOM      8  O   UNL A   1      31.531  23.732  27.432  1.00  0.00    -0.244 OA
BRANCH   7   9
ATOM      9  C   UNL A   1      33.201  22.705  26.064  1.00  0.00     0.151 A 
ATOM     10  C   UNL A   1      34.478  20.781  25.473  1.00  0.00     0.043 A 
ATOM     11  C   UNL A   1      33.237  21.368  25.709  1.00  0.00     0.062 A 
ATOM     12  C   UNL A   1      35.648  21.586  25.544  1.00  0.00     0.023 A 
ATOM     13  C   UNL A   1      35.495  22.929  25.959  1.00  0.00     0.073 A 
ATOM     14  C   UNL A   1      36.951  21.129  25.225  1.00  0.00     0.012 A 
ATOM     15  N   UNL A   1      34.305  23.477  26.221  1.00  0.00    -0.241 NA
ATOM     16  C   UNL A   1      36.619  23.732  26.093  1.00  0.00     0.029 A 
ATOM     17  C   UNL A   1      38.064  21.964  25.345  1.00  0.00     0.001 A 
ATOM     18  C   UNL A   1      37.899  23.265  25.793  1.00  0.00     0.002 A 
BRANCH  10  19
ATOM     19  N   UNL A   1      34.510  19.451  25.049  1.00  0.00    -0.398 N 
ATOM     20  H   UNL A   1      34.692  19.241  24.105  1.00  0.00     0.156 HD
ATOM     21  H   UNL A   1      34.349  18.725  25.693  1.00  0.00     0.156 HD
ENDBRANCH  10  19
ENDBRANCH   7   9
ENDBRANCH   6   7
ENDBRANCH   5   6
ENDBRANCH   4   5
ENDBRANCH   3   4
ENDBRANCH   2   3
ENDBRANCH   1   2
BRANCH   1  22
ATOM     22  O   UNL A   1      32.535  29.590  24.536  1.00  0.00    -0.376 OA
BRANCH  22  23
ATOM     23  C   UNL A   1      31.920  29.788  25.800  1.00  0.00     0.202 C 
BRANCH  23  24
ATOM     24  C   UNL A   1      32.615  30.488  26.976  1.00  0.00     0.261 C 
BRANCH  24  25
ATOM     25  O   UNL A   1      34.014  30.227  27.116  1.00  0.00    -0.460 OA
BRANCH  25  26
ATOM     26  C   UNL A   1      34.641  30.947  28.079  1.00  0.00     0.338 C 
ATOM     27  O   UNL A   1      34.184  31.858  28.749  1.00  0.00    -0.246 OA
BRANCH  26  28
ATOM     28  C   UNL A   1      35.957  30.337  28.332  1.00  0.00     0.060 A 
ATOM     29  C   UNL A   1      36.926  30.308  27.330  1.00  0.00     0.016 A 
ATOM     30  C   UNL A   1      36.213  29.785  29.595  1.00  0.00     0.016 A 
ATOM     31  C   UNL A   1      38.166  29.726  27.597  1.00  0.00     0.010 A 
ATOM     32  C   UNL A   1      37.447  29.191  29.854  1.00  0.00     0.010 A 
ATOM     33  C   UNL A   1      38.436  29.169  28.860  1.00  0.00    -0.014 A 
BRANCH  33  34
ATOM     34  C   UNL A   1      39.799  28.679  29.173  1.00  0.00     0.031 A 
ATOM     35  C   UNL A   1      40.250  27.307  28.777  1.00  0.00     0.074 A 
ATOM     36  C   UNL A   1      40.638  29.506  29.822  1.00  0.00     0.049 A 
ATOM     37  N   UNL A   1      41.442  26.777  28.889  1.00  0.00    -0.248 NA
ATOM     38  C   UNL A   1      39.244  26.415  28.181  1.00  0.00     0.031 C 
ATOM     39  C   UNL A   1      40.299  30.860  30.268  1.00  0.00     0.029 A 
ATOM     40  N   UNL A   1      41.945  29.344  30.206  1.00  0.00    -0.354 N 
ATOM     41  C   UNL A   1      41.341  25.500  28.355  1.00  0.00     0.074 A 
ATOM     42  C   UNL A   1      39.958  25.315  27.964  1.00  0.00     0.031 C 
ATOM     43  C   UNL A   1      41.381  31.416  30.833  1.00  0.00     0.029 A 
ATOM     44  C   UNL A   1      42.478  30.451  30.819  1.00  0.00     0.049 A 
ATOM     45  H   UNL A   1      42.452  28.513  30.057  1.00  0.00     0.167 HD
ATOM     46  C   UNL A   1      42.320  24.579  28.190  1.00  0.00     0.031 A 
ATOM     47  C   UNL A   1      43.714  30.676  31.306  1.00  0.00     0.031 A 
ATOM     48  C   UNL A   1      43.687  24.763  28.608  1.00  0.00     0.049 A 
ATOM     49  C   UNL A   1      44.765  29.611  31.168  1.00  0.00     0.074 A 
ATOM     50  C   UNL A   1      44.754  23.894  28.453  1.00  0.00     0.029 A 
ATOM     51  N   UNL A   1      44.175  25.878  29.273  1.00  0.00    -0.354 N 
ATOM     52  N   UNL A   1      44.676  28.438  30.589  1.00  0.00    -0.248 NA
ATOM     53  C   UNL A   1      46.090  29.902  31.734  1.00  0.00     0.031 C 
ATOM     54  C   UNL A   1      45.866  24.447  29.088  1.00  0.00     0.029 A 
ATOM     55  C   UNL A   1      45.517  25.700  29.567  1.00  0.00     0.049 A 
ATOM     56  H   UNL A   1      43.646  26.677  29.502  1.00  0.00     0.167 HD
ATOM     57  C   UNL A   1      45.937  27.866  30.692  1.00  0.00     0.074 A 
ATOM     58  C   UNL A   1      46.778  28.822  31.382  1.00  0.00     0.031 C 
ATOM     59  C   UNL A   1      46.354  26.655  30.249  1.00  0.00     0.031 A 
BRANCH  46  60
ATOM     60  C   UNL A   1      41.972  23.279  27.519  1.00  0.00    -0.014 A 
ATOM     61  C   UNL A   1      41.438  22.220  28.270  1.00  0.00     0.009 A 
ATOM     62  C   UNL A   1      42.302  23.055  26.173  1.00  0.00     0.009 A 
ATOM     63  C   UNL A   1      41.261  20.960  27.697  1.00  0.00     0.001 A 
ATOM     64  C   UNL A   1      42.098  21.800  25.593  1.00  0.00     0.001 A 
ATOM     65  C   UNL A   1      41.589  20.751  26.358  1.00  0.00     0.000 A 
ENDBRANCH  46  60
BRANCH  47  66
ATOM     66  C   UNL A   1      44.020  31.992  31.926  1.00  0.00    -0.014 A 
ATOM     67  C   UNL A   1      43.804  32.204  33.298  1.00  0.00     0.009 A 
ATOM     68  C   UNL A   1      44.473  33.061  31.140  1.00  0.00     0.009 A 
ATOM     69  C   UNL A   1      44.007  33.464  33.863  1.00  0.00     0.001 A 
ATOM     70  C   UNL A   1      44.707  34.313  31.714  1.00  0.00     0.001 A 
ATOM     71  C   UNL A   1      44.463  34.516  33.072  1.00  0.00     0.000 A 
ENDBRANCH  47  66
BRANCH  59  72
ATOM     72  C   UNL A   1      47.793  26.273  30.465  1.00  0.00    -0.014 A 
ATOM     73  C   UNL A   1      48.706  26.377  29.402  1.00  0.00     0.009 A 
ATOM     74  C   UNL A   1      48.218  25.688  31.667  1.00  0.00     0.009 A 
ATOM     75  C   UNL A   1      50.003  25.875  29.526  1.00  0.00     0.001 A 
ATOM     76  C   UNL A   1      49.526  25.216  31.800  1.00  0.00     0.001 A 
ATOM     77  C   UNL A   1      50.412  25.297  30.726  1.00  0.00     0.000 A 
ENDBRANCH  59  72
ENDBRANCH  33  34
ENDBRANCH  26  28
ENDBRANCH  25  26
ENDBRANCH  24  25
ENDBRANCH  23  24
ENDBRANCH  22  23
ENDBRANCH   1  22
TORSDOF 18
ENDMDL
