MODEL 1
REMARK VINA RESULT:      -9.6      0.000      0.000
REMARK SMILES CSCC[C@@H](NC1=[NH+]S(=O)(=O)c2ccccc21)C(=O)OCCOCCOCCOC(=O)c1ccc(-c2c3nc(c(-c4ccccc4)c4ccc([nH]4)c(-c4ccccc4)c4nc(c(-c5ccccc5)c5ccc2[nH]5)C=C4)C=C3)cc1
REMARK SMILES IDX 24 1 23 2 22 3 21 4 20 5 18 6 19 7 5 8 4 9 3 10 2 11 1 12
REMARK SMILES IDX 6 13 7 14 8 16 17 17 9 18 12 20 16 21 10 22 11 23 13 24
REMARK SMILES IDX 15 25 14 26 25 27 26 28 27 29 28 30 29 31 30 32 31 33 32 34
REMARK SMILES IDX 33 35 79 36 34 37 78 38 35 39 36 40 37 41 72 42 38 43 77 44
REMARK SMILES IDX 71 45 73 46 39 47 76 48 70 49 69 50 40 52 62 53 47 54 61 55
REMARK SMILES IDX 48 56 51 57 60 58 74 59 49 60 50 61 59 63 75 64 52 65 41 66
REMARK SMILES IDX 42 67 46 68 43 69 45 70 44 71 63 72 64 73 68 74 65 75 67 76
REMARK SMILES IDX 66 77 53 78 54 79 58 80 55 81 57 82 56 83
REMARK H PARENT 6 15 8 19 73 51 51 62
REMARK Flexibility Score: inf
ROOT
ATOM      1  C   UNL A   1      34.672  32.322  28.053  1.00  0.00     0.188 C 
ENDROOT
BRANCH   1   2
ATOM      2  O   UNL A   1      35.222  31.271  27.275  1.00  0.00    -0.376 OA
BRANCH   2   3
ATOM      3  C   UNL A   1      34.913  29.913  27.562  1.00  0.00     0.202 C 
BRANCH   3   4
ATOM      4  C   UNL A   1      33.950  29.128  26.653  1.00  0.00     0.261 C 
BRANCH   4   5
ATOM      5  O   UNL A   1      33.359  29.825  25.531  1.00  0.00    -0.460 OA
BRANCH   5   6
ATOM      6  C   UNL A   1      32.427  29.115  24.835  1.00  0.00     0.351 C 
ATOM      7  O   UNL A   1      31.430  28.604  25.340  1.00  0.00    -0.247 OA
BRANCH   6   8
ATOM      8  C   UNL A   1      32.741  28.956  23.328  1.00  0.00     0.283 C 
BRANCH   8   9
ATOM      9  C   UNL A   1      34.005  28.175  22.921  1.00  0.00     0.073 C 
BRANCH   9  10
ATOM     10  C   UNL A   1      33.713  26.749  22.427  1.00  0.00     0.074 C 
BRANCH  10  11
ATOM     11  S   UNL A   1      33.313  25.552  23.754  1.00  0.00    -0.165 SA
ATOM     12  C   UNL A   1      34.251  24.092  23.211  1.00  0.00     0.085 C 
ENDBRANCH  10  11
ENDBRANCH   9  10
ENDBRANCH   8   9
BRANCH   8  13
ATOM     13  N   UNL A   1      31.616  28.415  22.550  1.00  0.00    -0.260 N 
ATOM     14  C   UNL A   1      30.439  29.092  22.408  1.00  0.00     0.292 C 
ATOM     15  H   UNL A   1      31.714  27.535  22.118  1.00  0.00     0.306 HD
ATOM     16  N   UNL A   1      30.353  30.311  21.969  1.00  0.00    -0.162 N 
ATOM     17  C   UNL A   1      29.175  28.476  22.842  1.00  0.00     0.087 A 
ATOM     18  S   UNL A   1      28.812  30.855  22.035  1.00  0.00     0.329 S 
ATOM     19  H   UNL A   1      31.116  30.839  21.640  1.00  0.00     0.327 HD
ATOM     20  C   UNL A   1      28.156  29.396  22.718  1.00  0.00     0.124 A 
ATOM     21  C   UNL A   1      28.956  27.238  23.417  1.00  0.00     0.018 A 
ATOM     22  O   UNL A   1      28.262  31.000  20.718  1.00  0.00    -0.179 OA
ATOM     23  O   UNL A   1      28.701  31.885  23.060  1.00  0.00    -0.179 OA
ATOM     24  C   UNL A   1      26.873  29.156  23.158  1.00  0.00     0.025 A 
ATOM     25  C   UNL A   1      27.661  26.954  23.860  1.00  0.00     0.001 A 
ATOM     26  C   UNL A   1      26.630  27.907  23.734  1.00  0.00     0.002 A 
ENDBRANCH   8  13
ENDBRANCH   6   8
ENDBRANCH   5   6
ENDBRANCH   4   5
ENDBRANCH   3   4
ENDBRANCH   2   3
ENDBRANCH   1   2
BRANCH   1  27
ATOM     27  C   UNL A   1      33.222  32.755  27.822  1.00  0.00     0.188 C 
BRANCH  27  28
ATOM     28  O   UNL A   1      32.942  34.112  28.067  1.00  0.00    -0.376 OA
BRANCH  28  29
ATOM     29  C   UNL A   1      33.548  34.729  29.192  1.00  0.00     0.202 C 
BRANCH  29  30
ATOM     30  C   UNL A   1      32.909  35.970  29.841  1.00  0.00     0.261 C 
BRANCH  30  31
ATOM     31  O   UNL A   1      33.283  36.268  31.198  1.00  0.00    -0.460 OA
BRANCH  31  32
ATOM     32  C   UNL A   1      32.906  35.402  32.166  1.00  0.00     0.338 C 
ATOM     33  O   UNL A   1      31.772  35.035  32.416  1.00  0.00    -0.246 OA
BRANCH  32  34
ATOM     34  C   UNL A   1      34.139  34.770  32.707  1.00  0.00     0.060 A 
ATOM     35  C   UNL A   1      35.350  35.472  32.620  1.00  0.00     0.016 A 
ATOM     36  C   UNL A   1      34.101  33.523  33.337  1.00  0.00     0.016 A 
ATOM     37  C   UNL A   1      36.525  34.922  33.139  1.00  0.00     0.010 A 
ATOM     38  C   UNL A   1      35.284  32.962  33.833  1.00  0.00     0.010 A 
ATOM     39  C   UNL A   1      36.508  33.645  33.712  1.00  0.00    -0.014 A 
BRANCH  39  40
ATOM     40  C   UNL A   1      37.790  32.958  34.018  1.00  0.00     0.031 A 
ATOM     41  C   UNL A   1      38.339  31.977  33.015  1.00  0.00     0.074 A 
ATOM     42  C   UNL A   1      38.479  33.212  35.145  1.00  0.00     0.049 A 
ATOM     43  N   UNL A   1      39.430  31.255  33.068  1.00  0.00    -0.248 NA
ATOM     44  C   UNL A   1      37.546  31.784  31.791  1.00  0.00     0.031 C 
ATOM     45  C   UNL A   1      38.090  34.163  36.182  1.00  0.00     0.029 A 
ATOM     46  N   UNL A   1      39.660  32.676  35.602  1.00  0.00    -0.354 N 
ATOM     47  C   UNL A   1      39.450  30.518  31.889  1.00  0.00     0.074 A 
ATOM     48  C   UNL A   1      38.249  30.857  31.159  1.00  0.00     0.031 C 
ATOM     49  C   UNL A   1      39.013  34.140  37.162  1.00  0.00     0.029 A 
ATOM     50  C   UNL A   1      40.040  33.151  36.833  1.00  0.00     0.049 A 
ATOM     51  H   UNL A   1      40.184  32.015  35.094  1.00  0.00     0.167 HD
ATOM     52  C   UNL A   1      40.384  29.641  31.449  1.00  0.00     0.031 A 
ATOM     53  C   UNL A   1      41.085  32.816  37.616  1.00  0.00     0.031 A 
ATOM     54  C   UNL A   1      41.572  29.282  32.179  1.00  0.00     0.049 A 
ATOM     55  C   UNL A   1      42.073  31.781  37.139  1.00  0.00     0.074 A 
ATOM     56  C   UNL A   1      42.586  28.418  31.803  1.00  0.00     0.029 A 
ATOM     57  N   UNL A   1      41.898  29.756  33.440  1.00  0.00    -0.354 N 
ATOM     58  N   UNL A   1      42.101  31.118  36.008  1.00  0.00    -0.248 NA
ATOM     59  C   UNL A   1      43.183  31.458  38.049  1.00  0.00     0.031 C 
ATOM     60  C   UNL A   1      43.491  28.317  32.866  1.00  0.00     0.029 A 
ATOM     61  C   UNL A   1      43.080  29.175  33.872  1.00  0.00     0.049 A 
ATOM     62  H   UNL A   1      41.368  30.407  33.954  1.00  0.00     0.167 HD
ATOM     63  C   UNL A   1      43.242  30.326  36.058  1.00  0.00     0.074 A 
ATOM     64  C   UNL A   1      43.890  30.605  37.322  1.00  0.00     0.031 C 
ATOM     65  C   UNL A   1      43.713  29.448  35.137  1.00  0.00     0.031 A 
BRANCH  52  66
ATOM     66  C   UNL A   1      40.129  28.971  30.126  1.00  0.00    -0.014 A 
ATOM     67  C   UNL A   1      40.483  29.581  28.912  1.00  0.00     0.009 A 
ATOM     68  C   UNL A   1      39.541  27.696  30.098  1.00  0.00     0.009 A 
ATOM     69  C   UNL A   1      40.216  28.946  27.697  1.00  0.00     0.001 A 
ATOM     70  C   UNL A   1      39.306  27.049  28.884  1.00  0.00     0.001 A 
ATOM     71  C   UNL A   1      39.633  27.679  27.684  1.00  0.00     0.000 A 
ENDBRANCH  52  66
BRANCH  53  72
ATOM     72  C   UNL A   1      41.251  33.452  38.951  1.00  0.00    -0.014 A 
ATOM     73  C   UNL A   1      40.643  32.903  40.091  1.00  0.00     0.009 A 
ATOM     74  C   UNL A   1      42.004  34.629  39.086  1.00  0.00     0.009 A 
ATOM     75  C   UNL A   1      40.766  33.533  41.332  1.00  0.00     0.001 A 
ATOM     76  C   UNL A   1      42.152  35.239  40.333  1.00  0.00     0.001 A 
ATOM     77  C   UNL A   1      41.526  34.695  41.453  1.00  0.00     0.000 A 
ENDBRANCH  53  72
BRANCH  65  78
ATOM     78  C   UNL A   1      45.013  28.752  35.447  1.00  0.00    -0.014 A 
ATOM     79  C   UNL A   1      46.240  29.229  34.958  1.00  0.00     0.009 A 
ATOM     80  C   UNL A   1      45.010  27.607  36.261  1.00  0.00     0.009 A 
ATOM     81  C   UNL A   1      47.427  28.547  35.236  1.00  0.00     0.001 A 
ATOM     82  C   UNL A   1      46.202  26.948  36.567  1.00  0.00     0.001 A 
ATOM     83  C   UNL A   1      47.408  27.409  36.042  1.00  0.00     0.000 A 
ENDBRANCH  65  78
ENDBRANCH  39  40
ENDBRANCH  32  34
ENDBRANCH  31  32
ENDBRANCH  30  31
ENDBRANCH  29  30
ENDBRANCH  28  29
ENDBRANCH  27  28
ENDBRANCH   1  27
TORSDOF 21
ENDMDL
MODEL 2
REMARK VINA RESULT:      -9.5      0.530      5.786
REMARK SMILES CSCC[C@@H](NC1=[NH+]S(=O)(=O)c2ccccc21)C(=O)OCCOCCOCCOC(=O)c1ccc(-c2c3nc(c(-c4ccccc4)c4ccc([nH]4)c(-c4ccccc4)c4nc(c(-c5ccccc5)c5ccc2[nH]5)C=C4)C=C3)cc1
REMARK SMILES IDX 24 1 23 2 22 3 21 4 20 5 18 6 19 7 5 8 4 9 3 10 2 11 1 12
REMARK SMILES IDX 6 13 7 14 8 16 17 17 9 18 12 20 16 21 10 22 11 23 13 24
REMARK SMILES IDX 15 25 14 26 25 27 26 28 27 29 28 30 29 31 30 32 31 33 32 34
REMARK SMILES IDX 33 35 79 36 34 37 78 38 35 39 36 40 37 41 72 42 38 43 77 44
REMARK SMILES IDX 71 45 73 46 39 47 76 48 70 49 69 50 40 52 62 53 47 54 61 55
REMARK SMILES IDX 48 56 51 57 60 58 74 59 49 60 50 61 59 63 75 64 52 65 41 66
REMARK SMILES IDX 42 67 46 68 43 69 45 70 44 71 63 72 64 73 68 74 65 75 67 76
REMARK SMILES IDX 66 77 53 78 54 79 58 80 55 81 57 82 56 83
REMARK H PARENT 6 15 8 19 73 51 51 62
REMARK Flexibility Score: inf
ROOT
ATOM      1  C   UNL A   1      34.687  32.272  28.179  1.00  0.00     0.188 C 
ENDROOT
BRANCH   1   2
ATOM      2  O   UNL A   1      35.225  31.207  27.412  1.00  0.00    -0.376 OA
BRANCH   2   3
ATOM      3  C   UNL A   1      34.811  29.865  27.637  1.00  0.00     0.202 C 
BRANCH   3   4
ATOM      4  C   UNL A   1      34.035  29.100  26.550  1.00  0.00     0.261 C 
BRANCH   4   5
ATOM      5  O   UNL A   1      33.407  29.870  25.497  1.00  0.00    -0.460 OA
BRANCH   5   6
ATOM      6  C   UNL A   1      32.422  29.222  24.816  1.00  0.00     0.351 C 
ATOM      7  O   UNL A   1      31.328  28.930  25.293  1.00  0.00    -0.247 OA
BRANCH   6   8
ATOM      8  C   UNL A   1      32.802  28.828  23.367  1.00  0.00     0.283 C 
BRANCH   8   9
ATOM      9  C   UNL A   1      34.033  27.928  23.151  1.00  0.00     0.073 C 
BRANCH   9  10
ATOM     10  C   UNL A   1      33.842  26.493  23.667  1.00  0.00     0.074 C 
BRANCH  10  11
ATOM     11  S   UNL A   1      33.248  25.305  22.405  1.00  0.00    -0.165 SA
ATOM     12  C   UNL A   1      31.812  24.577  23.249  1.00  0.00     0.085 C 
ENDBRANCH  10  11
ENDBRANCH   9  10
ENDBRANCH   8   9
BRANCH   8  13
ATOM     13  N   UNL A   1      31.685  28.243  22.609  1.00  0.00    -0.260 N 
ATOM     14  C   UNL A   1      30.525  28.925  22.383  1.00  0.00     0.292 C 
ATOM     15  H   UNL A   1      31.778  27.329  22.253  1.00  0.00     0.306 HD
ATOM     16  N   UNL A   1      30.471  30.104  21.843  1.00  0.00    -0.162 N 
ATOM     17  C   UNL A   1      29.240  28.367  22.834  1.00  0.00     0.087 A 
ATOM     18  S   UNL A   1      28.939  30.676  21.826  1.00  0.00     0.329 S 
ATOM     19  H   UNL A   1      31.250  30.591  21.491  1.00  0.00     0.327 HD
ATOM     20  C   UNL A   1      28.240  29.289  22.610  1.00  0.00     0.124 A 
ATOM     21  C   UNL A   1      28.985  27.183  23.503  1.00  0.00     0.018 A 
ATOM     22  O   UNL A   1      28.422  30.720  20.489  1.00  0.00    -0.179 OA
ATOM     23  O   UNL A   1      28.822  31.789  22.760  1.00  0.00    -0.179 OA
ATOM     24  C   UNL A   1      26.943  29.106  23.036  1.00  0.00     0.025 A 
ATOM     25  C   UNL A   1      27.675  26.957  23.936  1.00  0.00     0.001 A 
ATOM     26  C   UNL A   1      26.665  27.913  23.707  1.00  0.00     0.002 A 
ENDBRANCH   8  13
ENDBRANCH   6   8
ENDBRANCH   5   6
ENDBRANCH   4   5
ENDBRANCH   3   4
ENDBRANCH   2   3
ENDBRANCH   1   2
BRANCH   1  27
ATOM     27  C   UNL A   1      33.202  32.622  28.051  1.00  0.00     0.188 C 
BRANCH  27  28
ATOM     28  O   UNL A   1      32.877  33.980  28.225  1.00  0.00    -0.376 OA
BRANCH  28  29
ATOM     29  C   UNL A   1      33.535  34.700  29.255  1.00  0.00     0.202 C 
BRANCH  29  30
ATOM     30  C   UNL A   1      32.970  36.043  29.754  1.00  0.00     0.261 C 
BRANCH  30  31
ATOM     31  O   UNL A   1      33.256  36.411  31.115  1.00  0.00    -0.460 OA
BRANCH  31  32
ATOM     32  C   UNL A   1      32.869  35.565  32.098  1.00  0.00     0.338 C 
ATOM     33  O   UNL A   1      31.726  35.299  32.423  1.00  0.00    -0.246 OA
BRANCH  32  34
ATOM     34  C   UNL A   1      34.073  34.814  32.541  1.00  0.00     0.060 A 
ATOM     35  C   UNL A   1      35.319  35.457  32.510  1.00  0.00     0.016 A 
ATOM     36  C   UNL A   1      33.976  33.508  33.028  1.00  0.00     0.016 A 
ATOM     37  C   UNL A   1      36.470  34.792  32.943  1.00  0.00     0.010 A 
ATOM     38  C   UNL A   1      35.134  32.833  33.436  1.00  0.00     0.010 A 
ATOM     39  C   UNL A   1      36.391  33.461  33.369  1.00  0.00    -0.014 A 
BRANCH  39  40
ATOM     40  C   UNL A   1      37.639  32.678  33.573  1.00  0.00     0.031 A 
ATOM     41  C   UNL A   1      38.433  32.904  34.832  1.00  0.00     0.074 A 
ATOM     42  C   UNL A   1      38.053  31.760  32.681  1.00  0.00     0.049 A 
ATOM     43  N   UNL A   1      39.551  32.346  35.223  1.00  0.00    -0.248 NA
ATOM     44  C   UNL A   1      37.892  33.896  35.775  1.00  0.00     0.031 C 
ATOM     45  C   UNL A   1      37.365  31.409  31.442  1.00  0.00     0.029 A 
ATOM     46  N   UNL A   1      39.169  30.956  32.690  1.00  0.00    -0.354 N 
ATOM     47  C   UNL A   1      39.851  32.925  36.451  1.00  0.00     0.074 A 
ATOM     48  C   UNL A   1      38.816  33.897  36.724  1.00  0.00     0.031 C 
ATOM     49  C   UNL A   1      38.077  30.463  30.803  1.00  0.00     0.029 A 
ATOM     50  C   UNL A   1      39.285  30.166  31.573  1.00  0.00     0.049 A 
ATOM     51  H   UNL A   1      39.821  30.948  33.427  1.00  0.00     0.167 HD
ATOM     52  C   UNL A   1      40.891  32.669  37.281  1.00  0.00     0.031 A 
ATOM     53  C   UNL A   1      40.262  29.313  31.203  1.00  0.00     0.031 A 
ATOM     54  C   UNL A   1      41.937  31.718  37.008  1.00  0.00     0.049 A 
ATOM     55  C   UNL A   1      41.449  29.101  32.108  1.00  0.00     0.074 A 
ATOM     56  C   UNL A   1      43.020  31.378  37.800  1.00  0.00     0.029 A 
ATOM     57  N   UNL A   1      42.039  30.969  35.847  1.00  0.00    -0.354 N 
ATOM     58  N   UNL A   1      41.703  29.626  33.283  1.00  0.00    -0.248 NA
ATOM     59  C   UNL A   1      42.480  28.163  31.636  1.00  0.00     0.031 C 
ATOM     60  C   UNL A   1      43.814  30.471  37.088  1.00  0.00     0.029 A 
ATOM     61  C   UNL A   1      43.186  30.192  35.885  1.00  0.00     0.049 A 
ATOM     62  H   UNL A   1      41.394  30.986  35.103  1.00  0.00     0.167 HD
ATOM     63  C   UNL A   1      42.903  29.062  33.701  1.00  0.00     0.074 A 
ATOM     64  C   UNL A   1      43.316  28.139  32.664  1.00  0.00     0.031 C 
ATOM     65  C   UNL A   1      43.598  29.285  34.844  1.00  0.00     0.031 A 
BRANCH  52  66
ATOM     66  C   UNL A   1      40.970  33.471  38.552  1.00  0.00    -0.014 A 
ATOM     67  C   UNL A   1      41.651  34.698  38.606  1.00  0.00     0.009 A 
ATOM     68  C   UNL A   1      40.333  32.998  39.710  1.00  0.00     0.009 A 
ATOM     69  C   UNL A   1      41.726  35.412  39.804  1.00  0.00     0.001 A 
ATOM     70  C   UNL A   1      40.381  33.730  40.897  1.00  0.00     0.001 A 
ATOM     71  C   UNL A   1      41.087  34.931  40.947  1.00  0.00     0.000 A 
ENDBRANCH  52  66
BRANCH  53  72
ATOM     72  C   UNL A   1      40.175  28.601  29.900  1.00  0.00    -0.014 A 
ATOM     73  C   UNL A   1      40.692  29.177  28.729  1.00  0.00     0.009 A 
ATOM     74  C   UNL A   1      39.552  27.345  29.818  1.00  0.00     0.009 A 
ATOM     75  C   UNL A   1      40.566  28.521  27.501  1.00  0.00     0.001 A 
ATOM     76  C   UNL A   1      39.455  26.678  28.595  1.00  0.00     0.001 A 
ATOM     77  C   UNL A   1      39.954  27.270  27.437  1.00  0.00     0.000 A 
ENDBRANCH  53  72
BRANCH  65  78
ATOM     78  C   UNL A   1      44.862  28.491  35.051  1.00  0.00    -0.014 A 
ATOM     79  C   UNL A   1      44.935  27.454  35.996  1.00  0.00     0.009 A 
ATOM     80  C   UNL A   1      45.995  28.774  34.271  1.00  0.00     0.009 A 
ATOM     81  C   UNL A   1      46.128  26.754  36.188  1.00  0.00     0.001 A 
ATOM     82  C   UNL A   1      47.176  28.048  34.440  1.00  0.00     0.001 A 
ATOM     83  C   UNL A   1      47.246  27.049  35.409  1.00  0.00     0.000 A 
ENDBRANCH  65  78
ENDBRANCH  39  40
ENDBRANCH  32  34
ENDBRANCH  31  32
ENDBRANCH  30  31
ENDBRANCH  29  30
ENDBRANCH  28  29
ENDBRANCH  27  28
ENDBRANCH   1  27
TORSDOF 21
ENDMDL
MODEL 3
REMARK VINA RESULT:      -9.4      5.813     10.242
REMARK SMILES CSCC[C@@H](NC1=[NH+]S(=O)(=O)c2ccccc21)C(=O)OCCOCCOCCOC(=O)c1ccc(-c2c3nc(c(-c4ccccc4)c4ccc([nH]4)c(-c4ccccc4)c4nc(c(-c5ccccc5)c5ccc2[nH]5)C=C4)C=C3)cc1
REMARK SMILES IDX 24 1 23 2 22 3 21 4 20 5 18 6 19 7 5 8 4 9 3 10 2 11 1 12
REMARK SMILES IDX 6 13 7 14 8 16 17 17 9 18 12 20 16 21 10 22 11 23 13 24
REMARK SMILES IDX 15 25 14 26 25 27 26 28 27 29 28 30 29 31 30 32 31 33 32 34
REMARK SMILES IDX 33 35 79 36 34 37 78 38 35 39 36 40 37 41 72 42 38 43 77 44
REMARK SMILES IDX 71 45 73 46 39 47 76 48 70 49 69 50 40 52 62 53 47 54 61 55
REMARK SMILES IDX 48 56 51 57 60 58 74 59 49 60 50 61 59 63 75 64 52 65 41 66
REMARK SMILES IDX 42 67 46 68 43 69 45 70 44 71 63 72 64 73 68 74 65 75 67 76
REMARK SMILES IDX 66 77 53 78 54 79 58 80 55 81 57 82 56 83
REMARK H PARENT 6 15 8 19 73 51 51 62
REMARK Flexibility Score: inf
ROOT
ATOM      1  C   UNL A   1      38.663  23.609  26.693  1.00  0.00     0.188 C 
ENDROOT
BRANCH   1   2
ATOM      2  O   UNL A   1      37.670  23.676  25.683  1.00  0.00    -0.376 OA
BRANCH   2   3
ATOM      3  C   UNL A   1      36.301  23.439  25.990  1.00  0.00     0.202 C 
BRANCH   3   4
ATOM      4  C   UNL A   1      35.213  24.399  25.475  1.00  0.00     0.261 C 
BRANCH   4   5
ATOM      5  O   UNL A   1      33.883  24.276  26.032  1.00  0.00    -0.460 OA
BRANCH   5   6
ATOM      6  C   UNL A   1      33.301  23.055  25.872  1.00  0.00     0.351 C 
ATOM      7  O   UNL A   1      32.835  22.385  26.791  1.00  0.00    -0.247 OA
BRANCH   6   8
ATOM      8  C   UNL A   1      33.303  22.534  24.414  1.00  0.00     0.283 C 
BRANCH   8   9
ATOM      9  C   UNL A   1      33.541  21.031  24.173  1.00  0.00     0.073 C 
BRANCH   9  10
ATOM     10  C   UNL A   1      32.250  20.240  23.908  1.00  0.00     0.074 C 
BRANCH  10  11
ATOM     11  S   UNL A   1      32.460  18.421  23.909  1.00  0.00    -0.165 SA
ATOM     12  C   UNL A   1      34.194  18.263  24.434  1.00  0.00     0.085 C 
ENDBRANCH  10  11
ENDBRANCH   9  10
ENDBRANCH   8   9
BRANCH   8  13
ATOM     13  N   UNL A   1      32.105  22.922  23.652  1.00  0.00    -0.260 N 
ATOM     14  C   UNL A   1      32.082  24.024  22.847  1.00  0.00     0.292 C 
ATOM     15  H   UNL A   1      31.294  22.369  23.726  1.00  0.00     0.306 HD
ATOM     16  N   UNL A   1      32.941  24.248  21.901  1.00  0.00    -0.162 N 
ATOM     17  C   UNL A   1      31.094  25.088  23.081  1.00  0.00     0.087 A 
ATOM     18  S   UNL A   1      32.693  25.710  21.212  1.00  0.00     0.329 S 
ATOM     19  H   UNL A   1      33.650  23.619  21.632  1.00  0.00     0.327 HD
ATOM     20  C   UNL A   1      31.352  26.143  22.232  1.00  0.00     0.124 A 
ATOM     21  C   UNL A   1      30.112  25.176  24.053  1.00  0.00     0.018 A 
ATOM     22  O   UNL A   1      32.190  25.570  19.876  1.00  0.00    -0.179 OA
ATOM     23  O   UNL A   1      33.789  26.606  21.558  1.00  0.00    -0.179 OA
ATOM     24  C   UNL A   1      30.671  27.339  22.294  1.00  0.00     0.025 A 
ATOM     25  C   UNL A   1      29.390  26.370  24.133  1.00  0.00     0.001 A 
ATOM     26  C   UNL A   1      29.671  27.443  23.263  1.00  0.00     0.002 A 
ENDBRANCH   8  13
ENDBRANCH   6   8
ENDBRANCH   5   6
ENDBRANCH   4   5
ENDBRANCH   3   4
ENDBRANCH   2   3
ENDBRANCH   1   2
BRANCH   1  27
ATOM     27  C   UNL A   1      39.894  22.722  26.487  1.00  0.00     0.188 C 
BRANCH  27  28
ATOM     28  O   UNL A   1      39.853  21.463  27.114  1.00  0.00    -0.376 OA
BRANCH  28  29
ATOM     29  C   UNL A   1      40.117  20.314  26.326  1.00  0.00     0.202 C 
BRANCH  29  30
ATOM     30  C   UNL A   1      41.517  19.672  26.325  1.00  0.00     0.261 C 
BRANCH  30  31
ATOM     31  O   UNL A   1      42.413  20.049  25.264  1.00  0.00    -0.460 OA
BRANCH  31  32
ATOM     32  C   UNL A   1      43.649  20.485  25.600  1.00  0.00     0.338 C 
ATOM     33  O   UNL A   1      44.709  19.952  25.328  1.00  0.00    -0.246 OA
BRANCH  32  34
ATOM     34  C   UNL A   1      43.507  21.866  26.134  1.00  0.00     0.060 A 
ATOM     35  C   UNL A   1      43.423  22.934  25.228  1.00  0.00     0.016 A 
ATOM     36  C   UNL A   1      43.408  22.108  27.506  1.00  0.00     0.016 A 
ATOM     37  C   UNL A   1      43.263  24.243  25.691  1.00  0.00     0.010 A 
ATOM     38  C   UNL A   1      43.276  23.423  27.969  1.00  0.00     0.010 A 
ATOM     39  C   UNL A   1      43.231  24.501  27.066  1.00  0.00    -0.014 A 
BRANCH  39  40
ATOM     40  C   UNL A   1      43.329  25.902  27.556  1.00  0.00     0.031 A 
ATOM     41  C   UNL A   1      44.691  26.540  27.640  1.00  0.00     0.074 A 
ATOM     42  C   UNL A   1      42.239  26.613  27.892  1.00  0.00     0.049 A 
ATOM     43  N   UNL A   1      45.024  27.741  28.042  1.00  0.00    -0.248 NA
ATOM     44  C   UNL A   1      45.829  25.709  27.217  1.00  0.00     0.031 C 
ATOM     45  C   UNL A   1      40.860  26.139  27.822  1.00  0.00     0.029 A 
ATOM     46  N   UNL A   1      42.132  27.899  28.369  1.00  0.00    -0.354 N 
ATOM     47  C   UNL A   1      46.408  27.805  27.928  1.00  0.00     0.074 A 
ATOM     48  C   UNL A   1      46.852  26.515  27.450  1.00  0.00     0.031 C 
ATOM     49  C   UNL A   1      40.041  27.118  28.247  1.00  0.00     0.029 A 
ATOM     50  C   UNL A   1      40.841  28.276  28.648  1.00  0.00     0.049 A 
ATOM     51  H   UNL A   1      42.907  28.492  28.497  1.00  0.00     0.167 HD
ATOM     52  C   UNL A   1      47.236  28.845  28.192  1.00  0.00     0.031 A 
ATOM     53  C   UNL A   1      40.359  29.416  29.183  1.00  0.00     0.031 A 
ATOM     54  C   UNL A   1      46.804  30.125  28.687  1.00  0.00     0.049 A 
ATOM     55  C   UNL A   1      41.308  30.532  29.540  1.00  0.00     0.074 A 
ATOM     56  C   UNL A   1      47.570  31.244  28.964  1.00  0.00     0.029 A 
ATOM     57  N   UNL A   1      45.493  30.451  28.996  1.00  0.00    -0.354 N 
ATOM     58  N   UNL A   1      42.610  30.595  29.393  1.00  0.00    -0.248 NA
ATOM     59  C   UNL A   1      40.713  31.742  30.128  1.00  0.00     0.031 C 
ATOM     60  C   UNL A   1      46.731  32.226  29.504  1.00  0.00     0.029 A 
ATOM     61  C   UNL A   1      45.432  31.744  29.493  1.00  0.00     0.049 A 
ATOM     62  H   UNL A   1      44.719  29.854  28.880  1.00  0.00     0.167 HD
ATOM     63  C   UNL A   1      42.984  31.857  29.840  1.00  0.00     0.074 A 
ATOM     64  C   UNL A   1      41.770  32.535  30.245  1.00  0.00     0.031 C 
ATOM     65  C   UNL A   1      44.222  32.408  29.906  1.00  0.00     0.031 A 
BRANCH  52  66
ATOM     66  C   UNL A   1      48.710  28.617  27.990  1.00  0.00    -0.014 A 
ATOM     67  C   UNL A   1      49.536  28.171  29.034  1.00  0.00     0.009 A 
ATOM     68  C   UNL A   1      49.277  28.837  26.724  1.00  0.00     0.009 A 
ATOM     69  C   UNL A   1      50.904  27.988  28.824  1.00  0.00     0.001 A 
ATOM     70  C   UNL A   1      50.639  28.620  26.509  1.00  0.00     0.001 A 
ATOM     71  C   UNL A   1      51.454  28.207  27.561  1.00  0.00     0.000 A 
ENDBRANCH  52  66
BRANCH  53  72
ATOM     72  C   UNL A   1      38.901  29.563  29.435  1.00  0.00    -0.014 A 
ATOM     73  C   UNL A   1      38.340  29.183  30.665  1.00  0.00     0.009 A 
ATOM     74  C   UNL A   1      38.055  30.065  28.433  1.00  0.00     0.009 A 
ATOM     75  C   UNL A   1      36.963  29.281  30.877  1.00  0.00     0.001 A 
ATOM     76  C   UNL A   1      36.683  30.192  28.658  1.00  0.00     0.001 A 
ATOM     77  C   UNL A   1      36.137  29.792  29.876  1.00  0.00     0.000 A 
ENDBRANCH  53  72
BRANCH  65  78
ATOM     78  C   UNL A   1      44.322  33.827  30.401  1.00  0.00    -0.014 A 
ATOM     79  C   UNL A   1      44.149  34.922  29.539  1.00  0.00     0.009 A 
ATOM     80  C   UNL A   1      44.576  34.071  31.761  1.00  0.00     0.009 A 
ATOM     81  C   UNL A   1      44.278  36.228  30.020  1.00  0.00     0.001 A 
ATOM     82  C   UNL A   1      44.667  35.377  32.245  1.00  0.00     0.001 A 
ATOM     83  C   UNL A   1      44.533  36.455  31.371  1.00  0.00     0.000 A 
ENDBRANCH  65  78
ENDBRANCH  39  40
ENDBRANCH  32  34
ENDBRANCH  31  32
ENDBRANCH  30  31
ENDBRANCH  29  30
ENDBRANCH  28  29
ENDBRANCH  27  28
ENDBRANCH   1  27
TORSDOF 21
ENDMDL
