MODEL 1
REMARK VINA RESULT:      -9.1      0.000      0.000
REMARK SMILES CCOc1ccc(-c2csc3ncn([C@H](C)C(=O)OCCOCCOCCOC(=O)c4ccc(-c5c6nc(c(-c7ccccc7)c7ccc([nH]7)c(-c7ccccc7)c7nc(c(-c8ccccc8)c8ccc5[nH]8)C=C7)C=C6)cc4)c(=O)c23)cc1
REMARK SMILES IDX 23 1 22 2 21 3 20 4 19 5 17 6 18 7 15 8 16 9 14 10 8 11 9 12
REMARK SMILES IDX 81 13 10 14 11 15 79 16 12 17 80 18 13 19 7 20 4 21 5 22
REMARK SMILES IDX 83 23 6 24 82 25 3 26 2 27 1 28 24 29 25 30 26 31 27 32
REMARK SMILES IDX 28 33 29 34 30 35 31 36 32 37 78 38 33 39 77 40 34 41 35 42
REMARK SMILES IDX 36 43 71 44 37 45 76 46 70 47 72 48 38 49 75 50 69 51 68 52
REMARK SMILES IDX 39 54 61 55 46 56 60 57 47 58 50 59 59 60 73 61 48 62 49 63
REMARK SMILES IDX 58 65 74 66 51 67 40 68 41 69 45 70 42 71 44 72 43 73 62 74
REMARK SMILES IDX 63 75 67 76 64 77 66 78 65 79 52 80 53 81 57 82 54 83 56 84
REMARK SMILES IDX 55 85
REMARK H PARENT 72 53 50 64
REMARK Flexibility Score: inf
ROOT
ATOM      1  C   UNL A   1      44.539  43.333  25.779  1.00  0.00     0.188 C 
ENDROOT
BRANCH   1   2
ATOM      2  O   UNL A   1      45.627  44.007  26.345  1.00  0.00    -0.376 OA
BRANCH   2   3
ATOM      3  C   UNL A   1      46.483  44.760  25.502  1.00  0.00     0.202 C 
BRANCH   3   4
ATOM      4  C   UNL A   1      47.016  44.321  24.113  1.00  0.00     0.261 C 
BRANCH   4   5
ATOM      5  O   UNL A   1      46.724  45.106  22.937  1.00  0.00    -0.462 OA
BRANCH   5   6
ATOM      6  C   UNL A   1      45.633  44.704  22.232  1.00  0.00     0.329 C 
ATOM      7  O   UNL A   1      44.494  45.021  22.568  1.00  0.00    -0.250 OA
BRANCH   6   8
ATOM      8  C   UNL A   1      45.904  43.743  21.039  1.00  0.00     0.198 C 
ATOM      9  C   UNL A   1      46.392  42.327  21.338  1.00  0.00     0.044 C 
BRANCH   8  10
ATOM     10  N   UNL A   1      44.705  43.806  20.193  1.00  0.00    -0.284 N 
ATOM     11  C   UNL A   1      42.962  46.274  18.077  1.00  0.00     0.007 A 
ATOM     12  C   UNL A   1      41.646  46.126  17.669  1.00  0.00     0.076 A 
ATOM     13  C   UNL A   1      43.453  45.040  18.609  1.00  0.00     0.085 A 
ATOM     14  S   UNL A   1      40.990  44.601  18.084  1.00  0.00    -0.123 S 
ATOM     15  C   UNL A   1      42.435  44.145  18.855  1.00  0.00     0.131 A 
ATOM     16  C   UNL A   1      44.759  44.680  19.107  1.00  0.00     0.263 A 
ATOM     17  N   UNL A   1      42.499  43.064  19.671  1.00  0.00    -0.227 NA
ATOM     18  O   UNL A   1      45.805  45.056  18.586  1.00  0.00    -0.268 OA
ATOM     19  C   UNL A   1      43.596  42.998  20.359  1.00  0.00     0.204 A 
BRANCH  11  20
ATOM     20  C   UNL A   1      43.586  47.597  18.101  1.00  0.00    -0.016 A 
ATOM     21  C   UNL A   1      44.748  50.160  18.029  1.00  0.00     0.119 A 
ATOM     22  C   UNL A   1      44.901  49.347  19.152  1.00  0.00     0.047 A 
ATOM     23  C   UNL A   1      44.013  49.701  16.944  1.00  0.00     0.047 A 
ATOM     24  C   UNL A   1      44.319  48.071  19.192  1.00  0.00     0.012 A 
ATOM     25  C   UNL A   1      43.418  48.440  16.990  1.00  0.00     0.012 A 
BRANCH  21  26
ATOM     26  O   UNL A   1      45.463  51.323  17.979  1.00  0.00    -0.494 OA
BRANCH  26  27
ATOM     27  C   UNL A   1      45.888  51.715  16.668  1.00  0.00     0.226 C 
ATOM     28  C   UNL A   1      47.263  51.172  16.313  1.00  0.00     0.049 C 
ENDBRANCH  26  27
ENDBRANCH  21  26
ENDBRANCH  11  20
ENDBRANCH   8  10
ENDBRANCH   6   8
ENDBRANCH   5   6
ENDBRANCH   4   5
ENDBRANCH   3   4
ENDBRANCH   2   3
ENDBRANCH   1   2
BRANCH   1  29
ATOM     29  C   UNL A   1      44.157  42.012  26.455  1.00  0.00     0.188 C 
BRANCH  29  30
ATOM     30  O   UNL A   1      43.534  40.922  25.792  1.00  0.00    -0.376 OA
BRANCH  30  31
ATOM     31  C   UNL A   1      42.843  39.869  26.451  1.00  0.00     0.202 C 
BRANCH  31  32
ATOM     32  C   UNL A   1      43.420  39.102  27.639  1.00  0.00     0.261 C 
BRANCH  32  33
ATOM     33  O   UNL A   1      43.506  37.715  27.430  1.00  0.00    -0.460 OA
BRANCH  33  34
ATOM     34  C   UNL A   1      44.782  37.280  27.367  1.00  0.00     0.338 C 
ATOM     35  O   UNL A   1      45.769  37.899  27.020  1.00  0.00    -0.246 OA
BRANCH  34  36
ATOM     36  C   UNL A   1      44.797  35.886  27.815  1.00  0.00     0.060 A 
ATOM     37  C   UNL A   1      44.132  34.970  27.000  1.00  0.00     0.016 A 
ATOM     38  C   UNL A   1      45.209  35.587  29.119  1.00  0.00     0.016 A 
ATOM     39  C   UNL A   1      43.603  33.859  27.602  1.00  0.00     0.010 A 
ATOM     40  C   UNL A   1      44.665  34.490  29.725  1.00  0.00     0.010 A 
ATOM     41  C   UNL A   1      43.776  33.721  28.982  1.00  0.00    -0.014 A 
BRANCH  41  42
ATOM     42  C   UNL A   1      42.939  32.762  29.655  1.00  0.00     0.031 A 
ATOM     43  C   UNL A   1      43.329  31.375  29.384  1.00  0.00     0.074 A 
ATOM     44  C   UNL A   1      41.959  33.157  30.486  1.00  0.00     0.049 A 
ATOM     45  N   UNL A   1      42.696  30.510  28.668  1.00  0.00    -0.248 NA
ATOM     46  C   UNL A   1      44.674  30.958  29.811  1.00  0.00     0.031 C 
ATOM     47  C   UNL A   1      41.741  34.511  31.017  1.00  0.00     0.029 A 
ATOM     48  N   UNL A   1      41.029  32.412  31.142  1.00  0.00    -0.354 N 
ATOM     49  C   UNL A   1      43.457  29.355  28.761  1.00  0.00     0.074 A 
ATOM     50  C   UNL A   1      44.749  29.748  29.262  1.00  0.00     0.031 C 
ATOM     51  C   UNL A   1      40.918  34.436  32.085  1.00  0.00     0.029 A 
ATOM     52  C   UNL A   1      40.450  33.066  32.218  1.00  0.00     0.049 A 
ATOM     53  H   UNL A   1      40.791  31.494  30.876  1.00  0.00     0.167 HD
ATOM     54  C   UNL A   1      42.852  28.139  28.790  1.00  0.00     0.031 A 
ATOM     55  C   UNL A   1      39.710  32.495  33.196  1.00  0.00     0.031 A 
ATOM     56  C   UNL A   1      41.487  28.212  28.338  1.00  0.00     0.049 A 
ATOM     57  C   UNL A   1      39.216  31.193  32.697  1.00  0.00     0.074 A 
ATOM     58  C   UNL A   1      40.835  28.408  27.143  1.00  0.00     0.029 A 
ATOM     59  N   UNL A   1      40.580  28.439  29.341  1.00  0.00    -0.354 N 
ATOM     60  N   UNL A   1      38.343  31.074  31.737  1.00  0.00    -0.248 NA
ATOM     61  C   UNL A   1      39.940  29.972  33.031  1.00  0.00     0.031 C 
ATOM     62  C   UNL A   1      39.558  28.951  27.472  1.00  0.00     0.029 A 
ATOM     63  C   UNL A   1      39.454  29.049  28.860  1.00  0.00     0.049 A 
ATOM     64  H   UNL A   1      40.720  28.195  30.285  1.00  0.00     0.167 HD
ATOM     65  C   UNL A   1      38.718  29.921  31.071  1.00  0.00     0.074 A 
ATOM     66  C   UNL A   1      39.568  29.199  32.007  1.00  0.00     0.031 C 
ATOM     67  C   UNL A   1      38.571  29.816  29.718  1.00  0.00     0.031 A 
BRANCH  54  68
ATOM     68  C   UNL A   1      43.297  27.045  29.734  1.00  0.00    -0.014 A 
ATOM     69  C   UNL A   1      43.322  27.325  31.109  1.00  0.00     0.009 A 
ATOM     70  C   UNL A   1      43.976  25.883  29.313  1.00  0.00     0.009 A 
ATOM     71  C   UNL A   1      44.031  26.513  32.003  1.00  0.00     0.001 A 
ATOM     72  C   UNL A   1      44.650  25.049  30.205  1.00  0.00     0.001 A 
ATOM     73  C   UNL A   1      44.698  25.379  31.550  1.00  0.00     0.000 A 
ENDBRANCH  54  68
BRANCH  55  74
ATOM     74  C   UNL A   1      39.636  32.871  34.622  1.00  0.00    -0.014 A 
ATOM     75  C   UNL A   1      40.807  33.090  35.362  1.00  0.00     0.009 A 
ATOM     76  C   UNL A   1      38.414  33.278  35.189  1.00  0.00     0.009 A 
ATOM     77  C   UNL A   1      40.762  33.743  36.599  1.00  0.00     0.001 A 
ATOM     78  C   UNL A   1      38.368  33.923  36.428  1.00  0.00     0.001 A 
ATOM     79  C   UNL A   1      39.546  34.173  37.124  1.00  0.00     0.000 A 
ENDBRANCH  55  74
BRANCH  67  80
ATOM     80  C   UNL A   1      37.547  30.700  29.064  1.00  0.00    -0.014 A 
ATOM     81  C   UNL A   1      36.327  30.235  28.549  1.00  0.00     0.009 A 
ATOM     82  C   UNL A   1      37.808  32.079  29.024  1.00  0.00     0.009 A 
ATOM     83  C   UNL A   1      35.413  31.124  27.973  1.00  0.00     0.001 A 
ATOM     84  C   UNL A   1      36.885  32.968  28.472  1.00  0.00     0.001 A 
ATOM     85  C   UNL A   1      35.693  32.489  27.937  1.00  0.00     0.000 A 
ENDBRANCH  67  80
ENDBRANCH  41  42
ENDBRANCH  34  36
ENDBRANCH  33  34
ENDBRANCH  32  33
ENDBRANCH  31  32
ENDBRANCH  30  31
ENDBRANCH  29  30
ENDBRANCH   1  29
TORSDOF 21
ENDMDL
MODEL 2
REMARK VINA RESULT:      -9.0     11.843     18.127
REMARK SMILES CCOc1ccc(-c2csc3ncn([C@H](C)C(=O)OCCOCCOCCOC(=O)c4ccc(-c5c6nc(c(-c7ccccc7)c7ccc([nH]7)c(-c7ccccc7)c7nc(c(-c8ccccc8)c8ccc5[nH]8)C=C7)C=C6)cc4)c(=O)c23)cc1
REMARK SMILES IDX 23 1 22 2 21 3 20 4 19 5 17 6 18 7 15 8 16 9 14 10 8 11 9 12
REMARK SMILES IDX 81 13 10 14 11 15 79 16 12 17 80 18 13 19 7 20 4 21 5 22
REMARK SMILES IDX 83 23 6 24 82 25 3 26 2 27 1 28 24 29 25 30 26 31 27 32
REMARK SMILES IDX 28 33 29 34 30 35 31 36 32 37 78 38 33 39 77 40 34 41 35 42
REMARK SMILES IDX 36 43 71 44 37 45 76 46 70 47 72 48 38 49 75 50 69 51 68 52
REMARK SMILES IDX 39 54 61 55 46 56 60 57 47 58 50 59 59 60 73 61 48 62 49 63
REMARK SMILES IDX 58 65 74 66 51 67 40 68 41 69 45 70 42 71 44 72 43 73 62 74
REMARK SMILES IDX 63 75 67 76 64 77 66 78 65 79 52 80 53 81 57 82 54 83 56 84
REMARK SMILES IDX 55 85
REMARK H PARENT 72 53 50 64
REMARK Flexibility Score: inf
ROOT
ATOM      1  C   UNL A   1      42.259  20.443  27.523  1.00  0.00     0.188 C 
ENDROOT
BRANCH   1   2
ATOM      2  O   UNL A   1      41.208  19.560  27.246  1.00  0.00    -0.376 OA
BRANCH   2   3
ATOM      3  C   UNL A   1      40.565  19.630  25.984  1.00  0.00     0.202 C 
BRANCH   3   4
ATOM      4  C   UNL A   1      39.119  20.128  25.721  1.00  0.00     0.261 C 
BRANCH   4   5
ATOM      5  O   UNL A   1      38.876  21.499  25.338  1.00  0.00    -0.462 OA
BRANCH   5   6
ATOM      6  C   UNL A   1      37.576  21.806  25.090  1.00  0.00     0.329 C 
ATOM      7  O   UNL A   1      36.980  21.355  24.114  1.00  0.00    -0.250 OA
BRANCH   6   8
ATOM      8  C   UNL A   1      36.919  22.835  26.054  1.00  0.00     0.198 C 
ATOM      9  C   UNL A   1      37.764  24.000  26.566  1.00  0.00     0.044 C 
BRANCH   8  10
ATOM     10  N   UNL A   1      35.657  23.234  25.417  1.00  0.00    -0.284 N 
ATOM     11  C   UNL A   1      32.619  21.618  24.090  1.00  0.00     0.007 A 
ATOM     12  C   UNL A   1      31.738  22.254  23.230  1.00  0.00     0.076 A 
ATOM     13  C   UNL A   1      33.511  22.573  24.672  1.00  0.00     0.085 A 
ATOM     14  S   UNL A   1      32.103  23.912  23.012  1.00  0.00    -0.123 S 
ATOM     15  C   UNL A   1      33.467  23.784  24.019  1.00  0.00     0.131 A 
ATOM     16  C   UNL A   1      34.557  22.410  25.654  1.00  0.00     0.263 A 
ATOM     17  N   UNL A   1      34.410  24.756  24.070  1.00  0.00    -0.227 NA
ATOM     18  O   UNL A   1      34.456  21.670  26.628  1.00  0.00    -0.268 OA
ATOM     19  C   UNL A   1      35.489  24.400  24.694  1.00  0.00     0.204 A 
BRANCH  11  20
ATOM     20  C   UNL A   1      32.669  20.157  24.151  1.00  0.00    -0.016 A 
ATOM     21  C   UNL A   1      32.771  17.354  24.396  1.00  0.00     0.119 A 
ATOM     22  C   UNL A   1      32.776  17.954  23.136  1.00  0.00     0.047 A 
ATOM     23  C   UNL A   1      32.710  18.148  25.534  1.00  0.00     0.047 A 
ATOM     24  C   UNL A   1      32.720  19.350  23.012  1.00  0.00     0.012 A 
ATOM     25  C   UNL A   1      32.636  19.536  25.411  1.00  0.00     0.012 A 
BRANCH  21  26
ATOM     26  O   UNL A   1      32.985  16.007  24.464  1.00  0.00    -0.494 OA
BRANCH  26  27
ATOM     27  C   UNL A   1      33.816  15.581  25.550  1.00  0.00     0.226 C 
ATOM     28  C   UNL A   1      35.293  15.830  25.288  1.00  0.00     0.049 C 
ENDBRANCH  26  27
ENDBRANCH  21  26
ENDBRANCH  11  20
ENDBRANCH   8  10
ENDBRANCH   6   8
ENDBRANCH   5   6
ENDBRANCH   4   5
ENDBRANCH   3   4
ENDBRANCH   2   3
ENDBRANCH   1   2
BRANCH   1  29
ATOM     29  C   UNL A   1      41.856  21.908  27.719  1.00  0.00     0.188 C 
BRANCH  29  30
ATOM     30  O   UNL A   1      41.954  22.909  26.718  1.00  0.00    -0.376 OA
BRANCH  30  31
ATOM     31  C   UNL A   1      42.436  22.683  25.400  1.00  0.00     0.202 C 
BRANCH  31  32
ATOM     32  C   UNL A   1      43.677  23.369  24.833  1.00  0.00     0.261 C 
BRANCH  32  33
ATOM     33  O   UNL A   1      44.858  22.623  24.988  1.00  0.00    -0.460 OA
BRANCH  33  34
ATOM     34  C   UNL A   1      45.968  23.383  24.885  1.00  0.00     0.338 C 
ATOM     35  O   UNL A   1      46.641  23.597  23.895  1.00  0.00    -0.246 OA
BRANCH  34  36
ATOM     36  C   UNL A   1      46.241  23.948  26.207  1.00  0.00     0.060 A 
ATOM     37  C   UNL A   1      45.638  23.307  27.289  1.00  0.00     0.016 A 
ATOM     38  C   UNL A   1      46.833  25.214  26.306  1.00  0.00     0.016 A 
ATOM     39  C   UNL A   1      45.352  24.066  28.393  1.00  0.00     0.010 A 
ATOM     40  C   UNL A   1      46.530  25.978  27.397  1.00  0.00     0.010 A 
ATOM     41  C   UNL A   1      45.692  25.421  28.357  1.00  0.00    -0.014 A 
BRANCH  41  42
ATOM     42  C   UNL A   1      45.087  26.275  29.347  1.00  0.00     0.031 A 
ATOM     43  C   UNL A   1      43.896  26.969  28.849  1.00  0.00     0.074 A 
ATOM     44  C   UNL A   1      45.570  26.336  30.600  1.00  0.00     0.049 A 
ATOM     45  N   UNL A   1      43.777  28.224  28.581  1.00  0.00    -0.248 NA
ATOM     46  C   UNL A   1      42.758  26.136  28.429  1.00  0.00     0.031 C 
ATOM     47  C   UNL A   1      46.556  25.436  31.213  1.00  0.00     0.029 A 
ATOM     48  N   UNL A   1      45.186  27.130  31.635  1.00  0.00    -0.354 N 
ATOM     49  C   UNL A   1      42.457  28.373  28.184  1.00  0.00     0.074 A 
ATOM     50  C   UNL A   1      41.961  27.054  27.886  1.00  0.00     0.031 C 
ATOM     51  C   UNL A   1      46.503  25.575  32.555  1.00  0.00     0.029 A 
ATOM     52  C   UNL A   1      45.591  26.661  32.875  1.00  0.00     0.049 A 
ATOM     53  H   UNL A   1      44.669  27.959  31.515  1.00  0.00     0.167 HD
ATOM     54  C   UNL A   1      41.772  29.502  28.500  1.00  0.00     0.031 A 
ATOM     55  C   UNL A   1      45.136  27.084  34.077  1.00  0.00     0.031 A 
ATOM     56  C   UNL A   1      42.655  30.567  28.899  1.00  0.00     0.049 A 
ATOM     57  C   UNL A   1      44.523  28.418  33.892  1.00  0.00     0.074 A 
ATOM     58  C   UNL A   1      43.565  31.398  28.286  1.00  0.00     0.029 A 
ATOM     59  N   UNL A   1      42.906  30.608  30.247  1.00  0.00    -0.354 N 
ATOM     60  N   UNL A   1      45.202  29.487  33.586  1.00  0.00    -0.248 NA
ATOM     61  C   UNL A   1      43.079  28.528  33.713  1.00  0.00     0.031 C 
ATOM     62  C   UNL A   1      44.492  31.785  29.298  1.00  0.00     0.029 A 
ATOM     63  C   UNL A   1      44.112  31.201  30.507  1.00  0.00     0.049 A 
ATOM     64  H   UNL A   1      42.298  30.258  30.938  1.00  0.00     0.167 HD
ATOM     65  C   UNL A   1      44.349  30.219  32.781  1.00  0.00     0.074 A 
ATOM     66  C   UNL A   1      43.021  29.685  33.047  1.00  0.00     0.031 C 
ATOM     67  C   UNL A   1      44.833  30.961  31.742  1.00  0.00     0.031 A 
BRANCH  54  68
ATOM     68  C   UNL A   1      40.341  29.462  28.987  1.00  0.00    -0.014 A 
ATOM     69  C   UNL A   1      40.091  28.956  30.272  1.00  0.00     0.009 A 
ATOM     70  C   UNL A   1      39.225  29.604  28.135  1.00  0.00     0.009 A 
ATOM     71  C   UNL A   1      38.804  28.566  30.662  1.00  0.00     0.001 A 
ATOM     72  C   UNL A   1      37.935  29.254  28.534  1.00  0.00     0.001 A 
ATOM     73  C   UNL A   1      37.728  28.711  29.792  1.00  0.00     0.000 A 
ENDBRANCH  54  68
BRANCH  55  74
ATOM     74  C   UNL A   1      44.947  26.295  35.311  1.00  0.00    -0.014 A 
ATOM     75  C   UNL A   1      43.923  25.340  35.395  1.00  0.00     0.009 A 
ATOM     76  C   UNL A   1      45.938  26.286  36.309  1.00  0.00     0.009 A 
ATOM     77  C   UNL A   1      43.922  24.377  36.411  1.00  0.00     0.001 A 
ATOM     78  C   UNL A   1      45.933  25.329  37.328  1.00  0.00     0.001 A 
ATOM     79  C   UNL A   1      44.935  24.362  37.367  1.00  0.00     0.000 A 
ENDBRANCH  55  74
BRANCH  67  80
ATOM     80  C   UNL A   1      46.271  31.392  31.813  1.00  0.00    -0.014 A 
ATOM     81  C   UNL A   1      47.335  30.659  31.266  1.00  0.00     0.009 A 
ATOM     82  C   UNL A   1      46.550  32.630  32.413  1.00  0.00     0.009 A 
ATOM     83  C   UNL A   1      48.647  31.137  31.354  1.00  0.00     0.001 A 
ATOM     84  C   UNL A   1      47.855  33.118  32.479  1.00  0.00     0.001 A 
ATOM     85  C   UNL A   1      48.904  32.367  31.959  1.00  0.00     0.000 A 
ENDBRANCH  67  80
ENDBRANCH  41  42
ENDBRANCH  34  36
ENDBRANCH  33  34
ENDBRANCH  32  33
ENDBRANCH  31  32
ENDBRANCH  30  31
ENDBRANCH  29  30
ENDBRANCH   1  29
TORSDOF 21
ENDMDL
MODEL 3
REMARK VINA RESULT:      -8.9      9.194     13.973
REMARK SMILES CCOc1ccc(-c2csc3ncn([C@H](C)C(=O)OCCOCCOCCOC(=O)c4ccc(-c5c6nc(c(-c7ccccc7)c7ccc([nH]7)c(-c7ccccc7)c7nc(c(-c8ccccc8)c8ccc5[nH]8)C=C7)C=C6)cc4)c(=O)c23)cc1
REMARK SMILES IDX 23 1 22 2 21 3 20 4 19 5 17 6 18 7 15 8 16 9 14 10 8 11 9 12
REMARK SMILES IDX 81 13 10 14 11 15 79 16 12 17 80 18 13 19 7 20 4 21 5 22
REMARK SMILES IDX 83 23 6 24 82 25 3 26 2 27 1 28 24 29 25 30 26 31 27 32
REMARK SMILES IDX 28 33 29 34 30 35 31 36 32 37 78 38 33 39 77 40 34 41 35 42
REMARK SMILES IDX 36 43 71 44 37 45 76 46 70 47 72 48 38 49 75 50 69 51 68 52
REMARK SMILES IDX 39 54 61 55 46 56 60 57 47 58 50 59 59 60 73 61 48 62 49 63
REMARK SMILES IDX 58 65 74 66 51 67 40 68 41 69 45 70 42 71 44 72 43 73 62 74
REMARK SMILES IDX 63 75 67 76 64 77 66 78 65 79 52 80 53 81 57 82 54 83 56 84
REMARK SMILES IDX 55 85
REMARK H PARENT 72 53 50 64
REMARK Flexibility Score: inf
ROOT
ATOM      1  C   UNL A   1      39.456  31.623  35.174  1.00  0.00     0.188 C 
ENDROOT
BRANCH   1   2
ATOM      2  O   UNL A   1      40.577  32.414  34.897  1.00  0.00    -0.376 OA
BRANCH   2   3
ATOM      3  C   UNL A   1      40.398  33.648  34.222  1.00  0.00     0.202 C 
BRANCH   3   4
ATOM      4  C   UNL A   1      39.106  34.117  33.500  1.00  0.00     0.261 C 
BRANCH   4   5
ATOM      5  O   UNL A   1      38.992  34.014  32.065  1.00  0.00    -0.462 OA
BRANCH   5   6
ATOM      6  C   UNL A   1      38.648  32.783  31.601  1.00  0.00     0.329 C 
ATOM      7  O   UNL A   1      37.824  32.081  32.181  1.00  0.00    -0.250 OA
BRANCH   6   8
ATOM      8  C   UNL A   1      39.429  32.279  30.353  1.00  0.00     0.198 C 
ATOM      9  C   UNL A   1      40.692  31.449  30.568  1.00  0.00     0.044 C 
BRANCH   8  10
ATOM     10  N   UNL A   1      38.428  31.649  29.482  1.00  0.00    -0.284 N 
ATOM     11  C   UNL A   1      34.946  32.241  28.420  1.00  0.00     0.007 A 
ATOM     12  C   UNL A   1      34.154  31.262  27.841  1.00  0.00     0.076 A 
ATOM     13  C   UNL A   1      36.313  31.822  28.435  1.00  0.00     0.085 A 
ATOM     14  S   UNL A   1      35.020  29.827  27.495  1.00  0.00    -0.123 S 
ATOM     15  C   UNL A   1      36.443  30.478  28.162  1.00  0.00     0.131 A 
ATOM     16  C   UNL A   1      37.505  32.504  28.880  1.00  0.00     0.263 A 
ATOM     17  N   UNL A   1      37.517  29.703  28.447  1.00  0.00    -0.227 NA
ATOM     18  O   UNL A   1      37.706  33.700  28.689  1.00  0.00    -0.268 OA
ATOM     19  C   UNL A   1      38.415  30.304  29.163  1.00  0.00     0.204 A 
BRANCH  11  20
ATOM     20  C   UNL A   1      34.333  33.399  29.072  1.00  0.00    -0.016 A 
ATOM     21  C   UNL A   1      33.102  35.657  30.216  1.00  0.00     0.119 A 
ATOM     22  C   UNL A   1      33.973  34.871  30.969  1.00  0.00     0.047 A 
ATOM     23  C   UNL A   1      32.838  35.318  28.895  1.00  0.00     0.047 A 
ATOM     24  C   UNL A   1      34.584  33.743  30.403  1.00  0.00     0.012 A 
ATOM     25  C   UNL A   1      33.431  34.185  28.336  1.00  0.00     0.012 A 
BRANCH  21  26
ATOM     26  O   UNL A   1      32.659  36.828  30.764  1.00  0.00    -0.494 OA
BRANCH  26  27
ATOM     27  C   UNL A   1      32.832  36.935  32.182  1.00  0.00     0.226 C 
ATOM     28  C   UNL A   1      33.988  37.847  32.563  1.00  0.00     0.049 C 
ENDBRANCH  26  27
ENDBRANCH  21  26
ENDBRANCH  11  20
ENDBRANCH   8  10
ENDBRANCH   6   8
ENDBRANCH   5   6
ENDBRANCH   4   5
ENDBRANCH   3   4
ENDBRANCH   2   3
ENDBRANCH   1   2
BRANCH   1  29
ATOM     29  C   UNL A   1      39.704  30.111  35.193  1.00  0.00     0.188 C 
BRANCH  29  30
ATOM     30  O   UNL A   1      40.610  29.457  36.068  1.00  0.00    -0.376 OA
BRANCH  30  31
ATOM     31  C   UNL A   1      41.783  28.774  35.646  1.00  0.00     0.202 C 
BRANCH  31  32
ATOM     32  C   UNL A   1      43.138  28.931  36.333  1.00  0.00     0.261 C 
BRANCH  32  33
ATOM     33  O   UNL A   1      43.971  27.807  36.207  1.00  0.00    -0.460 OA
BRANCH  33  34
ATOM     34  C   UNL A   1      45.279  28.136  36.151  1.00  0.00     0.338 C 
ATOM     35  O   UNL A   1      45.922  28.790  36.949  1.00  0.00    -0.246 OA
BRANCH  34  36
ATOM     36  C   UNL A   1      45.833  27.544  34.932  1.00  0.00     0.060 A 
ATOM     37  C   UNL A   1      47.002  28.124  34.442  1.00  0.00     0.016 A 
ATOM     38  C   UNL A   1      45.054  26.651  34.185  1.00  0.00     0.016 A 
ATOM     39  C   UNL A   1      47.224  28.053  33.092  1.00  0.00     0.010 A 
ATOM     40  C   UNL A   1      45.262  26.597  32.836  1.00  0.00     0.010 A 
ATOM     41  C   UNL A   1      46.268  27.399  32.309  1.00  0.00    -0.014 A 
BRANCH  41  42
ATOM     42  C   UNL A   1      46.318  27.626  30.888  1.00  0.00     0.031 A 
ATOM     43  C   UNL A   1      45.538  28.795  30.469  1.00  0.00     0.074 A 
ATOM     44  C   UNL A   1      47.074  26.854  30.087  1.00  0.00     0.049 A 
ATOM     45  N   UNL A   1      44.429  28.800  29.814  1.00  0.00    -0.248 NA
ATOM     46  C   UNL A   1      45.948  30.103  31.002  1.00  0.00     0.031 C 
ATOM     47  C   UNL A   1      48.096  25.884  30.502  1.00  0.00     0.029 A 
ATOM     48  N   UNL A   1      47.186  26.866  28.731  1.00  0.00    -0.354 N 
ATOM     49  C   UNL A   1      44.131  30.144  29.643  1.00  0.00     0.074 A 
ATOM     50  C   UNL A   1      44.948  30.873  30.578  1.00  0.00     0.031 C 
ATOM     51  C   UNL A   1      48.882  25.595  29.442  1.00  0.00     0.029 A 
ATOM     52  C   UNL A   1      48.333  26.245  28.263  1.00  0.00     0.049 A 
ATOM     53  H   UNL A   1      46.515  27.278  28.140  1.00  0.00     0.167 HD
ATOM     54  C   UNL A   1      43.534  30.571  28.500  1.00  0.00     0.031 A 
ATOM     55  C   UNL A   1      48.838  26.337  27.011  1.00  0.00     0.031 A 
ATOM     56  C   UNL A   1      42.950  29.480  27.764  1.00  0.00     0.049 A 
ATOM     57  C   UNL A   1      47.753  26.787  26.112  1.00  0.00     0.074 A 
ATOM     58  C   UNL A   1      41.872  28.638  27.906  1.00  0.00     0.029 A 
ATOM     59  N   UNL A   1      43.796  28.911  26.846  1.00  0.00    -0.354 N 
ATOM     60  N   UNL A   1      46.712  26.060  25.819  1.00  0.00    -0.248 NA
ATOM     61  C   UNL A   1      47.634  28.203  25.778  1.00  0.00     0.031 C 
ATOM     62  C   UNL A   1      42.198  27.451  27.185  1.00  0.00     0.029 A 
ATOM     63  C   UNL A   1      43.456  27.608  26.602  1.00  0.00     0.049 A 
ATOM     64  H   UNL A   1      44.550  29.379  26.418  1.00  0.00     0.167 HD
ATOM     65  C   UNL A   1      45.680  26.972  25.686  1.00  0.00     0.074 A 
ATOM     66  C   UNL A   1      46.332  28.259  25.485  1.00  0.00     0.031 C 
ATOM     67  C   UNL A   1      44.411  26.653  26.074  1.00  0.00     0.031 A 
BRANCH  54  68
ATOM     68  C   UNL A   1      43.967  31.835  27.794  1.00  0.00    -0.014 A 
ATOM     69  C   UNL A   1      43.690  33.067  28.408  1.00  0.00     0.009 A 
ATOM     70  C   UNL A   1      44.344  31.878  26.435  1.00  0.00     0.009 A 
ATOM     71  C   UNL A   1      43.738  34.266  27.687  1.00  0.00     0.001 A 
ATOM     72  C   UNL A   1      44.433  33.074  25.723  1.00  0.00     0.001 A 
ATOM     73  C   UNL A   1      44.105  34.269  26.345  1.00  0.00     0.000 A 
ENDBRANCH  54  68
BRANCH  55  74
ATOM     74  C   UNL A   1      50.254  26.333  26.595  1.00  0.00    -0.014 A 
ATOM     75  C   UNL A   1      51.255  25.909  27.482  1.00  0.00     0.009 A 
ATOM     76  C   UNL A   1      50.599  26.487  25.239  1.00  0.00     0.009 A 
ATOM     77  C   UNL A   1      52.539  25.598  27.018  1.00  0.00     0.001 A 
ATOM     78  C   UNL A   1      51.883  26.184  24.778  1.00  0.00     0.001 A 
ATOM     79  C   UNL A   1      52.848  25.720  25.665  1.00  0.00     0.000 A 
ENDBRANCH  55  74
BRANCH  67  80
ATOM     80  C   UNL A   1      44.053  25.194  26.131  1.00  0.00    -0.014 A 
ATOM     81  C   UNL A   1      44.120  24.418  27.298  1.00  0.00     0.009 A 
ATOM     82  C   UNL A   1      43.569  24.596  24.957  1.00  0.00     0.009 A 
ATOM     83  C   UNL A   1      43.749  23.069  27.277  1.00  0.00     0.001 A 
ATOM     84  C   UNL A   1      43.177  23.258  24.942  1.00  0.00     0.001 A 
ATOM     85  C   UNL A   1      43.277  22.492  26.100  1.00  0.00     0.000 A 
ENDBRANCH  67  80
ENDBRANCH  41  42
ENDBRANCH  34  36
ENDBRANCH  33  34
ENDBRANCH  32  33
ENDBRANCH  31  32
ENDBRANCH  30  31
ENDBRANCH  29  30
ENDBRANCH   1  29
TORSDOF 21
ENDMDL
