MODEL 1
REMARK VINA RESULT:     -11.3      0.000      0.000
REMARK SMILES Cc1cc(=O)n2cc(-c3ccccc3)nc2n1[C@H](C)C(=O)OCCOCCOCCOC(=O)c1ccc(-c2c3nc(c(-c4ccccc4)c4ccc([nH]4)c(-c4ccccc4)c4nc(c(-c5ccccc5)c5ccc2[nH]5)C=C4)C=C3)cc1
REMARK SMILES IDX 26 1 25 2 24 3 23 4 22 5 20 6 21 7 18 8 19 9 17 10 1 11 2 12
REMARK SMILES IDX 3 13 4 14 16 15 5 16 6 17 15 18 7 19 8 20 9 21 10 22 14 23
REMARK SMILES IDX 11 24 13 25 12 26 27 27 28 28 29 29 30 30 31 31 32 32 33 33
REMARK SMILES IDX 34 34 35 35 81 36 36 37 80 38 37 39 38 40 39 41 74 42 40 43
REMARK SMILES IDX 79 44 73 45 75 46 41 47 78 48 72 49 71 50 42 52 64 53 49 54
REMARK SMILES IDX 63 55 50 56 53 57 62 58 76 59 51 60 52 61 61 63 77 64 54 65
REMARK SMILES IDX 43 66 44 67 48 68 45 69 47 70 46 71 65 72 66 73 70 74 67 75
REMARK SMILES IDX 69 76 68 77 55 78 56 79 60 80 57 81 59 82 58 83
REMARK H PARENT 75 51 53 62
REMARK Flexibility Score: inf
ROOT
ATOM      1  C   UNL A   1      34.372  32.121  27.972  1.00  0.00     0.188 C 
ENDROOT
BRANCH   1   2
ATOM      2  O   UNL A   1      33.597  30.978  27.723  1.00  0.00    -0.376 OA
BRANCH   2   3
ATOM      3  C   UNL A   1      34.236  29.788  27.282  1.00  0.00     0.202 C 
BRANCH   3   4
ATOM      4  C   UNL A   1      33.711  28.882  26.148  1.00  0.00     0.261 C 
BRANCH   4   5
ATOM      5  O   UNL A   1      33.756  27.465  26.361  1.00  0.00    -0.462 OA
BRANCH   5   6
ATOM      6  C   UNL A   1      32.587  26.874  26.740  1.00  0.00     0.329 C 
ATOM      7  O   UNL A   1      31.741  27.427  27.444  1.00  0.00    -0.250 OA
BRANCH   6   8
ATOM      8  C   UNL A   1      32.382  25.435  26.188  1.00  0.00     0.197 C 
ATOM      9  C   UNL A   1      31.062  24.704  26.438  1.00  0.00     0.044 C 
BRANCH   8  10
ATOM     10  N   UNL A   1      32.680  25.376  24.733  1.00  0.00    -0.301 N 
ATOM     11  C   UNL A   1      34.402  23.533  24.989  1.00  0.00     0.065 C 
ATOM     12  C   UNL A   1      33.623  24.516  24.145  1.00  0.00     0.024 A 
ATOM     13  C   UNL A   1      33.833  24.528  22.813  1.00  0.00     0.093 A 
ATOM     14  C   UNL A   1      33.051  25.433  21.935  1.00  0.00     0.259 A 
ATOM     15  C   UNL A   1      31.885  26.162  23.946  1.00  0.00     0.218 A 
ATOM     16  O   UNL A   1      33.196  25.510  20.723  1.00  0.00    -0.269 OA
ATOM     17  N   UNL A   1      32.094  26.200  22.589  1.00  0.00    -0.251 N 
ATOM     18  N   UNL A   1      30.906  26.957  24.303  1.00  0.00    -0.212 NA
ATOM     19  C   UNL A   1      31.203  27.125  22.075  1.00  0.00     0.127 A 
ATOM     20  C   UNL A   1      30.501  27.588  23.164  1.00  0.00     0.091 A 
BRANCH  20  21
ATOM     21  C   UNL A   1      29.497  28.624  23.193  1.00  0.00     0.002 A 
ATOM     22  C   UNL A   1      29.854  29.974  23.174  1.00  0.00     0.010 A 
ATOM     23  C   UNL A   1      28.141  28.268  23.148  1.00  0.00     0.010 A 
ATOM     24  C   UNL A   1      28.864  30.958  23.121  1.00  0.00     0.001 A 
ATOM     25  C   UNL A   1      27.152  29.253  23.100  1.00  0.00     0.001 A 
ATOM     26  C   UNL A   1      27.516  30.598  23.088  1.00  0.00     0.000 A 
ENDBRANCH  20  21
ENDBRANCH   8  10
ENDBRANCH   6   8
ENDBRANCH   5   6
ENDBRANCH   4   5
ENDBRANCH   3   4
ENDBRANCH   2   3
ENDBRANCH   1   2
BRANCH   1  27
ATOM     27  C   UNL A   1      33.627  33.442  28.227  1.00  0.00     0.188 C 
BRANCH  27  28
ATOM     28  O   UNL A   1      34.205  34.738  28.221  1.00  0.00    -0.376 OA
BRANCH  28  29
ATOM     29  C   UNL A   1      33.615  35.916  28.752  1.00  0.00     0.202 C 
BRANCH  29  30
ATOM     30  C   UNL A   1      32.993  35.964  30.143  1.00  0.00     0.261 C 
BRANCH  30  31
ATOM     31  O   UNL A   1      33.905  35.647  31.164  1.00  0.00    -0.460 OA
BRANCH  31  32
ATOM     32  C   UNL A   1      33.339  35.001  32.195  1.00  0.00     0.338 C 
ATOM     33  O   UNL A   1      32.154  34.956  32.508  1.00  0.00    -0.246 OA
BRANCH  32  34
ATOM     34  C   UNL A   1      34.403  34.311  32.915  1.00  0.00     0.060 A 
ATOM     35  C   UNL A   1      35.489  35.082  33.333  1.00  0.00     0.016 A 
ATOM     36  C   UNL A   1      34.430  32.913  32.863  1.00  0.00     0.016 A 
ATOM     37  C   UNL A   1      36.714  34.473  33.356  1.00  0.00     0.010 A 
ATOM     38  C   UNL A   1      35.651  32.312  32.857  1.00  0.00     0.010 A 
ATOM     39  C   UNL A   1      36.768  33.134  32.964  1.00  0.00    -0.014 A 
BRANCH  39  40
ATOM     40  C   UNL A   1      38.045  32.581  32.605  1.00  0.00     0.031 A 
ATOM     41  C   UNL A   1      38.957  32.508  33.752  1.00  0.00     0.074 A 
ATOM     42  C   UNL A   1      38.265  32.100  31.368  1.00  0.00     0.049 A 
ATOM     43  N   UNL A   1      39.978  33.261  33.976  1.00  0.00    -0.248 NA
ATOM     44  C   UNL A   1      38.556  31.662  34.889  1.00  0.00     0.031 C 
ATOM     45  C   UNL A   1      37.306  31.889  30.277  1.00  0.00     0.029 A 
ATOM     46  N   UNL A   1      39.407  31.576  30.865  1.00  0.00    -0.354 N 
ATOM     47  C   UNL A   1      40.480  32.821  35.191  1.00  0.00     0.074 A 
ATOM     48  C   UNL A   1      39.438  32.045  35.809  1.00  0.00     0.031 C 
ATOM     49  C   UNL A   1      37.854  31.053  29.363  1.00  0.00     0.029 A 
ATOM     50  C   UNL A   1      39.231  30.784  29.740  1.00  0.00     0.049 A 
ATOM     51  H   UNL A   1      40.290  31.744  31.265  1.00  0.00     0.167 HD
ATOM     52  C   UNL A   1      41.815  32.840  35.440  1.00  0.00     0.031 A 
ATOM     53  C   UNL A   1      40.140  29.908  29.239  1.00  0.00     0.031 A 
ATOM     54  C   UNL A   1      42.519  33.679  34.505  1.00  0.00     0.049 A 
ATOM     55  C   UNL A   1      41.462  30.277  29.809  1.00  0.00     0.074 A 
ATOM     56  C   UNL A   1      42.454  35.018  34.174  1.00  0.00     0.029 A 
ATOM     57  N   UNL A   1      43.143  33.051  33.449  1.00  0.00    -0.354 N 
ATOM     58  N   UNL A   1      42.078  31.389  29.524  1.00  0.00    -0.248 NA
ATOM     59  C   UNL A   1      41.856  29.654  31.066  1.00  0.00     0.031 C 
ATOM     60  C   UNL A   1      42.621  35.057  32.759  1.00  0.00     0.029 A 
ATOM     61  C   UNL A   1      42.858  33.756  32.308  1.00  0.00     0.049 A 
ATOM     62  H   UNL A   1      43.697  32.240  33.505  1.00  0.00     0.167 HD
ATOM     63  C   UNL A   1      42.590  31.833  30.736  1.00  0.00     0.074 A 
ATOM     64  C   UNL A   1      42.499  30.681  31.633  1.00  0.00     0.031 C 
ATOM     65  C   UNL A   1      42.752  33.167  30.989  1.00  0.00     0.031 A 
BRANCH  52  66
ATOM     66  C   UNL A   1      42.497  31.759  36.232  1.00  0.00    -0.014 A 
ATOM     67  C   UNL A   1      43.406  32.131  37.232  1.00  0.00     0.009 A 
ATOM     68  C   UNL A   1      42.477  30.396  35.864  1.00  0.00     0.009 A 
ATOM     69  C   UNL A   1      44.279  31.195  37.797  1.00  0.00     0.001 A 
ATOM     70  C   UNL A   1      43.313  29.452  36.459  1.00  0.00     0.001 A 
ATOM     71  C   UNL A   1      44.233  29.859  37.411  1.00  0.00     0.000 A 
ENDBRANCH  52  66
BRANCH  53  72
ATOM     72  C   UNL A   1      39.886  28.584  28.621  1.00  0.00    -0.014 A 
ATOM     73  C   UNL A   1      40.438  28.254  27.372  1.00  0.00     0.009 A 
ATOM     74  C   UNL A   1      39.330  27.538  29.381  1.00  0.00     0.009 A 
ATOM     75  C   UNL A   1      40.463  26.925  26.920  1.00  0.00     0.001 A 
ATOM     76  C   UNL A   1      39.351  26.213  28.930  1.00  0.00     0.001 A 
ATOM     77  C   UNL A   1      39.932  25.904  27.705  1.00  0.00     0.000 A 
ENDBRANCH  53  72
BRANCH  65  78
ATOM     78  C   UNL A   1      42.560  34.137  29.846  1.00  0.00    -0.014 A 
ATOM     79  C   UNL A   1      41.309  34.679  29.496  1.00  0.00     0.009 A 
ATOM     80  C   UNL A   1      43.706  34.664  29.233  1.00  0.00     0.009 A 
ATOM     81  C   UNL A   1      41.213  35.710  28.552  1.00  0.00     0.001 A 
ATOM     82  C   UNL A   1      43.612  35.707  28.309  1.00  0.00     0.001 A 
ATOM     83  C   UNL A   1      42.367  36.229  27.968  1.00  0.00     0.000 A 
ENDBRANCH  65  78
ENDBRANCH  39  40
ENDBRANCH  32  34
ENDBRANCH  31  32
ENDBRANCH  30  31
ENDBRANCH  29  30
ENDBRANCH  28  29
ENDBRANCH  27  28
ENDBRANCH   1  27
TORSDOF 19
ENDMDL
MODEL 2
REMARK VINA RESULT:     -11.2      1.382      3.380
REMARK SMILES Cc1cc(=O)n2cc(-c3ccccc3)nc2n1[C@H](C)C(=O)OCCOCCOCCOC(=O)c1ccc(-c2c3nc(c(-c4ccccc4)c4ccc([nH]4)c(-c4ccccc4)c4nc(c(-c5ccccc5)c5ccc2[nH]5)C=C4)C=C3)cc1
REMARK SMILES IDX 26 1 25 2 24 3 23 4 22 5 20 6 21 7 18 8 19 9 17 10 1 11 2 12
REMARK SMILES IDX 3 13 4 14 16 15 5 16 6 17 15 18 7 19 8 20 9 21 10 22 14 23
REMARK SMILES IDX 11 24 13 25 12 26 27 27 28 28 29 29 30 30 31 31 32 32 33 33
REMARK SMILES IDX 34 34 35 35 81 36 36 37 80 38 37 39 38 40 39 41 74 42 40 43
REMARK SMILES IDX 79 44 73 45 75 46 41 47 78 48 72 49 71 50 42 52 64 53 49 54
REMARK SMILES IDX 63 55 50 56 53 57 62 58 76 59 51 60 52 61 61 63 77 64 54 65
REMARK SMILES IDX 43 66 44 67 48 68 45 69 47 70 46 71 65 72 66 73 70 74 67 75
REMARK SMILES IDX 69 76 68 77 55 78 56 79 60 80 57 81 59 82 58 83
REMARK H PARENT 75 51 53 62
REMARK Flexibility Score: inf
ROOT
ATOM      1  C   UNL A   1      33.849  31.063  27.587  1.00  0.00     0.188 C 
ENDROOT
BRANCH   1   2
ATOM      2  O   UNL A   1      32.525  31.029  27.119  1.00  0.00    -0.376 OA
BRANCH   2   3
ATOM      3  C   UNL A   1      31.953  29.783  26.748  1.00  0.00     0.202 C 
BRANCH   3   4
ATOM      4  C   UNL A   1      31.984  28.510  27.621  1.00  0.00     0.261 C 
BRANCH   4   5
ATOM      5  O   UNL A   1      31.280  27.360  27.138  1.00  0.00    -0.462 OA
BRANCH   5   6
ATOM      6  C   UNL A   1      31.980  26.521  26.323  1.00  0.00     0.329 C 
ATOM      7  O   UNL A   1      33.210  26.454  26.309  1.00  0.00    -0.250 OA
BRANCH   6   8
ATOM      8  C   UNL A   1      31.098  25.619  25.412  1.00  0.00     0.197 C 
ATOM      9  C   UNL A   1      29.581  25.807  25.395  1.00  0.00     0.044 C 
BRANCH   8  10
ATOM     10  N   UNL A   1      31.588  25.640  24.009  1.00  0.00    -0.301 N 
ATOM     11  C   UNL A   1      30.984  28.077  23.659  1.00  0.00     0.065 C 
ATOM     12  C   UNL A   1      31.535  26.760  23.162  1.00  0.00     0.024 A 
ATOM     13  C   UNL A   1      32.003  26.694  21.899  1.00  0.00     0.093 A 
ATOM     14  C   UNL A   1      32.608  25.441  21.384  1.00  0.00     0.259 A 
ATOM     15  C   UNL A   1      32.213  24.497  23.596  1.00  0.00     0.218 A 
ATOM     16  O   UNL A   1      33.038  25.300  20.248  1.00  0.00    -0.269 OA
ATOM     17  N   UNL A   1      32.681  24.404  22.307  1.00  0.00    -0.251 N 
ATOM     18  N   UNL A   1      32.432  23.392  24.266  1.00  0.00    -0.212 NA
ATOM     19  C   UNL A   1      33.187  23.126  22.160  1.00  0.00     0.127 A 
ATOM     20  C   UNL A   1      32.997  22.522  23.381  1.00  0.00     0.091 A 
BRANCH  20  21
ATOM     21  C   UNL A   1      33.282  21.155  23.747  1.00  0.00     0.002 A 
ATOM     22  C   UNL A   1      34.413  20.832  24.499  1.00  0.00     0.010 A 
ATOM     23  C   UNL A   1      32.361  20.150  23.417  1.00  0.00     0.010 A 
ATOM     24  C   UNL A   1      34.626  19.514  24.910  1.00  0.00     0.001 A 
ATOM     25  C   UNL A   1      32.579  18.831  23.823  1.00  0.00     0.001 A 
ATOM     26  C   UNL A   1      33.713  18.515  24.569  1.00  0.00     0.000 A 
ENDBRANCH  20  21
ENDBRANCH   8  10
ENDBRANCH   6   8
ENDBRANCH   5   6
ENDBRANCH   4   5
ENDBRANCH   3   4
ENDBRANCH   2   3
ENDBRANCH   1   2
BRANCH   1  27
ATOM     27  C   UNL A   1      34.284  32.300  28.391  1.00  0.00     0.188 C 
BRANCH  27  28
ATOM     28  O   UNL A   1      34.179  33.649  27.964  1.00  0.00    -0.376 OA
BRANCH  28  29
ATOM     29  C   UNL A   1      33.251  34.607  28.452  1.00  0.00     0.202 C 
BRANCH  29  30
ATOM     30  C   UNL A   1      33.419  35.296  29.802  1.00  0.00     0.261 C 
BRANCH  30  31
ATOM     31  O   UNL A   1      33.280  34.416  30.888  1.00  0.00    -0.460 OA
BRANCH  31  32
ATOM     32  C   UNL A   1      33.318  35.037  32.077  1.00  0.00     0.338 C 
ATOM     33  O   UNL A   1      32.576  35.918  32.500  1.00  0.00    -0.246 OA
BRANCH  32  34
ATOM     34  C   UNL A   1      34.424  34.464  32.835  1.00  0.00     0.060 A 
ATOM     35  C   UNL A   1      35.509  35.301  33.102  1.00  0.00     0.016 A 
ATOM     36  C   UNL A   1      34.479  33.072  32.964  1.00  0.00     0.016 A 
ATOM     37  C   UNL A   1      36.747  34.720  33.151  1.00  0.00     0.010 A 
ATOM     38  C   UNL A   1      35.711  32.495  32.984  1.00  0.00     0.010 A 
ATOM     39  C   UNL A   1      36.814  33.342  32.935  1.00  0.00    -0.014 A 
BRANCH  39  40
ATOM     40  C   UNL A   1      38.087  32.767  32.596  1.00  0.00     0.031 A 
ATOM     41  C   UNL A   1      38.994  32.719  33.749  1.00  0.00     0.074 A 
ATOM     42  C   UNL A   1      38.306  32.250  31.374  1.00  0.00     0.049 A 
ATOM     43  N   UNL A   1      40.021  33.468  33.954  1.00  0.00    -0.248 NA
ATOM     44  C   UNL A   1      38.582  31.909  34.907  1.00  0.00     0.031 C 
ATOM     45  C   UNL A   1      37.349  32.016  30.286  1.00  0.00     0.029 A 
ATOM     46  N   UNL A   1      39.446  31.701  30.890  1.00  0.00    -0.354 N 
ATOM     47  C   UNL A   1      40.515  33.059  35.183  1.00  0.00     0.074 A 
ATOM     48  C   UNL A   1      39.465  32.310  35.819  1.00  0.00     0.031 C 
ATOM     49  C   UNL A   1      37.892  31.150  29.398  1.00  0.00     0.029 A 
ATOM     50  C   UNL A   1      39.266  30.879  29.788  1.00  0.00     0.049 A 
ATOM     51  H   UNL A   1      40.329  31.872  31.289  1.00  0.00     0.167 HD
ATOM     52  C   UNL A   1      41.850  33.072  35.436  1.00  0.00     0.031 A 
ATOM     53  C   UNL A   1      40.168  29.981  29.315  1.00  0.00     0.031 A 
ATOM     54  C   UNL A   1      42.565  33.878  34.480  1.00  0.00     0.049 A 
ATOM     55  C   UNL A   1      41.492  30.354  29.879  1.00  0.00     0.074 A 
ATOM     56  C   UNL A   1      42.513  35.208  34.111  1.00  0.00     0.029 A 
ATOM     57  N   UNL A   1      43.186  33.214  33.445  1.00  0.00    -0.354 N 
ATOM     58  N   UNL A   1      42.119  31.451  29.565  1.00  0.00    -0.248 NA
ATOM     59  C   UNL A   1      41.876  29.763  31.155  1.00  0.00     0.031 C 
ATOM     60  C   UNL A   1      42.685  35.204  32.696  1.00  0.00     0.029 A 
ATOM     61  C   UNL A   1      42.911  33.889  32.283  1.00  0.00     0.049 A 
ATOM     62  H   UNL A   1      43.733  32.400  33.526  1.00  0.00     0.167 HD
ATOM     63  C   UNL A   1      42.631  31.925  30.765  1.00  0.00     0.074 A 
ATOM     64  C   UNL A   1      42.526  30.799  31.695  1.00  0.00     0.031 C 
ATOM     65  C   UNL A   1      42.805  33.264  30.981  1.00  0.00     0.031 A 
BRANCH  52  66
ATOM     66  C   UNL A   1      42.519  32.008  36.261  1.00  0.00    -0.014 A 
ATOM     67  C   UNL A   1      43.318  32.400  37.343  1.00  0.00     0.009 A 
ATOM     68  C   UNL A   1      42.604  30.656  35.864  1.00  0.00     0.009 A 
ATOM     69  C   UNL A   1      44.189  31.497  37.962  1.00  0.00     0.001 A 
ATOM     70  C   UNL A   1      43.435  29.742  36.509  1.00  0.00     0.001 A 
ATOM     71  C   UNL A   1      44.248  30.171  37.545  1.00  0.00     0.000 A 
ENDBRANCH  52  66
BRANCH  53  72
ATOM     72  C   UNL A   1      39.905  28.642  28.734  1.00  0.00    -0.014 A 
ATOM     73  C   UNL A   1      40.534  28.235  27.546  1.00  0.00     0.009 A 
ATOM     74  C   UNL A   1      39.247  27.654  29.491  1.00  0.00     0.009 A 
ATOM     75  C   UNL A   1      40.535  26.887  27.152  1.00  0.00     0.001 A 
ATOM     76  C   UNL A   1      39.244  26.311  29.097  1.00  0.00     0.001 A 
ATOM     77  C   UNL A   1      39.902  25.925  27.935  1.00  0.00     0.000 A 
ENDBRANCH  53  72
BRANCH  65  78
ATOM     78  C   UNL A   1      42.625  34.203  29.810  1.00  0.00    -0.014 A 
ATOM     79  C   UNL A   1      41.382  34.753  29.446  1.00  0.00     0.009 A 
ATOM     80  C   UNL A   1      43.778  34.694  29.181  1.00  0.00     0.009 A 
ATOM     81  C   UNL A   1      41.301  35.758  28.473  1.00  0.00     0.001 A 
ATOM     82  C   UNL A   1      43.699  35.711  28.226  1.00  0.00     0.001 A 
ATOM     83  C   UNL A   1      42.461  36.241  27.872  1.00  0.00     0.000 A 
ENDBRANCH  65  78
ENDBRANCH  39  40
ENDBRANCH  32  34
ENDBRANCH  31  32
ENDBRANCH  30  31
ENDBRANCH  29  30
ENDBRANCH  28  29
ENDBRANCH  27  28
ENDBRANCH   1  27
TORSDOF 19
ENDMDL
MODEL 3
REMARK VINA RESULT:     -11.0      2.706      7.291
REMARK SMILES Cc1cc(=O)n2cc(-c3ccccc3)nc2n1[C@H](C)C(=O)OCCOCCOCCOC(=O)c1ccc(-c2c3nc(c(-c4ccccc4)c4ccc([nH]4)c(-c4ccccc4)c4nc(c(-c5ccccc5)c5ccc2[nH]5)C=C4)C=C3)cc1
REMARK SMILES IDX 26 1 25 2 24 3 23 4 22 5 20 6 21 7 18 8 19 9 17 10 1 11 2 12
REMARK SMILES IDX 3 13 4 14 16 15 5 16 6 17 15 18 7 19 8 20 9 21 10 22 14 23
REMARK SMILES IDX 11 24 13 25 12 26 27 27 28 28 29 29 30 30 31 31 32 32 33 33
REMARK SMILES IDX 34 34 35 35 81 36 36 37 80 38 37 39 38 40 39 41 74 42 40 43
REMARK SMILES IDX 79 44 73 45 75 46 41 47 78 48 72 49 71 50 42 52 64 53 49 54
REMARK SMILES IDX 63 55 50 56 53 57 62 58 76 59 51 60 52 61 61 63 77 64 54 65
REMARK SMILES IDX 43 66 44 67 48 68 45 69 47 70 46 71 65 72 66 73 70 74 67 75
REMARK SMILES IDX 69 76 68 77 55 78 56 79 60 80 57 81 59 82 58 83
REMARK H PARENT 75 51 53 62
REMARK Flexibility Score: inf
ROOT
ATOM      1  C   UNL A   1      33.199  28.769  22.607  1.00  0.00     0.188 C 
ENDROOT
BRANCH   1   2
ATOM      2  O   UNL A   1      33.397  27.423  22.259  1.00  0.00    -0.376 OA
BRANCH   2   3
ATOM      3  C   UNL A   1      32.322  26.687  21.693  1.00  0.00     0.202 C 
BRANCH   3   4
ATOM      4  C   UNL A   1      31.560  25.555  22.415  1.00  0.00     0.261 C 
BRANCH   4   5
ATOM      5  O   UNL A   1      32.325  24.433  22.872  1.00  0.00    -0.462 OA
BRANCH   5   6
ATOM      6  C   UNL A   1      31.694  23.581  23.731  1.00  0.00     0.329 C 
ATOM      7  O   UNL A   1      30.781  22.827  23.393  1.00  0.00    -0.250 OA
BRANCH   6   8
ATOM      8  C   UNL A   1      32.237  23.612  25.187  1.00  0.00     0.197 C 
ATOM      9  C   UNL A   1      31.635  22.685  26.244  1.00  0.00     0.044 C 
BRANCH   8  10
ATOM     10  N   UNL A   1      33.714  23.446  25.208  1.00  0.00    -0.301 N 
ATOM     11  C   UNL A   1      34.154  25.916  25.567  1.00  0.00     0.065 C 
ATOM     12  C   UNL A   1      34.634  24.497  25.365  1.00  0.00     0.024 A 
ATOM     13  C   UNL A   1      35.961  24.259  25.372  1.00  0.00     0.093 A 
ATOM     14  C   UNL A   1      36.479  22.875  25.237  1.00  0.00     0.259 A 
ATOM     15  C   UNL A   1      34.153  22.152  25.164  1.00  0.00     0.218 A 
ATOM     16  O   UNL A   1      37.667  22.583  25.219  1.00  0.00    -0.269 OA
ATOM     17  N   UNL A   1      35.502  21.890  25.153  1.00  0.00    -0.251 N 
ATOM     18  N   UNL A   1      33.450  21.048  25.104  1.00  0.00    -0.212 NA
ATOM     19  C   UNL A   1      35.639  20.520  25.030  1.00  0.00     0.127 A 
ATOM     20  C   UNL A   1      34.353  20.033  24.981  1.00  0.00     0.091 A 
BRANCH  20  21
ATOM     21  C   UNL A   1      33.930  18.668  24.782  1.00  0.00     0.002 A 
ATOM     22  C   UNL A   1      34.766  17.739  24.159  1.00  0.00     0.010 A 
ATOM     23  C   UNL A   1      32.698  18.248  25.304  1.00  0.00     0.010 A 
ATOM     24  C   UNL A   1      34.368  16.405  24.050  1.00  0.00     0.001 A 
ATOM     25  C   UNL A   1      32.299  16.914  25.189  1.00  0.00     0.001 A 
ATOM     26  C   UNL A   1      33.136  15.994  24.561  1.00  0.00     0.000 A 
ENDBRANCH  20  21
ENDBRANCH   8  10
ENDBRANCH   6   8
ENDBRANCH   5   6
ENDBRANCH   4   5
ENDBRANCH   3   4
ENDBRANCH   2   3
ENDBRANCH   1   2
BRANCH   1  27
ATOM     27  C   UNL A   1      33.289  29.137  24.097  1.00  0.00     0.188 C 
BRANCH  27  28
ATOM     28  O   UNL A   1      32.192  29.413  24.954  1.00  0.00    -0.376 OA
BRANCH  28  29
ATOM     29  C   UNL A   1      32.272  29.706  26.341  1.00  0.00     0.202 C 
BRANCH  29  30
ATOM     30  C   UNL A   1      32.065  31.113  26.893  1.00  0.00     0.261 C 
BRANCH  30  31
ATOM     31  O   UNL A   1      33.228  31.656  27.463  1.00  0.00    -0.460 OA
BRANCH  31  32
ATOM     32  C   UNL A   1      33.081  32.934  27.844  1.00  0.00     0.338 C 
ATOM     33  O   UNL A   1      32.157  33.702  27.595  1.00  0.00    -0.246 OA
BRANCH  32  34
ATOM     34  C   UNL A   1      34.241  33.285  28.655  1.00  0.00     0.060 A 
ATOM     35  C   UNL A   1      35.244  34.031  28.035  1.00  0.00     0.016 A 
ATOM     36  C   UNL A   1      34.427  32.604  29.863  1.00  0.00     0.016 A 
ATOM     37  C   UNL A   1      36.532  33.802  28.439  1.00  0.00     0.010 A 
ATOM     38  C   UNL A   1      35.708  32.352  30.246  1.00  0.00     0.010 A 
ATOM     39  C   UNL A   1      36.726  32.845  29.437  1.00  0.00    -0.014 A 
BRANCH  39  40
ATOM     40  C   UNL A   1      38.045  32.302  29.612  1.00  0.00     0.031 A 
ATOM     41  C   UNL A   1      38.103  30.875  29.273  1.00  0.00     0.074 A 
ATOM     42  C   UNL A   1      39.080  33.096  29.938  1.00  0.00     0.049 A 
ATOM     43  N   UNL A   1      38.200  29.889  30.096  1.00  0.00    -0.248 NA
ATOM     44  C   UNL A   1      37.784  30.489  27.888  1.00  0.00     0.031 C 
ATOM     45  C   UNL A   1      39.131  34.561  30.007  1.00  0.00     0.029 A 
ATOM     46  N   UNL A   1      40.367  32.742  30.163  1.00  0.00    -0.354 N 
ATOM     47  C   UNL A   1      38.180  28.758  29.296  1.00  0.00     0.074 A 
ATOM     48  C   UNL A   1      37.667  29.170  28.016  1.00  0.00     0.031 C 
ATOM     49  C   UNL A   1      40.426  34.959  29.997  1.00  0.00     0.029 A 
ATOM     50  C   UNL A   1      41.278  33.783  30.052  1.00  0.00     0.049 A 
ATOM     51  H   UNL A   1      40.635  31.822  30.387  1.00  0.00     0.167 HD
ATOM     52  C   UNL A   1      38.898  27.655  29.631  1.00  0.00     0.031 A 
ATOM     53  C   UNL A   1      42.623  33.646  29.921  1.00  0.00     0.031 A 
ATOM     54  C   UNL A   1      39.315  27.690  31.009  1.00  0.00     0.049 A 
ATOM     55  C   UNL A   1      42.968  32.270  30.364  1.00  0.00     0.074 A 
ATOM     56  C   UNL A   1      38.647  27.752  32.216  1.00  0.00     0.029 A 
ATOM     57  N   UNL A   1      40.605  28.100  31.261  1.00  0.00    -0.354 N 
ATOM     58  N   UNL A   1      42.846  31.865  31.596  1.00  0.00    -0.248 NA
ATOM     59  C   UNL A   1      42.965  31.214  29.360  1.00  0.00     0.031 C 
ATOM     60  C   UNL A   1      39.430  28.624  33.026  1.00  0.00     0.029 A 
ATOM     61  C   UNL A   1      40.571  28.987  32.307  1.00  0.00     0.049 A 
ATOM     62  H   UNL A   1      41.410  27.807  30.776  1.00  0.00     0.167 HD
ATOM     63  C   UNL A   1      42.312  30.586  31.500  1.00  0.00     0.074 A 
ATOM     64  C   UNL A   1      42.490  30.205  30.098  1.00  0.00     0.031 C 
ATOM     65  C   UNL A   1      41.503  30.082  32.479  1.00  0.00     0.031 A 
BRANCH  52  66
ATOM     66  C   UNL A   1      39.580  26.800  28.598  1.00  0.00    -0.014 A 
ATOM     67  C   UNL A   1      40.488  27.405  27.719  1.00  0.00     0.009 A 
ATOM     68  C   UNL A   1      39.174  25.484  28.289  1.00  0.00     0.009 A 
ATOM     69  C   UNL A   1      40.928  26.743  26.568  1.00  0.00     0.001 A 
ATOM     70  C   UNL A   1      39.647  24.803  27.168  1.00  0.00     0.001 A 
ATOM     71  C   UNL A   1      40.507  25.445  26.292  1.00  0.00     0.000 A 
ENDBRANCH  52  66
BRANCH  53  72
ATOM     72  C   UNL A   1      43.548  34.469  29.104  1.00  0.00    -0.014 A 
ATOM     73  C   UNL A   1      44.737  34.977  29.653  1.00  0.00     0.009 A 
ATOM     74  C   UNL A   1      43.402  34.528  27.705  1.00  0.00     0.009 A 
ATOM     75  C   UNL A   1      45.753  35.489  28.831  1.00  0.00     0.001 A 
ATOM     76  C   UNL A   1      44.413  35.041  26.885  1.00  0.00     0.001 A 
ATOM     77  C   UNL A   1      45.596  35.508  27.447  1.00  0.00     0.000 A 
ENDBRANCH  53  72
BRANCH  65  78
ATOM     78  C   UNL A   1      41.373  30.863  33.767  1.00  0.00    -0.014 A 
ATOM     79  C   UNL A   1      40.463  31.923  33.939  1.00  0.00     0.009 A 
ATOM     80  C   UNL A   1      42.054  30.384  34.896  1.00  0.00     0.009 A 
ATOM     81  C   UNL A   1      40.252  32.489  35.203  1.00  0.00     0.001 A 
ATOM     82  C   UNL A   1      41.827  30.934  36.160  1.00  0.00     0.001 A 
ATOM     83  C   UNL A   1      40.928  31.987  36.313  1.00  0.00     0.000 A 
ENDBRANCH  65  78
ENDBRANCH  39  40
ENDBRANCH  32  34
ENDBRANCH  31  32
ENDBRANCH  30  31
ENDBRANCH  29  30
ENDBRANCH  28  29
ENDBRANCH  27  28
ENDBRANCH   1  27
TORSDOF 19
ENDMDL
