MODEL 1
REMARK VINA RESULT:     -10.4      0.000      0.000
REMARK SMILES O=C(OCCOCCOCCOC(=O)c1cccc(Nc2nc(-c3ccc(F)cc3F)cs2)c1)c1ccc(-c2c3nc(c(-c4ccccc4)c4ccc([nH]4)c(-c4ccccc4)c4nc(c(-c5ccccc5)c5ccc2[nH]5)C=C4)C=C3)cc1
REMARK SMILES IDX 8 1 7 2 6 3 5 4 4 5 3 6 2 7 1 8 35 9 36 10 82 11 37 12 81 13
REMARK SMILES IDX 38 14 39 15 40 16 75 17 41 18 80 19 74 20 76 21 42 22 79 23
REMARK SMILES IDX 73 24 72 25 43 27 65 28 50 29 64 30 51 31 54 32 63 33 77 34
REMARK SMILES IDX 52 35 53 36 62 38 78 39 55 40 44 41 45 42 49 43 46 44 48 45
REMARK SMILES IDX 47 46 66 47 67 48 71 49 68 50 70 51 69 52 56 53 57 54 61 55
REMARK SMILES IDX 58 56 60 57 59 58 9 59 10 60 11 61 12 62 13 63 14 64 15 65
REMARK SMILES IDX 16 66 34 67 17 68 19 69 18 70 20 71 21 73 22 74 33 75 23 76
REMARK SMILES IDX 32 77 24 78 25 79 30 80 26 81 29 82 31 83 27 84 28 85
REMARK H PARENT 76 26 54 37 20 72
REMARK Flexibility Score: inf
ROOT
ATOM      1  C   UNL A   1      41.180  20.667  27.400  1.00  0.00     0.188 C 
ENDROOT
BRANCH   1   2
ATOM      2  C   UNL A   1      42.038  20.768  26.135  1.00  0.00     0.188 C 
BRANCH   2   3
ATOM      3  O   UNL A   1      42.031  19.534  25.402  1.00  0.00    -0.376 OA
BRANCH   3   4
ATOM      4  C   UNL A   1      42.638  18.447  26.110  1.00  0.00     0.202 C 
BRANCH   4   5
ATOM      5  C   UNL A   1      44.163  18.380  25.966  1.00  0.00     0.261 C 
BRANCH   5   6
ATOM      6  O   UNL A   1      44.581  18.494  24.596  1.00  0.00    -0.460 OA
BRANCH   6   7
ATOM      7  C   UNL A   1      44.724  19.623  23.857  1.00  0.00     0.338 C 
ATOM      8  O   UNL A   1      44.506  19.567  22.647  1.00  0.00    -0.246 OA
BRANCH   7   9
ATOM      9  C   UNL A   1      45.074  20.957  24.436  1.00  0.00     0.060 A 
ATOM     10  C   UNL A   1      45.729  21.155  25.652  1.00  0.00     0.016 A 
ATOM     11  C   UNL A   1      44.757  22.094  23.669  1.00  0.00     0.016 A 
ATOM     12  C   UNL A   1      45.926  22.434  26.162  1.00  0.00     0.010 A 
ATOM     13  C   UNL A   1      45.020  23.385  24.143  1.00  0.00     0.010 A 
ATOM     14  C   UNL A   1      45.560  23.559  25.421  1.00  0.00    -0.014 A 
BRANCH  14  15
ATOM     15  C   UNL A   1      45.670  24.884  26.069  1.00  0.00     0.031 A 
ATOM     16  C   UNL A   1      46.970  25.632  25.984  1.00  0.00     0.074 A 
ATOM     17  C   UNL A   1      44.567  25.473  26.565  1.00  0.00     0.049 A 
ATOM     18  N   UNL A   1      47.255  26.841  26.391  1.00  0.00    -0.248 NA
ATOM     19  C   UNL A   1      48.094  24.935  25.337  1.00  0.00     0.031 C 
ATOM     20  C   UNL A   1      43.235  24.865  26.613  1.00  0.00     0.029 A 
ATOM     21  N   UNL A   1      44.376  26.733  27.069  1.00  0.00    -0.354 N 
ATOM     22  C   UNL A   1      48.584  27.048  26.049  1.00  0.00     0.074 A 
ATOM     23  C   UNL A   1      49.060  25.835  25.425  1.00  0.00     0.031 C 
ATOM     24  C   UNL A   1      42.355  25.772  27.065  1.00  0.00     0.029 A 
ATOM     25  C   UNL A   1      43.066  27.004  27.385  1.00  0.00     0.049 A 
ATOM     26  H   UNL A   1      45.107  27.381  27.194  1.00  0.00     0.167 HD
ATOM     27  C   UNL A   1      49.341  28.155  26.232  1.00  0.00     0.031 A 
ATOM     28  C   UNL A   1      42.509  28.122  27.885  1.00  0.00     0.031 A 
ATOM     29  C   UNL A   1      48.873  29.349  26.879  1.00  0.00     0.049 A 
ATOM     30  C   UNL A   1      43.404  29.291  28.193  1.00  0.00     0.074 A 
ATOM     31  C   UNL A   1      49.575  30.494  27.205  1.00  0.00     0.029 A 
ATOM     32  N   UNL A   1      47.564  29.546  27.296  1.00  0.00    -0.354 N 
ATOM     33  N   UNL A   1      44.679  29.451  27.926  1.00  0.00    -0.248 NA
ATOM     34  C   UNL A   1      42.787  30.426  28.892  1.00  0.00     0.031 C 
ATOM     35  C   UNL A   1      48.697  31.372  27.850  1.00  0.00     0.029 A 
ATOM     36  C   UNL A   1      47.439  30.791  27.885  1.00  0.00     0.049 A 
ATOM     37  H   UNL A   1      46.832  28.895  27.188  1.00  0.00     0.167 HD
ATOM     38  C   UNL A   1      45.014  30.705  28.417  1.00  0.00     0.074 A 
ATOM     39  C   UNL A   1      43.801  31.275  28.971  1.00  0.00     0.031 C 
ATOM     40  C   UNL A   1      46.217  31.328  28.422  1.00  0.00     0.031 A 
BRANCH  27  41
ATOM     41  C   UNL A   1      50.765  28.085  25.766  1.00  0.00    -0.014 A 
ATOM     42  C   UNL A   1      51.787  27.642  26.621  1.00  0.00     0.009 A 
ATOM     43  C   UNL A   1      51.096  28.495  24.466  1.00  0.00     0.009 A 
ATOM     44  C   UNL A   1      53.117  27.645  26.194  1.00  0.00     0.001 A 
ATOM     45  C   UNL A   1      52.424  28.479  24.034  1.00  0.00     0.001 A 
ATOM     46  C   UNL A   1      53.434  28.063  24.902  1.00  0.00     0.000 A 
ENDBRANCH  27  41
BRANCH  28  47
ATOM     47  C   UNL A   1      41.057  28.177  28.198  1.00  0.00    -0.014 A 
ATOM     48  C   UNL A   1      40.151  28.846  27.361  1.00  0.00     0.009 A 
ATOM     49  C   UNL A   1      40.575  27.606  29.383  1.00  0.00     0.009 A 
ATOM     50  C   UNL A   1      38.807  28.971  27.727  1.00  0.00     0.001 A 
ATOM     51  C   UNL A   1      39.234  27.727  29.746  1.00  0.00     0.001 A 
ATOM     52  C   UNL A   1      38.350  28.416  28.922  1.00  0.00     0.000 A 
ENDBRANCH  28  47
BRANCH  40  53
ATOM     53  C   UNL A   1      46.261  32.703  29.019  1.00  0.00    -0.014 A 
ATOM     54  C   UNL A   1      46.561  32.892  30.375  1.00  0.00     0.009 A 
ATOM     55  C   UNL A   1      46.024  33.820  28.205  1.00  0.00     0.009 A 
ATOM     56  C   UNL A   1      46.591  34.179  30.915  1.00  0.00     0.001 A 
ATOM     57  C   UNL A   1      46.077  35.106  28.742  1.00  0.00     0.001 A 
ATOM     58  C   UNL A   1      46.353  35.284  30.098  1.00  0.00     0.000 A 
ENDBRANCH  40  53
ENDBRANCH  14  15
ENDBRANCH   7   9
ENDBRANCH   6   7
ENDBRANCH   5   6
ENDBRANCH   4   5
ENDBRANCH   3   4
ENDBRANCH   2   3
ENDBRANCH   1   2
BRANCH   1  59
ATOM     59  O   UNL A   1      39.952  21.396  27.361  1.00  0.00    -0.376 OA
BRANCH  59  60
ATOM     60  C   UNL A   1      39.380  21.624  26.076  1.00  0.00     0.202 C 
BRANCH  60  61
ATOM     61  C   UNL A   1      38.373  22.773  25.976  1.00  0.00     0.261 C 
BRANCH  61  62
ATOM     62  O   UNL A   1      37.000  22.373  26.144  1.00  0.00    -0.460 OA
BRANCH  62  63
ATOM     63  C   UNL A   1      36.545  21.531  25.191  1.00  0.00     0.338 C 
ATOM     64  O   UNL A   1      37.173  21.084  24.232  1.00  0.00    -0.246 OA
BRANCH  63  65
ATOM     65  C   UNL A   1      35.104  21.280  25.327  1.00  0.00     0.062 A 
ATOM     66  C   UNL A   1      34.481  20.154  24.793  1.00  0.00     0.016 A 
ATOM     67  C   UNL A   1      34.340  22.328  25.853  1.00  0.00     0.041 A 
ATOM     68  C   UNL A   1      33.085  20.095  24.784  1.00  0.00     0.003 A 
ATOM     69  C   UNL A   1      32.940  22.302  25.810  1.00  0.00     0.041 A 
ATOM     70  C   UNL A   1      32.322  21.160  25.289  1.00  0.00     0.026 A 
BRANCH  69  71
ATOM     71  N   UNL A   1      32.261  23.455  26.236  1.00  0.00    -0.332 N 
ATOM     72  H   UNL A   1      31.736  23.360  27.063  1.00  0.00     0.169 HD
BRANCH  71  73
ATOM     73  C   UNL A   1      32.232  24.677  25.663  1.00  0.00     0.187 A 
ATOM     74  N   UNL A   1      31.852  25.820  26.195  1.00  0.00    -0.220 NA
ATOM     75  S   UNL A   1      32.803  24.799  24.031  1.00  0.00    -0.105 S 
ATOM     76  C   UNL A   1      32.052  26.854  25.296  1.00  0.00     0.086 A 
ATOM     77  C   UNL A   1      32.497  26.477  24.047  1.00  0.00     0.097 A 
BRANCH  76  78
ATOM     78  C   UNL A   1      31.852  28.246  25.648  1.00  0.00     0.037 A 
ATOM     79  C   UNL A   1      31.147  29.105  24.794  1.00  0.00     0.016 A 
ATOM     80  C   UNL A   1      32.430  28.772  26.810  1.00  0.00     0.135 A 
ATOM     81  C   UNL A   1      31.038  30.463  25.105  1.00  0.00     0.040 A 
ATOM     82  C   UNL A   1      32.320  30.120  27.128  1.00  0.00     0.079 A 
ATOM     83  F   UNL A   1      33.162  27.998  27.620  1.00  0.00    -0.206 F 
ATOM     84  C   UNL A   1      31.625  30.956  26.268  1.00  0.00     0.126 A 
ATOM     85  F   UNL A   1      31.532  32.261  26.550  1.00  0.00    -0.207 F 
ENDBRANCH  76  78
ENDBRANCH  71  73
ENDBRANCH  69  71
ENDBRANCH  63  65
ENDBRANCH  62  63
ENDBRANCH  61  62
ENDBRANCH  60  61
ENDBRANCH  59  60
ENDBRANCH   1  59
TORSDOF 20
ENDMDL
MODEL 2
REMARK VINA RESULT:      -9.8      3.341      6.445
REMARK SMILES O=C(OCCOCCOCCOC(=O)c1cccc(Nc2nc(-c3ccc(F)cc3F)cs2)c1)c1ccc(-c2c3nc(c(-c4ccccc4)c4ccc([nH]4)c(-c4ccccc4)c4nc(c(-c5ccccc5)c5ccc2[nH]5)C=C4)C=C3)cc1
REMARK SMILES IDX 8 1 7 2 6 3 5 4 4 5 3 6 2 7 1 8 35 9 36 10 82 11 37 12 81 13
REMARK SMILES IDX 38 14 39 15 40 16 75 17 41 18 80 19 74 20 76 21 42 22 79 23
REMARK SMILES IDX 73 24 72 25 43 27 65 28 50 29 64 30 51 31 54 32 63 33 77 34
REMARK SMILES IDX 52 35 53 36 62 38 78 39 55 40 44 41 45 42 49 43 46 44 48 45
REMARK SMILES IDX 47 46 66 47 67 48 71 49 68 50 70 51 69 52 56 53 57 54 61 55
REMARK SMILES IDX 58 56 60 57 59 58 9 59 10 60 11 61 12 62 13 63 14 64 15 65
REMARK SMILES IDX 16 66 34 67 17 68 19 69 18 70 20 71 21 73 22 74 33 75 23 76
REMARK SMILES IDX 32 77 24 78 25 79 30 80 26 81 29 82 31 83 27 84 28 85
REMARK H PARENT 76 26 54 37 20 72
REMARK Flexibility Score: inf
ROOT
ATOM      1  C   UNL A   1      39.162  28.614  30.286  1.00  0.00     0.188 C 
ENDROOT
BRANCH   1   2
ATOM      2  C   UNL A   1      38.807  27.274  29.635  1.00  0.00     0.188 C 
BRANCH   2   3
ATOM      3  O   UNL A   1      39.950  26.686  28.998  1.00  0.00    -0.376 OA
BRANCH   3   4
ATOM      4  C   UNL A   1      39.700  26.266  27.652  1.00  0.00     0.202 C 
BRANCH   4   5
ATOM      5  C   UNL A   1      39.573  24.747  27.483  1.00  0.00     0.261 C 
BRANCH   5   6
ATOM      6  O   UNL A   1      40.760  24.057  27.911  1.00  0.00    -0.460 OA
BRANCH   6   7
ATOM      7  C   UNL A   1      41.903  23.846  27.211  1.00  0.00     0.338 C 
ATOM      8  O   UNL A   1      41.984  22.843  26.503  1.00  0.00    -0.246 OA
BRANCH   7   9
ATOM      9  C   UNL A   1      43.056  24.799  27.198  1.00  0.00     0.060 A 
ATOM     10  C   UNL A   1      43.803  25.167  28.317  1.00  0.00     0.016 A 
ATOM     11  C   UNL A   1      43.442  25.323  25.950  1.00  0.00     0.016 A 
ATOM     12  C   UNL A   1      44.796  26.136  28.231  1.00  0.00     0.010 A 
ATOM     13  C   UNL A   1      44.492  26.243  25.843  1.00  0.00     0.010 A 
ATOM     14  C   UNL A   1      45.140  26.694  26.997  1.00  0.00    -0.014 A 
BRANCH  14  15
ATOM     15  C   UNL A   1      46.107  27.813  26.986  1.00  0.00     0.031 A 
ATOM     16  C   UNL A   1      47.564  27.516  26.770  1.00  0.00     0.074 A 
ATOM     17  C   UNL A   1      45.656  29.081  26.990  1.00  0.00     0.049 A 
ATOM     18  N   UNL A   1      48.563  28.345  26.625  1.00  0.00    -0.248 NA
ATOM     19  C   UNL A   1      47.944  26.095  26.684  1.00  0.00     0.031 C 
ATOM     20  C   UNL A   1      44.250  29.474  27.106  1.00  0.00     0.029 A 
ATOM     21  N   UNL A   1      46.323  30.267  26.837  1.00  0.00    -0.354 N 
ATOM     22  C   UNL A   1      49.685  27.551  26.431  1.00  0.00     0.074 A 
ATOM     23  C   UNL A   1      49.253  26.174  26.501  1.00  0.00     0.031 C 
ATOM     24  C   UNL A   1      44.154  30.805  26.962  1.00  0.00     0.029 A 
ATOM     25  C   UNL A   1      45.491  31.361  26.795  1.00  0.00     0.049 A 
ATOM     26  H   UNL A   1      47.303  30.331  26.764  1.00  0.00     0.167 HD
ATOM     27  C   UNL A   1      50.964  27.934  26.207  1.00  0.00     0.031 A 
ATOM     28  C   UNL A   1      45.784  32.666  26.646  1.00  0.00     0.031 A 
ATOM     29  C   UNL A   1      51.394  29.304  26.167  1.00  0.00     0.049 A 
ATOM     30  C   UNL A   1      47.229  33.066  26.524  1.00  0.00     0.074 A 
ATOM     31  C   UNL A   1      52.675  29.809  26.043  1.00  0.00     0.029 A 
ATOM     32  N   UNL A   1      50.538  30.392  26.247  1.00  0.00    -0.354 N 
ATOM     33  N   UNL A   1      48.292  32.305  26.409  1.00  0.00    -0.248 NA
ATOM     34  C   UNL A   1      47.516  34.507  26.534  1.00  0.00     0.031 C 
ATOM     35  C   UNL A   1      52.596  31.206  26.081  1.00  0.00     0.029 A 
ATOM     36  C   UNL A   1      51.262  31.568  26.184  1.00  0.00     0.049 A 
ATOM     37  H   UNL A   1      49.558  30.335  26.335  1.00  0.00     0.167 HD
ATOM     38  C   UNL A   1      49.371  33.174  26.326  1.00  0.00     0.074 A 
ATOM     39  C   UNL A   1      48.831  34.518  26.373  1.00  0.00     0.031 C 
ATOM     40  C   UNL A   1      50.693  32.889  26.230  1.00  0.00     0.031 A 
BRANCH  27  41
ATOM     41  C   UNL A   1      51.978  26.841  26.043  1.00  0.00    -0.014 A 
ATOM     42  C   UNL A   1      52.775  26.425  27.121  1.00  0.00     0.009 A 
ATOM     43  C   UNL A   1      52.163  26.241  24.789  1.00  0.00     0.009 A 
ATOM     44  C   UNL A   1      53.761  25.452  26.937  1.00  0.00     0.001 A 
ATOM     45  C   UNL A   1      53.135  25.256  24.611  1.00  0.00     0.001 A 
ATOM     46  C   UNL A   1      53.940  24.869  25.683  1.00  0.00     0.000 A 
ENDBRANCH  27  41
BRANCH  28  47
ATOM     47  C   UNL A   1      44.713  33.697  26.677  1.00  0.00    -0.014 A 
ATOM     48  C   UNL A   1      44.289  34.278  27.881  1.00  0.00     0.009 A 
ATOM     49  C   UNL A   1      44.059  34.060  25.492  1.00  0.00     0.009 A 
ATOM     50  C   UNL A   1      43.211  35.170  27.896  1.00  0.00     0.001 A 
ATOM     51  C   UNL A   1      42.988  34.953  25.507  1.00  0.00     0.001 A 
ATOM     52  C   UNL A   1      42.558  35.503  26.711  1.00  0.00     0.000 A 
ENDBRANCH  28  47
BRANCH  40  53
ATOM     53  C   UNL A   1      51.629  34.057  26.141  1.00  0.00    -0.014 A 
ATOM     54  C   UNL A   1      52.212  34.604  27.293  1.00  0.00     0.009 A 
ATOM     55  C   UNL A   1      51.946  34.597  24.887  1.00  0.00     0.009 A 
ATOM     56  C   UNL A   1      53.076  35.695  27.191  1.00  0.00     0.001 A 
ATOM     57  C   UNL A   1      52.828  35.673  24.786  1.00  0.00     0.001 A 
ATOM     58  C   UNL A   1      53.386  36.226  25.939  1.00  0.00     0.000 A 
ENDBRANCH  40  53
ENDBRANCH  14  15
ENDBRANCH   7   9
ENDBRANCH   6   7
ENDBRANCH   5   6
ENDBRANCH   4   5
ENDBRANCH   3   4
ENDBRANCH   2   3
ENDBRANCH   1   2
BRANCH   1  59
ATOM     59  O   UNL A   1      38.206  29.657  30.089  1.00  0.00    -0.376 OA
BRANCH  59  60
ATOM     60  C   UNL A   1      36.973  29.293  29.474  1.00  0.00     0.202 C 
BRANCH  60  61
ATOM     61  C   UNL A   1      36.617  30.029  28.180  1.00  0.00     0.261 C 
BRANCH  61  62
ATOM     62  O   UNL A   1      35.626  29.363  27.375  1.00  0.00    -0.460 OA
BRANCH  62  63
ATOM     63  C   UNL A   1      34.455  30.030  27.269  1.00  0.00     0.338 C 
ATOM     64  O   UNL A   1      34.213  31.173  27.656  1.00  0.00    -0.246 OA
BRANCH  63  65
ATOM     65  C   UNL A   1      33.386  29.174  26.739  1.00  0.00     0.062 A 
ATOM     66  C   UNL A   1      32.323  28.724  27.519  1.00  0.00     0.016 A 
ATOM     67  C   UNL A   1      33.584  28.662  25.452  1.00  0.00     0.041 A 
ATOM     68  C   UNL A   1      31.468  27.751  26.998  1.00  0.00     0.003 A 
ATOM     69  C   UNL A   1      32.761  27.653  24.935  1.00  0.00     0.041 A 
ATOM     70  C   UNL A   1      31.685  27.220  25.717  1.00  0.00     0.026 A 
BRANCH  69  71
ATOM     71  N   UNL A   1      33.117  27.105  23.692  1.00  0.00    -0.332 N 
ATOM     72  H   UNL A   1      33.120  27.734  22.933  1.00  0.00     0.169 HD
BRANCH  71  73
ATOM     73  C   UNL A   1      33.456  25.832  23.397  1.00  0.00     0.187 A 
ATOM     74  N   UNL A   1      34.347  25.066  23.991  1.00  0.00    -0.220 NA
ATOM     75  S   UNL A   1      32.597  25.064  22.102  1.00  0.00    -0.105 S 
ATOM     76  C   UNL A   1      34.333  23.798  23.433  1.00  0.00     0.086 A 
ATOM     77  C   UNL A   1      33.495  23.635  22.351  1.00  0.00     0.097 A 
BRANCH  76  78
ATOM     78  C   UNL A   1      35.111  22.699  23.969  1.00  0.00     0.037 A 
ATOM     79  C   UNL A   1      36.506  22.682  23.844  1.00  0.00     0.016 A 
ATOM     80  C   UNL A   1      34.470  21.597  24.551  1.00  0.00     0.135 A 
ATOM     81  C   UNL A   1      37.233  21.575  24.290  1.00  0.00     0.040 A 
ATOM     82  C   UNL A   1      35.188  20.496  25.001  1.00  0.00     0.079 A 
ATOM     83  F   UNL A   1      33.136  21.548  24.633  1.00  0.00    -0.206 F 
ATOM     84  C   UNL A   1      36.568  20.494  24.862  1.00  0.00     0.126 A 
ATOM     85  F   UNL A   1      37.269  19.429  25.269  1.00  0.00    -0.207 F 
ENDBRANCH  76  78
ENDBRANCH  71  73
ENDBRANCH  69  71
ENDBRANCH  63  65
ENDBRANCH  62  63
ENDBRANCH  61  62
ENDBRANCH  60  61
ENDBRANCH  59  60
ENDBRANCH   1  59
TORSDOF 20
ENDMDL
MODEL 3
REMARK VINA RESULT:      -9.7      8.498     13.424
REMARK SMILES O=C(OCCOCCOCCOC(=O)c1cccc(Nc2nc(-c3ccc(F)cc3F)cs2)c1)c1ccc(-c2c3nc(c(-c4ccccc4)c4ccc([nH]4)c(-c4ccccc4)c4nc(c(-c5ccccc5)c5ccc2[nH]5)C=C4)C=C3)cc1
REMARK SMILES IDX 8 1 7 2 6 3 5 4 4 5 3 6 2 7 1 8 35 9 36 10 82 11 37 12 81 13
REMARK SMILES IDX 38 14 39 15 40 16 75 17 41 18 80 19 74 20 76 21 42 22 79 23
REMARK SMILES IDX 73 24 72 25 43 27 65 28 50 29 64 30 51 31 54 32 63 33 77 34
REMARK SMILES IDX 52 35 53 36 62 38 78 39 55 40 44 41 45 42 49 43 46 44 48 45
REMARK SMILES IDX 47 46 66 47 67 48 71 49 68 50 70 51 69 52 56 53 57 54 61 55
REMARK SMILES IDX 58 56 60 57 59 58 9 59 10 60 11 61 12 62 13 63 14 64 15 65
REMARK SMILES IDX 16 66 34 67 17 68 19 69 18 70 20 71 21 73 22 74 33 75 23 76
REMARK SMILES IDX 32 77 24 78 25 79 30 80 26 81 29 82 31 83 27 84 28 85
REMARK H PARENT 76 26 54 37 20 72
REMARK Flexibility Score: inf
ROOT
ATOM      1  C   UNL A   1      33.495  36.294  32.080  1.00  0.00     0.188 C 
ENDROOT
BRANCH   1   2
ATOM      2  C   UNL A   1      33.242  36.147  30.577  1.00  0.00     0.188 C 
BRANCH   2   3
ATOM      3  O   UNL A   1      34.163  35.220  29.982  1.00  0.00    -0.376 OA
BRANCH   3   4
ATOM      4  C   UNL A   1      34.162  35.255  28.552  1.00  0.00     0.202 C 
BRANCH   4   5
ATOM      5  C   UNL A   1      33.729  33.939  27.893  1.00  0.00     0.261 C 
BRANCH   5   6
ATOM      6  O   UNL A   1      34.025  32.800  28.720  1.00  0.00    -0.460 OA
BRANCH   6   7
ATOM      7  C   UNL A   1      34.357  31.545  28.326  1.00  0.00     0.338 C 
ATOM      8  O   UNL A   1      33.524  30.881  27.709  1.00  0.00    -0.246 OA
BRANCH   7   9
ATOM      9  C   UNL A   1      35.706  30.936  28.543  1.00  0.00     0.060 A 
ATOM     10  C   UNL A   1      35.948  29.576  28.731  1.00  0.00     0.016 A 
ATOM     11  C   UNL A   1      36.815  31.802  28.506  1.00  0.00     0.016 A 
ATOM     12  C   UNL A   1      37.225  29.107  29.025  1.00  0.00     0.010 A 
ATOM     13  C   UNL A   1      38.114  31.326  28.726  1.00  0.00     0.010 A 
ATOM     14  C   UNL A   1      38.315  29.979  29.040  1.00  0.00    -0.014 A 
BRANCH  14  15
ATOM     15  C   UNL A   1      39.622  29.450  29.489  1.00  0.00     0.031 A 
ATOM     16  C   UNL A   1      40.249  30.014  30.732  1.00  0.00     0.074 A 
ATOM     17  C   UNL A   1      40.139  28.362  28.889  1.00  0.00     0.049 A 
ATOM     18  N   UNL A   1      41.333  29.633  31.356  1.00  0.00    -0.248 NA
ATOM     19  C   UNL A   1      39.554  31.145  31.370  1.00  0.00     0.031 C 
ATOM     20  C   UNL A   1      39.558  27.684  27.728  1.00  0.00     0.029 A 
ATOM     21  N   UNL A   1      41.235  27.603  29.205  1.00  0.00    -0.354 N 
ATOM     22  C   UNL A   1      41.447  30.474  32.456  1.00  0.00     0.074 A 
ATOM     23  C   UNL A   1      40.341  31.401  32.403  1.00  0.00     0.031 C 
ATOM     24  C   UNL A   1      40.270  26.577  27.466  1.00  0.00     0.029 A 
ATOM     25  C   UNL A   1      41.383  26.495  28.404  1.00  0.00     0.049 A 
ATOM     26  H   UNL A   1      41.856  27.829  29.935  1.00  0.00     0.167 HD
ATOM     27  C   UNL A   1      42.388  30.468  33.428  1.00  0.00     0.031 A 
ATOM     28  C   UNL A   1      42.320  25.531  28.426  1.00  0.00     0.031 A 
ATOM     29  C   UNL A   1      43.503  29.563  33.461  1.00  0.00     0.049 A 
ATOM     30  C   UNL A   1      43.423  25.626  29.444  1.00  0.00     0.074 A 
ATOM     31  C   UNL A   1      44.567  29.526  34.342  1.00  0.00     0.029 A 
ATOM     32  N   UNL A   1      43.687  28.523  32.562  1.00  0.00    -0.354 N 
ATOM     33  N   UNL A   1      43.557  26.468  30.442  1.00  0.00    -0.248 NA
ATOM     34  C   UNL A   1      44.514  24.650  29.326  1.00  0.00     0.031 C 
ATOM     35  C   UNL A   1      45.415  28.482  33.955  1.00  0.00     0.029 A 
ATOM     36  C   UNL A   1      44.854  27.843  32.860  1.00  0.00     0.049 A 
ATOM     37  H   UNL A   1      43.078  28.301  31.820  1.00  0.00     0.167 HD
ATOM     38  C   UNL A   1      44.743  26.120  31.073  1.00  0.00     0.074 A 
ATOM     39  C   UNL A   1      45.273  24.972  30.364  1.00  0.00     0.031 C 
ATOM     40  C   UNL A   1      45.349  26.702  32.137  1.00  0.00     0.031 A 
BRANCH  27  41
ATOM     41  C   UNL A   1      42.261  31.514  34.497  1.00  0.00    -0.014 A 
ATOM     42  C   UNL A   1      41.688  31.211  35.742  1.00  0.00     0.009 A 
ATOM     43  C   UNL A   1      42.691  32.825  34.247  1.00  0.00     0.009 A 
ATOM     44  C   UNL A   1      41.516  32.210  36.703  1.00  0.00     0.001 A 
ATOM     45  C   UNL A   1      42.536  33.818  35.215  1.00  0.00     0.001 A 
ATOM     46  C   UNL A   1      41.940  33.512  36.438  1.00  0.00     0.000 A 
ENDBRANCH  27  41
BRANCH  28  47
ATOM     47  C   UNL A   1      42.311  24.435  27.420  1.00  0.00    -0.014 A 
ATOM     48  C   UNL A   1      41.718  23.194  27.693  1.00  0.00     0.009 A 
ATOM     49  C   UNL A   1      42.960  24.611  26.191  1.00  0.00     0.009 A 
ATOM     50  C   UNL A   1      41.812  22.146  26.770  1.00  0.00     0.001 A 
ATOM     51  C   UNL A   1      43.048  23.569  25.269  1.00  0.00     0.001 A 
ATOM     52  C   UNL A   1      42.480  22.332  25.561  1.00  0.00     0.000 A 
ENDBRANCH  28  47
BRANCH  40  53
ATOM     53  C   UNL A   1      46.631  26.081  32.604  1.00  0.00    -0.014 A 
ATOM     54  C   UNL A   1      47.867  26.502  32.092  1.00  0.00     0.009 A 
ATOM     55  C   UNL A   1      46.600  25.080  33.586  1.00  0.00     0.009 A 
ATOM     56  C   UNL A   1      49.049  25.908  32.535  1.00  0.00     0.001 A 
ATOM     57  C   UNL A   1      47.784  24.505  34.043  1.00  0.00     0.001 A 
ATOM     58  C   UNL A   1      49.008  24.913  33.511  1.00  0.00     0.000 A 
ENDBRANCH  40  53
ENDBRANCH  14  15
ENDBRANCH   7   9
ENDBRANCH   6   7
ENDBRANCH   5   6
ENDBRANCH   4   5
ENDBRANCH   3   4
ENDBRANCH   2   3
ENDBRANCH   1   2
BRANCH   1  59
ATOM     59  O   UNL A   1      33.307  35.104  32.847  1.00  0.00    -0.376 OA
BRANCH  59  60
ATOM     60  C   UNL A   1      34.376  34.716  33.706  1.00  0.00     0.202 C 
BRANCH  60  61
ATOM     61  C   UNL A   1      35.791  34.888  33.147  1.00  0.00     0.261 C 
BRANCH  61  62
ATOM     62  O   UNL A   1      36.805  35.076  34.152  1.00  0.00    -0.460 OA
BRANCH  62  63
ATOM     63  C   UNL A   1      37.927  34.349  33.954  1.00  0.00     0.338 C 
ATOM     64  O   UNL A   1      38.705  34.427  33.004  1.00  0.00    -0.246 OA
BRANCH  63  65
ATOM     65  C   UNL A   1      38.080  33.295  34.965  1.00  0.00     0.062 A 
ATOM     66  C   UNL A   1      38.099  31.939  34.644  1.00  0.00     0.016 A 
ATOM     67  C   UNL A   1      38.007  33.703  36.301  1.00  0.00     0.041 A 
ATOM     68  C   UNL A   1      38.038  31.000  35.676  1.00  0.00     0.003 A 
ATOM     69  C   UNL A   1      37.898  32.773  37.343  1.00  0.00     0.041 A 
ATOM     70  C   UNL A   1      37.939  31.414  37.014  1.00  0.00     0.026 A 
BRANCH  69  71
ATOM     71  N   UNL A   1      37.693  33.277  38.638  1.00  0.00    -0.332 N 
ATOM     72  H   UNL A   1      37.912  34.229  38.765  1.00  0.00     0.169 HD
BRANCH  71  73
ATOM     73  C   UNL A   1      37.237  32.631  39.733  1.00  0.00     0.187 A 
ATOM     74  N   UNL A   1      37.914  32.248  40.795  1.00  0.00    -0.220 NA
ATOM     75  S   UNL A   1      35.540  32.286  39.797  1.00  0.00    -0.105 S 
ATOM     76  C   UNL A   1      37.057  31.688  41.728  1.00  0.00     0.086 A 
ATOM     77  C   UNL A   1      35.743  31.564  41.329  1.00  0.00     0.097 A 
BRANCH  76  78
ATOM     78  C   UNL A   1      37.492  31.297  43.055  1.00  0.00     0.037 A 
ATOM     79  C   UNL A   1      37.474  32.216  44.113  1.00  0.00     0.016 A 
ATOM     80  C   UNL A   1      38.013  30.016  43.279  1.00  0.00     0.135 A 
ATOM     81  C   UNL A   1      37.977  31.849  45.364  1.00  0.00     0.040 A 
ATOM     82  C   UNL A   1      38.510  29.644  44.523  1.00  0.00     0.079 A 
ATOM     83  F   UNL A   1      38.104  29.131  42.280  1.00  0.00    -0.206 F 
ATOM     84  C   UNL A   1      38.490  30.569  45.556  1.00  0.00     0.126 A 
ATOM     85  F   UNL A   1      38.988  30.231  46.751  1.00  0.00    -0.207 F 
ENDBRANCH  76  78
ENDBRANCH  71  73
ENDBRANCH  69  71
ENDBRANCH  63  65
ENDBRANCH  62  63
ENDBRANCH  61  62
ENDBRANCH  60  61
ENDBRANCH  59  60
ENDBRANCH   1  59
TORSDOF 20
ENDMDL
