MODEL 1
REMARK VINA RESULT:     -10.2      0.000      0.000
REMARK SMILES CC(C)CCc1cc2c(cc1Cl)C=C(C(=O)OCCOCCOCCOC(=O)c1ccc(-c3c4nc(c(-c5ccccc5)c5ccc([nH]5)c(-c5ccccc5)c5nc(c(-c6ccccc6)c6ccc3[nH]6)C=C5)C=C4)cc1)[C@@H](C(F)(F)F)O2
REMARK SMILES IDX 21 1 20 2 19 3 18 4 17 5 15 6 16 7 14 8 6 9 7 10 11 11 8 12
REMARK SMILES IDX 10 13 12 14 9 15 82 16 13 17 77 18 5 19 4 20 2 21 1 22 3 23
REMARK SMILES IDX 78 24 79 25 80 26 81 27 22 28 23 29 24 30 25 31 26 32 27 33
REMARK SMILES IDX 28 34 29 35 30 36 76 37 31 38 75 39 32 40 33 41 34 42 69 43
REMARK SMILES IDX 35 44 74 45 68 46 70 47 36 48 73 49 67 50 66 51 37 53 59 54
REMARK SMILES IDX 44 55 58 56 45 57 48 58 57 59 71 60 46 61 47 62 56 64 72 65
REMARK SMILES IDX 49 66 38 67 39 68 43 69 40 70 42 71 41 72 60 73 61 74 65 75
REMARK SMILES IDX 62 76 64 77 63 78 50 79 51 80 55 81 52 82 54 83 53 84
REMARK H PARENT 70 52 48 63
REMARK Flexibility Score: inf
ROOT
ATOM      1  C   UNL A   1      40.913  22.706  26.577  1.00  0.00     0.188 C 
ENDROOT
BRANCH   1   2
ATOM      2  O   UNL A   1      39.556  22.495  26.891  1.00  0.00    -0.376 OA
BRANCH   2   3
ATOM      3  C   UNL A   1      38.582  22.288  25.882  1.00  0.00     0.202 C 
BRANCH   3   4
ATOM      4  C   UNL A   1      37.256  23.056  25.778  1.00  0.00     0.261 C 
BRANCH   4   5
ATOM      5  O   UNL A   1      36.096  22.275  25.480  1.00  0.00    -0.460 OA
BRANCH   5   6
ATOM      6  C   UNL A   1      34.939  22.748  26.002  1.00  0.00     0.338 C 
ATOM      7  O   UNL A   1      34.443  22.453  27.077  1.00  0.00    -0.246 OA
BRANCH   6   8
ATOM      8  C   UNL A   1      34.422  23.829  25.141  1.00  0.00     0.087 C 
ATOM      9  C   UNL A   1      32.304  28.050  23.457  1.00  0.00    -0.026 A 
ATOM     10  C   UNL A   1      32.671  26.825  22.868  1.00  0.00     0.052 A 
ATOM     11  C   UNL A   1      32.777  28.326  24.751  1.00  0.00     0.045 A 
ATOM     12  C   UNL A   1      33.354  25.850  23.596  1.00  0.00     0.128 A 
ATOM     13  C   UNL A   1      33.480  27.356  25.472  1.00  0.00     0.032 A 
ATOM     14  Cl  UNL A   1      32.504  29.840  25.536  1.00  0.00    -0.084 Cl
ATOM     15  C   UNL A   1      33.724  26.098  24.914  1.00  0.00     0.019 A 
ATOM     16  O   UNL A   1      33.595  24.675  22.944  1.00  0.00    -0.475 OA
ATOM     17  C   UNL A   1      34.295  25.033  25.714  1.00  0.00     0.027 C 
ATOM     18  C   UNL A   1      34.088  23.536  23.703  1.00  0.00     0.316 C 
BRANCH   9  19
ATOM     19  C   UNL A   1      31.391  28.989  22.696  1.00  0.00     0.037 C 
BRANCH  19  20
ATOM     20  C   UNL A   1      29.918  28.536  22.635  1.00  0.00     0.008 C 
BRANCH  20  21
ATOM     21  C   UNL A   1      28.907  29.456  23.354  1.00  0.00    -0.017 C 
ATOM     22  C   UNL A   1      29.040  30.916  22.925  1.00  0.00     0.007 C 
ATOM     23  C   UNL A   1      27.480  28.965  23.094  1.00  0.00     0.007 C 
ENDBRANCH  20  21
ENDBRANCH  19  20
ENDBRANCH   9  19
BRANCH  18  24
ATOM     24  C   UNL A   1      33.083  22.384  23.567  1.00  0.00     0.430 C 
ATOM     25  F   UNL A   1      33.645  21.197  23.897  1.00  0.00    -0.167 F 
ATOM     26  F   UNL A   1      32.018  22.551  24.386  1.00  0.00    -0.167 F 
ATOM     27  F   UNL A   1      32.609  22.274  22.305  1.00  0.00    -0.167 F 
ENDBRANCH  18  24
ENDBRANCH   6   8
ENDBRANCH   5   6
ENDBRANCH   4   5
ENDBRANCH   3   4
ENDBRANCH   2   3
ENDBRANCH   1   2
BRANCH   1  28
ATOM     28  C   UNL A   1      41.806  21.520  26.157  1.00  0.00     0.188 C 
BRANCH  28  29
ATOM     29  O   UNL A   1      42.687  21.632  25.059  1.00  0.00    -0.376 OA
BRANCH  29  30
ATOM     30  C   UNL A   1      44.087  21.680  25.284  1.00  0.00     0.202 C 
BRANCH  30  31
ATOM     31  C   UNL A   1      44.981  22.796  24.719  1.00  0.00     0.261 C 
BRANCH  31  32
ATOM     32  O   UNL A   1      44.360  24.079  24.579  1.00  0.00    -0.460 OA
BRANCH  32  33
ATOM     33  C   UNL A   1      45.080  25.129  25.059  1.00  0.00     0.338 C 
ATOM     34  O   UNL A   1      46.107  25.588  24.613  1.00  0.00    -0.246 OA
BRANCH  33  35
ATOM     35  C   UNL A   1      44.290  25.784  26.124  1.00  0.00     0.060 A 
ATOM     36  C   UNL A   1      43.351  25.062  26.860  1.00  0.00     0.016 A 
ATOM     37  C   UNL A   1      44.501  27.148  26.376  1.00  0.00     0.016 A 
ATOM     38  C   UNL A   1      42.634  25.707  27.869  1.00  0.00     0.010 A 
ATOM     39  C   UNL A   1      43.769  27.794  27.373  1.00  0.00     0.010 A 
ATOM     40  C   UNL A   1      42.847  27.072  28.143  1.00  0.00    -0.014 A 
BRANCH  40  41
ATOM     41  C   UNL A   1      42.246  27.677  29.356  1.00  0.00     0.031 A 
ATOM     42  C   UNL A   1      42.877  27.559  30.708  1.00  0.00     0.074 A 
ATOM     43  C   UNL A   1      41.095  28.358  29.205  1.00  0.00     0.049 A 
ATOM     44  N   UNL A   1      42.523  28.143  31.825  1.00  0.00    -0.248 NA
ATOM     45  C   UNL A   1      44.045  26.675  30.831  1.00  0.00     0.031 C 
ATOM     46  C   UNL A   1      40.378  28.513  27.938  1.00  0.00     0.029 A 
ATOM     47  N   UNL A   1      40.337  29.059  30.110  1.00  0.00    -0.354 N 
ATOM     48  C   UNL A   1      43.437  27.722  32.781  1.00  0.00     0.074 A 
ATOM     49  C   UNL A   1      44.333  26.792  32.123  1.00  0.00     0.031 C 
ATOM     50  C   UNL A   1      39.307  29.295  28.138  1.00  0.00     0.029 A 
ATOM     51  C   UNL A   1      39.243  29.670  29.547  1.00  0.00     0.049 A 
ATOM     52  H   UNL A   1      40.556  29.118  31.067  1.00  0.00     0.167 HD
ATOM     53  C   UNL A   1      43.524  28.097  34.080  1.00  0.00     0.031 A 
ATOM     54  C   UNL A   1      38.297  30.457  30.095  1.00  0.00     0.031 A 
ATOM     55  C   UNL A   1      42.610  29.005  34.729  1.00  0.00     0.049 A 
ATOM     56  C   UNL A   1      38.394  30.820  31.549  1.00  0.00     0.074 A 
ATOM     57  C   UNL A   1      42.652  29.477  36.031  1.00  0.00     0.029 A 
ATOM     58  N   UNL A   1      41.485  29.564  34.141  1.00  0.00    -0.354 N 
ATOM     59  N   UNL A   1      39.318  30.492  32.418  1.00  0.00    -0.248 NA
ATOM     60  C   UNL A   1      37.331  31.676  32.095  1.00  0.00     0.031 C 
ATOM     61  C   UNL A   1      41.514  30.253  36.253  1.00  0.00     0.029 A 
ATOM     62  C   UNL A   1      40.805  30.341  35.067  1.00  0.00     0.049 A 
ATOM     63  H   UNL A   1      41.210  29.429  33.205  1.00  0.00     0.167 HD
ATOM     64  C   UNL A   1      38.963  31.118  33.606  1.00  0.00     0.074 A 
ATOM     65  C   UNL A   1      37.749  31.861  33.340  1.00  0.00     0.031 C 
ATOM     66  C   UNL A   1      39.592  31.076  34.805  1.00  0.00     0.031 A 
BRANCH  53  67
ATOM     67  C   UNL A   1      44.652  27.545  34.912  1.00  0.00    -0.014 A 
ATOM     68  C   UNL A   1      44.453  26.391  35.687  1.00  0.00     0.009 A 
ATOM     69  C   UNL A   1      45.862  28.246  35.040  1.00  0.00     0.009 A 
ATOM     70  C   UNL A   1      45.430  25.964  36.591  1.00  0.00     0.001 A 
ATOM     71  C   UNL A   1      46.849  27.800  35.923  1.00  0.00     0.001 A 
ATOM     72  C   UNL A   1      46.627  26.668  36.706  1.00  0.00     0.000 A 
ENDBRANCH  53  67
BRANCH  54  73
ATOM     73  C   UNL A   1      37.211  30.988  29.229  1.00  0.00    -0.014 A 
ATOM     74  C   UNL A   1      37.290  32.289  28.704  1.00  0.00     0.009 A 
ATOM     75  C   UNL A   1      36.059  30.228  28.984  1.00  0.00     0.009 A 
ATOM     76  C   UNL A   1      36.226  32.828  27.979  1.00  0.00     0.001 A 
ATOM     77  C   UNL A   1      35.009  30.758  28.229  1.00  0.00     0.001 A 
ATOM     78  C   UNL A   1      35.089  32.060  27.738  1.00  0.00     0.000 A 
ENDBRANCH  54  73
BRANCH  66  79
ATOM     79  C   UNL A   1      38.997  31.859  35.946  1.00  0.00    -0.014 A 
ATOM     80  C   UNL A   1      38.041  31.258  36.782  1.00  0.00     0.009 A 
ATOM     81  C   UNL A   1      39.292  33.219  36.127  1.00  0.00     0.009 A 
ATOM     82  C   UNL A   1      37.376  32.005  37.755  1.00  0.00     0.001 A 
ATOM     83  C   UNL A   1      38.651  33.956  37.124  1.00  0.00     0.001 A 
ATOM     84  C   UNL A   1      37.685  33.353  37.929  1.00  0.00     0.000 A 
ENDBRANCH  66  79
ENDBRANCH  40  41
ENDBRANCH  33  35
ENDBRANCH  32  33
ENDBRANCH  31  32
ENDBRANCH  30  31
ENDBRANCH  29  30
ENDBRANCH  28  29
ENDBRANCH   1  28
TORSDOF 21
ENDMDL
MODEL 2
REMARK VINA RESULT:      -9.8      1.190      5.834
REMARK SMILES CC(C)CCc1cc2c(cc1Cl)C=C(C(=O)OCCOCCOCCOC(=O)c1ccc(-c3c4nc(c(-c5ccccc5)c5ccc([nH]5)c(-c5ccccc5)c5nc(c(-c6ccccc6)c6ccc3[nH]6)C=C5)C=C4)cc1)[C@@H](C(F)(F)F)O2
REMARK SMILES IDX 21 1 20 2 19 3 18 4 17 5 15 6 16 7 14 8 6 9 7 10 11 11 8 12
REMARK SMILES IDX 10 13 12 14 9 15 82 16 13 17 77 18 5 19 4 20 2 21 1 22 3 23
REMARK SMILES IDX 78 24 79 25 80 26 81 27 22 28 23 29 24 30 25 31 26 32 27 33
REMARK SMILES IDX 28 34 29 35 30 36 76 37 31 38 75 39 32 40 33 41 34 42 69 43
REMARK SMILES IDX 35 44 74 45 68 46 70 47 36 48 73 49 67 50 66 51 37 53 59 54
REMARK SMILES IDX 44 55 58 56 45 57 48 58 57 59 71 60 46 61 47 62 56 64 72 65
REMARK SMILES IDX 49 66 38 67 39 68 43 69 40 70 42 71 41 72 60 73 61 74 65 75
REMARK SMILES IDX 62 76 64 77 63 78 50 79 51 80 55 81 52 82 54 83 53 84
REMARK H PARENT 70 52 48 63
REMARK Flexibility Score: inf
ROOT
ATOM      1  C   UNL A   1      39.257  21.786  25.950  1.00  0.00     0.188 C 
ENDROOT
BRANCH   1   2
ATOM      2  O   UNL A   1      38.282  20.964  25.351  1.00  0.00    -0.376 OA
BRANCH   2   3
ATOM      3  C   UNL A   1      37.277  21.497  24.505  1.00  0.00     0.202 C 
BRANCH   3   4
ATOM      4  C   UNL A   1      35.767  21.318  24.724  1.00  0.00     0.261 C 
BRANCH   4   5
ATOM      5  O   UNL A   1      34.935  22.402  24.300  1.00  0.00    -0.460 OA
BRANCH   5   6
ATOM      6  C   UNL A   1      34.473  23.192  25.299  1.00  0.00     0.338 C 
ATOM      7  O   UNL A   1      34.748  23.112  26.485  1.00  0.00    -0.246 OA
BRANCH   6   8
ATOM      8  C   UNL A   1      33.695  24.304  24.721  1.00  0.00     0.087 C 
ATOM      9  C   UNL A   1      31.209  28.606  24.050  1.00  0.00    -0.026 A 
ATOM     10  C   UNL A   1      31.287  27.389  23.346  1.00  0.00     0.052 A 
ATOM     11  C   UNL A   1      32.151  28.840  25.065  1.00  0.00     0.045 A 
ATOM     12  C   UNL A   1      32.170  26.383  23.739  1.00  0.00     0.128 A 
ATOM     13  C   UNL A   1      33.051  27.839  25.444  1.00  0.00     0.032 A 
ATOM     14  Cl  UNL A   1      32.243  30.339  25.918  1.00  0.00    -0.084 Cl
ATOM     15  C   UNL A   1      33.026  26.591  24.816  1.00  0.00     0.019 A 
ATOM     16  O   UNL A   1      32.109  25.220  23.026  1.00  0.00    -0.475 OA
ATOM     17  C   UNL A   1      33.832  25.495  25.317  1.00  0.00     0.027 C 
ATOM     18  C   UNL A   1      32.824  24.054  23.519  1.00  0.00     0.316 C 
BRANCH   9  19
ATOM     19  C   UNL A   1      30.099  29.582  23.714  1.00  0.00     0.037 C 
BRANCH  19  20
ATOM     20  C   UNL A   1      29.337  29.256  22.413  1.00  0.00     0.008 C 
BRANCH  20  21
ATOM     21  C   UNL A   1      28.053  30.079  22.169  1.00  0.00    -0.017 C 
ATOM     22  C   UNL A   1      27.544  30.757  23.439  1.00  0.00     0.007 C 
ATOM     23  C   UNL A   1      28.307  31.130  21.084  1.00  0.00     0.007 C 
ENDBRANCH  20  21
ENDBRANCH  19  20
ENDBRANCH   9  19
BRANCH  18  24
ATOM     24  C   UNL A   1      31.813  22.925  23.763  1.00  0.00     0.430 C 
ATOM     25  F   UNL A   1      32.160  22.174  24.836  1.00  0.00    -0.167 F 
ATOM     26  F   UNL A   1      30.574  23.411  24.014  1.00  0.00    -0.167 F 
ATOM     27  F   UNL A   1      31.715  22.096  22.700  1.00  0.00    -0.167 F 
ENDBRANCH  18  24
ENDBRANCH   6   8
ENDBRANCH   5   6
ENDBRANCH   4   5
ENDBRANCH   3   4
ENDBRANCH   2   3
ENDBRANCH   1   2
BRANCH   1  28
ATOM     28  C   UNL A   1      40.672  21.237  26.226  1.00  0.00     0.188 C 
BRANCH  28  29
ATOM     29  O   UNL A   1      41.250  21.339  27.509  1.00  0.00    -0.376 OA
BRANCH  29  30
ATOM     30  C   UNL A   1      42.663  21.369  27.643  1.00  0.00     0.202 C 
BRANCH  30  31
ATOM     31  C   UNL A   1      43.598  21.780  26.494  1.00  0.00     0.261 C 
BRANCH  31  32
ATOM     32  O   UNL A   1      44.020  23.148  26.495  1.00  0.00    -0.460 OA
BRANCH  32  33
ATOM     33  C   UNL A   1      43.243  23.997  25.769  1.00  0.00     0.338 C 
ATOM     34  O   UNL A   1      42.885  23.874  24.620  1.00  0.00    -0.246 OA
BRANCH  33  35
ATOM     35  C   UNL A   1      42.706  25.029  26.683  1.00  0.00     0.060 A 
ATOM     36  C   UNL A   1      41.567  24.779  27.447  1.00  0.00     0.016 A 
ATOM     37  C   UNL A   1      43.362  26.266  26.761  1.00  0.00     0.016 A 
ATOM     38  C   UNL A   1      41.096  25.768  28.313  1.00  0.00     0.010 A 
ATOM     39  C   UNL A   1      42.879  27.260  27.613  1.00  0.00     0.010 A 
ATOM     40  C   UNL A   1      41.755  27.009  28.413  1.00  0.00    -0.014 A 
BRANCH  40  41
ATOM     41  C   UNL A   1      41.377  27.953  29.491  1.00  0.00     0.031 A 
ATOM     42  C   UNL A   1      40.242  28.919  29.351  1.00  0.00     0.074 A 
ATOM     43  C   UNL A   1      42.093  27.915  30.630  1.00  0.00     0.049 A 
ATOM     44  N   UNL A   1      39.729  29.710  30.259  1.00  0.00    -0.248 NA
ATOM     45  C   UNL A   1      39.602  29.018  28.031  1.00  0.00     0.031 C 
ATOM     46  C   UNL A   1      43.238  27.034  30.866  1.00  0.00     0.029 A 
ATOM     47  N   UNL A   1      41.958  28.614  31.804  1.00  0.00    -0.354 N 
ATOM     48  C   UNL A   1      38.689  30.384  29.635  1.00  0.00     0.074 A 
ATOM     49  C   UNL A   1      38.675  29.945  28.253  1.00  0.00     0.031 C 
ATOM     50  C   UNL A   1      43.676  27.215  32.119  1.00  0.00     0.029 A 
ATOM     51  C   UNL A   1      42.867  28.244  32.766  1.00  0.00     0.049 A 
ATOM     52  H   UNL A   1      41.279  29.311  31.942  1.00  0.00     0.167 HD
ATOM     53  C   UNL A   1      37.819  31.271  30.175  1.00  0.00     0.031 A 
ATOM     54  C   UNL A   1      43.029  28.671  34.033  1.00  0.00     0.031 A 
ATOM     55  C   UNL A   1      37.859  31.719  31.546  1.00  0.00     0.049 A 
ATOM     56  C   UNL A   1      42.077  29.689  34.593  1.00  0.00     0.074 A 
ATOM     57  C   UNL A   1      36.987  32.580  32.192  1.00  0.00     0.029 A 
ATOM     58  N   UNL A   1      38.825  31.361  32.477  1.00  0.00    -0.354 N 
ATOM     59  N   UNL A   1      41.039  30.246  34.020  1.00  0.00    -0.248 NA
ATOM     60  C   UNL A   1      42.305  30.124  35.979  1.00  0.00     0.031 C 
ATOM     61  C   UNL A   1      37.468  32.805  33.483  1.00  0.00     0.029 A 
ATOM     62  C   UNL A   1      38.590  32.017  33.676  1.00  0.00     0.049 A 
ATOM     63  H   UNL A   1      39.565  30.734  32.311  1.00  0.00     0.167 HD
ATOM     64  C   UNL A   1      40.476  31.079  34.978  1.00  0.00     0.074 A 
ATOM     65  C   UNL A   1      41.276  30.938  36.177  1.00  0.00     0.031 C 
ATOM     66  C   UNL A   1      39.392  31.884  34.868  1.00  0.00     0.031 A 
BRANCH  53  67
ATOM     67  C   UNL A   1      36.725  31.827  29.302  1.00  0.00    -0.014 A 
ATOM     68  C   UNL A   1      36.891  33.075  28.678  1.00  0.00     0.009 A 
ATOM     69  C   UNL A   1      35.479  31.187  29.214  1.00  0.00     0.009 A 
ATOM     70  C   UNL A   1      35.826  33.681  28.006  1.00  0.00     0.001 A 
ATOM     71  C   UNL A   1      34.425  31.781  28.516  1.00  0.00     0.001 A 
ATOM     72  C   UNL A   1      34.596  33.032  27.924  1.00  0.00     0.000 A 
ENDBRANCH  53  67
BRANCH  54  73
ATOM     73  C   UNL A   1      44.115  28.082  34.860  1.00  0.00    -0.014 A 
ATOM     74  C   UNL A   1      45.413  28.620  34.818  1.00  0.00     0.009 A 
ATOM     75  C   UNL A   1      43.881  26.940  35.636  1.00  0.00     0.009 A 
ATOM     76  C   UNL A   1      46.458  28.007  35.510  1.00  0.00     0.001 A 
ATOM     77  C   UNL A   1      44.921  26.347  36.356  1.00  0.00     0.001 A 
ATOM     78  C   UNL A   1      46.210  26.874  36.283  1.00  0.00     0.000 A 
ENDBRANCH  54  73
BRANCH  66  79
ATOM     79  C   UNL A   1      38.980  32.688  36.072  1.00  0.00    -0.014 A 
ATOM     80  C   UNL A   1      39.478  33.991  36.247  1.00  0.00     0.009 A 
ATOM     81  C   UNL A   1      38.195  32.125  37.090  1.00  0.00     0.009 A 
ATOM     82  C   UNL A   1      39.223  34.700  37.421  1.00  0.00     0.001 A 
ATOM     83  C   UNL A   1      37.911  32.850  38.249  1.00  0.00     0.001 A 
ATOM     84  C   UNL A   1      38.435  34.130  38.420  1.00  0.00     0.000 A 
ENDBRANCH  66  79
ENDBRANCH  40  41
ENDBRANCH  33  35
ENDBRANCH  32  33
ENDBRANCH  31  32
ENDBRANCH  30  31
ENDBRANCH  29  30
ENDBRANCH  28  29
ENDBRANCH   1  28
TORSDOF 21
ENDMDL
MODEL 3
REMARK VINA RESULT:      -9.7      4.873      7.925
REMARK SMILES CC(C)CCc1cc2c(cc1Cl)C=C(C(=O)OCCOCCOCCOC(=O)c1ccc(-c3c4nc(c(-c5ccccc5)c5ccc([nH]5)c(-c5ccccc5)c5nc(c(-c6ccccc6)c6ccc3[nH]6)C=C5)C=C4)cc1)[C@@H](C(F)(F)F)O2
REMARK SMILES IDX 21 1 20 2 19 3 18 4 17 5 15 6 16 7 14 8 6 9 7 10 11 11 8 12
REMARK SMILES IDX 10 13 12 14 9 15 82 16 13 17 77 18 5 19 4 20 2 21 1 22 3 23
REMARK SMILES IDX 78 24 79 25 80 26 81 27 22 28 23 29 24 30 25 31 26 32 27 33
REMARK SMILES IDX 28 34 29 35 30 36 76 37 31 38 75 39 32 40 33 41 34 42 69 43
REMARK SMILES IDX 35 44 74 45 68 46 70 47 36 48 73 49 67 50 66 51 37 53 59 54
REMARK SMILES IDX 44 55 58 56 45 57 48 58 57 59 71 60 46 61 47 62 56 64 72 65
REMARK SMILES IDX 49 66 38 67 39 68 43 69 40 70 42 71 41 72 60 73 61 74 65 75
REMARK SMILES IDX 62 76 64 77 63 78 50 79 51 80 55 81 52 82 54 83 53 84
REMARK H PARENT 70 52 48 63
REMARK Flexibility Score: inf
ROOT
ATOM      1  C   UNL A   1      41.583  21.756  26.329  1.00  0.00     0.188 C 
ENDROOT
BRANCH   1   2
ATOM      2  O   UNL A   1      40.562  22.118  27.230  1.00  0.00    -0.376 OA
BRANCH   2   3
ATOM      3  C   UNL A   1      39.280  22.521  26.778  1.00  0.00     0.202 C 
BRANCH   3   4
ATOM      4  C   UNL A   1      38.992  23.824  26.018  1.00  0.00     0.261 C 
BRANCH   4   5
ATOM      5  O   UNL A   1      39.153  25.036  26.759  1.00  0.00    -0.460 OA
BRANCH   5   6
ATOM      6  C   UNL A   1      40.400  25.564  26.728  1.00  0.00     0.338 C 
ATOM      7  O   UNL A   1      41.259  25.366  25.885  1.00  0.00    -0.246 OA
BRANCH   6   8
ATOM      8  C   UNL A   1      40.530  26.573  27.796  1.00  0.00     0.087 C 
ATOM      9  C   UNL A   1      39.607  29.711  31.596  1.00  0.00    -0.026 A 
ATOM     10  C   UNL A   1      40.645  29.578  30.653  1.00  0.00     0.052 A 
ATOM     11  C   UNL A   1      38.682  28.660  31.708  1.00  0.00     0.045 A 
ATOM     12  C   UNL A   1      40.671  28.511  29.755  1.00  0.00     0.128 A 
ATOM     13  C   UNL A   1      38.722  27.580  30.820  1.00  0.00     0.032 A 
ATOM     14  Cl  UNL A   1      37.438  28.643  32.907  1.00  0.00    -0.084 Cl
ATOM     15  C   UNL A   1      39.685  27.532  29.810  1.00  0.00     0.019 A 
ATOM     16  O   UNL A   1      41.685  28.523  28.841  1.00  0.00    -0.475 OA
ATOM     17  C   UNL A   1      39.627  26.510  28.782  1.00  0.00     0.027 C 
ATOM     18  C   UNL A   1      41.645  27.582  27.732  1.00  0.00     0.316 C 
BRANCH   9  19
ATOM     19  C   UNL A   1      39.510  30.986  32.409  1.00  0.00     0.037 C 
BRANCH  19  20
ATOM     20  C   UNL A   1      38.435  31.976  31.916  1.00  0.00     0.008 C 
BRANCH  20  21
ATOM     21  C   UNL A   1      37.312  32.298  32.927  1.00  0.00    -0.017 C 
ATOM     22  C   UNL A   1      37.264  33.781  33.293  1.00  0.00     0.007 C 
ATOM     23  C   UNL A   1      35.959  31.858  32.359  1.00  0.00     0.007 C 
ENDBRANCH  20  21
ENDBRANCH  19  20
ENDBRANCH   9  19
BRANCH  18  24
ATOM     24  C   UNL A   1      41.635  28.373  26.417  1.00  0.00     0.430 C 
ATOM     25  F   UNL A   1      42.360  27.748  25.459  1.00  0.00    -0.167 F 
ATOM     26  F   UNL A   1      40.380  28.509  25.927  1.00  0.00    -0.167 F 
ATOM     27  F   UNL A   1      42.147  29.615  26.570  1.00  0.00    -0.167 F 
ENDBRANCH  18  24
ENDBRANCH   6   8
ENDBRANCH   5   6
ENDBRANCH   4   5
ENDBRANCH   3   4
ENDBRANCH   2   3
ENDBRANCH   1   2
BRANCH   1  28
ATOM     28  C   UNL A   1      42.133  20.314  26.319  1.00  0.00     0.188 C 
BRANCH  28  29
ATOM     29  O   UNL A   1      42.762  19.788  25.171  1.00  0.00    -0.376 OA
BRANCH  29  30
ATOM     30  C   UNL A   1      44.175  19.662  25.139  1.00  0.00     0.202 C 
BRANCH  30  31
ATOM     31  C   UNL A   1      45.096  20.769  24.601  1.00  0.00     0.261 C 
BRANCH  31  32
ATOM     32  O   UNL A   1      45.756  21.566  25.592  1.00  0.00    -0.460 OA
BRANCH  32  33
ATOM     33  C   UNL A   1      46.265  22.746  25.145  1.00  0.00     0.338 C 
ATOM     34  O   UNL A   1      46.725  22.987  24.053  1.00  0.00    -0.246 OA
BRANCH  33  35
ATOM     35  C   UNL A   1      45.975  23.787  26.154  1.00  0.00     0.060 A 
ATOM     36  C   UNL A   1      47.010  24.492  26.768  1.00  0.00     0.016 A 
ATOM     37  C   UNL A   1      44.638  24.049  26.486  1.00  0.00     0.016 A 
ATOM     38  C   UNL A   1      46.701  25.480  27.704  1.00  0.00     0.010 A 
ATOM     39  C   UNL A   1      44.332  25.025  27.436  1.00  0.00     0.010 A 
ATOM     40  C   UNL A   1      45.362  25.764  28.034  1.00  0.00    -0.014 A 
BRANCH  40  41
ATOM     41  C   UNL A   1      45.048  26.959  28.854  1.00  0.00     0.031 A 
ATOM     42  C   UNL A   1      45.078  28.347  28.293  1.00  0.00     0.074 A 
ATOM     43  C   UNL A   1      44.721  26.760  30.144  1.00  0.00     0.049 A 
ATOM     44  N   UNL A   1      44.705  29.464  28.865  1.00  0.00    -0.248 NA
ATOM     45  C   UNL A   1      45.592  28.509  26.925  1.00  0.00     0.031 C 
ATOM     46  C   UNL A   1      44.688  25.453  30.803  1.00  0.00     0.029 A 
ATOM     47  N   UNL A   1      44.338  27.641  31.124  1.00  0.00    -0.354 N 
ATOM     48  C   UNL A   1      44.912  30.462  27.923  1.00  0.00     0.074 A 
ATOM     49  C   UNL A   1      45.491  29.824  26.757  1.00  0.00     0.031 C 
ATOM     50  C   UNL A   1      44.267  25.613  32.066  1.00  0.00     0.029 A 
ATOM     51  C   UNL A   1      44.032  27.032  32.316  1.00  0.00     0.049 A 
ATOM     52  H   UNL A   1      44.290  28.614  30.986  1.00  0.00     0.167 HD
ATOM     53  C   UNL A   1      44.625  31.782  28.022  1.00  0.00     0.031 A 
ATOM     54  C   UNL A   1      43.595  27.549  33.481  1.00  0.00     0.031 A 
ATOM     55  C   UNL A   1      44.072  32.409  29.198  1.00  0.00     0.049 A 
ATOM     56  C   UNL A   1      43.328  29.024  33.577  1.00  0.00     0.074 A 
ATOM     57  C   UNL A   1      43.705  33.734  29.370  1.00  0.00     0.029 A 
ATOM     58  N   UNL A   1      43.822  31.769  30.403  1.00  0.00    -0.354 N 
ATOM     59  N   UNL A   1      43.437  29.940  32.647  1.00  0.00    -0.248 NA
ATOM     60  C   UNL A   1      42.860  29.534  34.874  1.00  0.00     0.031 C 
ATOM     61  C   UNL A   1      43.311  33.912  30.697  1.00  0.00     0.029 A 
ATOM     62  C   UNL A   1      43.345  32.682  31.332  1.00  0.00     0.049 A 
ATOM     63  H   UNL A   1      43.961  30.809  30.574  1.00  0.00     0.167 HD
ATOM     64  C   UNL A   1      43.031  31.131  33.237  1.00  0.00     0.074 A 
ATOM     65  C   UNL A   1      42.654  30.815  34.599  1.00  0.00     0.031 C 
ATOM     66  C   UNL A   1      42.977  32.370  32.692  1.00  0.00     0.031 A 
BRANCH  53  67
ATOM     67  C   UNL A   1      44.886  32.665  26.830  1.00  0.00    -0.014 A 
ATOM     68  C   UNL A   1      46.051  33.448  26.778  1.00  0.00     0.009 A 
ATOM     69  C   UNL A   1      43.913  32.832  25.831  1.00  0.00     0.009 A 
ATOM     70  C   UNL A   1      46.227  34.395  25.766  1.00  0.00     0.001 A 
ATOM     71  C   UNL A   1      44.105  33.758  24.803  1.00  0.00     0.001 A 
ATOM     72  C   UNL A   1      45.254  34.547  24.779  1.00  0.00     0.000 A 
ENDBRANCH  53  67
BRANCH  54  73
ATOM     73  C   UNL A   1      43.340  26.634  34.625  1.00  0.00    -0.014 A 
ATOM     74  C   UNL A   1      42.057  26.104  34.841  1.00  0.00     0.009 A 
ATOM     75  C   UNL A   1      44.355  26.346  35.547  1.00  0.00     0.009 A 
ATOM     76  C   UNL A   1      41.789  25.331  35.971  1.00  0.00     0.001 A 
ATOM     77  C   UNL A   1      44.093  25.543  36.660  1.00  0.00     0.001 A 
ATOM     78  C   UNL A   1      42.808  25.046  36.877  1.00  0.00     0.000 A 
ENDBRANCH  54  73
BRANCH  66  79
ATOM     79  C   UNL A   1      42.486  33.503  33.553  1.00  0.00    -0.014 A 
ATOM     80  C   UNL A   1      41.119  33.828  33.568  1.00  0.00     0.009 A 
ATOM     81  C   UNL A   1      43.382  34.321  34.259  1.00  0.00     0.009 A 
ATOM     82  C   UNL A   1      40.663  34.959  34.247  1.00  0.00     0.001 A 
ATOM     83  C   UNL A   1      42.919  35.432  34.967  1.00  0.00     0.001 A 
ATOM     84  C   UNL A   1      41.563  35.758  34.950  1.00  0.00     0.000 A 
ENDBRANCH  66  79
ENDBRANCH  40  41
ENDBRANCH  33  35
ENDBRANCH  32  33
ENDBRANCH  31  32
ENDBRANCH  30  31
ENDBRANCH  29  30
ENDBRANCH  28  29
ENDBRANCH   1  28
TORSDOF 21
ENDMDL
