MODEL 1
REMARK VINA RESULT:     -11.9      0.000      0.000
REMARK SMILES O=C(OCCOCCOCCOC(=O)[C@H]1[C@H]2CC[C@H](CC2)[C@@H]1C(=O)Nc1sc2c(c1C(=O)N1CCCCC1)CCCC2)c1ccc(-c2c3nc(c(-c4ccccc4)c4ccc([nH]4)c(-c4ccccc4)c4nc(c(-c5ccccc5)c5ccc2[nH]5)C=C4)C=C3)cc1
REMARK SMILES IDX 8 1 7 2 6 3 5 4 4 5 3 6 2 7 1 8 43 9 44 10 90 11 45 12 89 13
REMARK SMILES IDX 46 14 47 15 48 16 83 17 49 18 88 19 82 20 84 21 50 22 87 23
REMARK SMILES IDX 81 24 80 25 51 27 73 28 58 29 72 30 59 31 62 32 71 33 85 34
REMARK SMILES IDX 60 35 61 36 70 38 86 39 63 40 52 41 53 42 57 43 54 44 56 45
REMARK SMILES IDX 55 46 74 47 75 48 79 49 76 50 78 51 77 52 64 53 65 54 69 55
REMARK SMILES IDX 66 56 68 57 67 58 9 59 10 60 11 61 12 62 13 63 14 64 15 65
REMARK SMILES IDX 16 66 22 67 21 68 17 69 19 70 20 71 18 72 23 73 24 74 25 75
REMARK SMILES IDX 26 77 27 78 30 79 28 80 29 81 42 82 39 83 41 84 40 85 31 86
REMARK SMILES IDX 32 87 33 88 34 89 38 90 35 91 37 92 36 93
REMARK H PARENT 84 26 62 37 25 76
REMARK Flexibility Score: inf
ROOT
ATOM      1  C   UNL A   1      35.037  32.038  28.171  1.00  0.00     0.188 C 
ENDROOT
BRANCH   1   2
ATOM      2  C   UNL A   1      34.220  33.310  28.058  1.00  0.00     0.188 C 
BRANCH   2   3
ATOM      3  O   UNL A   1      34.699  34.384  28.867  1.00  0.00    -0.376 OA
BRANCH   3   4
ATOM      4  C   UNL A   1      34.310  35.659  28.358  1.00  0.00     0.202 C 
BRANCH   4   5
ATOM      5  C   UNL A   1      32.992  36.240  28.898  1.00  0.00     0.261 C 
BRANCH   5   6
ATOM      6  O   UNL A   1      32.507  35.670  30.127  1.00  0.00    -0.460 OA
BRANCH   6   7
ATOM      7  C   UNL A   1      32.841  35.900  31.420  1.00  0.00     0.338 C 
ATOM      8  O   UNL A   1      32.247  36.806  32.006  1.00  0.00    -0.246 OA
BRANCH   7   9
ATOM      9  C   UNL A   1      33.913  35.174  32.180  1.00  0.00     0.060 A 
ATOM     10  C   UNL A   1      35.265  35.502  32.188  1.00  0.00     0.016 A 
ATOM     11  C   UNL A   1      33.514  34.048  32.936  1.00  0.00     0.016 A 
ATOM     12  C   UNL A   1      36.191  34.722  32.880  1.00  0.00     0.010 A 
ATOM     13  C   UNL A   1      34.441  33.246  33.622  1.00  0.00     0.010 A 
ATOM     14  C   UNL A   1      35.794  33.568  33.567  1.00  0.00    -0.014 A 
BRANCH  14  15
ATOM     15  C   UNL A   1      36.885  32.677  34.026  1.00  0.00     0.031 A 
ATOM     16  C   UNL A   1      37.498  31.775  33.018  1.00  0.00     0.074 A 
ATOM     17  C   UNL A   1      37.449  32.821  35.234  1.00  0.00     0.049 A 
ATOM     18  N   UNL A   1      38.633  31.141  33.080  1.00  0.00    -0.248 NA
ATOM     19  C   UNL A   1      36.719  31.542  31.792  1.00  0.00     0.031 C 
ATOM     20  C   UNL A   1      36.851  33.577  36.308  1.00  0.00     0.029 A 
ATOM     21  N   UNL A   1      38.660  32.427  35.747  1.00  0.00    -0.354 N 
ATOM     22  C   UNL A   1      38.696  30.402  31.914  1.00  0.00     0.074 A 
ATOM     23  C   UNL A   1      37.501  30.689  31.149  1.00  0.00     0.031 C 
ATOM     24  C   UNL A   1      37.750  33.750  37.287  1.00  0.00     0.029 A 
ATOM     25  C   UNL A   1      38.971  33.058  36.936  1.00  0.00     0.049 A 
ATOM     26  H   UNL A   1      39.245  31.766  35.313  1.00  0.00     0.167 HD
ATOM     27  C   UNL A   1      39.654  29.522  31.553  1.00  0.00     0.031 A 
ATOM     28  C   UNL A   1      40.110  33.091  37.656  1.00  0.00     0.031 A 
ATOM     29  C   UNL A   1      40.773  29.187  32.389  1.00  0.00     0.049 A 
ATOM     30  C   UNL A   1      41.202  32.179  37.186  1.00  0.00     0.074 A 
ATOM     31  C   UNL A   1      41.739  28.218  32.201  1.00  0.00     0.029 A 
ATOM     32  N   UNL A   1      41.062  29.813  33.598  1.00  0.00    -0.354 N 
ATOM     33  N   UNL A   1      41.246  31.459  36.090  1.00  0.00    -0.248 NA
ATOM     34  C   UNL A   1      42.357  32.013  38.075  1.00  0.00     0.031 C 
ATOM     35  C   UNL A   1      42.592  28.236  33.312  1.00  0.00     0.029 A 
ATOM     36  C   UNL A   1      42.195  29.256  34.164  1.00  0.00     0.049 A 
ATOM     37  H   UNL A   1      40.537  30.547  33.992  1.00  0.00     0.167 HD
ATOM     38  C   UNL A   1      42.393  30.695  36.192  1.00  0.00     0.074 A 
ATOM     39  C   UNL A   1      43.070  31.120  37.404  1.00  0.00     0.031 C 
ATOM     40  C   UNL A   1      42.818  29.691  35.388  1.00  0.00     0.031 A 
BRANCH  27  41
ATOM     41  C   UNL A   1      39.422  28.806  30.259  1.00  0.00    -0.014 A 
ATOM     42  C   UNL A   1      38.985  27.471  30.235  1.00  0.00     0.009 A 
ATOM     43  C   UNL A   1      39.746  29.441  29.052  1.00  0.00     0.009 A 
ATOM     44  C   UNL A   1      38.919  26.774  29.027  1.00  0.00     0.001 A 
ATOM     45  C   UNL A   1      39.656  28.749  27.844  1.00  0.00     0.001 A 
ATOM     46  C   UNL A   1      39.254  27.413  27.834  1.00  0.00     0.000 A 
ENDBRANCH  27  41
BRANCH  28  47
ATOM     47  C   UNL A   1      40.265  33.928  38.887  1.00  0.00    -0.014 A 
ATOM     48  C   UNL A   1      40.798  35.229  38.819  1.00  0.00     0.009 A 
ATOM     49  C   UNL A   1      39.903  33.437  40.153  1.00  0.00     0.009 A 
ATOM     50  C   UNL A   1      40.979  35.997  39.976  1.00  0.00     0.001 A 
ATOM     51  C   UNL A   1      40.032  34.224  41.302  1.00  0.00     0.001 A 
ATOM     52  C   UNL A   1      40.584  35.499  41.215  1.00  0.00     0.000 A 
ENDBRANCH  28  47
BRANCH  40  53
ATOM     53  C   UNL A   1      44.064  28.989  35.835  1.00  0.00    -0.014 A 
ATOM     54  C   UNL A   1      43.997  27.869  36.680  1.00  0.00     0.009 A 
ATOM     55  C   UNL A   1      45.313  29.465  35.417  1.00  0.00     0.009 A 
ATOM     56  C   UNL A   1      45.167  27.266  37.137  1.00  0.00     0.001 A 
ATOM     57  C   UNL A   1      46.480  28.841  35.852  1.00  0.00     0.001 A 
ATOM     58  C   UNL A   1      46.407  27.751  36.720  1.00  0.00     0.000 A 
ENDBRANCH  40  53
ENDBRANCH  14  15
ENDBRANCH   7   9
ENDBRANCH   6   7
ENDBRANCH   5   6
ENDBRANCH   4   5
ENDBRANCH   3   4
ENDBRANCH   2   3
ENDBRANCH   1   2
BRANCH   1  59
ATOM     59  O   UNL A   1      34.347  30.795  28.260  1.00  0.00    -0.376 OA
BRANCH  59  60
ATOM     60  C   UNL A   1      33.883  30.212  27.047  1.00  0.00     0.202 C 
BRANCH  60  61
ATOM     61  C   UNL A   1      33.713  28.690  26.985  1.00  0.00     0.261 C 
BRANCH  61  62
ATOM     62  O   UNL A   1      32.613  28.277  26.175  1.00  0.00    -0.463 OA
BRANCH  62  63
ATOM     63  C   UNL A   1      31.664  27.554  26.811  1.00  0.00     0.310 C 
ATOM     64  O   UNL A   1      31.400  27.676  28.004  1.00  0.00    -0.252 OA
BRANCH  63  65
ATOM     65  C   UNL A   1      30.940  26.561  25.907  1.00  0.00     0.115 C 
ATOM     66  C   UNL A   1      30.593  26.976  24.446  1.00  0.00     0.004 C 
ATOM     67  C   UNL A   1      31.739  25.241  25.946  1.00  0.00     0.096 C 
ATOM     68  C   UNL A   1      31.857  27.349  23.677  1.00  0.00     0.005 C 
ATOM     69  C   UNL A   1      29.961  25.755  23.735  1.00  0.00     0.005 C 
ATOM     70  C   UNL A   1      32.236  24.980  24.485  1.00  0.00     0.002 C 
ATOM     71  C   UNL A   1      32.910  26.285  23.971  1.00  0.00     0.005 C 
ATOM     72  C   UNL A   1      30.987  24.621  23.651  1.00  0.00     0.005 C 
BRANCH  67  73
ATOM     73  C   UNL A   1      31.121  23.946  26.535  1.00  0.00     0.229 C 
ATOM     74  O   UNL A   1      29.911  23.953  26.818  1.00  0.00    -0.274 OA
ATOM     75  N   UNL A   1      31.762  22.761  26.749  1.00  0.00    -0.317 N 
ATOM     76  H   UNL A   1      31.239  22.066  27.211  1.00  0.00     0.170 HD
BRANCH  75  77
ATOM     77  C   UNL A   1      33.042  22.417  26.401  1.00  0.00     0.108 A 
ATOM     78  S   UNL A   1      34.247  23.011  27.456  1.00  0.00    -0.122 S 
ATOM     79  C   UNL A   1      33.538  21.555  25.431  1.00  0.00     0.078 A 
ATOM     80  C   UNL A   1      35.452  22.623  26.321  1.00  0.00     0.011 A 
ATOM     81  C   UNL A   1      34.978  21.777  25.330  1.00  0.00    -0.019 A 
ATOM     82  C   UNL A   1      36.855  23.146  26.440  1.00  0.00     0.047 C 
ATOM     83  C   UNL A   1      35.911  21.316  24.254  1.00  0.00     0.037 C 
ATOM     84  C   UNL A   1      37.709  22.780  25.216  1.00  0.00     0.006 C 
ATOM     85  C   UNL A   1      37.386  21.400  24.666  1.00  0.00     0.005 C 
BRANCH  79  86
ATOM     86  C   UNL A   1      32.628  20.787  24.557  1.00  0.00     0.257 C 
ATOM     87  O   UNL A   1      31.734  21.358  23.928  1.00  0.00    -0.269 OA
ATOM     88  N   UNL A   1      32.789  19.404  24.420  1.00  0.00    -0.339 N 
ATOM     89  C   UNL A   1      32.284  18.810  23.190  1.00  0.00     0.120 C 
ATOM     90  C   UNL A   1      32.889  18.479  25.549  1.00  0.00     0.120 C 
ATOM     91  C   UNL A   1      33.185  17.663  22.758  1.00  0.00     0.022 C 
ATOM     92  C   UNL A   1      33.676  17.206  25.197  1.00  0.00     0.022 C 
ATOM     93  C   UNL A   1      33.274  16.602  23.853  1.00  0.00     0.004 C 
ENDBRANCH  79  86
ENDBRANCH  75  77
ENDBRANCH  67  73
ENDBRANCH  63  65
ENDBRANCH  62  63
ENDBRANCH  61  62
ENDBRANCH  60  61
ENDBRANCH  59  60
ENDBRANCH   1  59
TORSDOF 20
ENDMDL
MODEL 2
REMARK VINA RESULT:     -11.3      2.067      6.110
REMARK SMILES O=C(OCCOCCOCCOC(=O)[C@H]1[C@H]2CC[C@H](CC2)[C@@H]1C(=O)Nc1sc2c(c1C(=O)N1CCCCC1)CCCC2)c1ccc(-c2c3nc(c(-c4ccccc4)c4ccc([nH]4)c(-c4ccccc4)c4nc(c(-c5ccccc5)c5ccc2[nH]5)C=C4)C=C3)cc1
REMARK SMILES IDX 8 1 7 2 6 3 5 4 4 5 3 6 2 7 1 8 43 9 44 10 90 11 45 12 89 13
REMARK SMILES IDX 46 14 47 15 48 16 83 17 49 18 88 19 82 20 84 21 50 22 87 23
REMARK SMILES IDX 81 24 80 25 51 27 73 28 58 29 72 30 59 31 62 32 71 33 85 34
REMARK SMILES IDX 60 35 61 36 70 38 86 39 63 40 52 41 53 42 57 43 54 44 56 45
REMARK SMILES IDX 55 46 74 47 75 48 79 49 76 50 78 51 77 52 64 53 65 54 69 55
REMARK SMILES IDX 66 56 68 57 67 58 9 59 10 60 11 61 12 62 13 63 14 64 15 65
REMARK SMILES IDX 16 66 22 67 21 68 17 69 19 70 20 71 18 72 23 73 24 74 25 75
REMARK SMILES IDX 26 77 27 78 30 79 28 80 29 81 42 82 39 83 41 84 40 85 31 86
REMARK SMILES IDX 32 87 33 88 34 89 38 90 35 91 37 92 36 93
REMARK H PARENT 84 26 62 37 25 76
REMARK Flexibility Score: inf
ROOT
ATOM      1  C   UNL A   1      33.155  32.150  27.621  1.00  0.00     0.188 C 
ENDROOT
BRANCH   1   2
ATOM      2  C   UNL A   1      33.711  33.375  28.322  1.00  0.00     0.188 C 
BRANCH   2   3
ATOM      3  O   UNL A   1      32.742  34.391  28.576  1.00  0.00    -0.376 OA
BRANCH   3   4
ATOM      4  C   UNL A   1      33.307  35.524  29.235  1.00  0.00     0.202 C 
BRANCH   4   5
ATOM      5  C   UNL A   1      32.821  35.798  30.669  1.00  0.00     0.261 C 
BRANCH   5   6
ATOM      6  O   UNL A   1      33.719  35.411  31.724  1.00  0.00    -0.460 OA
BRANCH   6   7
ATOM      7  C   UNL A   1      34.037  34.197  32.235  1.00  0.00     0.338 C 
ATOM      8  O   UNL A   1      33.234  33.682  33.014  1.00  0.00    -0.246 OA
BRANCH   7   9
ATOM      9  C   UNL A   1      35.313  33.452  31.969  1.00  0.00     0.060 A 
ATOM     10  C   UNL A   1      35.688  32.248  32.558  1.00  0.00     0.016 A 
ATOM     11  C   UNL A   1      36.220  34.038  31.056  1.00  0.00     0.016 A 
ATOM     12  C   UNL A   1      36.928  31.670  32.288  1.00  0.00     0.010 A 
ATOM     13  C   UNL A   1      37.478  33.472  30.791  1.00  0.00     0.010 A 
ATOM     14  C   UNL A   1      37.846  32.295  31.437  1.00  0.00    -0.014 A 
BRANCH  14  15
ATOM     15  C   UNL A   1      39.219  31.738  31.442  1.00  0.00     0.031 A 
ATOM     16  C   UNL A   1      40.081  32.059  32.609  1.00  0.00     0.074 A 
ATOM     17  C   UNL A   1      39.606  30.812  30.552  1.00  0.00     0.049 A 
ATOM     18  N   UNL A   1      41.174  31.470  32.996  1.00  0.00    -0.248 NA
ATOM     19  C   UNL A   1      39.665  33.207  33.430  1.00  0.00     0.031 C 
ATOM     20  C   UNL A   1      38.891  30.534  29.330  1.00  0.00     0.029 A 
ATOM     21  N   UNL A   1      40.621  29.887  30.555  1.00  0.00    -0.354 N 
ATOM     22  C   UNL A   1      41.603  32.193  34.092  1.00  0.00     0.074 A 
ATOM     23  C   UNL A   1      40.638  33.245  34.328  1.00  0.00     0.031 C 
ATOM     24  C   UNL A   1      39.365  29.405  28.783  1.00  0.00     0.029 A 
ATOM     25  C   UNL A   1      40.466  28.917  29.584  1.00  0.00     0.049 A 
ATOM     26  H   UNL A   1      41.378  29.913  31.183  1.00  0.00     0.167 HD
ATOM     27  C   UNL A   1      42.739  32.012  34.800  1.00  0.00     0.031 A 
ATOM     28  C   UNL A   1      41.122  27.759  29.369  1.00  0.00     0.031 A 
ATOM     29  C   UNL A   1      43.725  31.021  34.469  1.00  0.00     0.049 A 
ATOM     30  C   UNL A   1      42.327  27.526  30.228  1.00  0.00     0.074 A 
ATOM     31  C   UNL A   1      44.975  30.821  35.020  1.00  0.00     0.029 A 
ATOM     32  N   UNL A   1      43.568  30.063  33.471  1.00  0.00    -0.354 N 
ATOM     33  N   UNL A   1      42.745  28.231  31.253  1.00  0.00    -0.248 NA
ATOM     34  C   UNL A   1      43.195  26.402  29.864  1.00  0.00     0.031 C 
ATOM     35  C   UNL A   1      45.587  29.765  34.333  1.00  0.00     0.029 A 
ATOM     36  C   UNL A   1      44.696  29.266  33.395  1.00  0.00     0.049 A 
ATOM     37  H   UNL A   1      42.769  29.966  32.903  1.00  0.00     0.167 HD
ATOM     38  C   UNL A   1      43.964  27.686  31.609  1.00  0.00     0.074 A 
ATOM     39  C   UNL A   1      44.164  26.525  30.760  1.00  0.00     0.031 C 
ATOM     40  C   UNL A   1      44.865  28.138  32.513  1.00  0.00     0.031 A 
BRANCH  27  41
ATOM     41  C   UNL A   1      42.983  33.000  35.897  1.00  0.00    -0.014 A 
ATOM     42  C   UNL A   1      42.538  32.757  37.207  1.00  0.00     0.009 A 
ATOM     43  C   UNL A   1      43.572  34.236  35.594  1.00  0.00     0.009 A 
ATOM     44  C   UNL A   1      42.640  33.751  38.181  1.00  0.00     0.001 A 
ATOM     45  C   UNL A   1      43.695  35.218  36.576  1.00  0.00     0.001 A 
ATOM     46  C   UNL A   1      43.218  34.980  37.865  1.00  0.00     0.000 A 
ENDBRANCH  27  41
BRANCH  28  47
ATOM     47  C   UNL A   1      40.725  26.791  28.298  1.00  0.00    -0.014 A 
ATOM     48  C   UNL A   1      39.827  25.742  28.565  1.00  0.00     0.009 A 
ATOM     49  C   UNL A   1      41.251  26.887  26.998  1.00  0.00     0.009 A 
ATOM     50  C   UNL A   1      39.486  24.813  27.572  1.00  0.00     0.001 A 
ATOM     51  C   UNL A   1      40.868  25.993  25.993  1.00  0.00     0.001 A 
ATOM     52  C   UNL A   1      39.997  24.947  26.284  1.00  0.00     0.000 A 
ENDBRANCH  28  47
BRANCH  40  53
ATOM     53  C   UNL A   1      46.146  27.367  32.591  1.00  0.00    -0.014 A 
ATOM     54  C   UNL A   1      47.308  27.833  31.953  1.00  0.00     0.009 A 
ATOM     55  C   UNL A   1      46.183  26.156  33.295  1.00  0.00     0.009 A 
ATOM     56  C   UNL A   1      48.475  27.072  31.983  1.00  0.00     0.001 A 
ATOM     57  C   UNL A   1      47.360  25.413  33.347  1.00  0.00     0.001 A 
ATOM     58  C   UNL A   1      48.500  25.865  32.681  1.00  0.00     0.000 A 
ENDBRANCH  40  53
ENDBRANCH  14  15
ENDBRANCH   7   9
ENDBRANCH   6   7
ENDBRANCH   5   6
ENDBRANCH   4   5
ENDBRANCH   3   4
ENDBRANCH   2   3
ENDBRANCH   1   2
BRANCH   1  59
ATOM     59  O   UNL A   1      31.947  32.286  26.879  1.00  0.00    -0.376 OA
BRANCH  59  60
ATOM     60  C   UNL A   1      31.364  31.101  26.348  1.00  0.00     0.202 C 
BRANCH  60  61
ATOM     61  C   UNL A   1      32.058  29.761  26.614  1.00  0.00     0.261 C 
BRANCH  61  62
ATOM     62  O   UNL A   1      31.472  28.671  25.903  1.00  0.00    -0.463 OA
BRANCH  62  63
ATOM     63  C   UNL A   1      31.953  27.448  26.217  1.00  0.00     0.310 C 
ATOM     64  O   UNL A   1      32.905  27.263  26.971  1.00  0.00    -0.252 OA
BRANCH  63  65
ATOM     65  C   UNL A   1      31.203  26.301  25.545  1.00  0.00     0.115 C 
ATOM     66  C   UNL A   1      30.839  26.413  24.034  1.00  0.00     0.004 C 
ATOM     67  C   UNL A   1      31.987  25.006  25.844  1.00  0.00     0.096 C 
ATOM     68  C   UNL A   1      32.095  26.601  23.189  1.00  0.00     0.005 C 
ATOM     69  C   UNL A   1      30.181  25.081  23.598  1.00  0.00     0.005 C 
ATOM     70  C   UNL A   1      32.458  24.443  24.462  1.00  0.00     0.002 C 
ATOM     71  C   UNL A   1      33.140  25.604  23.682  1.00  0.00     0.005 C 
ATOM     72  C   UNL A   1      31.192  23.939  23.736  1.00  0.00     0.005 C 
BRANCH  67  73
ATOM     73  C   UNL A   1      31.362  23.869  26.695  1.00  0.00     0.229 C 
ATOM     74  O   UNL A   1      30.182  23.995  27.062  1.00  0.00    -0.274 OA
ATOM     75  N   UNL A   1      31.965  22.701  27.064  1.00  0.00    -0.317 N 
ATOM     76  H   UNL A   1      31.451  22.127  27.677  1.00  0.00     0.170 HD
BRANCH  75  77
ATOM     77  C   UNL A   1      33.194  22.228  26.685  1.00  0.00     0.108 A 
ATOM     78  S   UNL A   1      34.509  22.919  27.528  1.00  0.00    -0.122 S 
ATOM     79  C   UNL A   1      33.567  21.186  25.846  1.00  0.00     0.078 A 
ATOM     80  C   UNL A   1      35.596  22.274  26.391  1.00  0.00     0.011 A 
ATOM     81  C   UNL A   1      35.003  21.302  25.601  1.00  0.00    -0.019 A 
ATOM     82  C   UNL A   1      37.026  22.726  26.312  1.00  0.00     0.047 C 
ATOM     83  C   UNL A   1      35.820  20.611  24.554  1.00  0.00     0.037 C 
ATOM     84  C   UNL A   1      37.757  22.107  25.110  1.00  0.00     0.006 C 
ATOM     85  C   UNL A   1      37.326  20.676  24.834  1.00  0.00     0.005 C 
BRANCH  79  86
ATOM     86  C   UNL A   1      32.553  20.336  25.189  1.00  0.00     0.257 C 
ATOM     87  O   UNL A   1      31.396  20.739  25.046  1.00  0.00    -0.269 OA
ATOM     88  N   UNL A   1      32.906  19.073  24.703  1.00  0.00    -0.339 N 
ATOM     89  C   UNL A   1      32.089  18.542  23.621  1.00  0.00     0.120 C 
ATOM     90  C   UNL A   1      33.604  18.060  25.495  1.00  0.00     0.120 C 
ATOM     91  C   UNL A   1      32.953  17.734  22.664  1.00  0.00     0.022 C 
ATOM     92  C   UNL A   1      34.419  17.091  24.623  1.00  0.00     0.022 C 
ATOM     93  C   UNL A   1      33.652  16.593  23.399  1.00  0.00     0.004 C 
ENDBRANCH  79  86
ENDBRANCH  75  77
ENDBRANCH  67  73
ENDBRANCH  63  65
ENDBRANCH  62  63
ENDBRANCH  61  62
ENDBRANCH  60  61
ENDBRANCH  59  60
ENDBRANCH   1  59
TORSDOF 20
ENDMDL
MODEL 3
REMARK VINA RESULT:     -11.0      4.545      7.947
REMARK SMILES O=C(OCCOCCOCCOC(=O)[C@H]1[C@H]2CC[C@H](CC2)[C@@H]1C(=O)Nc1sc2c(c1C(=O)N1CCCCC1)CCCC2)c1ccc(-c2c3nc(c(-c4ccccc4)c4ccc([nH]4)c(-c4ccccc4)c4nc(c(-c5ccccc5)c5ccc2[nH]5)C=C4)C=C3)cc1
REMARK SMILES IDX 8 1 7 2 6 3 5 4 4 5 3 6 2 7 1 8 43 9 44 10 90 11 45 12 89 13
REMARK SMILES IDX 46 14 47 15 48 16 83 17 49 18 88 19 82 20 84 21 50 22 87 23
REMARK SMILES IDX 81 24 80 25 51 27 73 28 58 29 72 30 59 31 62 32 71 33 85 34
REMARK SMILES IDX 60 35 61 36 70 38 86 39 63 40 52 41 53 42 57 43 54 44 56 45
REMARK SMILES IDX 55 46 74 47 75 48 79 49 76 50 78 51 77 52 64 53 65 54 69 55
REMARK SMILES IDX 66 56 68 57 67 58 9 59 10 60 11 61 12 62 13 63 14 64 15 65
REMARK SMILES IDX 16 66 22 67 21 68 17 69 19 70 20 71 18 72 23 73 24 74 25 75
REMARK SMILES IDX 26 77 27 78 30 79 28 80 29 81 42 82 39 83 41 84 40 85 31 86
REMARK SMILES IDX 32 87 33 88 34 89 38 90 35 91 37 92 36 93
REMARK H PARENT 84 26 62 37 25 76
REMARK Flexibility Score: inf
ROOT
ATOM      1  C   UNL A   1      34.729  32.398  28.055  1.00  0.00     0.188 C 
ENDROOT
BRANCH   1   2
ATOM      2  C   UNL A   1      34.632  33.911  28.016  1.00  0.00     0.188 C 
BRANCH   2   3
ATOM      3  O   UNL A   1      34.901  34.544  29.266  1.00  0.00    -0.376 OA
BRANCH   3   4
ATOM      4  C   UNL A   1      34.392  33.798  30.371  1.00  0.00     0.202 C 
BRANCH   4   5
ATOM      5  C   UNL A   1      35.333  33.626  31.576  1.00  0.00     0.261 C 
BRANCH   5   6
ATOM      6  O   UNL A   1      35.465  32.288  32.088  1.00  0.00    -0.460 OA
BRANCH   6   7
ATOM      7  C   UNL A   1      36.528  31.621  32.601  1.00  0.00     0.338 C 
ATOM      8  O   UNL A   1      36.640  31.591  33.827  1.00  0.00    -0.246 OA
BRANCH   7   9
ATOM      9  C   UNL A   1      37.608  30.961  31.794  1.00  0.00     0.060 A 
ATOM     10  C   UNL A   1      38.793  30.435  32.300  1.00  0.00     0.016 A 
ATOM     11  C   UNL A   1      37.411  30.886  30.396  1.00  0.00     0.016 A 
ATOM     12  C   UNL A   1      39.762  29.898  31.454  1.00  0.00     0.010 A 
ATOM     13  C   UNL A   1      38.388  30.362  29.534  1.00  0.00     0.010 A 
ATOM     14  C   UNL A   1      39.586  29.893  30.065  1.00  0.00    -0.014 A 
BRANCH  14  15
ATOM     15  C   UNL A   1      40.783  29.556  29.260  1.00  0.00     0.031 A 
ATOM     16  C   UNL A   1      41.940  30.484  29.338  1.00  0.00     0.074 A 
ATOM     17  C   UNL A   1      40.912  28.365  28.657  1.00  0.00     0.049 A 
ATOM     18  N   UNL A   1      43.176  30.271  28.990  1.00  0.00    -0.248 NA
ATOM     19  C   UNL A   1      41.662  31.833  29.855  1.00  0.00     0.031 C 
ATOM     20  C   UNL A   1      39.809  27.463  28.429  1.00  0.00     0.029 A 
ATOM     21  N   UNL A   1      42.004  27.668  28.202  1.00  0.00    -0.354 N 
ATOM     22  C   UNL A   1      43.825  31.469  29.213  1.00  0.00     0.074 A 
ATOM     23  C   UNL A   1      42.855  32.397  29.756  1.00  0.00     0.031 C 
ATOM     24  C   UNL A   1      40.281  26.268  28.046  1.00  0.00     0.029 A 
ATOM     25  C   UNL A   1      41.722  26.341  27.937  1.00  0.00     0.049 A 
ATOM     26  H   UNL A   1      42.894  28.069  28.079  1.00  0.00     0.167 HD
ATOM     27  C   UNL A   1      45.111  31.770  28.933  1.00  0.00     0.031 A 
ATOM     28  C   UNL A   1      42.528  25.299  27.654  1.00  0.00     0.031 A 
ATOM     29  C   UNL A   1      46.015  30.852  28.297  1.00  0.00     0.049 A 
ATOM     30  C   UNL A   1      43.972  25.633  27.441  1.00  0.00     0.074 A 
ATOM     31  C   UNL A   1      47.299  31.073  27.840  1.00  0.00     0.029 A 
ATOM     32  N   UNL A   1      45.710  29.524  28.013  1.00  0.00    -0.354 N 
ATOM     33  N   UNL A   1      44.579  26.781  27.629  1.00  0.00    -0.248 NA
ATOM     34  C   UNL A   1      44.827  24.570  26.901  1.00  0.00     0.031 C 
ATOM     35  C   UNL A   1      47.758  29.890  27.249  1.00  0.00     0.029 A 
ATOM     36  C   UNL A   1      46.784  28.912  27.391  1.00  0.00     0.049 A 
ATOM     37  H   UNL A   1      44.855  29.084  28.224  1.00  0.00     0.167 HD
ATOM     38  C   UNL A   1      45.866  26.605  27.160  1.00  0.00     0.074 A 
ATOM     39  C   UNL A   1      45.982  25.208  26.780  1.00  0.00     0.031 C 
ATOM     40  C   UNL A   1      46.846  27.526  27.002  1.00  0.00     0.031 A 
BRANCH  27  41
ATOM     41  C   UNL A   1      45.523  33.181  29.215  1.00  0.00    -0.014 A 
ATOM     42  C   UNL A   1      45.370  34.190  28.250  1.00  0.00     0.009 A 
ATOM     43  C   UNL A   1      46.171  33.482  30.422  1.00  0.00     0.009 A 
ATOM     44  C   UNL A   1      45.896  35.463  28.474  1.00  0.00     0.001 A 
ATOM     45  C   UNL A   1      46.674  34.762  30.652  1.00  0.00     0.001 A 
ATOM     46  C   UNL A   1      46.547  35.748  29.674  1.00  0.00     0.000 A 
ENDBRANCH  27  41
BRANCH  28  47
ATOM     47  C   UNL A   1      42.015  23.901  27.492  1.00  0.00    -0.014 A 
ATOM     48  C   UNL A   1      41.528  23.445  26.253  1.00  0.00     0.009 A 
ATOM     49  C   UNL A   1      41.985  23.006  28.575  1.00  0.00     0.009 A 
ATOM     50  C   UNL A   1      41.013  22.150  26.111  1.00  0.00     0.001 A 
ATOM     51  C   UNL A   1      41.521  21.695  28.420  1.00  0.00     0.001 A 
ATOM     52  C   UNL A   1      41.021  21.272  27.192  1.00  0.00     0.000 A 
ENDBRANCH  28  47
BRANCH  40  53
ATOM     53  C   UNL A   1      48.107  27.026  26.367  1.00  0.00    -0.014 A 
ATOM     54  C   UNL A   1      48.280  27.072  24.974  1.00  0.00     0.009 A 
ATOM     55  C   UNL A   1      49.121  26.492  27.172  1.00  0.00     0.009 A 
ATOM     56  C   UNL A   1      49.434  26.546  24.395  1.00  0.00     0.001 A 
ATOM     57  C   UNL A   1      50.285  25.994  26.591  1.00  0.00     0.001 A 
ATOM     58  C   UNL A   1      50.435  26.009  25.204  1.00  0.00     0.000 A 
ENDBRANCH  40  53
ENDBRANCH  14  15
ENDBRANCH   7   9
ENDBRANCH   6   7
ENDBRANCH   5   6
ENDBRANCH   4   5
ENDBRANCH   3   4
ENDBRANCH   2   3
ENDBRANCH   1   2
BRANCH   1  59
ATOM     59  O   UNL A   1      33.528  31.640  27.948  1.00  0.00    -0.376 OA
BRANCH  59  60
ATOM     60  C   UNL A   1      33.607  30.369  27.312  1.00  0.00     0.202 C 
BRANCH  60  61
ATOM     61  C   UNL A   1      32.699  30.094  26.109  1.00  0.00     0.261 C 
BRANCH  61  62
ATOM     62  O   UNL A   1      31.716  29.090  26.360  1.00  0.00    -0.463 OA
BRANCH  62  63
ATOM     63  C   UNL A   1      32.145  27.814  26.236  1.00  0.00     0.310 C 
ATOM     64  O   UNL A   1      33.060  27.335  26.901  1.00  0.00    -0.252 OA
BRANCH  63  65
ATOM     65  C   UNL A   1      31.386  27.010  25.185  1.00  0.00     0.115 C 
ATOM     66  C   UNL A   1      31.234  27.591  23.747  1.00  0.00     0.004 C 
ATOM     67  C   UNL A   1      32.001  25.595  25.161  1.00  0.00     0.096 C 
ATOM     68  C   UNL A   1      32.601  27.850  23.122  1.00  0.00     0.005 C 
ATOM     69  C   UNL A   1      30.518  26.533  22.873  1.00  0.00     0.005 C 
ATOM     70  C   UNL A   1      32.594  25.392  23.727  1.00  0.00     0.002 C 
ATOM     71  C   UNL A   1      33.476  26.631  23.397  1.00  0.00     0.005 C 
ATOM     72  C   UNL A   1      31.392  25.280  22.764  1.00  0.00     0.005 C 
BRANCH  67  73
ATOM     73  C   UNL A   1      31.168  24.352  25.570  1.00  0.00     0.229 C 
ATOM     74  O   UNL A   1      29.931  24.463  25.605  1.00  0.00    -0.274 OA
ATOM     75  N   UNL A   1      31.648  23.110  25.869  1.00  0.00    -0.317 N 
ATOM     76  H   UNL A   1      30.985  22.458  26.192  1.00  0.00     0.170 HD
BRANCH  75  77
ATOM     77  C   UNL A   1      32.939  22.657  25.772  1.00  0.00     0.108 A 
ATOM     78  S   UNL A   1      34.019  23.350  26.900  1.00  0.00    -0.122 S 
ATOM     79  C   UNL A   1      33.507  21.634  25.025  1.00  0.00     0.078 A 
ATOM     80  C   UNL A   1      35.344  22.736  26.030  1.00  0.00     0.011 A 
ATOM     81  C   UNL A   1      34.959  21.771  25.113  1.00  0.00    -0.019 A 
ATOM     82  C   UNL A   1      36.748  23.206  26.283  1.00  0.00     0.047 C 
ATOM     83  C   UNL A   1      36.003  21.106  24.270  1.00  0.00     0.037 C 
ATOM     84  C   UNL A   1      37.741  22.615  25.270  1.00  0.00     0.006 C 
ATOM     85  C   UNL A   1      37.405  21.184  24.884  1.00  0.00     0.005 C 
BRANCH  79  86
ATOM     86  C   UNL A   1      32.681  20.783  24.144  1.00  0.00     0.257 C 
ATOM     87  O   UNL A   1      31.864  21.291  23.371  1.00  0.00    -0.269 OA
ATOM     88  N   UNL A   1      32.836  19.393  24.166  1.00  0.00    -0.339 N 
ATOM     89  C   UNL A   1      32.452  18.678  22.957  1.00  0.00     0.120 C 
ATOM     90  C   UNL A   1      32.807  18.589  25.388  1.00  0.00     0.120 C 
ATOM     91  C   UNL A   1      33.376  17.490  22.740  1.00  0.00     0.022 C 
ATOM     92  C   UNL A   1      33.608  17.283  25.250  1.00  0.00     0.022 C 
ATOM     93  C   UNL A   1      33.337  16.547  23.940  1.00  0.00     0.004 C 
ENDBRANCH  79  86
ENDBRANCH  75  77
ENDBRANCH  67  73
ENDBRANCH  63  65
ENDBRANCH  62  63
ENDBRANCH  61  62
ENDBRANCH  60  61
ENDBRANCH  59  60
ENDBRANCH   1  59
TORSDOF 20
ENDMDL
