MODEL 1
REMARK VINA RESULT:     -10.9      0.000      0.000
REMARK SMILES O=C(OCCOCCOCCOC(=O)[C@@H]1CCCC[C@@H]1NS(=O)(=O)c1ccc2ccccc2c1)c1ccc(-c2c3nc(c(-c4ccccc4)c4ccc([nH]4)c(-c4ccccc4)c4nc(c(-c5ccccc5)c5ccc2[nH]5)C=C4)C=C3)cc1
REMARK SMILES IDX 8 1 7 2 6 3 5 4 4 5 3 6 2 7 1 8 35 9 36 10 82 11 37 12 81 13
REMARK SMILES IDX 38 14 39 15 40 16 75 17 41 18 80 19 74 20 76 21 42 22 79 23
REMARK SMILES IDX 73 24 72 25 43 27 65 28 50 29 64 30 51 31 54 32 63 33 77 34
REMARK SMILES IDX 52 35 53 36 62 38 78 39 55 40 44 41 45 42 49 43 46 44 48 45
REMARK SMILES IDX 47 46 66 47 67 48 71 49 68 50 70 51 69 52 56 53 57 54 61 55
REMARK SMILES IDX 58 56 60 57 59 58 9 59 10 60 11 61 12 62 13 63 14 64 15 65
REMARK SMILES IDX 16 66 20 67 17 68 19 69 18 70 21 71 22 73 23 74 24 75 25 76
REMARK SMILES IDX 26 77 34 78 27 79 33 80 28 81 32 82 29 83 31 84 30 85
REMARK H PARENT 76 26 54 37 21 72
REMARK Flexibility Score: inf
ROOT
ATOM      1  C   UNL A   1      40.410  21.966  26.249  1.00  0.00     0.188 C 
ENDROOT
BRANCH   1   2
ATOM      2  C   UNL A   1      40.645  20.627  26.919  1.00  0.00     0.188 C 
BRANCH   2   3
ATOM      3  O   UNL A   1      41.233  19.662  26.065  1.00  0.00    -0.376 OA
BRANCH   3   4
ATOM      4  C   UNL A   1      42.239  18.882  26.698  1.00  0.00     0.202 C 
BRANCH   4   5
ATOM      5  C   UNL A   1      43.003  17.967  25.734  1.00  0.00     0.261 C 
BRANCH   5   6
ATOM      6  O   UNL A   1      44.332  18.398  25.378  1.00  0.00    -0.460 OA
BRANCH   6   7
ATOM      7  C   UNL A   1      44.762  19.406  24.578  1.00  0.00     0.338 C 
ATOM      8  O   UNL A   1      45.424  19.106  23.584  1.00  0.00    -0.246 OA
BRANCH   7   9
ATOM      9  C   UNL A   1      44.608  20.869  24.880  1.00  0.00     0.060 A 
ATOM     10  C   UNL A   1      44.677  21.902  23.944  1.00  0.00     0.016 A 
ATOM     11  C   UNL A   1      44.323  21.223  26.214  1.00  0.00     0.016 A 
ATOM     12  C   UNL A   1      44.334  23.212  24.263  1.00  0.00     0.010 A 
ATOM     13  C   UNL A   1      44.110  22.558  26.576  1.00  0.00     0.010 A 
ATOM     14  C   UNL A   1      44.117  23.554  25.591  1.00  0.00    -0.014 A 
BRANCH  14  15
ATOM     15  C   UNL A   1      44.343  24.960  25.960  1.00  0.00     0.031 A 
ATOM     16  C   UNL A   1      45.774  25.397  25.978  1.00  0.00     0.074 A 
ATOM     17  C   UNL A   1      43.341  25.829  26.179  1.00  0.00     0.049 A 
ATOM     18  N   UNL A   1      46.276  26.566  26.254  1.00  0.00    -0.248 NA
ATOM     19  C   UNL A   1      46.772  24.397  25.547  1.00  0.00     0.031 C 
ATOM     20  C   UNL A   1      41.928  25.574  25.942  1.00  0.00     0.029 A 
ATOM     21  N   UNL A   1      43.361  27.097  26.687  1.00  0.00    -0.354 N 
ATOM     22  C   UNL A   1      47.631  26.453  25.981  1.00  0.00     0.074 A 
ATOM     23  C   UNL A   1      47.885  25.105  25.540  1.00  0.00     0.031 C 
ATOM     24  C   UNL A   1      41.198  26.573  26.462  1.00  0.00     0.029 A 
ATOM     25  C   UNL A   1      42.109  27.554  27.028  1.00  0.00     0.049 A 
ATOM     26  H   UNL A   1      44.183  27.628  26.797  1.00  0.00     0.167 HD
ATOM     27  C   UNL A   1      48.584  27.399  26.104  1.00  0.00     0.031 A 
ATOM     28  C   UNL A   1      41.759  28.629  27.754  1.00  0.00     0.031 A 
ATOM     29  C   UNL A   1      48.310  28.679  26.688  1.00  0.00     0.049 A 
ATOM     30  C   UNL A   1      42.860  29.576  28.137  1.00  0.00     0.074 A 
ATOM     31  C   UNL A   1      49.184  29.703  26.984  1.00  0.00     0.029 A 
ATOM     32  N   UNL A   1      47.048  29.076  27.117  1.00  0.00    -0.354 N 
ATOM     33  N   UNL A   1      44.144  29.473  27.884  1.00  0.00    -0.248 NA
ATOM     34  C   UNL A   1      42.475  30.799  28.846  1.00  0.00     0.031 C 
ATOM     35  C   UNL A   1      48.461  30.686  27.668  1.00  0.00     0.029 A 
ATOM     36  C   UNL A   1      47.124  30.313  27.723  1.00  0.00     0.049 A 
ATOM     37  H   UNL A   1      46.222  28.552  27.004  1.00  0.00     0.167 HD
ATOM     38  C   UNL A   1      44.720  30.642  28.350  1.00  0.00     0.074 A 
ATOM     39  C   UNL A   1      43.640  31.430  28.922  1.00  0.00     0.031 C 
ATOM     40  C   UNL A   1      46.014  31.045  28.285  1.00  0.00     0.031 A 
BRANCH  27  41
ATOM     41  C   UNL A   1      49.978  26.985  25.732  1.00  0.00    -0.014 A 
ATOM     42  C   UNL A   1      50.512  27.260  24.460  1.00  0.00     0.009 A 
ATOM     43  C   UNL A   1      50.714  26.186  26.618  1.00  0.00     0.009 A 
ATOM     44  C   UNL A   1      51.726  26.693  24.065  1.00  0.00     0.001 A 
ATOM     45  C   UNL A   1      51.942  25.645  26.231  1.00  0.00     0.001 A 
ATOM     46  C   UNL A   1      52.438  25.885  24.950  1.00  0.00     0.000 A 
ENDBRANCH  27  41
BRANCH  28  47
ATOM     47  C   UNL A   1      40.344  28.820  28.166  1.00  0.00    -0.014 A 
ATOM     48  C   UNL A   1      39.413  29.453  27.332  1.00  0.00     0.009 A 
ATOM     49  C   UNL A   1      39.905  28.316  29.404  1.00  0.00     0.009 A 
ATOM     50  C   UNL A   1      38.078  29.589  27.735  1.00  0.00     0.001 A 
ATOM     51  C   UNL A   1      38.569  28.438  29.796  1.00  0.00     0.001 A 
ATOM     52  C   UNL A   1      37.657  29.079  28.962  1.00  0.00     0.000 A 
ENDBRANCH  28  47
BRANCH  40  53
ATOM     53  C   UNL A   1      46.323  32.414  28.807  1.00  0.00    -0.014 A 
ATOM     54  C   UNL A   1      46.206  33.548  27.993  1.00  0.00     0.009 A 
ATOM     55  C   UNL A   1      46.627  32.567  30.169  1.00  0.00     0.009 A 
ATOM     56  C   UNL A   1      46.403  34.818  28.535  1.00  0.00     0.001 A 
ATOM     57  C   UNL A   1      46.790  33.838  30.714  1.00  0.00     0.001 A 
ATOM     58  C   UNL A   1      46.682  34.961  29.896  1.00  0.00     0.000 A 
ENDBRANCH  40  53
ENDBRANCH  14  15
ENDBRANCH   7   9
ENDBRANCH   6   7
ENDBRANCH   5   6
ENDBRANCH   4   5
ENDBRANCH   3   4
ENDBRANCH   2   3
ENDBRANCH   1   2
BRANCH   1  59
ATOM     59  O   UNL A   1      39.059  22.380  26.101  1.00  0.00    -0.376 OA
BRANCH  59  60
ATOM     60  C   UNL A   1      38.161  21.498  25.421  1.00  0.00     0.202 C 
BRANCH  60  61
ATOM     61  C   UNL A   1      36.680  21.871  25.367  1.00  0.00     0.261 C 
BRANCH  61  62
ATOM     62  O   UNL A   1      36.429  23.078  24.626  1.00  0.00    -0.463 OA
BRANCH  62  63
ATOM     63  C   UNL A   1      35.376  22.997  23.771  1.00  0.00     0.310 C 
ATOM     64  O   UNL A   1      35.450  23.141  22.555  1.00  0.00    -0.252 OA
BRANCH  63  65
ATOM     65  C   UNL A   1      34.050  22.765  24.455  1.00  0.00     0.117 C 
ATOM     66  C   UNL A   1      33.222  21.549  24.046  1.00  0.00     0.017 C 
ATOM     67  C   UNL A   1      33.171  24.028  24.436  1.00  0.00     0.084 C 
ATOM     68  C   UNL A   1      32.205  21.283  25.154  1.00  0.00     0.001 C 
ATOM     69  C   UNL A   1      31.986  23.823  25.411  1.00  0.00     0.021 C 
ATOM     70  C   UNL A   1      31.259  22.471  25.292  1.00  0.00     0.002 C 
BRANCH  67  71
ATOM     71  N   UNL A   1      32.654  24.300  23.067  1.00  0.00    -0.207 NA
ATOM     72  H   UNL A   1      31.668  24.035  23.070  1.00  0.00     0.141 HD
BRANCH  71  73
ATOM     73  S   UNL A   1      32.734  25.858  22.403  1.00  0.00     0.240 S 
ATOM     74  O   UNL A   1      34.112  26.011  22.000  1.00  0.00    -0.207 OA
ATOM     75  O   UNL A   1      31.643  26.025  21.467  1.00  0.00    -0.207 OA
BRANCH  73  76
ATOM     76  C   UNL A   1      32.467  26.929  23.801  1.00  0.00     0.083 A 
ATOM     77  C   UNL A   1      31.211  27.503  24.005  1.00  0.00     0.022 A 
ATOM     78  C   UNL A   1      33.516  27.216  24.676  1.00  0.00     0.030 A 
ATOM     79  C   UNL A   1      31.052  28.495  24.979  1.00  0.00     0.010 A 
ATOM     80  C   UNL A   1      33.370  28.224  25.649  1.00  0.00    -0.017 A 
ATOM     81  C   UNL A   1      32.141  28.913  25.759  1.00  0.00    -0.018 A 
ATOM     82  C   UNL A   1      34.452  28.634  26.447  1.00  0.00     0.009 A 
ATOM     83  C   UNL A   1      32.058  30.050  26.584  1.00  0.00     0.009 A 
ATOM     84  C   UNL A   1      34.355  29.766  27.260  1.00  0.00     0.001 A 
ATOM     85  C   UNL A   1      33.168  30.490  27.308  1.00  0.00     0.001 A 
ENDBRANCH  73  76
ENDBRANCH  71  73
ENDBRANCH  67  71
ENDBRANCH  63  65
ENDBRANCH  62  63
ENDBRANCH  61  62
ENDBRANCH  60  61
ENDBRANCH  59  60
ENDBRANCH   1  59
TORSDOF 20
ENDMDL
MODEL 2
REMARK VINA RESULT:     -10.4      5.730     11.011
REMARK SMILES O=C(OCCOCCOCCOC(=O)[C@@H]1CCCC[C@@H]1NS(=O)(=O)c1ccc2ccccc2c1)c1ccc(-c2c3nc(c(-c4ccccc4)c4ccc([nH]4)c(-c4ccccc4)c4nc(c(-c5ccccc5)c5ccc2[nH]5)C=C4)C=C3)cc1
REMARK SMILES IDX 8 1 7 2 6 3 5 4 4 5 3 6 2 7 1 8 35 9 36 10 82 11 37 12 81 13
REMARK SMILES IDX 38 14 39 15 40 16 75 17 41 18 80 19 74 20 76 21 42 22 79 23
REMARK SMILES IDX 73 24 72 25 43 27 65 28 50 29 64 30 51 31 54 32 63 33 77 34
REMARK SMILES IDX 52 35 53 36 62 38 78 39 55 40 44 41 45 42 49 43 46 44 48 45
REMARK SMILES IDX 47 46 66 47 67 48 71 49 68 50 70 51 69 52 56 53 57 54 61 55
REMARK SMILES IDX 58 56 60 57 59 58 9 59 10 60 11 61 12 62 13 63 14 64 15 65
REMARK SMILES IDX 16 66 20 67 17 68 19 69 18 70 21 71 22 73 23 74 24 75 25 76
REMARK SMILES IDX 26 77 34 78 27 79 33 80 28 81 32 82 29 83 31 84 30 85
REMARK H PARENT 76 26 54 37 21 72
REMARK Flexibility Score: inf
ROOT
ATOM      1  C   UNL A   1      33.839  33.420  28.253  1.00  0.00     0.188 C 
ENDROOT
BRANCH   1   2
ATOM      2  C   UNL A   1      34.767  34.538  27.826  1.00  0.00     0.188 C 
BRANCH   2   3
ATOM      3  O   UNL A   1      34.392  35.809  28.327  1.00  0.00    -0.376 OA
BRANCH   3   4
ATOM      4  C   UNL A   1      33.063  35.852  28.831  1.00  0.00     0.202 C 
BRANCH   4   5
ATOM      5  C   UNL A   1      32.930  36.637  30.141  1.00  0.00     0.261 C 
BRANCH   5   6
ATOM      6  O   UNL A   1      33.732  36.165  31.242  1.00  0.00    -0.460 OA
BRANCH   6   7
ATOM      7  C   UNL A   1      33.734  34.982  31.905  1.00  0.00     0.338 C 
ATOM      8  O   UNL A   1      32.794  34.750  32.666  1.00  0.00    -0.246 OA
BRANCH   7   9
ATOM      9  C   UNL A   1      34.860  33.988  31.888  1.00  0.00     0.060 A 
ATOM     10  C   UNL A   1      34.826  32.714  32.458  1.00  0.00     0.016 A 
ATOM     11  C   UNL A   1      36.032  34.357  31.197  1.00  0.00     0.016 A 
ATOM     12  C   UNL A   1      35.831  31.779  32.236  1.00  0.00     0.010 A 
ATOM     13  C   UNL A   1      37.110  33.472  31.084  1.00  0.00     0.010 A 
ATOM     14  C   UNL A   1      37.004  32.177  31.608  1.00  0.00    -0.014 A 
BRANCH  14  15
ATOM     15  C   UNL A   1      38.216  31.397  31.906  1.00  0.00     0.031 A 
ATOM     16  C   UNL A   1      39.044  31.906  33.044  1.00  0.00     0.074 A 
ATOM     17  C   UNL A   1      38.522  30.253  31.272  1.00  0.00     0.049 A 
ATOM     18  N   UNL A   1      40.149  31.429  33.538  1.00  0.00    -0.248 NA
ATOM     19  C   UNL A   1      38.508  33.071  33.777  1.00  0.00     0.031 C 
ATOM     20  C   UNL A   1      37.664  29.543  30.334  1.00  0.00     0.029 A 
ATOM     21  N   UNL A   1      39.665  29.504  31.295  1.00  0.00    -0.354 N 
ATOM     22  C   UNL A   1      40.407  32.199  34.662  1.00  0.00     0.074 A 
ATOM     23  C   UNL A   1      39.365  33.188  34.772  1.00  0.00     0.031 C 
ATOM     24  C   UNL A   1      38.362  28.565  29.738  1.00  0.00     0.029 A 
ATOM     25  C   UNL A   1      39.705  28.563  30.293  1.00  0.00     0.049 A 
ATOM     26  H   UNL A   1      40.383  29.624  31.959  1.00  0.00     0.167 HD
ATOM     27  C   UNL A   1      41.441  32.092  35.521  1.00  0.00     0.031 A 
ATOM     28  C   UNL A   1      40.738  27.819  29.859  1.00  0.00     0.031 A 
ATOM     29  C   UNL A   1      42.531  31.191  35.287  1.00  0.00     0.049 A 
ATOM     30  C   UNL A   1      42.006  27.886  30.659  1.00  0.00     0.074 A 
ATOM     31  C   UNL A   1      43.702  31.041  35.999  1.00  0.00     0.029 A 
ATOM     32  N   UNL A   1      42.590  30.319  34.206  1.00  0.00    -0.354 N 
ATOM     33  N   UNL A   1      42.258  28.617  31.722  1.00  0.00    -0.248 NA
ATOM     34  C   UNL A   1      43.104  27.008  30.250  1.00  0.00     0.031 C 
ATOM     35  C   UNL A   1      44.505  30.135  35.299  1.00  0.00     0.029 A 
ATOM     36  C   UNL A   1      43.802  29.659  34.199  1.00  0.00     0.049 A 
ATOM     37  H   UNL A   1      41.874  30.190  33.543  1.00  0.00     0.167 HD
ATOM     38  C   UNL A   1      43.522  28.246  32.149  1.00  0.00     0.074 A 
ATOM     39  C   UNL A   1      43.991  27.240  31.211  1.00  0.00     0.031 C 
ATOM     40  C   UNL A   1      44.219  28.672  33.231  1.00  0.00     0.031 A 
BRANCH  27  41
ATOM     41  C   UNL A   1      41.460  33.073  36.657  1.00  0.00    -0.014 A 
ATOM     42  C   UNL A   1      40.853  32.779  37.892  1.00  0.00     0.009 A 
ATOM     43  C   UNL A   1      41.968  34.361  36.441  1.00  0.00     0.009 A 
ATOM     44  C   UNL A   1      40.704  33.774  38.861  1.00  0.00     0.001 A 
ATOM     45  C   UNL A   1      41.844  35.346  37.423  1.00  0.00     0.001 A 
ATOM     46  C   UNL A   1      41.198  35.057  38.624  1.00  0.00     0.000 A 
ENDBRANCH  27  41
BRANCH  28  47
ATOM     47  C   UNL A   1      40.599  27.004  28.623  1.00  0.00    -0.014 A 
ATOM     48  C   UNL A   1      39.970  25.752  28.633  1.00  0.00     0.009 A 
ATOM     49  C   UNL A   1      41.068  27.513  27.398  1.00  0.00     0.009 A 
ATOM     50  C   UNL A   1      39.827  25.023  27.446  1.00  0.00     0.001 A 
ATOM     51  C   UNL A   1      40.908  26.790  26.213  1.00  0.00     0.001 A 
ATOM     52  C   UNL A   1      40.291  25.542  26.238  1.00  0.00     0.000 A 
ENDBRANCH  28  47
BRANCH  40  53
ATOM     53  C   UNL A   1      45.544  28.020  33.481  1.00  0.00    -0.014 A 
ATOM     54  C   UNL A   1      45.633  26.753  34.072  1.00  0.00     0.009 A 
ATOM     55  C   UNL A   1      46.708  28.649  33.011  1.00  0.00     0.009 A 
ATOM     56  C   UNL A   1      46.874  26.130  34.200  1.00  0.00     0.001 A 
ATOM     57  C   UNL A   1      47.940  28.009  33.110  1.00  0.00     0.001 A 
ATOM     58  C   UNL A   1      48.022  26.753  33.708  1.00  0.00     0.000 A 
ENDBRANCH  40  53
ENDBRANCH  14  15
ENDBRANCH   7   9
ENDBRANCH   6   7
ENDBRANCH   5   6
ENDBRANCH   4   5
ENDBRANCH   3   4
ENDBRANCH   2   3
ENDBRANCH   1   2
BRANCH   1  59
ATOM     59  O   UNL A   1      34.429  32.324  28.939  1.00  0.00    -0.376 OA
BRANCH  59  60
ATOM     60  C   UNL A   1      34.398  31.044  28.303  1.00  0.00     0.202 C 
BRANCH  60  61
ATOM     61  C   UNL A   1      33.409  30.827  27.157  1.00  0.00     0.261 C 
BRANCH  61  62
ATOM     62  O   UNL A   1      33.788  29.750  26.281  1.00  0.00    -0.463 OA
BRANCH  62  63
ATOM     63  C   UNL A   1      32.797  29.338  25.448  1.00  0.00     0.310 C 
ATOM     64  O   UNL A   1      31.611  29.624  25.575  1.00  0.00    -0.252 OA
BRANCH  63  65
ATOM     65  C   UNL A   1      33.269  28.421  24.344  1.00  0.00     0.117 C 
ATOM     66  C   UNL A   1      32.897  28.763  22.903  1.00  0.00     0.017 C 
ATOM     67  C   UNL A   1      32.925  26.951  24.639  1.00  0.00     0.084 C 
ATOM     68  C   UNL A   1      33.840  27.993  21.982  1.00  0.00     0.001 C 
ATOM     69  C   UNL A   1      33.701  26.050  23.647  1.00  0.00     0.021 C 
ATOM     70  C   UNL A   1      33.648  26.493  22.172  1.00  0.00     0.002 C 
BRANCH  67  71
ATOM     71  N   UNL A   1      31.463  26.705  24.501  1.00  0.00    -0.207 NA
ATOM     72  H   UNL A   1      31.344  26.102  23.687  1.00  0.00     0.141 HD
BRANCH  71  73
ATOM     73  S   UNL A   1      30.581  25.993  25.763  1.00  0.00     0.240 S 
ATOM     74  O   UNL A   1      31.004  26.704  26.948  1.00  0.00    -0.207 OA
ATOM     75  O   UNL A   1      29.189  25.918  25.376  1.00  0.00    -0.207 OA
BRANCH  73  76
ATOM     76  C   UNL A   1      31.245  24.344  25.867  1.00  0.00     0.083 A 
ATOM     77  C   UNL A   1      31.857  23.916  27.047  1.00  0.00     0.022 A 
ATOM     78  C   UNL A   1      31.180  23.490  24.765  1.00  0.00     0.030 A 
ATOM     79  C   UNL A   1      32.552  22.702  27.066  1.00  0.00     0.010 A 
ATOM     80  C   UNL A   1      31.889  22.273  24.770  1.00  0.00    -0.017 A 
ATOM     81  C   UNL A   1      32.634  21.906  25.913  1.00  0.00    -0.018 A 
ATOM     82  C   UNL A   1      31.960  21.462  23.624  1.00  0.00     0.009 A 
ATOM     83  C   UNL A   1      33.502  20.800  25.846  1.00  0.00     0.009 A 
ATOM     84  C   UNL A   1      32.827  20.369  23.572  1.00  0.00     0.001 A 
ATOM     85  C   UNL A   1      33.618  20.054  24.672  1.00  0.00     0.001 A 
ENDBRANCH  73  76
ENDBRANCH  71  73
ENDBRANCH  67  71
ENDBRANCH  63  65
ENDBRANCH  62  63
ENDBRANCH  61  62
ENDBRANCH  60  61
ENDBRANCH  59  60
ENDBRANCH   1  59
TORSDOF 20
ENDMDL
MODEL 3
REMARK VINA RESULT:     -10.3      6.372     11.430
REMARK SMILES O=C(OCCOCCOCCOC(=O)[C@@H]1CCCC[C@@H]1NS(=O)(=O)c1ccc2ccccc2c1)c1ccc(-c2c3nc(c(-c4ccccc4)c4ccc([nH]4)c(-c4ccccc4)c4nc(c(-c5ccccc5)c5ccc2[nH]5)C=C4)C=C3)cc1
REMARK SMILES IDX 8 1 7 2 6 3 5 4 4 5 3 6 2 7 1 8 35 9 36 10 82 11 37 12 81 13
REMARK SMILES IDX 38 14 39 15 40 16 75 17 41 18 80 19 74 20 76 21 42 22 79 23
REMARK SMILES IDX 73 24 72 25 43 27 65 28 50 29 64 30 51 31 54 32 63 33 77 34
REMARK SMILES IDX 52 35 53 36 62 38 78 39 55 40 44 41 45 42 49 43 46 44 48 45
REMARK SMILES IDX 47 46 66 47 67 48 71 49 68 50 70 51 69 52 56 53 57 54 61 55
REMARK SMILES IDX 58 56 60 57 59 58 9 59 10 60 11 61 12 62 13 63 14 64 15 65
REMARK SMILES IDX 16 66 20 67 17 68 19 69 18 70 21 71 22 73 23 74 24 75 25 76
REMARK SMILES IDX 26 77 34 78 27 79 33 80 28 81 32 82 29 83 31 84 30 85
REMARK H PARENT 76 26 54 37 21 72
REMARK Flexibility Score: inf
ROOT
ATOM      1  C   UNL A   1      34.221  32.291  27.997  1.00  0.00     0.188 C 
ENDROOT
BRANCH   1   2
ATOM      2  C   UNL A   1      35.305  33.348  28.049  1.00  0.00     0.188 C 
BRANCH   2   3
ATOM      3  O   UNL A   1      34.833  34.625  28.440  1.00  0.00    -0.376 OA
BRANCH   3   4
ATOM      4  C   UNL A   1      33.436  34.659  28.703  1.00  0.00     0.202 C 
BRANCH   4   5
ATOM      5  C   UNL A   1      32.931  36.033  29.158  1.00  0.00     0.261 C 
BRANCH   5   6
ATOM      6  O   UNL A   1      32.948  36.270  30.580  1.00  0.00    -0.460 OA
BRANCH   6   7
ATOM      7  C   UNL A   1      32.974  35.411  31.631  1.00  0.00     0.338 C 
ATOM      8  O   UNL A   1      31.926  35.234  32.253  1.00  0.00    -0.246 OA
BRANCH   7   9
ATOM      9  C   UNL A   1      34.211  34.759  32.178  1.00  0.00     0.060 A 
ATOM     10  C   UNL A   1      35.523  35.159  31.914  1.00  0.00     0.016 A 
ATOM     11  C   UNL A   1      34.031  33.684  33.070  1.00  0.00     0.016 A 
ATOM     12  C   UNL A   1      36.608  34.634  32.606  1.00  0.00     0.010 A 
ATOM     13  C   UNL A   1      35.126  33.053  33.670  1.00  0.00     0.010 A 
ATOM     14  C   UNL A   1      36.420  33.535  33.434  1.00  0.00    -0.014 A 
BRANCH  14  15
ATOM     15  C   UNL A   1      37.587  32.668  33.664  1.00  0.00     0.031 A 
ATOM     16  C   UNL A   1      38.389  32.983  34.888  1.00  0.00     0.074 A 
ATOM     17  C   UNL A   1      37.873  31.607  32.891  1.00  0.00     0.049 A 
ATOM     18  N   UNL A   1      39.455  32.396  35.349  1.00  0.00    -0.248 NA
ATOM     19  C   UNL A   1      37.872  34.063  35.753  1.00  0.00     0.031 C 
ATOM     20  C   UNL A   1      37.024  31.068  31.839  1.00  0.00     0.029 A 
ATOM     21  N   UNL A   1      38.984  30.812  32.852  1.00  0.00    -0.354 N 
ATOM     22  C   UNL A   1      39.699  32.996  36.575  1.00  0.00     0.074 A 
ATOM     23  C   UNL A   1      38.694  34.007  36.783  1.00  0.00     0.031 C 
ATOM     24  C   UNL A   1      37.706  30.148  31.139  1.00  0.00     0.029 A 
ATOM     25  C   UNL A   1      39.026  30.012  31.733  1.00  0.00     0.049 A 
ATOM     26  H   UNL A   1      39.679  30.810  33.549  1.00  0.00     0.167 HD
ATOM     27  C   UNL A   1      40.694  32.730  37.445  1.00  0.00     0.031 A 
ATOM     28  C   UNL A   1      40.044  29.287  31.238  1.00  0.00     0.031 A 
ATOM     29  C   UNL A   1      41.755  31.821  37.129  1.00  0.00     0.049 A 
ATOM     30  C   UNL A   1      41.282  29.191  32.081  1.00  0.00     0.074 A 
ATOM     31  C   UNL A   1      42.891  31.525  37.853  1.00  0.00     0.029 A 
ATOM     32  N   UNL A   1      41.823  31.099  35.942  1.00  0.00    -0.354 N 
ATOM     33  N   UNL A   1      41.520  29.761  33.241  1.00  0.00    -0.248 NA
ATOM     34  C   UNL A   1      42.359  28.327  31.594  1.00  0.00     0.031 C 
ATOM     35  C   UNL A   1      43.685  30.686  37.064  1.00  0.00     0.029 A 
ATOM     36  C   UNL A   1      43.007  30.393  35.887  1.00  0.00     0.049 A 
ATOM     37  H   UNL A   1      41.128  31.092  35.244  1.00  0.00     0.167 HD
ATOM     38  C   UNL A   1      42.751  29.281  33.656  1.00  0.00     0.074 A 
ATOM     39  C   UNL A   1      43.217  28.389  32.606  1.00  0.00     0.031 C 
ATOM     40  C   UNL A   1      43.422  29.527  34.808  1.00  0.00     0.031 A 
BRANCH  27  41
ATOM     41  C   UNL A   1      40.707  33.549  38.704  1.00  0.00    -0.014 A 
ATOM     42  C   UNL A   1      40.003  33.142  39.852  1.00  0.00     0.009 A 
ATOM     43  C   UNL A   1      41.316  34.811  38.693  1.00  0.00     0.009 A 
ATOM     44  C   UNL A   1      39.860  34.010  40.938  1.00  0.00     0.001 A 
ATOM     45  C   UNL A   1      41.197  35.664  39.792  1.00  0.00     0.001 A 
ATOM     46  C   UNL A   1      40.456  35.270  40.905  1.00  0.00     0.000 A 
ENDBRANCH  27  41
BRANCH  28  47
ATOM     47  C   UNL A   1      39.922  28.652  29.899  1.00  0.00    -0.014 A 
ATOM     48  C   UNL A   1      40.277  29.332  28.726  1.00  0.00     0.009 A 
ATOM     49  C   UNL A   1      39.483  27.320  29.798  1.00  0.00     0.009 A 
ATOM     50  C   UNL A   1      40.182  28.695  27.483  1.00  0.00     0.001 A 
ATOM     51  C   UNL A   1      39.405  26.682  28.557  1.00  0.00     0.001 A 
ATOM     52  C   UNL A   1      39.751  27.372  27.399  1.00  0.00     0.000 A 
ENDBRANCH  28  47
BRANCH  40  53
ATOM     53  C   UNL A   1      44.709  28.790  35.012  1.00  0.00    -0.014 A 
ATOM     54  C   UNL A   1      45.933  29.333  34.601  1.00  0.00     0.009 A 
ATOM     55  C   UNL A   1      44.692  27.583  35.729  1.00  0.00     0.009 A 
ATOM     56  C   UNL A   1      47.124  28.668  34.895  1.00  0.00     0.001 A 
ATOM     57  C   UNL A   1      45.884  26.940  36.050  1.00  0.00     0.001 A 
ATOM     58  C   UNL A   1      47.098  27.481  35.629  1.00  0.00     0.000 A 
ENDBRANCH  40  53
ENDBRANCH  14  15
ENDBRANCH   7   9
ENDBRANCH   6   7
ENDBRANCH   5   6
ENDBRANCH   4   5
ENDBRANCH   3   4
ENDBRANCH   2   3
ENDBRANCH   1   2
BRANCH   1  59
ATOM     59  O   UNL A   1      34.504  31.053  28.635  1.00  0.00    -0.376 OA
BRANCH  59  60
ATOM     60  C   UNL A   1      35.173  30.046  27.871  1.00  0.00     0.202 C 
BRANCH  60  61
ATOM     61  C   UNL A   1      34.453  29.458  26.657  1.00  0.00     0.261 C 
BRANCH  61  62
ATOM     62  O   UNL A   1      33.913  28.147  26.902  1.00  0.00    -0.463 OA
BRANCH  62  63
ATOM     63  C   UNL A   1      33.659  27.432  25.776  1.00  0.00     0.310 C 
ATOM     64  O   UNL A   1      33.468  27.919  24.666  1.00  0.00    -0.252 OA
BRANCH  63  65
ATOM     65  C   UNL A   1      33.568  25.941  26.004  1.00  0.00     0.117 C 
ATOM     66  C   UNL A   1      34.823  25.095  25.805  1.00  0.00     0.017 C 
ATOM     67  C   UNL A   1      32.389  25.319  25.238  1.00  0.00     0.084 C 
ATOM     68  C   UNL A   1      34.607  23.763  26.520  1.00  0.00     0.001 C 
ATOM     69  C   UNL A   1      32.163  23.878  25.758  1.00  0.00     0.021 C 
ATOM     70  C   UNL A   1      33.434  23.018  25.894  1.00  0.00     0.002 C 
BRANCH  67  71
ATOM     71  N   UNL A   1      32.659  25.287  23.774  1.00  0.00    -0.207 NA
ATOM     72  H   UNL A   1      33.313  24.520  23.615  1.00  0.00     0.141 HD
BRANCH  71  73
ATOM     73  S   UNL A   1      31.394  25.083  22.663  1.00  0.00     0.240 S 
ATOM     74  O   UNL A   1      32.007  25.291  21.372  1.00  0.00    -0.207 OA
ATOM     75  O   UNL A   1      30.684  23.863  22.982  1.00  0.00    -0.207 OA
BRANCH  73  76
ATOM     76  C   UNL A   1      30.326  26.474  22.975  1.00  0.00     0.083 A 
ATOM     77  C   UNL A   1      29.150  26.295  23.706  1.00  0.00     0.022 A 
ATOM     78  C   UNL A   1      30.648  27.734  22.469  1.00  0.00     0.030 A 
ATOM     79  C   UNL A   1      28.216  27.335  23.782  1.00  0.00     0.010 A 
ATOM     80  C   UNL A   1      29.709  28.782  22.527  1.00  0.00    -0.017 A 
ATOM     81  C   UNL A   1      28.453  28.558  23.136  1.00  0.00    -0.018 A 
ATOM     82  C   UNL A   1      29.948  30.016  21.899  1.00  0.00     0.009 A 
ATOM     83  C   UNL A   1      27.443  29.530  23.015  1.00  0.00     0.009 A 
ATOM     84  C   UNL A   1      28.934  30.971  21.785  1.00  0.00     0.001 A 
ATOM     85  C   UNL A   1      27.675  30.718  22.318  1.00  0.00     0.001 A 
ENDBRANCH  73  76
ENDBRANCH  71  73
ENDBRANCH  67  71
ENDBRANCH  63  65
ENDBRANCH  62  63
ENDBRANCH  61  62
ENDBRANCH  60  61
ENDBRANCH  59  60
ENDBRANCH   1  59
TORSDOF 20
ENDMDL
