MODEL 1
REMARK VINA RESULT:     -10.1      0.000      0.000
REMARK SMILES C[C@@H](NC(=O)[C@@H]1CC[C@@H]2CCCC[C@@H]2[NH2+]1)C(=O)OCCOCCOCCOC(=O)c1ccc(-c2c3nc(c(-c4ccccc4)c4ccc([nH]4)c(-c4ccccc4)c4nc(c(-c5ccccc5)c5ccc2[nH]5)C=C4)C=C3)cc1
REMARK SMILES IDX 22 1 21 2 20 3 19 4 18 5 16 6 17 7 2 8 1 9 3 10 4 11 5 13
REMARK SMILES IDX 6 14 7 15 15 16 8 17 14 18 9 21 13 22 10 23 12 24 11 25
REMARK SMILES IDX 23 26 24 27 25 28 26 29 27 30 28 31 29 32 30 33 31 34 77 35
REMARK SMILES IDX 32 36 76 37 33 38 34 39 35 40 70 41 36 42 75 43 69 44 71 45
REMARK SMILES IDX 37 46 74 47 68 48 67 49 38 51 60 52 45 53 59 54 46 55 49 56
REMARK SMILES IDX 58 57 72 58 47 59 48 60 57 62 73 63 50 64 39 65 40 66 44 67
REMARK SMILES IDX 41 68 43 69 42 70 61 71 62 72 66 73 63 74 65 75 64 76 51 77
REMARK SMILES IDX 52 78 56 79 53 80 55 81 54 82
REMARK H PARENT 3 12 15 19 15 20 71 50 49 61
REMARK Flexibility Score: inf
ROOT
ATOM      1  C   UNL A   1      40.398  20.661  26.777  1.00  0.00     0.188 C 
ENDROOT
BRANCH   1   2
ATOM      2  O   UNL A   1      40.245  21.625  25.752  1.00  0.00    -0.376 OA
BRANCH   2   3
ATOM      3  C   UNL A   1      39.015  22.320  25.780  1.00  0.00     0.202 C 
BRANCH   3   4
ATOM      4  C   UNL A   1      37.726  21.564  25.418  1.00  0.00     0.261 C 
BRANCH   4   5
ATOM      5  O   UNL A   1      36.447  22.177  25.106  1.00  0.00    -0.462 OA
BRANCH   5   6
ATOM      6  C   UNL A   1      36.138  22.691  23.901  1.00  0.00     0.328 C 
ATOM      7  O   UNL A   1      36.829  22.588  22.892  1.00  0.00    -0.250 OA
BRANCH   6   8
ATOM      8  C   UNL A   1      34.919  23.591  23.896  1.00  0.00     0.189 C 
ATOM      9  C   UNL A   1      33.903  23.124  22.856  1.00  0.00     0.043 C 
BRANCH   8  10
ATOM     10  N   UNL A   1      34.319  23.773  25.219  1.00  0.00    -0.338 N 
ATOM     11  C   UNL A   1      33.417  24.741  25.604  1.00  0.00     0.278 C 
ATOM     12  H   UNL A   1      34.591  23.130  25.914  1.00  0.00     0.164 HD
ATOM     13  O   UNL A   1      32.465  24.356  26.287  1.00  0.00    -0.268 OA
BRANCH  11  14
ATOM     14  C   UNL A   1      33.732  26.249  25.392  1.00  0.00     0.272 C 
ATOM     15  C   UNL A   1      32.955  27.172  26.332  1.00  0.00     0.076 C 
ATOM     16  N   UNL A   1      33.582  26.810  24.046  1.00  0.00    -0.333 N 
ATOM     17  C   UNL A   1      31.501  27.365  25.894  1.00  0.00     0.016 C 
ATOM     18  C   UNL A   1      32.247  26.908  23.496  1.00  0.00     0.186 C 
ATOM     19  H   UNL A   1      34.129  26.227  23.411  1.00  0.00     0.347 HD
ATOM     20  H   UNL A   1      33.892  27.777  24.136  1.00  0.00     0.347 HD
ATOM     21  C   UNL A   1      31.381  27.758  24.412  1.00  0.00     0.048 C 
ATOM     22  C   UNL A   1      31.656  25.584  22.987  1.00  0.00     0.065 C 
ATOM     23  C   UNL A   1      29.955  27.724  23.878  1.00  0.00     0.010 C 
ATOM     24  C   UNL A   1      30.290  25.190  23.533  1.00  0.00     0.006 C 
ATOM     25  C   UNL A   1      29.349  26.327  23.925  1.00  0.00     0.001 C 
ENDBRANCH  11  14
ENDBRANCH   8  10
ENDBRANCH   6   8
ENDBRANCH   5   6
ENDBRANCH   4   5
ENDBRANCH   3   4
ENDBRANCH   2   3
ENDBRANCH   1   2
BRANCH   1  26
ATOM     26  C   UNL A   1      41.302  19.488  26.362  1.00  0.00     0.188 C 
BRANCH  26  27
ATOM     27  O   UNL A   1      42.227  19.645  25.303  1.00  0.00    -0.376 OA
BRANCH  27  28
ATOM     28  C   UNL A   1      43.560  20.003  25.641  1.00  0.00     0.202 C 
BRANCH  28  29
ATOM     29  C   UNL A   1      44.151  21.373  25.223  1.00  0.00     0.261 C 
BRANCH  29  30
ATOM     30  O   UNL A   1      43.281  22.525  25.252  1.00  0.00    -0.460 OA
BRANCH  30  31
ATOM     31  C   UNL A   1      43.877  23.746  25.219  1.00  0.00     0.338 C 
ATOM     32  O   UNL A   1      44.757  24.106  24.449  1.00  0.00    -0.246 OA
BRANCH  31  33
ATOM     33  C   UNL A   1      43.112  24.699  26.075  1.00  0.00     0.060 A 
ATOM     34  C   UNL A   1      43.380  26.078  25.964  1.00  0.00     0.016 A 
ATOM     35  C   UNL A   1      42.136  24.257  26.966  1.00  0.00     0.016 A 
ATOM     36  C   UNL A   1      42.691  27.011  26.741  1.00  0.00     0.010 A 
ATOM     37  C   UNL A   1      41.488  25.187  27.791  1.00  0.00     0.010 A 
ATOM     38  C   UNL A   1      41.787  26.562  27.707  1.00  0.00    -0.014 A 
BRANCH  38  39
ATOM     39  C   UNL A   1      41.375  27.480  28.799  1.00  0.00     0.031 A 
ATOM     40  C   UNL A   1      42.162  27.432  30.082  1.00  0.00     0.074 A 
ATOM     41  C   UNL A   1      40.355  28.346  28.671  1.00  0.00     0.049 A 
ATOM     42  N   UNL A   1      41.948  28.048  31.216  1.00  0.00    -0.248 NA
ATOM     43  C   UNL A   1      43.352  26.562  30.084  1.00  0.00     0.031 C 
ATOM     44  C   UNL A   1      39.559  28.556  27.465  1.00  0.00     0.029 A 
ATOM     45  N   UNL A   1      39.807  29.207  29.593  1.00  0.00    -0.354 N 
ATOM     46  C   UNL A   1      42.957  27.620  32.070  1.00  0.00     0.074 A 
ATOM     47  C   UNL A   1      43.772  26.681  31.333  1.00  0.00     0.031 C 
ATOM     48  C   UNL A   1      38.606  29.469  27.728  1.00  0.00     0.029 A 
ATOM     49  C   UNL A   1      38.701  29.876  29.129  1.00  0.00     0.049 A 
ATOM     50  H   UNL A   1      40.172  29.331  30.498  1.00  0.00     0.167 HD
ATOM     51  C   UNL A   1      43.185  27.973  33.356  1.00  0.00     0.031 A 
ATOM     52  C   UNL A   1      37.845  30.695  29.773  1.00  0.00     0.031 A 
ATOM     53  C   UNL A   1      42.371  28.898  34.098  1.00  0.00     0.049 A 
ATOM     54  C   UNL A   1      38.066  31.006  31.233  1.00  0.00     0.074 A 
ATOM     55  C   UNL A   1      42.531  29.330  35.402  1.00  0.00     0.029 A 
ATOM     56  N   UNL A   1      41.239  29.524  33.602  1.00  0.00    -0.354 N 
ATOM     57  N   UNL A   1      39.027  30.606  32.030  1.00  0.00    -0.248 NA
ATOM     58  C   UNL A   1      37.082  31.889  31.879  1.00  0.00     0.031 C 
ATOM     59  C   UNL A   1      41.455  30.166  35.717  1.00  0.00     0.029 A 
ATOM     60  C   UNL A   1      40.670  30.315  34.585  1.00  0.00     0.049 A 
ATOM     61  H   UNL A   1      40.891  29.422  32.686  1.00  0.00     0.167 HD
ATOM     62  C   UNL A   1      38.783  31.212  33.258  1.00  0.00     0.074 A 
ATOM     63  C   UNL A   1      37.591  32.019  33.097  1.00  0.00     0.031 C 
ATOM     64  C   UNL A   1      39.484  31.114  34.414  1.00  0.00     0.031 A 
BRANCH  51  65
ATOM     65  C   UNL A   1      44.338  27.313  34.062  1.00  0.00    -0.014 A 
ATOM     66  C   UNL A   1      44.231  26.019  34.593  1.00  0.00     0.009 A 
ATOM     67  C   UNL A   1      45.562  27.993  34.169  1.00  0.00     0.009 A 
ATOM     68  C   UNL A   1      45.318  25.432  35.246  1.00  0.00     0.001 A 
ATOM     69  C   UNL A   1      46.655  27.392  34.793  1.00  0.00     0.001 A 
ATOM     70  C   UNL A   1      46.530  26.115  35.340  1.00  0.00     0.000 A 
ENDBRANCH  51  65
BRANCH  52  71
ATOM     71  C   UNL A   1      36.668  31.260  29.056  1.00  0.00    -0.014 A 
ATOM     72  C   UNL A   1      35.583  30.443  28.700  1.00  0.00     0.009 A 
ATOM     73  C   UNL A   1      36.639  32.616  28.696  1.00  0.00     0.009 A 
ATOM     74  C   UNL A   1      34.509  30.968  27.976  1.00  0.00     0.001 A 
ATOM     75  C   UNL A   1      35.549  33.145  28.001  1.00  0.00     0.001 A 
ATOM     76  C   UNL A   1      34.489  32.319  27.634  1.00  0.00     0.000 A 
ENDBRANCH  52  71
BRANCH  64  77
ATOM     77  C   UNL A   1      39.016  31.932  35.587  1.00  0.00    -0.014 A 
ATOM     78  C   UNL A   1      38.186  31.390  36.580  1.00  0.00     0.009 A 
ATOM     79  C   UNL A   1      39.458  33.259  35.726  1.00  0.00     0.009 A 
ATOM     80  C   UNL A   1      37.779  32.168  37.665  1.00  0.00     0.001 A 
ATOM     81  C   UNL A   1      39.079  34.024  36.828  1.00  0.00     0.001 A 
ATOM     82  C   UNL A   1      38.230  33.482  37.793  1.00  0.00     0.000 A 
ENDBRANCH  64  77
ENDBRANCH  38  39
ENDBRANCH  31  33
ENDBRANCH  30  31
ENDBRANCH  29  30
ENDBRANCH  28  29
ENDBRANCH  27  28
ENDBRANCH  26  27
ENDBRANCH   1  26
TORSDOF 19
ENDMDL
MODEL 2
REMARK VINA RESULT:     -10.0      3.060      8.379
REMARK SMILES C[C@@H](NC(=O)[C@@H]1CC[C@@H]2CCCC[C@@H]2[NH2+]1)C(=O)OCCOCCOCCOC(=O)c1ccc(-c2c3nc(c(-c4ccccc4)c4ccc([nH]4)c(-c4ccccc4)c4nc(c(-c5ccccc5)c5ccc2[nH]5)C=C4)C=C3)cc1
REMARK SMILES IDX 22 1 21 2 20 3 19 4 18 5 16 6 17 7 2 8 1 9 3 10 4 11 5 13
REMARK SMILES IDX 6 14 7 15 15 16 8 17 14 18 9 21 13 22 10 23 12 24 11 25
REMARK SMILES IDX 23 26 24 27 25 28 26 29 27 30 28 31 29 32 30 33 31 34 77 35
REMARK SMILES IDX 32 36 76 37 33 38 34 39 35 40 70 41 36 42 75 43 69 44 71 45
REMARK SMILES IDX 37 46 74 47 68 48 67 49 38 51 60 52 45 53 59 54 46 55 49 56
REMARK SMILES IDX 58 57 72 58 47 59 48 60 57 62 73 63 50 64 39 65 40 66 44 67
REMARK SMILES IDX 41 68 43 69 42 70 61 71 62 72 66 73 63 74 65 75 64 76 51 77
REMARK SMILES IDX 52 78 56 79 53 80 55 81 54 82
REMARK H PARENT 3 12 15 19 15 20 71 50 49 61
REMARK Flexibility Score: inf
ROOT
ATOM      1  C   UNL A   1      32.908  28.451  26.303  1.00  0.00     0.188 C 
ENDROOT
BRANCH   1   2
ATOM      2  O   UNL A   1      33.846  27.895  25.402  1.00  0.00    -0.376 OA
BRANCH   2   3
ATOM      3  C   UNL A   1      34.017  28.628  24.206  1.00  0.00     0.202 C 
BRANCH   3   4
ATOM      4  C   UNL A   1      33.439  28.060  22.898  1.00  0.00     0.261 C 
BRANCH   4   5
ATOM      5  O   UNL A   1      32.142  28.390  22.335  1.00  0.00    -0.462 OA
BRANCH   5   6
ATOM      6  C   UNL A   1      31.024  27.674  22.559  1.00  0.00     0.328 C 
ATOM      7  O   UNL A   1      29.903  27.975  22.160  1.00  0.00    -0.250 OA
BRANCH   6   8
ATOM      8  C   UNL A   1      31.202  26.513  23.517  1.00  0.00     0.189 C 
ATOM      9  C   UNL A   1      30.143  26.550  24.617  1.00  0.00     0.043 C 
BRANCH   8  10
ATOM     10  N   UNL A   1      31.270  25.211  22.852  1.00  0.00    -0.338 N 
ATOM     11  C   UNL A   1      32.096  24.153  23.166  1.00  0.00     0.278 C 
ATOM     12  H   UNL A   1      30.656  25.074  22.095  1.00  0.00     0.164 HD
ATOM     13  O   UNL A   1      31.569  23.038  23.183  1.00  0.00    -0.268 OA
BRANCH  11  14
ATOM     14  C   UNL A   1      33.637  24.345  23.242  1.00  0.00     0.272 C 
ATOM     15  C   UNL A   1      34.419  23.033  23.173  1.00  0.00     0.076 C 
ATOM     16  N   UNL A   1      34.190  25.095  24.374  1.00  0.00    -0.333 N 
ATOM     17  C   UNL A   1      34.400  22.268  24.499  1.00  0.00     0.016 C 
ATOM     18  C   UNL A   1      34.098  24.504  25.692  1.00  0.00     0.186 C 
ATOM     19  H   UNL A   1      33.706  25.993  24.409  1.00  0.00     0.347 HD
ATOM     20  H   UNL A   1      35.192  25.141  24.185  1.00  0.00     0.347 HD
ATOM     21  C   UNL A   1      34.794  23.153  25.693  1.00  0.00     0.048 C 
ATOM     22  C   UNL A   1      32.708  24.588  26.343  1.00  0.00     0.065 C 
ATOM     23  C   UNL A   1      34.556  22.502  27.049  1.00  0.00     0.010 C 
ATOM     24  C   UNL A   1      32.106  23.281  26.841  1.00  0.00     0.006 C 
ATOM     25  C   UNL A   1      33.084  22.201  27.300  1.00  0.00     0.001 C 
ENDBRANCH  11  14
ENDBRANCH   8  10
ENDBRANCH   6   8
ENDBRANCH   5   6
ENDBRANCH   4   5
ENDBRANCH   3   4
ENDBRANCH   2   3
ENDBRANCH   1   2
BRANCH   1  26
ATOM     26  C   UNL A   1      32.488  29.880  25.919  1.00  0.00     0.188 C 
BRANCH  26  27
ATOM     27  O   UNL A   1      32.548  30.919  26.878  1.00  0.00    -0.376 OA
BRANCH  27  28
ATOM     28  C   UNL A   1      31.606  31.977  26.763  1.00  0.00     0.202 C 
BRANCH  28  29
ATOM     29  C   UNL A   1      32.016  33.447  27.030  1.00  0.00     0.261 C 
BRANCH  29  30
ATOM     30  O   UNL A   1      32.354  33.823  28.383  1.00  0.00    -0.460 OA
BRANCH  30  31
ATOM     31  C   UNL A   1      33.489  34.550  28.553  1.00  0.00     0.338 C 
ATOM     32  O   UNL A   1      33.560  35.759  28.721  1.00  0.00    -0.246 OA
BRANCH  31  33
ATOM     33  C   UNL A   1      34.639  33.631  28.792  1.00  0.00     0.060 A 
ATOM     34  C   UNL A   1      34.380  32.314  29.223  1.00  0.00     0.016 A 
ATOM     35  C   UNL A   1      35.955  34.041  28.588  1.00  0.00     0.016 A 
ATOM     36  C   UNL A   1      35.422  31.415  29.458  1.00  0.00     0.010 A 
ATOM     37  C   UNL A   1      37.003  33.159  28.884  1.00  0.00     0.010 A 
ATOM     38  C   UNL A   1      36.743  31.855  29.354  1.00  0.00    -0.014 A 
BRANCH  38  39
ATOM     39  C   UNL A   1      37.826  31.066  29.993  1.00  0.00     0.031 A 
ATOM     40  C   UNL A   1      38.089  31.304  31.456  1.00  0.00     0.074 A 
ATOM     41  C   UNL A   1      38.548  30.151  29.322  1.00  0.00     0.049 A 
ATOM     42  N   UNL A   1      39.037  30.826  32.222  1.00  0.00    -0.248 NA
ATOM     43  C   UNL A   1      37.157  32.212  32.146  1.00  0.00     0.031 C 
ATOM     44  C   UNL A   1      38.351  29.762  27.929  1.00  0.00     0.029 A 
ATOM     45  N   UNL A   1      39.616  29.391  29.738  1.00  0.00    -0.354 N 
ATOM     46  C   UNL A   1      38.829  31.395  33.473  1.00  0.00     0.074 A 
ATOM     47  C   UNL A   1      37.681  32.266  33.360  1.00  0.00     0.031 C 
ATOM     48  C   UNL A   1      39.285  28.853  27.596  1.00  0.00     0.029 A 
ATOM     49  C   UNL A   1      40.168  28.627  28.740  1.00  0.00     0.049 A 
ATOM     50  H   UNL A   1      39.951  29.395  30.663  1.00  0.00     0.167 HD
ATOM     51  C   UNL A   1      39.533  31.214  34.614  1.00  0.00     0.031 A 
ATOM     52  C   UNL A   1      41.278  27.862  28.741  1.00  0.00     0.031 A 
ATOM     53  C   UNL A   1      40.682  30.359  34.728  1.00  0.00     0.049 A 
ATOM     54  C   UNL A   1      42.101  27.745  30.001  1.00  0.00     0.074 A 
ATOM     55  C   UNL A   1      41.454  30.099  35.846  1.00  0.00     0.029 A 
ATOM     56  N   UNL A   1      41.230  29.632  33.683  1.00  0.00    -0.354 N 
ATOM     57  N   UNL A   1      41.893  28.278  31.181  1.00  0.00    -0.248 NA
ATOM     58  C   UNL A   1      43.311  26.911  29.927  1.00  0.00     0.031 C 
ATOM     59  C   UNL A   1      42.510  29.268  35.461  1.00  0.00     0.029 A 
ATOM     60  C   UNL A   1      42.351  28.948  34.123  1.00  0.00     0.049 A 
ATOM     61  H   UNL A   1      40.875  29.606  32.764  1.00  0.00     0.167 HD
ATOM     62  C   UNL A   1      42.923  27.820  31.995  1.00  0.00     0.074 A 
ATOM     63  C   UNL A   1      43.748  26.954  31.178  1.00  0.00     0.031 C 
ATOM     64  C   UNL A   1      43.164  28.089  33.301  1.00  0.00     0.031 A 
BRANCH  51  65
ATOM     65  C   UNL A   1      39.107  32.001  35.822  1.00  0.00    -0.014 A 
ATOM     66  C   UNL A   1      39.619  33.281  36.085  1.00  0.00     0.009 A 
ATOM     67  C   UNL A   1      38.152  31.459  36.698  1.00  0.00     0.009 A 
ATOM     68  C   UNL A   1      39.207  33.988  37.217  1.00  0.00     0.001 A 
ATOM     69  C   UNL A   1      37.719  32.181  37.811  1.00  0.00     0.001 A 
ATOM     70  C   UNL A   1      38.253  33.441  38.075  1.00  0.00     0.000 A 
ENDBRANCH  51  65
BRANCH  52  71
ATOM     71  C   UNL A   1      41.709  27.168  27.497  1.00  0.00    -0.014 A 
ATOM     72  C   UNL A   1      41.284  25.859  27.219  1.00  0.00     0.009 A 
ATOM     73  C   UNL A   1      42.578  27.802  26.594  1.00  0.00     0.009 A 
ATOM     74  C   UNL A   1      41.740  25.193  26.078  1.00  0.00     0.001 A 
ATOM     75  C   UNL A   1      43.005  27.145  25.438  1.00  0.00     0.001 A 
ATOM     76  C   UNL A   1      42.594  25.838  25.185  1.00  0.00     0.000 A 
ENDBRANCH  52  71
BRANCH  64  77
ATOM     77  C   UNL A   1      44.337  27.405  33.951  1.00  0.00    -0.014 A 
ATOM     78  C   UNL A   1      44.216  26.139  34.544  1.00  0.00     0.009 A 
ATOM     79  C   UNL A   1      45.600  28.020  33.921  1.00  0.00     0.009 A 
ATOM     80  C   UNL A   1      45.325  25.522  35.126  1.00  0.00     0.001 A 
ATOM     81  C   UNL A   1      46.713  27.387  34.473  1.00  0.00     0.001 A 
ATOM     82  C   UNL A   1      46.574  26.142  35.085  1.00  0.00     0.000 A 
ENDBRANCH  64  77
ENDBRANCH  38  39
ENDBRANCH  31  33
ENDBRANCH  30  31
ENDBRANCH  29  30
ENDBRANCH  28  29
ENDBRANCH  27  28
ENDBRANCH  26  27
ENDBRANCH   1  26
TORSDOF 19
ENDMDL
MODEL 3
REMARK VINA RESULT:     -10.0      0.715      5.839
REMARK SMILES C[C@@H](NC(=O)[C@@H]1CC[C@@H]2CCCC[C@@H]2[NH2+]1)C(=O)OCCOCCOCCOC(=O)c1ccc(-c2c3nc(c(-c4ccccc4)c4ccc([nH]4)c(-c4ccccc4)c4nc(c(-c5ccccc5)c5ccc2[nH]5)C=C4)C=C3)cc1
REMARK SMILES IDX 22 1 21 2 20 3 19 4 18 5 16 6 17 7 2 8 1 9 3 10 4 11 5 13
REMARK SMILES IDX 6 14 7 15 15 16 8 17 14 18 9 21 13 22 10 23 12 24 11 25
REMARK SMILES IDX 23 26 24 27 25 28 26 29 27 30 28 31 29 32 30 33 31 34 77 35
REMARK SMILES IDX 32 36 76 37 33 38 34 39 35 40 70 41 36 42 75 43 69 44 71 45
REMARK SMILES IDX 37 46 74 47 68 48 67 49 38 51 60 52 45 53 59 54 46 55 49 56
REMARK SMILES IDX 58 57 72 58 47 59 48 60 57 62 73 63 50 64 39 65 40 66 44 67
REMARK SMILES IDX 41 68 43 69 42 70 61 71 62 72 66 73 63 74 65 75 64 76 51 77
REMARK SMILES IDX 52 78 56 79 53 80 55 81 54 82
REMARK H PARENT 3 12 15 19 15 20 71 50 49 61
REMARK Flexibility Score: inf
ROOT
ATOM      1  C   UNL A   1      40.417  20.826  26.858  1.00  0.00     0.188 C 
ENDROOT
BRANCH   1   2
ATOM      2  O   UNL A   1      39.796  21.993  26.354  1.00  0.00    -0.376 OA
BRANCH   2   3
ATOM      3  C   UNL A   1      38.654  21.752  25.557  1.00  0.00     0.202 C 
BRANCH   3   4
ATOM      4  C   UNL A   1      37.385  22.584  25.807  1.00  0.00     0.261 C 
BRANCH   4   5
ATOM      5  O   UNL A   1      36.850  23.595  24.913  1.00  0.00    -0.462 OA
BRANCH   5   6
ATOM      6  C   UNL A   1      36.154  23.313  23.795  1.00  0.00     0.328 C 
ATOM      7  O   UNL A   1      36.646  22.946  22.733  1.00  0.00    -0.250 OA
BRANCH   6   8
ATOM      8  C   UNL A   1      34.679  23.653  23.871  1.00  0.00     0.189 C 
ATOM      9  C   UNL A   1      33.849  22.646  23.078  1.00  0.00     0.043 C 
BRANCH   8  10
ATOM     10  N   UNL A   1      34.187  23.827  25.239  1.00  0.00    -0.338 N 
ATOM     11  C   UNL A   1      33.333  24.803  25.703  1.00  0.00     0.278 C 
ATOM     12  H   UNL A   1      34.503  23.172  25.903  1.00  0.00     0.164 HD
ATOM     13  O   UNL A   1      32.431  24.424  26.455  1.00  0.00    -0.268 OA
BRANCH  11  14
ATOM     14  C   UNL A   1      33.653  26.309  25.484  1.00  0.00     0.272 C 
ATOM     15  C   UNL A   1      32.846  27.242  26.388  1.00  0.00     0.076 C 
ATOM     16  N   UNL A   1      33.545  26.853  24.127  1.00  0.00    -0.333 N 
ATOM     17  C   UNL A   1      31.407  27.428  25.902  1.00  0.00     0.016 C 
ATOM     18  C   UNL A   1      32.228  26.944  23.534  1.00  0.00     0.186 C 
ATOM     19  H   UNL A   1      34.112  26.264  23.517  1.00  0.00     0.347 HD
ATOM     20  H   UNL A   1      33.851  27.822  24.216  1.00  0.00     0.347 HD
ATOM     21  C   UNL A   1      31.333  27.804  24.413  1.00  0.00     0.048 C 
ATOM     22  C   UNL A   1      31.654  25.613  23.023  1.00  0.00     0.065 C 
ATOM     23  C   UNL A   1      29.924  27.761  23.835  1.00  0.00     0.010 C 
ATOM     24  C   UNL A   1      30.272  25.224  23.530  1.00  0.00     0.006 C 
ATOM     25  C   UNL A   1      29.319  26.365  23.879  1.00  0.00     0.001 C 
ENDBRANCH  11  14
ENDBRANCH   8  10
ENDBRANCH   6   8
ENDBRANCH   5   6
ENDBRANCH   4   5
ENDBRANCH   3   4
ENDBRANCH   2   3
ENDBRANCH   1   2
BRANCH   1  26
ATOM     26  C   UNL A   1      41.749  20.509  26.155  1.00  0.00     0.188 C 
BRANCH  26  27
ATOM     27  O   UNL A   1      42.854  21.382  26.303  1.00  0.00    -0.376 OA
BRANCH  27  28
ATOM     28  C   UNL A   1      43.957  21.201  25.425  1.00  0.00     0.202 C 
BRANCH  28  29
ATOM     29  C   UNL A   1      44.468  22.361  24.533  1.00  0.00     0.261 C 
BRANCH  29  30
ATOM     30  O   UNL A   1      43.765  23.620  24.587  1.00  0.00    -0.460 OA
BRANCH  30  31
ATOM     31  C   UNL A   1      44.452  24.688  25.072  1.00  0.00     0.338 C 
ATOM     32  O   UNL A   1      45.495  25.145  24.626  1.00  0.00    -0.246 OA
BRANCH  31  33
ATOM     33  C   UNL A   1      43.610  25.415  26.066  1.00  0.00     0.060 A 
ATOM     34  C   UNL A   1      43.847  26.787  26.283  1.00  0.00     0.016 A 
ATOM     35  C   UNL A   1      42.593  24.772  26.769  1.00  0.00     0.016 A 
ATOM     36  C   UNL A   1      43.086  27.513  27.201  1.00  0.00     0.010 A 
ATOM     37  C   UNL A   1      41.871  25.486  27.736  1.00  0.00     0.010 A 
ATOM     38  C   UNL A   1      42.137  26.849  27.980  1.00  0.00    -0.014 A 
BRANCH  38  39
ATOM     39  C   UNL A   1      41.633  27.493  29.220  1.00  0.00     0.031 A 
ATOM     40  C   UNL A   1      40.327  28.237  29.136  1.00  0.00     0.074 A 
ATOM     41  C   UNL A   1      42.287  27.416  30.393  1.00  0.00     0.049 A 
ATOM     42  N   UNL A   1      39.724  28.969  30.038  1.00  0.00    -0.248 NA
ATOM     43  C   UNL A   1      39.607  28.146  27.854  1.00  0.00     0.031 C 
ATOM     44  C   UNL A   1      43.516  26.667  30.638  1.00  0.00     0.029 A 
ATOM     45  N   UNL A   1      41.999  28.001  31.603  1.00  0.00    -0.354 N 
ATOM     46  C   UNL A   1      38.571  29.444  29.424  1.00  0.00     0.074 A 
ATOM     47  C   UNL A   1      38.568  28.936  28.071  1.00  0.00     0.031 C 
ATOM     48  C   UNL A   1      43.893  26.858  31.916  1.00  0.00     0.029 A 
ATOM     49  C   UNL A   1      42.954  27.774  32.563  1.00  0.00     0.049 A 
ATOM     50  H   UNL A   1      41.187  28.532  31.765  1.00  0.00     0.167 HD
ATOM     51  C   UNL A   1      37.603  30.237  29.937  1.00  0.00     0.031 A 
ATOM     52  C   UNL A   1      43.074  28.275  33.810  1.00  0.00     0.031 A 
ATOM     53  C   UNL A   1      37.608  30.754  31.278  1.00  0.00     0.049 A 
ATOM     54  C   UNL A   1      42.029  29.230  34.332  1.00  0.00     0.074 A 
ATOM     55  C   UNL A   1      36.664  31.555  31.895  1.00  0.00     0.029 A 
ATOM     56  N   UNL A   1      38.613  30.530  32.205  1.00  0.00    -0.354 N 
ATOM     57  N   UNL A   1      40.938  29.667  33.749  1.00  0.00    -0.248 NA
ATOM     58  C   UNL A   1      42.232  29.756  35.691  1.00  0.00     0.031 C 
ATOM     59  C   UNL A   1      37.131  31.871  33.174  1.00  0.00     0.029 A 
ATOM     60  C   UNL A   1      38.327  31.204  33.381  1.00  0.00     0.049 A 
ATOM     61  H   UNL A   1      39.411  29.974  32.052  1.00  0.00     0.167 HD
ATOM     62  C   UNL A   1      40.311  30.490  34.679  1.00  0.00     0.074 A 
ATOM     63  C   UNL A   1      41.135  30.480  35.869  1.00  0.00     0.031 C 
ATOM     64  C   UNL A   1      39.155  31.188  34.560  1.00  0.00     0.031 A 
BRANCH  51  65
ATOM     65  C   UNL A   1      36.479  30.637  29.022  1.00  0.00    -0.014 A 
ATOM     66  C   UNL A   1      35.541  29.702  28.556  1.00  0.00     0.009 A 
ATOM     67  C   UNL A   1      36.342  31.983  28.645  1.00  0.00     0.009 A 
ATOM     68  C   UNL A   1      34.508  30.102  27.705  1.00  0.00     0.001 A 
ATOM     69  C   UNL A   1      35.290  32.385  27.821  1.00  0.00     0.001 A 
ATOM     70  C   UNL A   1      34.380  31.443  27.344  1.00  0.00     0.000 A 
ENDBRANCH  51  65
BRANCH  52  71
ATOM     71  C   UNL A   1      44.249  27.917  34.650  1.00  0.00    -0.014 A 
ATOM     72  C   UNL A   1      45.479  28.573  34.483  1.00  0.00     0.009 A 
ATOM     73  C   UNL A   1      44.154  26.893  35.605  1.00  0.00     0.009 A 
ATOM     74  C   UNL A   1      46.593  28.191  35.236  1.00  0.00     0.001 A 
ATOM     75  C   UNL A   1      45.261  26.536  36.379  1.00  0.00     0.001 A 
ATOM     76  C   UNL A   1      46.482  27.179  36.187  1.00  0.00     0.000 A 
ENDBRANCH  52  71
BRANCH  64  77
ATOM     77  C   UNL A   1      38.679  31.962  35.759  1.00  0.00    -0.014 A 
ATOM     78  C   UNL A   1      38.141  31.320  36.885  1.00  0.00     0.009 A 
ATOM     79  C   UNL A   1      38.822  33.360  35.782  1.00  0.00     0.009 A 
ATOM     80  C   UNL A   1      37.721  32.064  37.990  1.00  0.00     0.001 A 
ATOM     81  C   UNL A   1      38.435  34.097  36.900  1.00  0.00     0.001 A 
ATOM     82  C   UNL A   1      37.874  33.450  38.000  1.00  0.00     0.000 A 
ENDBRANCH  64  77
ENDBRANCH  38  39
ENDBRANCH  31  33
ENDBRANCH  30  31
ENDBRANCH  29  30
ENDBRANCH  28  29
ENDBRANCH  27  28
ENDBRANCH  26  27
ENDBRANCH   1  26
TORSDOF 19
ENDMDL
