MODEL 1
REMARK VINA RESULT:     -10.2      0.000      0.000
REMARK SMILES C[C@]([NH3+])(C(=O)N1[C@@H](C(=O)OCCOCCOCCOC(=O)c2ccc(-c3c4nc(c(-c5ccccc5)c5ccc([nH]5)c(-c5ccccc5)c5nc(c(-c6ccccc6)c6ccc3[nH]6)C=C5)C=C4)cc2)C[C@H]2CCCC[C@@H]21)C(F)(F)F
REMARK SMILES IDX 14 1 13 2 12 3 11 4 10 5 8 6 9 7 7 8 6 9 76 10 70 11 71 12
REMARK SMILES IDX 75 13 72 14 74 15 73 16 4 17 5 18 2 19 1 20 77 21 78 22
REMARK SMILES IDX 79 23 80 24 3 25 15 29 16 30 17 31 18 32 19 33 20 34 21 35
REMARK SMILES IDX 22 36 23 37 69 38 24 39 68 40 25 41 26 42 27 43 62 44 28 45
REMARK SMILES IDX 67 46 61 47 63 48 29 49 66 50 60 51 59 52 30 54 52 55 37 56
REMARK SMILES IDX 51 57 38 58 41 59 50 60 64 61 39 62 40 63 49 65 65 66 42 67
REMARK SMILES IDX 31 68 32 69 36 70 33 71 35 72 34 73 53 74 54 75 58 76 55 77
REMARK SMILES IDX 57 78 56 79 43 80 44 81 48 82 45 83 47 84 46 85
REMARK H PARENT 3 26 3 27 3 28 63 53 41 64
REMARK Flexibility Score: inf
ROOT
ATOM      1  C   UNL A   1      31.230  27.915  24.380  1.00  0.00     0.188 C 
ENDROOT
BRANCH   1   2
ATOM      2  O   UNL A   1      30.774  26.648  24.787  1.00  0.00    -0.376 OA
BRANCH   2   3
ATOM      3  C   UNL A   1      31.231  26.039  25.983  1.00  0.00     0.202 C 
BRANCH   3   4
ATOM      4  C   UNL A   1      31.423  24.527  26.198  1.00  0.00     0.261 C 
BRANCH   4   5
ATOM      5  O   UNL A   1      31.345  23.700  25.036  1.00  0.00    -0.462 OA
BRANCH   5   6
ATOM      6  C   UNL A   1      31.389  22.347  25.241  1.00  0.00     0.328 C 
ATOM      7  O   UNL A   1      30.780  21.759  26.122  1.00  0.00    -0.250 OA
BRANCH   6   8
ATOM      8  C   UNL A   1      32.154  21.671  24.075  1.00  0.00     0.196 C 
ATOM      9  N   UNL A   1      33.224  20.782  24.542  1.00  0.00    -0.320 N 
ATOM     10  C   UNL A   1      34.415  21.586  24.675  1.00  0.00     0.089 C 
ATOM     11  C   UNL A   1      32.866  22.746  23.234  1.00  0.00     0.043 C 
ATOM     12  C   UNL A   1      34.339  22.387  23.371  1.00  0.00     0.014 C 
ATOM     13  C   UNL A   1      35.776  20.908  24.744  1.00  0.00     0.025 C 
ATOM     14  C   UNL A   1      35.326  23.534  23.381  1.00  0.00     0.006 C 
ATOM     15  C   UNL A   1      36.868  21.986  24.718  1.00  0.00     0.002 C 
ATOM     16  C   UNL A   1      36.739  22.964  23.541  1.00  0.00     0.000 C 
BRANCH   9  17
ATOM     17  C   UNL A   1      33.073  19.542  25.146  1.00  0.00     0.294 C 
ATOM     18  O   UNL A   1      33.277  19.429  26.355  1.00  0.00    -0.267 OA
BRANCH  17  19
ATOM     19  C   UNL A   1      32.895  18.289  24.236  1.00  0.00     0.267 C 
ATOM     20  C   UNL A   1      32.529  18.765  22.819  1.00  0.00     0.100 C 
BRANCH  19  21
ATOM     21  C   UNL A   1      34.263  17.556  24.174  1.00  0.00     0.453 C 
ATOM     22  F   UNL A   1      34.294  16.481  24.992  1.00  0.00    -0.164 F 
ATOM     23  F   UNL A   1      34.483  17.098  22.911  1.00  0.00    -0.164 F 
ATOM     24  F   UNL A   1      35.311  18.356  24.470  1.00  0.00    -0.164 F 
ENDBRANCH  19  21
BRANCH  19  25
ATOM     25  N   UNL A   1      31.796  17.387  24.701  1.00  0.00    -0.337 N 
ATOM     26  H   UNL A   1      31.187  17.160  23.916  1.00  0.00     0.345 HD
ATOM     27  H   UNL A   1      31.255  17.857  25.427  1.00  0.00     0.345 HD
ATOM     28  H   UNL A   1      32.197  16.528  25.079  1.00  0.00     0.345 HD
ENDBRANCH  19  25
ENDBRANCH  17  19
ENDBRANCH   9  17
ENDBRANCH   6   8
ENDBRANCH   5   6
ENDBRANCH   4   5
ENDBRANCH   3   4
ENDBRANCH   2   3
ENDBRANCH   1   2
BRANCH   1  29
ATOM     29  C   UNL A   1      32.746  28.208  24.414  1.00  0.00     0.188 C 
BRANCH  29  30
ATOM     30  O   UNL A   1      33.228  29.382  25.024  1.00  0.00    -0.376 OA
BRANCH  30  31
ATOM     31  C   UNL A   1      32.370  30.112  25.883  1.00  0.00     0.202 C 
BRANCH  31  32
ATOM     32  C   UNL A   1      32.870  30.812  27.164  1.00  0.00     0.261 C 
BRANCH  32  33
ATOM     33  O   UNL A   1      33.888  30.139  27.927  1.00  0.00    -0.460 OA
BRANCH  33  34
ATOM     34  C   UNL A   1      34.761  30.939  28.592  1.00  0.00     0.338 C 
ATOM     35  O   UNL A   1      34.495  31.943  29.236  1.00  0.00    -0.246 OA
BRANCH  34  36
ATOM     36  C   UNL A   1      36.099  30.307  28.619  1.00  0.00     0.060 A 
ATOM     37  C   UNL A   1      36.584  29.806  29.835  1.00  0.00     0.016 A 
ATOM     38  C   UNL A   1      36.878  30.217  27.466  1.00  0.00     0.016 A 
ATOM     39  C   UNL A   1      37.836  29.186  29.894  1.00  0.00     0.010 A 
ATOM     40  C   UNL A   1      38.147  29.623  27.535  1.00  0.00     0.010 A 
ATOM     41  C   UNL A   1      38.634  29.098  28.746  1.00  0.00    -0.014 A 
BRANCH  41  42
ATOM     42  C   UNL A   1      40.011  28.544  28.822  1.00  0.00     0.031 A 
ATOM     43  C   UNL A   1      41.151  29.454  29.181  1.00  0.00     0.074 A 
ATOM     44  C   UNL A   1      40.255  27.246  28.560  1.00  0.00     0.049 A 
ATOM     45  N   UNL A   1      42.436  29.212  29.177  1.00  0.00    -0.248 NA
ATOM     46  C   UNL A   1      40.794  30.819  29.599  1.00  0.00     0.031 C 
ATOM     47  C   UNL A   1      39.240  26.232  28.293  1.00  0.00     0.029 A 
ATOM     48  N   UNL A   1      41.445  26.559  28.480  1.00  0.00    -0.354 N 
ATOM     49  C   UNL A   1      43.045  30.400  29.560  1.00  0.00     0.074 A 
ATOM     50  C   UNL A   1      41.988  31.358  29.802  1.00  0.00     0.031 C 
ATOM     51  C   UNL A   1      39.849  25.050  28.081  1.00  0.00     0.029 A 
ATOM     52  C   UNL A   1      41.297  25.235  28.137  1.00  0.00     0.049 A 
ATOM     53  H   UNL A   1      42.320  26.976  28.653  1.00  0.00     0.167 HD
ATOM     54  C   UNL A   1      44.365  30.673  29.676  1.00  0.00     0.031 A 
ATOM     55  C   UNL A   1      42.222  24.292  27.865  1.00  0.00     0.031 A 
ATOM     56  C   UNL A   1      45.420  29.729  29.424  1.00  0.00     0.049 A 
ATOM     57  C   UNL A   1      43.686  24.663  27.892  1.00  0.00     0.074 A 
ATOM     58  C   UNL A   1      46.788  29.923  29.523  1.00  0.00     0.029 A 
ATOM     59  N   UNL A   1      45.231  28.421  29.007  1.00  0.00    -0.354 N 
ATOM     60  N   UNL A   1      44.253  25.785  28.265  1.00  0.00    -0.248 NA
ATOM     61  C   UNL A   1      44.641  23.640  27.432  1.00  0.00     0.031 C 
ATOM     62  C   UNL A   1      47.427  28.759  29.091  1.00  0.00     0.029 A 
ATOM     63  C   UNL A   1      46.457  27.815  28.791  1.00  0.00     0.049 A 
ATOM     64  H   UNL A   1      44.355  27.988  28.882  1.00  0.00     0.167 HD
ATOM     65  C   UNL A   1      45.620  25.594  28.104  1.00  0.00     0.074 A 
ATOM     66  C   UNL A   1      45.805  24.241  27.628  1.00  0.00     0.031 C 
ATOM     67  C   UNL A   1      46.634  26.467  28.322  1.00  0.00     0.031 A 
BRANCH  54  68
ATOM     68  C   UNL A   1      44.759  32.080  30.021  1.00  0.00    -0.014 A 
ATOM     69  C   UNL A   1      44.812  32.528  31.349  1.00  0.00     0.009 A 
ATOM     70  C   UNL A   1      45.150  32.952  28.991  1.00  0.00     0.009 A 
ATOM     71  C   UNL A   1      45.231  33.830  31.635  1.00  0.00     0.001 A 
ATOM     72  C   UNL A   1      45.594  34.241  29.282  1.00  0.00     0.001 A 
ATOM     73  C   UNL A   1      45.628  34.682  30.604  1.00  0.00     0.000 A 
ENDBRANCH  54  68
BRANCH  55  74
ATOM     74  C   UNL A   1      41.821  22.915  27.457  1.00  0.00    -0.014 A 
ATOM     75  C   UNL A   1      41.356  22.658  26.157  1.00  0.00     0.009 A 
ATOM     76  C   UNL A   1      41.813  21.867  28.391  1.00  0.00     0.009 A 
ATOM     77  C   UNL A   1      40.854  21.399  25.816  1.00  0.00     0.001 A 
ATOM     78  C   UNL A   1      41.347  20.598  28.037  1.00  0.00     0.001 A 
ATOM     79  C   UNL A   1      40.851  20.370  26.755  1.00  0.00     0.000 A 
ENDBRANCH  55  74
BRANCH  67  80
ATOM     80  C   UNL A   1      48.037  25.990  28.067  1.00  0.00    -0.014 A 
ATOM     81  C   UNL A   1      48.622  26.097  26.796  1.00  0.00     0.009 A 
ATOM     82  C   UNL A   1      48.811  25.496  29.130  1.00  0.00     0.009 A 
ATOM     83  C   UNL A   1      49.946  25.698  26.591  1.00  0.00     0.001 A 
ATOM     84  C   UNL A   1      50.142  25.128  28.929  1.00  0.00     0.001 A 
ATOM     85  C   UNL A   1      50.706  25.223  27.658  1.00  0.00     0.000 A 
ENDBRANCH  67  80
ENDBRANCH  41  42
ENDBRANCH  34  36
ENDBRANCH  33  34
ENDBRANCH  32  33
ENDBRANCH  31  32
ENDBRANCH  30  31
ENDBRANCH  29  30
ENDBRANCH   1  29
TORSDOF 21
ENDMDL
MODEL 2
REMARK VINA RESULT:      -9.9      3.209      3.983
REMARK SMILES C[C@]([NH3+])(C(=O)N1[C@@H](C(=O)OCCOCCOCCOC(=O)c2ccc(-c3c4nc(c(-c5ccccc5)c5ccc([nH]5)c(-c5ccccc5)c5nc(c(-c6ccccc6)c6ccc3[nH]6)C=C5)C=C4)cc2)C[C@H]2CCCC[C@@H]21)C(F)(F)F
REMARK SMILES IDX 14 1 13 2 12 3 11 4 10 5 8 6 9 7 7 8 6 9 76 10 70 11 71 12
REMARK SMILES IDX 75 13 72 14 74 15 73 16 4 17 5 18 2 19 1 20 77 21 78 22
REMARK SMILES IDX 79 23 80 24 3 25 15 29 16 30 17 31 18 32 19 33 20 34 21 35
REMARK SMILES IDX 22 36 23 37 69 38 24 39 68 40 25 41 26 42 27 43 62 44 28 45
REMARK SMILES IDX 67 46 61 47 63 48 29 49 66 50 60 51 59 52 30 54 52 55 37 56
REMARK SMILES IDX 51 57 38 58 41 59 50 60 64 61 39 62 40 63 49 65 65 66 42 67
REMARK SMILES IDX 31 68 32 69 36 70 33 71 35 72 34 73 53 74 54 75 58 76 55 77
REMARK SMILES IDX 57 78 56 79 43 80 44 81 48 82 45 83 47 84 46 85
REMARK H PARENT 3 26 3 27 3 28 63 53 41 64
REMARK Flexibility Score: inf
ROOT
ATOM      1  C   UNL A   1      29.553  30.436  22.662  1.00  0.00     0.188 C 
ENDROOT
BRANCH   1   2
ATOM      2  O   UNL A   1      29.813  29.349  21.809  1.00  0.00    -0.376 OA
BRANCH   2   3
ATOM      3  C   UNL A   1      29.993  28.034  22.309  1.00  0.00     0.202 C 
BRANCH   3   4
ATOM      4  C   UNL A   1      31.345  27.311  22.451  1.00  0.00     0.261 C 
BRANCH   4   5
ATOM      5  O   UNL A   1      31.503  26.099  21.711  1.00  0.00    -0.462 OA
BRANCH   5   6
ATOM      6  C   UNL A   1      32.735  25.505  21.762  1.00  0.00     0.328 C 
ATOM      7  O   UNL A   1      33.756  25.985  21.293  1.00  0.00    -0.250 OA
BRANCH   6   8
ATOM      8  C   UNL A   1      32.670  24.253  22.672  1.00  0.00     0.196 C 
ATOM      9  N   UNL A   1      33.045  24.542  24.061  1.00  0.00    -0.320 N 
ATOM     10  C   UNL A   1      34.474  24.368  24.158  1.00  0.00     0.089 C 
ATOM     11  C   UNL A   1      33.695  23.211  22.190  1.00  0.00     0.043 C 
ATOM     12  C   UNL A   1      34.635  23.059  23.378  1.00  0.00     0.014 C 
ATOM     13  C   UNL A   1      35.119  24.195  25.525  1.00  0.00     0.025 C 
ATOM     14  C   UNL A   1      36.091  22.785  23.071  1.00  0.00     0.006 C 
ATOM     15  C   UNL A   1      36.607  23.869  25.334  1.00  0.00     0.002 C 
ATOM     16  C   UNL A   1      36.860  22.683  24.391  1.00  0.00     0.000 C 
BRANCH   9  17
ATOM     17  C   UNL A   1      32.299  25.245  24.996  1.00  0.00     0.294 C 
ATOM     18  O   UNL A   1      32.711  26.331  25.405  1.00  0.00    -0.267 OA
BRANCH  17  19
ATOM     19  C   UNL A   1      31.099  24.525  25.682  1.00  0.00     0.267 C 
ATOM     20  C   UNL A   1      31.563  24.007  27.055  1.00  0.00     0.100 C 
BRANCH  19  21
ATOM     21  C   UNL A   1      29.982  25.582  25.903  1.00  0.00     0.453 C 
ATOM     22  F   UNL A   1      30.476  26.737  26.400  1.00  0.00    -0.164 F 
ATOM     23  F   UNL A   1      29.392  25.883  24.714  1.00  0.00    -0.164 F 
ATOM     24  F   UNL A   1      28.992  25.149  26.714  1.00  0.00    -0.164 F 
ENDBRANCH  19  21
BRANCH  19  25
ATOM     25  N   UNL A   1      30.610  23.346  24.902  1.00  0.00    -0.337 N 
ATOM     26  H   UNL A   1      30.855  22.487  25.395  1.00  0.00     0.345 HD
ATOM     27  H   UNL A   1      31.044  23.345  23.980  1.00  0.00     0.345 HD
ATOM     28  H   UNL A   1      29.596  23.401  24.801  1.00  0.00     0.345 HD
ENDBRANCH  19  25
ENDBRANCH  17  19
ENDBRANCH   9  17
ENDBRANCH   6   8
ENDBRANCH   5   6
ENDBRANCH   4   5
ENDBRANCH   3   4
ENDBRANCH   2   3
ENDBRANCH   1   2
BRANCH   1  29
ATOM     29  C   UNL A   1      29.863  30.292  24.169  1.00  0.00     0.188 C 
BRANCH  29  30
ATOM     30  O   UNL A   1      31.179  30.033  24.600  1.00  0.00    -0.376 OA
BRANCH  30  31
ATOM     31  C   UNL A   1      31.594  30.515  25.866  1.00  0.00     0.202 C 
BRANCH  31  32
ATOM     32  C   UNL A   1      32.442  29.673  26.841  1.00  0.00     0.261 C 
BRANCH  32  33
ATOM     33  O   UNL A   1      33.873  29.788  26.738  1.00  0.00    -0.460 OA
BRANCH  33  34
ATOM     34  C   UNL A   1      34.449  30.765  27.485  1.00  0.00     0.338 C 
ATOM     35  O   UNL A   1      33.947  31.829  27.817  1.00  0.00    -0.246 OA
BRANCH  34  36
ATOM     36  C   UNL A   1      35.729  30.279  28.045  1.00  0.00     0.060 A 
ATOM     37  C   UNL A   1      36.914  30.537  27.341  1.00  0.00     0.016 A 
ATOM     38  C   UNL A   1      35.769  29.566  29.243  1.00  0.00     0.016 A 
ATOM     39  C   UNL A   1      38.144  30.108  27.850  1.00  0.00     0.010 A 
ATOM     40  C   UNL A   1      37.002  29.111  29.734  1.00  0.00     0.010 A 
ATOM     41  C   UNL A   1      38.199  29.382  29.047  1.00  0.00    -0.014 A 
BRANCH  41  42
ATOM     42  C   UNL A   1      39.486  28.825  29.536  1.00  0.00     0.031 A 
ATOM     43  C   UNL A   1      40.299  29.610  30.526  1.00  0.00     0.074 A 
ATOM     44  C   UNL A   1      39.943  27.637  29.097  1.00  0.00     0.049 A 
ATOM     45  N   UNL A   1      41.502  29.375  30.982  1.00  0.00    -0.248 NA
ATOM     46  C   UNL A   1      39.671  30.823  31.075  1.00  0.00     0.031 C 
ATOM     47  C   UNL A   1      39.220  26.727  28.213  1.00  0.00     0.029 A 
ATOM     48  N   UNL A   1      41.133  26.991  29.342  1.00  0.00    -0.354 N 
ATOM     49  C   UNL A   1      41.790  30.423  31.846  1.00  0.00     0.074 A 
ATOM     50  C   UNL A   1      40.631  31.289  31.861  1.00  0.00     0.031 C 
ATOM     51  C   UNL A   1      39.980  25.639  27.991  1.00  0.00     0.029 A 
ATOM     52  C   UNL A   1      41.266  25.800  28.667  1.00  0.00     0.049 A 
ATOM     53  H   UNL A   1      41.825  27.348  29.945  1.00  0.00     0.167 HD
ATOM     54  C   UNL A   1      42.926  30.655  32.543  1.00  0.00     0.031 A 
ATOM     55  C   UNL A   1      42.314  24.957  28.575  1.00  0.00     0.031 A 
ATOM     56  C   UNL A   1      44.086  29.805  32.520  1.00  0.00     0.049 A 
ATOM     57  C   UNL A   1      43.607  25.306  29.274  1.00  0.00     0.074 A 
ATOM     58  C   UNL A   1      45.281  29.964  33.204  1.00  0.00     0.029 A 
ATOM     59  N   UNL A   1      44.208  28.649  31.767  1.00  0.00    -0.354 N 
ATOM     60  N   UNL A   1      43.867  26.293  30.096  1.00  0.00    -0.248 NA
ATOM     61  C   UNL A   1      44.764  24.433  29.009  1.00  0.00     0.031 C 
ATOM     62  C   UNL A   1      46.152  28.949  32.803  1.00  0.00     0.029 A 
ATOM     63  C   UNL A   1      45.476  28.116  31.926  1.00  0.00     0.049 A 
ATOM     64  H   UNL A   1      43.498  28.264  31.203  1.00  0.00     0.167 HD
ATOM     65  C   UNL A   1      45.202  26.147  30.458  1.00  0.00     0.074 A 
ATOM     66  C   UNL A   1      45.693  24.962  29.792  1.00  0.00     0.031 C 
ATOM     67  C   UNL A   1      45.957  26.933  31.263  1.00  0.00     0.031 A 
BRANCH  54  68
ATOM     68  C   UNL A   1      43.010  31.926  33.338  1.00  0.00    -0.014 A 
ATOM     69  C   UNL A   1      43.434  33.132  32.761  1.00  0.00     0.009 A 
ATOM     70  C   UNL A   1      42.588  31.922  34.678  1.00  0.00     0.009 A 
ATOM     71  C   UNL A   1      43.453  34.305  33.520  1.00  0.00     0.001 A 
ATOM     72  C   UNL A   1      42.581  33.100  35.424  1.00  0.00     0.001 A 
ATOM     73  C   UNL A   1      43.020  34.290  34.846  1.00  0.00     0.000 A 
ENDBRANCH  54  68
BRANCH  55  74
ATOM     74  C   UNL A   1      42.245  23.731  27.728  1.00  0.00    -0.014 A 
ATOM     75  C   UNL A   1      42.656  23.762  26.385  1.00  0.00     0.009 A 
ATOM     76  C   UNL A   1      41.682  22.547  28.229  1.00  0.00     0.009 A 
ATOM     77  C   UNL A   1      42.465  22.653  25.556  1.00  0.00     0.001 A 
ATOM     78  C   UNL A   1      41.528  21.426  27.409  1.00  0.00     0.001 A 
ATOM     79  C   UNL A   1      41.903  21.486  26.069  1.00  0.00     0.000 A 
ENDBRANCH  55  74
BRANCH  67  80
ATOM     80  C   UNL A   1      47.389  26.535  31.489  1.00  0.00    -0.014 A 
ATOM     81  C   UNL A   1      47.745  25.653  32.521  1.00  0.00     0.009 A 
ATOM     82  C   UNL A   1      48.387  26.989  30.612  1.00  0.00     0.009 A 
ATOM     83  C   UNL A   1      49.073  25.252  32.682  1.00  0.00     0.001 A 
ATOM     84  C   UNL A   1      49.709  26.562  30.756  1.00  0.00     0.001 A 
ATOM     85  C   UNL A   1      50.052  25.699  31.796  1.00  0.00     0.000 A 
ENDBRANCH  67  80
ENDBRANCH  41  42
ENDBRANCH  34  36
ENDBRANCH  33  34
ENDBRANCH  32  33
ENDBRANCH  31  32
ENDBRANCH  30  31
ENDBRANCH  29  30
ENDBRANCH   1  29
TORSDOF 21
ENDMDL
MODEL 3
REMARK VINA RESULT:      -9.8      3.333      7.596
REMARK SMILES C[C@]([NH3+])(C(=O)N1[C@@H](C(=O)OCCOCCOCCOC(=O)c2ccc(-c3c4nc(c(-c5ccccc5)c5ccc([nH]5)c(-c5ccccc5)c5nc(c(-c6ccccc6)c6ccc3[nH]6)C=C5)C=C4)cc2)C[C@H]2CCCC[C@@H]21)C(F)(F)F
REMARK SMILES IDX 14 1 13 2 12 3 11 4 10 5 8 6 9 7 7 8 6 9 76 10 70 11 71 12
REMARK SMILES IDX 75 13 72 14 74 15 73 16 4 17 5 18 2 19 1 20 77 21 78 22
REMARK SMILES IDX 79 23 80 24 3 25 15 29 16 30 17 31 18 32 19 33 20 34 21 35
REMARK SMILES IDX 22 36 23 37 69 38 24 39 68 40 25 41 26 42 27 43 62 44 28 45
REMARK SMILES IDX 67 46 61 47 63 48 29 49 66 50 60 51 59 52 30 54 52 55 37 56
REMARK SMILES IDX 51 57 38 58 41 59 50 60 64 61 39 62 40 63 49 65 65 66 42 67
REMARK SMILES IDX 31 68 32 69 36 70 33 71 35 72 34 73 53 74 54 75 58 76 55 77
REMARK SMILES IDX 57 78 56 79 43 80 44 81 48 82 45 83 47 84 46 85
REMARK H PARENT 3 26 3 27 3 28 63 53 41 64
REMARK Flexibility Score: inf
ROOT
ATOM      1  C   UNL A   1      32.391  20.670  24.175  1.00  0.00     0.188 C 
ENDROOT
BRANCH   1   2
ATOM      2  O   UNL A   1      32.586  21.929  23.577  1.00  0.00    -0.376 OA
BRANCH   2   3
ATOM      3  C   UNL A   1      33.779  22.669  23.769  1.00  0.00     0.202 C 
BRANCH   3   4
ATOM      4  C   UNL A   1      34.208  23.900  22.949  1.00  0.00     0.261 C 
BRANCH   4   5
ATOM      5  O   UNL A   1      33.390  24.238  21.827  1.00  0.00    -0.462 OA
BRANCH   5   6
ATOM      6  C   UNL A   1      33.158  25.570  21.617  1.00  0.00     0.328 C 
ATOM      7  O   UNL A   1      33.074  26.094  20.516  1.00  0.00    -0.250 OA
BRANCH   6   8
ATOM      8  C   UNL A   1      32.818  26.257  22.963  1.00  0.00     0.196 C 
ATOM      9  N   UNL A   1      31.410  26.092  23.343  1.00  0.00    -0.320 N 
ATOM     10  C   UNL A   1      30.682  27.192  22.756  1.00  0.00     0.089 C 
ATOM     11  C   UNL A   1      33.021  27.777  22.833  1.00  0.00     0.043 C 
ATOM     12  C   UNL A   1      31.633  28.346  23.091  1.00  0.00     0.014 C 
ATOM     13  C   UNL A   1      29.297  27.542  23.281  1.00  0.00     0.025 C 
ATOM     14  C   UNL A   1      31.253  29.599  22.332  1.00  0.00     0.006 C 
ATOM     15  C   UNL A   1      28.823  28.835  22.604  1.00  0.00     0.002 C 
ATOM     16  C   UNL A   1      29.825  29.993  22.720  1.00  0.00     0.000 C 
BRANCH   9  17
ATOM     17  C   UNL A   1      30.799  24.931  23.794  1.00  0.00     0.294 C 
ATOM     18  O   UNL A   1      30.125  24.259  23.013  1.00  0.00    -0.267 OA
BRANCH  17  19
ATOM     19  C   UNL A   1      30.777  24.651  25.327  1.00  0.00     0.267 C 
ATOM     20  C   UNL A   1      32.154  25.022  25.909  1.00  0.00     0.100 C 
BRANCH  19  21
ATOM     21  C   UNL A   1      29.705  25.579  25.960  1.00  0.00     0.453 C 
ATOM     22  F   UNL A   1      28.724  25.884  25.081  1.00  0.00    -0.164 F 
ATOM     23  F   UNL A   1      29.113  24.949  27.011  1.00  0.00    -0.164 F 
ATOM     24  F   UNL A   1      30.219  26.728  26.452  1.00  0.00    -0.164 F 
ENDBRANCH  19  21
BRANCH  19  25
ATOM     25  N   UNL A   1      30.532  23.210  25.649  1.00  0.00    -0.337 N 
ATOM     26  H   UNL A   1      30.894  22.627  24.895  1.00  0.00     0.345 HD
ATOM     27  H   UNL A   1      29.530  23.051  25.751  1.00  0.00     0.345 HD
ATOM     28  H   UNL A   1      31.005  22.971  26.521  1.00  0.00     0.345 HD
ENDBRANCH  19  25
ENDBRANCH  17  19
ENDBRANCH   9  17
ENDBRANCH   6   8
ENDBRANCH   5   6
ENDBRANCH   4   5
ENDBRANCH   3   4
ENDBRANCH   2   3
ENDBRANCH   1   2
BRANCH   1  29
ATOM     29  C   UNL A   1      33.362  20.215  25.287  1.00  0.00     0.188 C 
BRANCH  29  30
ATOM     30  O   UNL A   1      34.385  19.292  25.000  1.00  0.00    -0.376 OA
BRANCH  30  31
ATOM     31  C   UNL A   1      35.714  19.761  24.856  1.00  0.00     0.202 C 
BRANCH  31  32
ATOM     32  C   UNL A   1      36.260  20.974  25.637  1.00  0.00     0.261 C 
BRANCH  32  33
ATOM     33  O   UNL A   1      37.470  21.582  25.148  1.00  0.00    -0.460 OA
BRANCH  33  34
ATOM     34  C   UNL A   1      38.618  21.208  25.770  1.00  0.00     0.338 C 
ATOM     35  O   UNL A   1      39.107  20.087  25.799  1.00  0.00    -0.246 OA
BRANCH  34  36
ATOM     36  C   UNL A   1      39.342  22.406  26.249  1.00  0.00     0.060 A 
ATOM     37  C   UNL A   1      38.786  23.670  26.007  1.00  0.00     0.016 A 
ATOM     38  C   UNL A   1      40.560  22.295  26.918  1.00  0.00     0.016 A 
ATOM     39  C   UNL A   1      39.432  24.824  26.462  1.00  0.00     0.010 A 
ATOM     40  C   UNL A   1      41.221  23.456  27.345  1.00  0.00     0.010 A 
ATOM     41  C   UNL A   1      40.662  24.728  27.126  1.00  0.00    -0.014 A 
BRANCH  41  42
ATOM     42  C   UNL A   1      41.411  25.952  27.511  1.00  0.00     0.031 A 
ATOM     43  C   UNL A   1      40.769  26.949  28.433  1.00  0.00     0.074 A 
ATOM     44  C   UNL A   1      42.649  26.189  27.038  1.00  0.00     0.049 A 
ATOM     45  N   UNL A   1      41.187  28.135  28.791  1.00  0.00    -0.248 NA
ATOM     46  C   UNL A   1      39.482  26.556  29.029  1.00  0.00     0.031 C 
ATOM     47  C   UNL A   1      43.430  25.269  26.215  1.00  0.00     0.029 A 
ATOM     48  N   UNL A   1      43.469  27.284  27.187  1.00  0.00    -0.354 N 
ATOM     49  C   UNL A   1      40.203  28.645  29.628  1.00  0.00     0.074 A 
ATOM     50  C   UNL A   1      39.173  27.635  29.736  1.00  0.00     0.031 C 
ATOM     51  C   UNL A   1      44.618  25.837  25.934  1.00  0.00     0.029 A 
ATOM     52  C   UNL A   1      44.658  27.181  26.504  1.00  0.00     0.049 A 
ATOM     53  H   UNL A   1      43.227  28.067  27.732  1.00  0.00     0.167 HD
ATOM     54  C   UNL A   1      40.152  29.855  30.232  1.00  0.00     0.031 A 
ATOM     55  C   UNL A   1      45.649  28.081  26.330  1.00  0.00     0.031 A 
ATOM     56  C   UNL A   1      41.167  30.869  30.117  1.00  0.00     0.049 A 
ATOM     57  C   UNL A   1      45.506  29.462  26.923  1.00  0.00     0.074 A 
ATOM     58  C   UNL A   1      41.196  32.124  30.703  1.00  0.00     0.029 A 
ATOM     59  N   UNL A   1      42.319  30.755  29.358  1.00  0.00    -0.354 N 
ATOM     60  N   UNL A   1      44.578  29.932  27.721  1.00  0.00    -0.248 NA
ATOM     61  C   UNL A   1      46.539  30.450  26.567  1.00  0.00     0.031 C 
ATOM     62  C   UNL A   1      42.326  32.798  30.235  1.00  0.00     0.029 A 
ATOM     63  C   UNL A   1      43.038  31.937  29.415  1.00  0.00     0.049 A 
ATOM     64  H   UNL A   1      42.587  29.953  28.852  1.00  0.00     0.167 HD
ATOM     65  C   UNL A   1      44.927  31.254  27.975  1.00  0.00     0.074 A 
ATOM     66  C   UNL A   1      46.165  31.507  27.272  1.00  0.00     0.031 C 
ATOM     67  C   UNL A   1      44.272  32.181  28.717  1.00  0.00     0.031 A 
BRANCH  54  68
ATOM     68  C   UNL A   1      38.918  30.192  31.017  1.00  0.00    -0.014 A 
ATOM     69  C   UNL A   1      37.790  30.764  30.411  1.00  0.00     0.009 A 
ATOM     70  C   UNL A   1      38.866  29.863  32.382  1.00  0.00     0.009 A 
ATOM     71  C   UNL A   1      36.641  31.019  31.164  1.00  0.00     0.001 A 
ATOM     72  C   UNL A   1      37.708  30.093  33.124  1.00  0.00     0.001 A 
ATOM     73  C   UNL A   1      36.598  30.676  32.516  1.00  0.00     0.000 A 
ENDBRANCH  54  68
BRANCH  55  74
ATOM     74  C   UNL A   1      46.841  27.761  25.492  1.00  0.00    -0.014 A 
ATOM     75  C   UNL A   1      46.803  27.927  24.097  1.00  0.00     0.009 A 
ATOM     76  C   UNL A   1      47.991  27.201  26.069  1.00  0.00     0.009 A 
ATOM     77  C   UNL A   1      47.869  27.501  23.301  1.00  0.00     0.001 A 
ATOM     78  C   UNL A   1      49.072  26.812  25.275  1.00  0.00     0.001 A 
ATOM     79  C   UNL A   1      49.004  26.946  23.890  1.00  0.00     0.000 A 
ENDBRANCH  55  74
BRANCH  67  80
ATOM     80  C   UNL A   1      44.883  33.550  28.828  1.00  0.00    -0.014 A 
ATOM     81  C   UNL A   1      45.839  33.842  29.813  1.00  0.00     0.009 A 
ATOM     82  C   UNL A   1      44.555  34.540  27.887  1.00  0.00     0.009 A 
ATOM     83  C   UNL A   1      46.435  35.105  29.867  1.00  0.00     0.001 A 
ATOM     84  C   UNL A   1      45.176  35.789  27.924  1.00  0.00     0.001 A 
ATOM     85  C   UNL A   1      46.111  36.073  28.919  1.00  0.00     0.000 A 
ENDBRANCH  67  80
ENDBRANCH  41  42
ENDBRANCH  34  36
ENDBRANCH  33  34
ENDBRANCH  32  33
ENDBRANCH  31  32
ENDBRANCH  30  31
ENDBRANCH  29  30
ENDBRANCH   1  29
TORSDOF 21
ENDMDL
