MODEL 1
REMARK VINA RESULT:     -10.6      0.000      0.000
REMARK SMILES CC1(C)[C@H](C(=O)Nc2cccc3[nH]ccc23)[C@H]1C(=O)OCCOCCOCCOC(=O)c1ccc(-c2c3nc(c(-c4ccccc4)c4ccc([nH]4)c(-c4ccccc4)c4nc(c(-c5ccccc5)c5ccc2[nH]5)C=C4)C=C3)cc1
REMARK SMILES IDX 24 1 23 2 22 3 21 4 20 5 18 6 19 7 17 8 1 9 2 10 3 11 4 12
REMARK SMILES IDX 5 13 6 14 7 15 8 17 9 18 16 19 10 20 12 21 15 22 11 23 13 24
REMARK SMILES IDX 14 25 25 27 26 28 27 29 28 30 29 31 30 32 31 33 32 34 33 35
REMARK SMILES IDX 79 36 34 37 78 38 35 39 36 40 37 41 72 42 38 43 77 44 71 45
REMARK SMILES IDX 73 46 39 47 76 48 70 49 69 50 40 52 62 53 47 54 61 55 48 56
REMARK SMILES IDX 51 57 60 58 74 59 49 60 50 61 59 63 75 64 52 65 41 66 42 67
REMARK SMILES IDX 46 68 43 69 45 70 44 71 63 72 64 73 68 74 65 75 67 76 66 77
REMARK SMILES IDX 53 78 54 79 58 80 55 81 57 82 56 83
REMARK H PARENT 7 16 13 26 73 51 51 62
REMARK Flexibility Score: inf
ROOT
ATOM      1  C   UNL A   1      41.476  19.117  26.232  1.00  0.00     0.188 C 
ENDROOT
BRANCH   1   2
ATOM      2  O   UNL A   1      40.267  19.868  26.126  1.00  0.00    -0.376 OA
BRANCH   2   3
ATOM      3  C   UNL A   1      40.334  21.295  26.167  1.00  0.00     0.202 C 
BRANCH   3   4
ATOM      4  C   UNL A   1      39.011  22.067  26.260  1.00  0.00     0.261 C 
BRANCH   4   5
ATOM      5  O   UNL A   1      38.177  21.837  25.113  1.00  0.00    -0.463 OA
BRANCH   5   6
ATOM      6  C   UNL A   1      37.188  22.737  24.898  1.00  0.00     0.310 C 
ATOM      7  O   UNL A   1      37.286  23.953  24.993  1.00  0.00    -0.252 OA
BRANCH   6   8
ATOM      8  C   UNL A   1      35.963  22.107  24.345  1.00  0.00     0.118 C 
ATOM      9  C   UNL A   1      34.778  21.622  26.665  1.00  0.00     0.013 C 
ATOM     10  C   UNL A   1      34.784  21.560  25.155  1.00  0.00    -0.009 C 
ATOM     11  C   UNL A   1      34.119  20.305  24.646  1.00  0.00     0.013 C 
ATOM     12  C   UNL A   1      34.678  22.893  24.418  1.00  0.00     0.100 C 
BRANCH  12  13
ATOM     13  C   UNL A   1      33.852  23.224  23.214  1.00  0.00     0.228 C 
ATOM     14  O   UNL A   1      34.425  23.352  22.137  1.00  0.00    -0.274 OA
ATOM     15  N   UNL A   1      32.491  23.043  23.294  1.00  0.00    -0.325 N 
ATOM     16  H   UNL A   1      32.138  22.175  22.993  1.00  0.00     0.169 HD
BRANCH  15  17
ATOM     17  C   UNL A   1      31.554  23.985  23.763  1.00  0.00     0.050 A 
ATOM     18  C   UNL A   1      31.203  25.115  23.015  1.00  0.00     0.027 A 
ATOM     19  C   UNL A   1      30.906  23.785  25.006  1.00  0.00     0.023 A 
ATOM     20  C   UNL A   1      30.379  26.111  23.537  1.00  0.00     0.004 A 
ATOM     21  C   UNL A   1      30.078  24.797  25.502  1.00  0.00     0.047 A 
ATOM     22  C   UNL A   1      30.889  22.738  25.974  1.00  0.00     0.030 A 
ATOM     23  C   UNL A   1      29.829  25.987  24.811  1.00  0.00     0.027 A 
ATOM     24  N   UNL A   1      29.603  24.381  26.726  1.00  0.00    -0.361 N 
ATOM     25  C   UNL A   1      30.061  23.122  27.005  1.00  0.00     0.083 A 
ATOM     26  H   UNL A   1      29.019  24.913  27.315  1.00  0.00     0.166 HD
ENDBRANCH  15  17
ENDBRANCH  12  13
ENDBRANCH   6   8
ENDBRANCH   5   6
ENDBRANCH   4   5
ENDBRANCH   3   4
ENDBRANCH   2   3
ENDBRANCH   1   2
BRANCH   1  27
ATOM     27  C   UNL A   1      42.823  19.859  26.123  1.00  0.00     0.188 C 
BRANCH  27  28
ATOM     28  O   UNL A   1      43.445  19.720  24.864  1.00  0.00    -0.376 OA
BRANCH  28  29
ATOM     29  C   UNL A   1      44.761  20.223  24.723  1.00  0.00     0.202 C 
BRANCH  29  30
ATOM     30  C   UNL A   1      44.946  21.707  24.368  1.00  0.00     0.261 C 
BRANCH  30  31
ATOM     31  O   UNL A   1      44.575  22.664  25.376  1.00  0.00    -0.460 OA
BRANCH  31  32
ATOM     32  C   UNL A   1      44.865  23.960  25.129  1.00  0.00     0.338 C 
ATOM     33  O   UNL A   1      45.541  24.405  24.220  1.00  0.00    -0.246 OA
BRANCH  32  34
ATOM     34  C   UNL A   1      44.049  24.789  26.045  1.00  0.00     0.060 A 
ATOM     35  C   UNL A   1      44.329  26.158  26.147  1.00  0.00     0.016 A 
ATOM     36  C   UNL A   1      43.027  24.219  26.809  1.00  0.00     0.016 A 
ATOM     37  C   UNL A   1      43.611  26.954  27.041  1.00  0.00     0.010 A 
ATOM     38  C   UNL A   1      42.321  25.015  27.719  1.00  0.00     0.010 A 
ATOM     39  C   UNL A   1      42.632  26.379  27.863  1.00  0.00    -0.014 A 
BRANCH  39  40
ATOM     40  C   UNL A   1      42.075  27.164  28.993  1.00  0.00     0.031 A 
ATOM     41  C   UNL A   1      42.812  27.158  30.306  1.00  0.00     0.074 A 
ATOM     42  C   UNL A   1      40.962  27.906  28.852  1.00  0.00     0.049 A 
ATOM     43  N   UNL A   1      42.516  27.765  31.428  1.00  0.00    -0.248 NA
ATOM     44  C   UNL A   1      44.049  26.363  30.358  1.00  0.00     0.031 C 
ATOM     45  C   UNL A   1      40.174  28.032  27.628  1.00  0.00     0.029 A 
ATOM     46  N   UNL A   1      40.299  28.694  29.762  1.00  0.00    -0.354 N 
ATOM     47  C   UNL A   1      43.524  27.419  32.319  1.00  0.00     0.074 A 
ATOM     48  C   UNL A   1      44.425  26.530  31.618  1.00  0.00     0.031 C 
ATOM     49  C   UNL A   1      39.128  28.843  27.866  1.00  0.00     0.029 A 
ATOM     50  C   UNL A   1      39.161  29.275  29.262  1.00  0.00     0.049 A 
ATOM     51  H   UNL A   1      40.613  28.829  30.685  1.00  0.00     0.167 HD
ATOM     52  C   UNL A   1      43.692  27.806  33.606  1.00  0.00     0.031 A 
ATOM     53  C   UNL A   1      38.241  30.052  29.868  1.00  0.00     0.031 A 
ATOM     54  C   UNL A   1      42.790  28.670  34.318  1.00  0.00     0.049 A 
ATOM     55  C   UNL A   1      38.407  30.406  31.324  1.00  0.00     0.074 A 
ATOM     56  C   UNL A   1      42.878  29.120  35.624  1.00  0.00     0.029 A 
ATOM     57  N   UNL A   1      41.630  29.208  33.786  1.00  0.00    -0.354 N 
ATOM     58  N   UNL A   1      39.380  30.095  32.146  1.00  0.00    -0.248 NA
ATOM     59  C   UNL A   1      37.349  31.228  31.930  1.00  0.00     0.031 C 
ATOM     60  C   UNL A   1      41.740  29.886  35.897  1.00  0.00     0.029 A 
ATOM     61  C   UNL A   1      40.979  29.966  34.743  1.00  0.00     0.049 A 
ATOM     62  H   UNL A   1      41.314  29.071  32.863  1.00  0.00     0.167 HD
ATOM     63  C   UNL A   1      39.065  30.704  33.356  1.00  0.00     0.074 A 
ATOM     64  C   UNL A   1      37.822  31.418  33.154  1.00  0.00     0.031 C 
ATOM     65  C   UNL A   1      39.745  30.677  34.529  1.00  0.00     0.031 A 
BRANCH  52  66
ATOM     66  C   UNL A   1      44.883  27.257  34.340  1.00  0.00    -0.014 A 
ATOM     67  C   UNL A   1      44.793  26.084  35.106  1.00  0.00     0.009 A 
ATOM     68  C   UNL A   1      46.120  27.913  34.244  1.00  0.00     0.009 A 
ATOM     69  C   UNL A   1      45.911  25.597  35.787  1.00  0.00     0.001 A 
ATOM     70  C   UNL A   1      47.243  27.408  34.903  1.00  0.00     0.001 A 
ATOM     71  C   UNL A   1      47.135  26.257  35.681  1.00  0.00     0.000 A 
ENDBRANCH  52  66
BRANCH  53  72
ATOM     72  C   UNL A   1      37.065  30.549  29.106  1.00  0.00    -0.014 A 
ATOM     73  C   UNL A   1      36.012  29.686  28.770  1.00  0.00     0.009 A 
ATOM     74  C   UNL A   1      37.006  31.887  28.684  1.00  0.00     0.009 A 
ATOM     75  C   UNL A   1      34.937  30.145  28.005  1.00  0.00     0.001 A 
ATOM     76  C   UNL A   1      35.916  32.350  27.946  1.00  0.00     0.001 A 
ATOM     77  C   UNL A   1      34.887  31.477  27.597  1.00  0.00     0.000 A 
ENDBRANCH  53  72
BRANCH  65  78
ATOM     78  C   UNL A   1      39.189  31.479  35.674  1.00  0.00    -0.014 A 
ATOM     79  C   UNL A   1      39.614  32.792  35.927  1.00  0.00     0.009 A 
ATOM     80  C   UNL A   1      38.189  30.921  36.487  1.00  0.00     0.009 A 
ATOM     81  C   UNL A   1      39.075  33.517  36.992  1.00  0.00     0.001 A 
ATOM     82  C   UNL A   1      37.630  31.658  37.532  1.00  0.00     0.001 A 
ATOM     83  C   UNL A   1      38.081  32.951  37.790  1.00  0.00     0.000 A 
ENDBRANCH  65  78
ENDBRANCH  39  40
ENDBRANCH  32  34
ENDBRANCH  31  32
ENDBRANCH  30  31
ENDBRANCH  29  30
ENDBRANCH  28  29
ENDBRANCH  27  28
ENDBRANCH   1  27
TORSDOF 19
ENDMDL
MODEL 2
REMARK VINA RESULT:     -10.5      1.541      2.188
REMARK SMILES CC1(C)[C@H](C(=O)Nc2cccc3[nH]ccc23)[C@H]1C(=O)OCCOCCOCCOC(=O)c1ccc(-c2c3nc(c(-c4ccccc4)c4ccc([nH]4)c(-c4ccccc4)c4nc(c(-c5ccccc5)c5ccc2[nH]5)C=C4)C=C3)cc1
REMARK SMILES IDX 24 1 23 2 22 3 21 4 20 5 18 6 19 7 17 8 1 9 2 10 3 11 4 12
REMARK SMILES IDX 5 13 6 14 7 15 8 17 9 18 16 19 10 20 12 21 15 22 11 23 13 24
REMARK SMILES IDX 14 25 25 27 26 28 27 29 28 30 29 31 30 32 31 33 32 34 33 35
REMARK SMILES IDX 79 36 34 37 78 38 35 39 36 40 37 41 72 42 38 43 77 44 71 45
REMARK SMILES IDX 73 46 39 47 76 48 70 49 69 50 40 52 62 53 47 54 61 55 48 56
REMARK SMILES IDX 51 57 60 58 74 59 49 60 50 61 59 63 75 64 52 65 41 66 42 67
REMARK SMILES IDX 46 68 43 69 45 70 44 71 63 72 64 73 68 74 65 75 67 76 66 77
REMARK SMILES IDX 53 78 54 79 58 80 55 81 57 82 56 83
REMARK H PARENT 7 16 13 26 73 51 51 62
REMARK Flexibility Score: inf
ROOT
ATOM      1  C   UNL A   1      40.693  21.738  26.178  1.00  0.00     0.188 C 
ENDROOT
BRANCH   1   2
ATOM      2  O   UNL A   1      39.391  21.170  26.053  1.00  0.00    -0.376 OA
BRANCH   2   3
ATOM      3  C   UNL A   1      38.290  22.027  25.744  1.00  0.00     0.202 C 
BRANCH   3   4
ATOM      4  C   UNL A   1      37.292  21.548  24.680  1.00  0.00     0.261 C 
BRANCH   4   5
ATOM      5  O   UNL A   1      36.012  21.235  25.251  1.00  0.00    -0.463 OA
BRANCH   5   6
ATOM      6  C   UNL A   1      35.097  22.233  25.261  1.00  0.00     0.310 C 
ATOM      7  O   UNL A   1      35.033  23.146  26.073  1.00  0.00    -0.252 OA
BRANCH   6   8
ATOM      8  C   UNL A   1      34.239  22.223  24.049  1.00  0.00     0.118 C 
ATOM      9  C   UNL A   1      32.087  21.177  25.188  1.00  0.00     0.013 C 
ATOM     10  C   UNL A   1      32.792  21.728  23.969  1.00  0.00    -0.009 C 
ATOM     11  C   UNL A   1      32.377  21.004  22.712  1.00  0.00     0.013 C 
ATOM     12  C   UNL A   1      33.110  23.221  23.982  1.00  0.00     0.100 C 
BRANCH  12  13
ATOM     13  C   UNL A   1      32.958  24.211  22.870  1.00  0.00     0.228 C 
ATOM     14  O   UNL A   1      33.386  23.906  21.762  1.00  0.00    -0.274 OA
ATOM     15  N   UNL A   1      32.072  25.249  23.044  1.00  0.00    -0.325 N 
ATOM     16  H   UNL A   1      31.154  25.111  22.717  1.00  0.00     0.169 HD
BRANCH  15  17
ATOM     17  C   UNL A   1      32.356  26.492  23.643  1.00  0.00     0.050 A 
ATOM     18  C   UNL A   1      33.415  26.653  24.544  1.00  0.00     0.027 A 
ATOM     19  C   UNL A   1      31.588  27.634  23.312  1.00  0.00     0.023 A 
ATOM     20  C   UNL A   1      33.613  27.847  25.236  1.00  0.00     0.004 A 
ATOM     21  C   UNL A   1      31.812  28.821  24.016  1.00  0.00     0.047 A 
ATOM     22  C   UNL A   1      30.545  27.907  22.378  1.00  0.00     0.030 A 
ATOM     23  C   UNL A   1      32.787  28.946  25.010  1.00  0.00     0.027 A 
ATOM     24  N   UNL A   1      30.924  29.759  23.538  1.00  0.00    -0.361 N 
ATOM     25  C   UNL A   1      30.177  29.226  22.524  1.00  0.00     0.083 A 
ATOM     26  H   UNL A   1      30.840  30.680  23.877  1.00  0.00     0.166 HD
ENDBRANCH  15  17
ENDBRANCH  12  13
ENDBRANCH   6   8
ENDBRANCH   5   6
ENDBRANCH   4   5
ENDBRANCH   3   4
ENDBRANCH   2   3
ENDBRANCH   1   2
BRANCH   1  27
ATOM     27  C   UNL A   1      41.888  20.806  26.457  1.00  0.00     0.188 C 
BRANCH  27  28
ATOM     28  O   UNL A   1      42.788  20.700  25.375  1.00  0.00    -0.376 OA
BRANCH  28  29
ATOM     29  C   UNL A   1      44.087  21.237  25.548  1.00  0.00     0.202 C 
BRANCH  29  30
ATOM     30  C   UNL A   1      44.559  22.342  24.589  1.00  0.00     0.261 C 
BRANCH  30  31
ATOM     31  O   UNL A   1      43.846  23.589  24.639  1.00  0.00    -0.460 OA
BRANCH  31  32
ATOM     32  C   UNL A   1      44.536  24.677  25.045  1.00  0.00     0.338 C 
ATOM     33  O   UNL A   1      45.598  25.082  24.610  1.00  0.00    -0.246 OA
BRANCH  32  34
ATOM     34  C   UNL A   1      43.681  25.428  25.992  1.00  0.00     0.060 A 
ATOM     35  C   UNL A   1      43.818  26.820  26.067  1.00  0.00     0.016 A 
ATOM     36  C   UNL A   1      42.763  24.765  26.810  1.00  0.00     0.016 A 
ATOM     37  C   UNL A   1      43.063  27.549  26.987  1.00  0.00     0.010 A 
ATOM     38  C   UNL A   1      42.021  25.495  27.746  1.00  0.00     0.010 A 
ATOM     39  C   UNL A   1      42.192  26.886  27.862  1.00  0.00    -0.014 A 
BRANCH  39  40
ATOM     40  C   UNL A   1      41.609  27.624  29.011  1.00  0.00     0.031 A 
ATOM     41  C   UNL A   1      42.311  27.556  30.341  1.00  0.00     0.074 A 
ATOM     42  C   UNL A   1      40.504  28.378  28.873  1.00  0.00     0.049 A 
ATOM     43  N   UNL A   1      41.988  28.115  31.480  1.00  0.00    -0.248 NA
ATOM     44  C   UNL A   1      43.542  26.751  30.391  1.00  0.00     0.031 C 
ATOM     45  C   UNL A   1      39.749  28.562  27.635  1.00  0.00     0.029 A 
ATOM     46  N   UNL A   1      39.821  29.130  29.799  1.00  0.00    -0.354 N 
ATOM     47  C   UNL A   1      42.971  27.724  32.381  1.00  0.00     0.074 A 
ATOM     48  C   UNL A   1      43.885  26.860  31.665  1.00  0.00     0.031 C 
ATOM     49  C   UNL A   1      38.701  29.369  27.881  1.00  0.00     0.029 A 
ATOM     50  C   UNL A   1      38.699  29.739  29.295  1.00  0.00     0.049 A 
ATOM     51  H   UNL A   1      40.111  29.222  30.736  1.00  0.00     0.167 HD
ATOM     52  C   UNL A   1      43.106  28.053  33.688  1.00  0.00     0.031 A 
ATOM     53  C   UNL A   1      37.768  30.494  29.911  1.00  0.00     0.031 A 
ATOM     54  C   UNL A   1      42.190  28.891  34.413  1.00  0.00     0.049 A 
ATOM     55  C   UNL A   1      37.897  30.784  31.385  1.00  0.00     0.074 A 
ATOM     56  C   UNL A   1      42.246  29.282  35.739  1.00  0.00     0.029 A 
ATOM     57  N   UNL A   1      41.047  29.458  33.875  1.00  0.00    -0.354 N 
ATOM     58  N   UNL A   1      38.846  30.430  32.217  1.00  0.00    -0.248 NA
ATOM     59  C   UNL A   1      36.827  31.584  31.999  1.00  0.00     0.031 C 
ATOM     60  C   UNL A   1      41.105  30.043  36.017  1.00  0.00     0.029 A 
ATOM     61  C   UNL A   1      40.375  30.178  34.847  1.00  0.00     0.049 A 
ATOM     62  H   UNL A   1      40.755  29.364  32.939  1.00  0.00     0.167 HD
ATOM     63  C   UNL A   1      38.502  30.988  33.445  1.00  0.00     0.074 A 
ATOM     64  C   UNL A   1      37.268  31.718  33.242  1.00  0.00     0.031 C 
ATOM     65  C   UNL A   1      39.151  30.905  34.632  1.00  0.00     0.031 A 
BRANCH  52  66
ATOM     66  C   UNL A   1      44.275  27.465  34.428  1.00  0.00    -0.014 A 
ATOM     67  C   UNL A   1      45.516  28.119  34.472  1.00  0.00     0.009 A 
ATOM     68  C   UNL A   1      44.123  26.249  35.112  1.00  0.00     0.009 A 
ATOM     69  C   UNL A   1      46.591  27.550  35.159  1.00  0.00     0.001 A 
ATOM     70  C   UNL A   1      45.191  25.697  35.821  1.00  0.00     0.001 A 
ATOM     71  C   UNL A   1      46.426  26.343  35.836  1.00  0.00     0.000 A 
ENDBRANCH  52  66
BRANCH  53  72
ATOM     72  C   UNL A   1      36.614  31.032  29.141  1.00  0.00    -0.014 A 
ATOM     73  C   UNL A   1      35.554  30.196  28.762  1.00  0.00     0.009 A 
ATOM     74  C   UNL A   1      36.586  32.382  28.755  1.00  0.00     0.009 A 
ATOM     75  C   UNL A   1      34.502  30.694  27.989  1.00  0.00     0.001 A 
ATOM     76  C   UNL A   1      35.518  32.883  28.009  1.00  0.00     0.001 A 
ATOM     77  C   UNL A   1      34.482  32.036  27.618  1.00  0.00     0.000 A 
ENDBRANCH  53  72
BRANCH  65  78
ATOM     78  C   UNL A   1      38.569  31.660  35.797  1.00  0.00    -0.014 A 
ATOM     79  C   UNL A   1      37.932  30.998  36.857  1.00  0.00     0.009 A 
ATOM     80  C   UNL A   1      38.699  33.057  35.850  1.00  0.00     0.009 A 
ATOM     81  C   UNL A   1      37.407  31.723  37.929  1.00  0.00     0.001 A 
ATOM     82  C   UNL A   1      38.201  33.777  36.937  1.00  0.00     0.001 A 
ATOM     83  C   UNL A   1      37.546  33.110  37.970  1.00  0.00     0.000 A 
ENDBRANCH  65  78
ENDBRANCH  39  40
ENDBRANCH  32  34
ENDBRANCH  31  32
ENDBRANCH  30  31
ENDBRANCH  29  30
ENDBRANCH  28  29
ENDBRANCH  27  28
ENDBRANCH   1  27
TORSDOF 19
ENDMDL
MODEL 3
REMARK VINA RESULT:     -10.2      1.788      6.289
REMARK SMILES CC1(C)[C@H](C(=O)Nc2cccc3[nH]ccc23)[C@H]1C(=O)OCCOCCOCCOC(=O)c1ccc(-c2c3nc(c(-c4ccccc4)c4ccc([nH]4)c(-c4ccccc4)c4nc(c(-c5ccccc5)c5ccc2[nH]5)C=C4)C=C3)cc1
REMARK SMILES IDX 24 1 23 2 22 3 21 4 20 5 18 6 19 7 17 8 1 9 2 10 3 11 4 12
REMARK SMILES IDX 5 13 6 14 7 15 8 17 9 18 16 19 10 20 12 21 15 22 11 23 13 24
REMARK SMILES IDX 14 25 25 27 26 28 27 29 28 30 29 31 30 32 31 33 32 34 33 35
REMARK SMILES IDX 79 36 34 37 78 38 35 39 36 40 37 41 72 42 38 43 77 44 71 45
REMARK SMILES IDX 73 46 39 47 76 48 70 49 69 50 40 52 62 53 47 54 61 55 48 56
REMARK SMILES IDX 51 57 60 58 74 59 49 60 50 61 59 63 75 64 52 65 41 66 42 67
REMARK SMILES IDX 46 68 43 69 45 70 44 71 63 72 64 73 68 74 65 75 67 76 66 77
REMARK SMILES IDX 53 78 54 79 58 80 55 81 57 82 56 83
REMARK H PARENT 7 16 13 26 73 51 51 62
REMARK Flexibility Score: inf
ROOT
ATOM      1  C   UNL A   1      40.078  20.510  26.249  1.00  0.00     0.188 C 
ENDROOT
BRANCH   1   2
ATOM      2  O   UNL A   1      39.361  21.687  25.881  1.00  0.00    -0.376 OA
BRANCH   2   3
ATOM      3  C   UNL A   1      37.994  21.566  25.482  1.00  0.00     0.202 C 
BRANCH   3   4
ATOM      4  C   UNL A   1      37.266  22.844  25.041  1.00  0.00     0.261 C 
BRANCH   4   5
ATOM      5  O   UNL A   1      36.507  23.423  26.113  1.00  0.00    -0.463 OA
BRANCH   5   6
ATOM      6  C   UNL A   1      35.186  23.127  26.146  1.00  0.00     0.310 C 
ATOM      7  O   UNL A   1      34.665  22.220  26.780  1.00  0.00    -0.252 OA
BRANCH   6   8
ATOM      8  C   UNL A   1      34.363  24.148  25.449  1.00  0.00     0.118 C 
ATOM      9  C   UNL A   1      34.289  22.944  23.089  1.00  0.00     0.013 C 
ATOM     10  C   UNL A   1      33.909  24.100  23.988  1.00  0.00    -0.009 C 
ATOM     11  C   UNL A   1      33.875  25.405  23.231  1.00  0.00     0.013 C 
ATOM     12  C   UNL A   1      32.935  23.790  25.121  1.00  0.00     0.100 C 
BRANCH  12  13
ATOM     13  C   UNL A   1      31.763  24.597  25.583  1.00  0.00     0.228 C 
ATOM     14  O   UNL A   1      30.642  24.115  25.458  1.00  0.00    -0.274 OA
ATOM     15  N   UNL A   1      32.001  25.669  26.411  1.00  0.00    -0.325 N 
ATOM     16  H   UNL A   1      31.954  25.503  27.380  1.00  0.00     0.169 HD
BRANCH  15  17
ATOM     17  C   UNL A   1      32.302  26.984  26.003  1.00  0.00     0.050 A 
ATOM     18  C   UNL A   1      33.425  27.667  26.484  1.00  0.00     0.027 A 
ATOM     19  C   UNL A   1      31.484  27.639  25.052  1.00  0.00     0.023 A 
ATOM     20  C   UNL A   1      33.648  29.011  26.183  1.00  0.00     0.004 A 
ATOM     21  C   UNL A   1      31.735  28.984  24.763  1.00  0.00     0.047 A 
ATOM     22  C   UNL A   1      30.364  27.256  24.256  1.00  0.00     0.030 A 
ATOM     23  C   UNL A   1      32.783  29.707  25.343  1.00  0.00     0.027 A 
ATOM     24  N   UNL A   1      30.791  29.394  23.848  1.00  0.00    -0.361 N 
ATOM     25  C   UNL A   1      29.978  28.347  23.510  1.00  0.00     0.083 A 
ATOM     26  H   UNL A   1      30.712  30.309  23.490  1.00  0.00     0.166 HD
ENDBRANCH  15  17
ENDBRANCH  12  13
ENDBRANCH   6   8
ENDBRANCH   5   6
ENDBRANCH   4   5
ENDBRANCH   3   4
ENDBRANCH   2   3
ENDBRANCH   1   2
BRANCH   1  27
ATOM     27  C   UNL A   1      41.225  20.628  27.272  1.00  0.00     0.188 C 
BRANCH  27  28
ATOM     28  O   UNL A   1      42.482  20.244  26.760  1.00  0.00    -0.376 OA
BRANCH  28  29
ATOM     29  C   UNL A   1      42.982  20.958  25.644  1.00  0.00     0.202 C 
BRANCH  29  30
ATOM     30  C   UNL A   1      44.173  21.908  25.853  1.00  0.00     0.261 C 
BRANCH  30  31
ATOM     31  O   UNL A   1      43.922  23.103  26.612  1.00  0.00    -0.460 OA
BRANCH  31  32
ATOM     32  C   UNL A   1      43.594  24.215  25.918  1.00  0.00     0.338 C 
ATOM     33  O   UNL A   1      43.624  24.366  24.711  1.00  0.00    -0.246 OA
BRANCH  32  34
ATOM     34  C   UNL A   1      42.989  25.179  26.865  1.00  0.00     0.060 A 
ATOM     35  C   UNL A   1      43.567  26.448  26.997  1.00  0.00     0.016 A 
ATOM     36  C   UNL A   1      41.872  24.829  27.628  1.00  0.00     0.016 A 
ATOM     37  C   UNL A   1      43.050  27.359  27.920  1.00  0.00     0.010 A 
ATOM     38  C   UNL A   1      41.367  25.736  28.567  1.00  0.00     0.010 A 
ATOM     39  C   UNL A   1      41.974  26.993  28.741  1.00  0.00    -0.014 A 
BRANCH  39  40
ATOM     40  C   UNL A   1      41.614  27.851  29.897  1.00  0.00     0.031 A 
ATOM     41  C   UNL A   1      40.439  28.783  29.764  1.00  0.00     0.074 A 
ATOM     42  C   UNL A   1      42.284  27.778  31.061  1.00  0.00     0.049 A 
ATOM     43  N   UNL A   1      39.942  29.623  30.636  1.00  0.00    -0.248 NA
ATOM     44  C   UNL A   1      39.730  28.761  28.474  1.00  0.00     0.031 C 
ATOM     45  C   UNL A   1      43.413  26.894  31.338  1.00  0.00     0.029 A 
ATOM     46  N   UNL A   1      42.106  28.474  32.233  1.00  0.00    -0.354 N 
ATOM     47  C   UNL A   1      38.869  30.234  29.998  1.00  0.00     0.074 A 
ATOM     48  C   UNL A   1      38.802  29.688  28.660  1.00  0.00     0.031 C 
ATOM     49  C   UNL A   1      43.834  27.107  32.599  1.00  0.00     0.029 A 
ATOM     50  C   UNL A   1      43.018  28.156  33.207  1.00  0.00     0.049 A 
ATOM     51  H   UNL A   1      41.389  29.138  32.360  1.00  0.00     0.167 HD
ATOM     52  C   UNL A   1      38.011  31.164  30.480  1.00  0.00     0.031 A 
ATOM     53  C   UNL A   1      43.186  28.667  34.444  1.00  0.00     0.031 A 
ATOM     54  C   UNL A   1      38.083  31.729  31.800  1.00  0.00     0.049 A 
ATOM     55  C   UNL A   1      42.266  29.758  34.931  1.00  0.00     0.074 A 
ATOM     56  C   UNL A   1      37.257  32.676  32.379  1.00  0.00     0.029 A 
ATOM     57  N   UNL A   1      39.045  31.406  32.743  1.00  0.00    -0.354 N 
ATOM     58  N   UNL A   1      41.239  30.305  34.328  1.00  0.00    -0.248 NA
ATOM     59  C   UNL A   1      42.529  30.293  36.275  1.00  0.00     0.031 C 
ATOM     60  C   UNL A   1      37.752  32.965  33.655  1.00  0.00     0.029 A 
ATOM     61  C   UNL A   1      38.847  32.151  33.893  1.00  0.00     0.049 A 
ATOM     62  H   UNL A   1      39.762  30.744  32.616  1.00  0.00     0.167 HD
ATOM     63  C   UNL A   1      40.717  31.228  35.228  1.00  0.00     0.074 A 
ATOM     64  C   UNL A   1      41.529  31.152  36.424  1.00  0.00     0.031 C 
ATOM     65  C   UNL A   1      39.658  32.062  35.079  1.00  0.00     0.031 A 
BRANCH  52  66
ATOM     66  C   UNL A   1      36.939  31.660  29.550  1.00  0.00    -0.014 A 
ATOM     67  C   UNL A   1      35.741  30.951  29.372  1.00  0.00     0.009 A 
ATOM     68  C   UNL A   1      37.123  32.867  28.859  1.00  0.00     0.009 A 
ATOM     69  C   UNL A   1      34.762  31.425  28.496  1.00  0.00     0.001 A 
ATOM     70  C   UNL A   1      36.132  33.354  28.005  1.00  0.00     0.001 A 
ATOM     71  C   UNL A   1      34.956  32.628  27.817  1.00  0.00     0.000 A 
ENDBRANCH  52  66
BRANCH  53  72
ATOM     72  C   UNL A   1      44.278  28.162  35.318  1.00  0.00    -0.014 A 
ATOM     73  C   UNL A   1      45.554  28.743  35.277  1.00  0.00     0.009 A 
ATOM     74  C   UNL A   1      44.055  27.073  36.176  1.00  0.00     0.009 A 
ATOM     75  C   UNL A   1      46.591  28.227  36.059  1.00  0.00     0.001 A 
ATOM     76  C   UNL A   1      45.085  26.581  36.978  1.00  0.00     0.001 A 
ATOM     77  C   UNL A   1      46.355  27.151  36.911  1.00  0.00     0.000 A 
ENDBRANCH  53  72
BRANCH  65  78
ATOM     78  C   UNL A   1      39.284  32.927  36.252  1.00  0.00    -0.014 A 
ATOM     79  C   UNL A   1      38.429  32.464  37.263  1.00  0.00     0.009 A 
ATOM     80  C   UNL A   1      39.834  34.214  36.366  1.00  0.00     0.009 A 
ATOM     81  C   UNL A   1      38.104  33.285  38.346  1.00  0.00     0.001 A 
ATOM     82  C   UNL A   1      39.533  35.022  37.463  1.00  0.00     0.001 A 
ATOM     83  C   UNL A   1      38.660  34.560  38.447  1.00  0.00     0.000 A 
ENDBRANCH  65  78
ENDBRANCH  39  40
ENDBRANCH  32  34
ENDBRANCH  31  32
ENDBRANCH  30  31
ENDBRANCH  29  30
ENDBRANCH  28  29
ENDBRANCH  27  28
ENDBRANCH   1  27
TORSDOF 19
ENDMDL
