MODEL 1
REMARK VINA RESULT:     -12.4      0.000      0.000
REMARK SMILES O=C(OCCOCCOCCOC(=O)[C@H]1Cc2[nH]cnc2CN1C(=O)NCc1nc[nH]n1)c1ccc(-c2c3nc(c(-c4ccccc4)c4ccc([nH]4)c(-c4ccccc4)c4nc(c(-c5ccccc5)c5ccc2[nH]5)C=C4)C=C3)cc1
REMARK SMILES IDX 8 1 7 2 6 3 5 4 4 5 3 6 2 7 1 8 33 9 34 10 80 11 35 12 79 13
REMARK SMILES IDX 36 14 37 15 38 16 73 17 39 18 78 19 72 20 74 21 40 22 77 23
REMARK SMILES IDX 71 24 70 25 41 27 63 28 48 29 62 30 49 31 52 32 61 33 75 34
REMARK SMILES IDX 50 35 51 36 60 38 76 39 53 40 42 41 43 42 47 43 44 44 46 45
REMARK SMILES IDX 45 46 64 47 65 48 69 49 66 50 68 51 67 52 54 53 55 54 59 55
REMARK SMILES IDX 56 56 58 57 57 58 9 59 10 60 11 61 12 62 13 63 14 64 15 65
REMARK SMILES IDX 16 66 23 67 17 68 22 69 18 70 21 71 19 72 20 74 24 75 25 76
REMARK SMILES IDX 26 77 27 79 28 80 29 81 32 82 30 83 31 84
REMARK H PARENT 74 26 52 37 18 73 26 78 31 85
REMARK Flexibility Score: inf
ROOT
ATOM      1  C   UNL A   1      38.512  22.642  26.268  1.00  0.00     0.188 C 
ENDROOT
BRANCH   1   2
ATOM      2  C   UNL A   1      39.869  21.823  26.086  1.00  0.00     0.188 C 
BRANCH   2   3
ATOM      3  O   UNL A   1      40.197  20.448  26.177  1.00  0.00    -0.376 OA
BRANCH   3   4
ATOM      4  C   UNL A   1      41.370  19.972  26.819  1.00  0.00     0.202 C 
BRANCH   4   5
ATOM      5  C   UNL A   1      42.337  18.939  26.201  1.00  0.00     0.261 C 
BRANCH   5   6
ATOM      6  O   UNL A   1      42.944  19.270  24.941  1.00  0.00    -0.460 OA
BRANCH   6   7
ATOM      7  C   UNL A   1      44.163  19.766  24.655  1.00  0.00     0.338 C 
ATOM      8  O   UNL A   1      45.018  19.029  24.169  1.00  0.00    -0.246 OA
BRANCH   7   9
ATOM      9  C   UNL A   1      44.554  21.169  24.944  1.00  0.00     0.060 A 
ATOM     10  C   UNL A   1      45.679  21.580  25.641  1.00  0.00     0.016 A 
ATOM     11  C   UNL A   1      43.760  22.164  24.355  1.00  0.00     0.016 A 
ATOM     12  C   UNL A   1      45.635  22.785  26.277  1.00  0.00     0.010 A 
ATOM     13  C   UNL A   1      43.825  23.439  24.841  1.00  0.00     0.010 A 
ATOM     14  C   UNL A   1      44.567  23.621  25.988  1.00  0.00    -0.014 A 
BRANCH  14  15
ATOM     15  C   UNL A   1      44.392  24.835  26.735  1.00  0.00     0.031 A 
ATOM     16  C   UNL A   1      45.562  25.704  26.455  1.00  0.00     0.074 A 
ATOM     17  C   UNL A   1      43.302  25.006  27.522  1.00  0.00     0.049 A 
ATOM     18  N   UNL A   1      46.624  25.759  27.189  1.00  0.00    -0.248 NA
ATOM     19  C   UNL A   1      45.786  26.218  25.087  1.00  0.00     0.031 C 
ATOM     20  C   UNL A   1      42.118  24.152  27.719  1.00  0.00     0.029 A 
ATOM     21  N   UNL A   1      43.001  26.066  28.326  1.00  0.00    -0.354 N 
ATOM     22  C   UNL A   1      47.472  26.643  26.538  1.00  0.00     0.074 A 
ATOM     23  C   UNL A   1      47.051  26.642  25.166  1.00  0.00     0.031 C 
ATOM     24  C   UNL A   1      41.130  24.858  28.333  1.00  0.00     0.029 A 
ATOM     25  C   UNL A   1      41.654  26.150  28.724  1.00  0.00     0.049 A 
ATOM     26  H   UNL A   1      43.677  26.724  28.608  1.00  0.00     0.167 HD
ATOM     27  C   UNL A   1      48.078  27.607  27.285  1.00  0.00     0.031 A 
ATOM     28  C   UNL A   1      41.078  27.237  29.323  1.00  0.00     0.031 A 
ATOM     29  C   UNL A   1      48.071  27.217  28.682  1.00  0.00     0.049 A 
ATOM     30  C   UNL A   1      42.201  28.020  29.916  1.00  0.00     0.074 A 
ATOM     31  C   UNL A   1      48.584  26.161  29.409  1.00  0.00     0.029 A 
ATOM     32  N   UNL A   1      47.017  27.719  29.407  1.00  0.00    -0.354 N 
ATOM     33  N   UNL A   1      42.921  27.544  30.897  1.00  0.00    -0.248 NA
ATOM     34  C   UNL A   1      42.875  28.955  29.022  1.00  0.00     0.031 C 
ATOM     35  C   UNL A   1      47.559  25.821  30.344  1.00  0.00     0.029 A 
ATOM     36  C   UNL A   1      46.536  26.765  30.258  1.00  0.00     0.049 A 
ATOM     37  H   UNL A   1      46.660  28.633  29.324  1.00  0.00     0.167 HD
ATOM     38  C   UNL A   1      44.232  27.716  30.472  1.00  0.00     0.074 A 
ATOM     39  C   UNL A   1      44.138  28.609  29.306  1.00  0.00     0.031 C 
ATOM     40  C   UNL A   1      45.219  26.845  30.852  1.00  0.00     0.031 A 
BRANCH  27  41
ATOM     41  C   UNL A   1      48.026  29.073  26.889  1.00  0.00    -0.014 A 
ATOM     42  C   UNL A   1      49.148  29.863  27.199  1.00  0.00     0.009 A 
ATOM     43  C   UNL A   1      46.845  29.767  26.558  1.00  0.00     0.009 A 
ATOM     44  C   UNL A   1      49.059  31.255  27.294  1.00  0.00     0.001 A 
ATOM     45  C   UNL A   1      46.760  31.160  26.621  1.00  0.00     0.001 A 
ATOM     46  C   UNL A   1      47.860  31.903  27.019  1.00  0.00     0.000 A 
ENDBRANCH  27  41
BRANCH  28  47
ATOM     47  C   UNL A   1      39.756  27.871  29.041  1.00  0.00    -0.014 A 
ATOM     48  C   UNL A   1      38.781  28.072  30.044  1.00  0.00     0.009 A 
ATOM     49  C   UNL A   1      39.571  28.564  27.832  1.00  0.00     0.009 A 
ATOM     50  C   UNL A   1      37.692  28.946  29.843  1.00  0.00     0.001 A 
ATOM     51  C   UNL A   1      38.495  29.441  27.637  1.00  0.00     0.001 A 
ATOM     52  C   UNL A   1      37.560  29.642  28.645  1.00  0.00     0.000 A 
ENDBRANCH  28  47
BRANCH  40  53
ATOM     53  C   UNL A   1      44.906  25.814  31.910  1.00  0.00    -0.014 A 
ATOM     54  C   UNL A   1      44.790  26.070  33.291  1.00  0.00     0.009 A 
ATOM     55  C   UNL A   1      44.553  24.543  31.441  1.00  0.00     0.009 A 
ATOM     56  C   UNL A   1      44.369  25.056  34.169  1.00  0.00     0.001 A 
ATOM     57  C   UNL A   1      44.115  23.546  32.309  1.00  0.00     0.001 A 
ATOM     58  C   UNL A   1      44.035  23.796  33.674  1.00  0.00     0.000 A 
ENDBRANCH  40  53
ENDBRANCH  14  15
ENDBRANCH   7   9
ENDBRANCH   6   7
ENDBRANCH   5   6
ENDBRANCH   4   5
ENDBRANCH   3   4
ENDBRANCH   2   3
ENDBRANCH   1   2
BRANCH   1  59
ATOM     59  O   UNL A   1      37.765  23.716  25.224  1.00  0.00    -0.376 OA
BRANCH  59  60
ATOM     60  C   UNL A   1      35.668  23.901  24.894  1.00  0.00     0.202 C 
BRANCH  60  61
ATOM     61  C   UNL A   1      34.751  25.285  25.688  1.00  0.00     0.261 C 
BRANCH  61  62
ATOM     62  O   UNL A   1      33.288  25.145  25.945  1.00  0.00    -0.462 OA
BRANCH  62  63
ATOM     63  C   UNL A   1      32.513  26.251  25.987  1.00  0.00     0.329 C 
ATOM     64  O   UNL A   1      32.554  27.012  26.950  1.00  0.00    -0.250 OA
BRANCH  63  65
ATOM     65  C   UNL A   1      31.605  26.477  24.695  1.00  0.00     0.203 C 
ATOM     66  C   UNL A   1      31.435  28.032  24.880  1.00  0.00     0.093 C 
ATOM     67  N   UNL A   1      31.883  26.225  23.153  1.00  0.00    -0.305 N 
ATOM     68  C   UNL A   1      30.693  28.663  23.784  1.00  0.00     0.042 A 
ATOM     69  C   UNL A   1      30.799  26.709  22.228  1.00  0.00     0.180 C 
ATOM     70  N   UNL A   1      30.331  29.970  23.677  1.00  0.00    -0.348 N 
ATOM     71  C   UNL A   1      30.412  28.090  22.578  1.00  0.00     0.081 A 
ATOM     72  C   UNL A   1      29.820  30.131  22.419  1.00  0.00     0.197 A 
ATOM     73  H   UNL A   1      30.420  30.663  24.371  1.00  0.00     0.167 HD
ATOM     74  N   UNL A   1      29.835  29.006  21.736  1.00  0.00    -0.240 NA
BRANCH  67  75
ATOM     75  C   UNL A   1      32.705  25.358  22.477  1.00  0.00     0.318 C 
ATOM     76  O   UNL A   1      33.724  25.728  21.881  1.00  0.00    -0.249 OA
ATOM     77  N   UNL A   1      32.479  24.052  22.370  1.00  0.00    -0.331 N 
ATOM     78  H   UNL A   1      33.151  23.578  21.829  1.00  0.00     0.165 HD
BRANCH  77  79
ATOM     79  C   UNL A   1      31.461  23.202  22.885  1.00  0.00     0.197 C 
BRANCH  79  80
ATOM     80  C   UNL A   1      31.912  22.511  24.125  1.00  0.00     0.169 A 
ATOM     81  N   UNL A   1      33.448  21.366  24.615  1.00  0.00    -0.218 NA
ATOM     82  N   UNL A   1      31.115  22.910  25.542  1.00  0.00    -0.157 NA
ATOM     83  C   UNL A   1      33.475  21.228  26.320  1.00  0.00     0.216 A 
ATOM     84  N   UNL A   1      32.020  22.153  26.905  1.00  0.00    -0.266 N 
ATOM     85  H   UNL A   1      31.758  22.230  27.851  1.00  0.00     0.191 HD
ENDBRANCH  79  80
ENDBRANCH  77  79
ENDBRANCH  67  75
ENDBRANCH  63  65
ENDBRANCH  62  63
ENDBRANCH  61  62
ENDBRANCH  60  61
ENDBRANCH  59  60
ENDBRANCH   1  59
TORSDOF 20
ENDMDL
MODEL 2
REMARK VINA RESULT:     -12.3      1.820      4.037
REMARK SMILES O=C(OCCOCCOCCOC(=O)[C@H]1Cc2[nH]cnc2CN1C(=O)NCc1nc[nH]n1)c1ccc(-c2c3nc(c(-c4ccccc4)c4ccc([nH]4)c(-c4ccccc4)c4nc(c(-c5ccccc5)c5ccc2[nH]5)C=C4)C=C3)cc1
REMARK SMILES IDX 8 1 7 2 6 3 5 4 4 5 3 6 2 7 1 8 33 9 34 10 80 11 35 12 79 13
REMARK SMILES IDX 36 14 37 15 38 16 73 17 39 18 78 19 72 20 74 21 40 22 77 23
REMARK SMILES IDX 71 24 70 25 41 27 63 28 48 29 62 30 49 31 52 32 61 33 75 34
REMARK SMILES IDX 50 35 51 36 60 38 76 39 53 40 42 41 43 42 47 43 44 44 46 45
REMARK SMILES IDX 45 46 64 47 65 48 69 49 66 50 68 51 67 52 54 53 55 54 59 55
REMARK SMILES IDX 56 56 58 57 57 58 9 59 10 60 11 61 12 62 13 63 14 64 15 65
REMARK SMILES IDX 16 66 23 67 17 68 22 69 18 70 21 71 19 72 20 74 24 75 25 76
REMARK SMILES IDX 26 77 27 79 28 80 29 81 32 82 30 83 31 84
REMARK H PARENT 74 26 52 37 18 73 26 78 31 85
REMARK Flexibility Score: inf
ROOT
ATOM      1  C   UNL A   1      38.519  22.648  26.176  1.00  0.00     0.188 C 
ENDROOT
BRANCH   1   2
ATOM      2  C   UNL A   1      39.867  21.813  25.993  1.00  0.00     0.188 C 
BRANCH   2   3
ATOM      3  O   UNL A   1      40.195  20.445  26.156  1.00  0.00    -0.376 OA
BRANCH   3   4
ATOM      4  C   UNL A   1      41.375  20.005  26.811  1.00  0.00     0.202 C 
BRANCH   4   5
ATOM      5  C   UNL A   1      42.357  18.969  26.221  1.00  0.00     0.261 C 
BRANCH   5   6
ATOM      6  O   UNL A   1      42.952  19.270  24.948  1.00  0.00    -0.460 OA
BRANCH   6   7
ATOM      7  C   UNL A   1      44.164  19.769  24.639  1.00  0.00     0.338 C 
ATOM      8  O   UNL A   1      45.005  19.039  24.119  1.00  0.00    -0.246 OA
BRANCH   7   9
ATOM      9  C   UNL A   1      44.564  21.167  24.941  1.00  0.00     0.060 A 
ATOM     10  C   UNL A   1      45.680  21.562  25.661  1.00  0.00     0.016 A 
ATOM     11  C   UNL A   1      43.793  22.172  24.340  1.00  0.00     0.016 A 
ATOM     12  C   UNL A   1      45.636  22.766  26.301  1.00  0.00     0.010 A 
ATOM     13  C   UNL A   1      43.863  23.445  24.832  1.00  0.00     0.010 A 
ATOM     14  C   UNL A   1      44.584  23.615  25.993  1.00  0.00    -0.014 A 
BRANCH  14  15
ATOM     15  C   UNL A   1      44.408  24.828  26.741  1.00  0.00     0.031 A 
ATOM     16  C   UNL A   1      45.576  25.699  26.461  1.00  0.00     0.074 A 
ATOM     17  C   UNL A   1      43.318  24.997  27.529  1.00  0.00     0.049 A 
ATOM     18  N   UNL A   1      46.638  25.755  27.195  1.00  0.00    -0.248 NA
ATOM     19  C   UNL A   1      45.799  26.214  25.093  1.00  0.00     0.031 C 
ATOM     20  C   UNL A   1      42.135  24.141  27.726  1.00  0.00     0.029 A 
ATOM     21  N   UNL A   1      43.016  26.056  28.334  1.00  0.00    -0.354 N 
ATOM     22  C   UNL A   1      47.485  26.640  26.544  1.00  0.00     0.074 A 
ATOM     23  C   UNL A   1      47.063  26.640  25.171  1.00  0.00     0.031 C 
ATOM     24  C   UNL A   1      41.146  24.845  28.341  1.00  0.00     0.029 A 
ATOM     25  C   UNL A   1      41.669  26.137  28.732  1.00  0.00     0.049 A 
ATOM     26  H   UNL A   1      43.691  26.715  28.616  1.00  0.00     0.167 HD
ATOM     27  C   UNL A   1      48.089  27.605  27.290  1.00  0.00     0.031 A 
ATOM     28  C   UNL A   1      41.092  27.224  29.332  1.00  0.00     0.031 A 
ATOM     29  C   UNL A   1      48.084  27.215  28.687  1.00  0.00     0.049 A 
ATOM     30  C   UNL A   1      42.214  28.008  29.926  1.00  0.00     0.074 A 
ATOM     31  C   UNL A   1      48.599  26.159  29.413  1.00  0.00     0.029 A 
ATOM     32  N   UNL A   1      47.030  27.714  29.413  1.00  0.00    -0.354 N 
ATOM     33  N   UNL A   1      42.936  27.533  30.905  1.00  0.00    -0.248 NA
ATOM     34  C   UNL A   1      42.886  28.944  29.032  1.00  0.00     0.031 C 
ATOM     35  C   UNL A   1      47.575  25.817  30.348  1.00  0.00     0.029 A 
ATOM     36  C   UNL A   1      46.550  26.760  30.264  1.00  0.00     0.049 A 
ATOM     37  H   UNL A   1      46.672  28.628  29.331  1.00  0.00     0.167 HD
ATOM     38  C   UNL A   1      44.246  27.707  30.480  1.00  0.00     0.074 A 
ATOM     39  C   UNL A   1      44.150  28.600  29.314  1.00  0.00     0.031 C 
ATOM     40  C   UNL A   1      45.235  26.837  30.858  1.00  0.00     0.031 A 
BRANCH  27  41
ATOM     41  C   UNL A   1      48.035  29.072  26.895  1.00  0.00    -0.014 A 
ATOM     42  C   UNL A   1      49.187  29.845  27.133  1.00  0.00     0.009 A 
ATOM     43  C   UNL A   1      46.846  29.783  26.637  1.00  0.00     0.009 A 
ATOM     44  C   UNL A   1      49.124  31.238  27.229  1.00  0.00     0.001 A 
ATOM     45  C   UNL A   1      46.786  31.177  26.702  1.00  0.00     0.001 A 
ATOM     46  C   UNL A   1      47.921  31.904  27.029  1.00  0.00     0.000 A 
ENDBRANCH  27  41
BRANCH  28  47
ATOM     47  C   UNL A   1      39.768  27.856  29.052  1.00  0.00    -0.014 A 
ATOM     48  C   UNL A   1      38.781  28.023  30.047  1.00  0.00     0.009 A 
ATOM     49  C   UNL A   1      39.593  28.579  27.859  1.00  0.00     0.009 A 
ATOM     50  C   UNL A   1      37.687  28.894  29.857  1.00  0.00     0.001 A 
ATOM     51  C   UNL A   1      38.513  29.454  27.675  1.00  0.00     0.001 A 
ATOM     52  C   UNL A   1      37.565  29.621  28.677  1.00  0.00     0.000 A 
ENDBRANCH  28  47
BRANCH  40  53
ATOM     53  C   UNL A   1      44.924  25.806  31.917  1.00  0.00    -0.014 A 
ATOM     54  C   UNL A   1      44.853  26.051  33.302  1.00  0.00     0.009 A 
ATOM     55  C   UNL A   1      44.522  24.548  31.447  1.00  0.00     0.009 A 
ATOM     56  C   UNL A   1      44.430  25.041  34.183  1.00  0.00     0.001 A 
ATOM     57  C   UNL A   1      44.082  23.556  32.318  1.00  0.00     0.001 A 
ATOM     58  C   UNL A   1      44.048  23.795  33.688  1.00  0.00     0.000 A 
ENDBRANCH  40  53
ENDBRANCH  14  15
ENDBRANCH   7   9
ENDBRANCH   6   7
ENDBRANCH   5   6
ENDBRANCH   4   5
ENDBRANCH   3   4
ENDBRANCH   2   3
ENDBRANCH   1   2
BRANCH   1  59
ATOM     59  O   UNL A   1      37.821  23.783  25.162  1.00  0.00    -0.376 OA
BRANCH  59  60
ATOM     60  C   UNL A   1      35.734  24.118  24.895  1.00  0.00     0.202 C 
BRANCH  60  61
ATOM     61  C   UNL A   1      34.832  23.184  23.591  1.00  0.00     0.261 C 
BRANCH  61  62
ATOM     62  O   UNL A   1      33.344  23.091  23.650  1.00  0.00    -0.462 OA
BRANCH  62  63
ATOM     63  C   UNL A   1      32.733  21.958  23.240  1.00  0.00     0.329 C 
ATOM     64  O   UNL A   1      32.377  21.822  22.073  1.00  0.00    -0.250 OA
BRANCH  63  65
ATOM     65  C   UNL A   1      32.563  20.847  24.373  1.00  0.00     0.203 C 
ATOM     66  C   UNL A   1      32.608  19.609  23.401  1.00  0.00     0.093 C 
ATOM     67  N   UNL A   1      33.457  20.477  25.631  1.00  0.00    -0.305 N 
ATOM     68  C   UNL A   1      32.566  18.324  24.105  1.00  0.00     0.042 A 
ATOM     69  C   UNL A   1      33.014  19.252  26.383  1.00  0.00     0.180 C 
ATOM     70  N   UNL A   1      32.531  17.081  23.554  1.00  0.00    -0.348 N 
ATOM     71  C   UNL A   1      32.764  18.141  25.443  1.00  0.00     0.081 A 
ATOM     72  C   UNL A   1      32.682  16.193  24.583  1.00  0.00     0.197 A 
ATOM     73  H   UNL A   1      32.420  16.864  22.600  1.00  0.00     0.167 HD
ATOM     74  N   UNL A   1      32.803  16.804  25.744  1.00  0.00    -0.240 NA
BRANCH  67  75
ATOM     75  C   UNL A   1      34.327  21.200  26.409  1.00  0.00     0.318 C 
ATOM     76  O   UNL A   1      35.547  21.226  26.205  1.00  0.00    -0.249 OA
ATOM     77  N   UNL A   1      33.957  21.916  27.467  1.00  0.00    -0.331 N 
ATOM     78  H   UNL A   1      34.708  22.352  27.931  1.00  0.00     0.165 HD
BRANCH  77  79
ATOM     79  C   UNL A   1      32.691  22.179  28.061  1.00  0.00     0.197 C 
BRANCH  79  80
ATOM     80  C   UNL A   1      32.017  23.333  27.402  1.00  0.00     0.169 A 
ATOM     81  N   UNL A   1      32.614  24.878  26.321  1.00  0.00    -0.218 NA
ATOM     82  N   UNL A   1      30.345  23.283  27.321  1.00  0.00    -0.157 NA
ATOM     83  C   UNL A   1      31.226  25.594  25.621  1.00  0.00     0.216 A 
ATOM     84  N   UNL A   1      29.813  24.636  26.255  1.00  0.00    -0.266 N 
ATOM     85  H   UNL A   1      28.873  24.833  26.043  1.00  0.00     0.191 HD
ENDBRANCH  79  80
ENDBRANCH  77  79
ENDBRANCH  67  75
ENDBRANCH  63  65
ENDBRANCH  62  63
ENDBRANCH  61  62
ENDBRANCH  60  61
ENDBRANCH  59  60
ENDBRANCH   1  59
TORSDOF 20
ENDMDL
MODEL 3
REMARK VINA RESULT:     -12.1      1.372      2.873
REMARK SMILES O=C(OCCOCCOCCOC(=O)[C@H]1Cc2[nH]cnc2CN1C(=O)NCc1nc[nH]n1)c1ccc(-c2c3nc(c(-c4ccccc4)c4ccc([nH]4)c(-c4ccccc4)c4nc(c(-c5ccccc5)c5ccc2[nH]5)C=C4)C=C3)cc1
REMARK SMILES IDX 8 1 7 2 6 3 5 4 4 5 3 6 2 7 1 8 33 9 34 10 80 11 35 12 79 13
REMARK SMILES IDX 36 14 37 15 38 16 73 17 39 18 78 19 72 20 74 21 40 22 77 23
REMARK SMILES IDX 71 24 70 25 41 27 63 28 48 29 62 30 49 31 52 32 61 33 75 34
REMARK SMILES IDX 50 35 51 36 60 38 76 39 53 40 42 41 43 42 47 43 44 44 46 45
REMARK SMILES IDX 45 46 64 47 65 48 69 49 66 50 68 51 67 52 54 53 55 54 59 55
REMARK SMILES IDX 56 56 58 57 57 58 9 59 10 60 11 61 12 62 13 63 14 64 15 65
REMARK SMILES IDX 16 66 23 67 17 68 22 69 18 70 21 71 19 72 20 74 24 75 25 76
REMARK SMILES IDX 26 77 27 79 28 80 29 81 32 82 30 83 31 84
REMARK H PARENT 74 26 52 37 18 73 26 78 31 85
REMARK Flexibility Score: inf
ROOT
ATOM      1  C   UNL A   1      38.747  22.353  26.344  1.00  0.00     0.188 C 
ENDROOT
BRANCH   1   2
ATOM      2  C   UNL A   1      40.169  21.629  26.305  1.00  0.00     0.188 C 
BRANCH   2   3
ATOM      3  O   UNL A   1      40.599  20.348  25.877  1.00  0.00    -0.376 OA
BRANCH   3   4
ATOM      4  C   UNL A   1      41.427  19.507  26.666  1.00  0.00     0.202 C 
BRANCH   4   5
ATOM      5  C   UNL A   1      42.714  18.829  26.148  1.00  0.00     0.261 C 
BRANCH   5   6
ATOM      6  O   UNL A   1      43.221  19.256  24.872  1.00  0.00    -0.460 OA
BRANCH   6   7
ATOM      7  C   UNL A   1      44.401  19.811  24.536  1.00  0.00     0.338 C 
ATOM      8  O   UNL A   1      45.271  19.116  24.015  1.00  0.00    -0.246 OA
BRANCH   7   9
ATOM      9  C   UNL A   1      44.734  21.232  24.808  1.00  0.00     0.060 A 
ATOM     10  C   UNL A   1      45.890  21.702  25.411  1.00  0.00     0.016 A 
ATOM     11  C   UNL A   1      43.837  22.183  24.302  1.00  0.00     0.016 A 
ATOM     12  C   UNL A   1      45.832  22.898  26.065  1.00  0.00     0.010 A 
ATOM     13  C   UNL A   1      43.870  23.456  24.797  1.00  0.00     0.010 A 
ATOM     14  C   UNL A   1      44.696  23.672  25.878  1.00  0.00    -0.014 A 
BRANCH  14  15
ATOM     15  C   UNL A   1      44.517  24.868  26.652  1.00  0.00     0.031 A 
ATOM     16  C   UNL A   1      45.690  25.742  26.403  1.00  0.00     0.074 A 
ATOM     17  C   UNL A   1      43.421  25.021  27.435  1.00  0.00     0.049 A 
ATOM     18  N   UNL A   1      46.746  25.778  27.146  1.00  0.00    -0.248 NA
ATOM     19  C   UNL A   1      45.925  26.288  25.049  1.00  0.00     0.031 C 
ATOM     20  C   UNL A   1      42.234  24.164  27.602  1.00  0.00     0.029 A 
ATOM     21  N   UNL A   1      43.115  26.062  28.262  1.00  0.00    -0.354 N 
ATOM     22  C   UNL A   1      47.600  26.676  26.523  1.00  0.00     0.074 A 
ATOM     23  C   UNL A   1      47.190  26.709  25.148  1.00  0.00     0.031 C 
ATOM     24  C   UNL A   1      41.242  24.856  28.225  1.00  0.00     0.029 A 
ATOM     25  C   UNL A   1      41.765  26.138  28.651  1.00  0.00     0.049 A 
ATOM     26  H   UNL A   1      43.790  26.712  28.565  1.00  0.00     0.167 HD
ATOM     27  C   UNL A   1      48.201  27.621  27.298  1.00  0.00     0.031 A 
ATOM     28  C   UNL A   1      41.186  27.211  29.271  1.00  0.00     0.031 A 
ATOM     29  C   UNL A   1      48.183  27.198  28.684  1.00  0.00     0.049 A 
ATOM     30  C   UNL A   1      42.305  27.978  29.892  1.00  0.00     0.074 A 
ATOM     31  C   UNL A   1      48.689  26.125  29.390  1.00  0.00     0.029 A 
ATOM     32  N   UNL A   1      47.124  27.684  29.413  1.00  0.00    -0.354 N 
ATOM     33  N   UNL A   1      43.017  27.479  30.867  1.00  0.00    -0.248 NA
ATOM     34  C   UNL A   1      42.987  28.933  29.026  1.00  0.00     0.031 C 
ATOM     35  C   UNL A   1      47.657  25.763  30.308  1.00  0.00     0.029 A 
ATOM     36  C   UNL A   1      46.635  26.711  30.238  1.00  0.00     0.049 A 
ATOM     37  H   UNL A   1      46.769  28.600  29.350  1.00  0.00     0.167 HD
ATOM     38  C   UNL A   1      44.331  27.659  30.456  1.00  0.00     0.074 A 
ATOM     39  C   UNL A   1      44.247  28.579  29.311  1.00  0.00     0.031 C 
ATOM     40  C   UNL A   1      45.314  26.778  30.823  1.00  0.00     0.031 A 
BRANCH  27  41
ATOM     41  C   UNL A   1      48.154  29.097  26.937  1.00  0.00    -0.014 A 
ATOM     42  C   UNL A   1      49.347  29.831  27.072  1.00  0.00     0.009 A 
ATOM     43  C   UNL A   1      46.968  29.848  26.811  1.00  0.00     0.009 A 
ATOM     44  C   UNL A   1      49.338  31.223  27.200  1.00  0.00     0.001 A 
ATOM     45  C   UNL A   1      46.958  31.242  26.907  1.00  0.00     0.001 A 
ATOM     46  C   UNL A   1      48.142  31.928  27.133  1.00  0.00     0.000 A 
ENDBRANCH  27  41
BRANCH  28  47
ATOM     47  C   UNL A   1      39.866  27.854  28.995  1.00  0.00    -0.014 A 
ATOM     48  C   UNL A   1      38.871  28.002  29.986  1.00  0.00     0.009 A 
ATOM     49  C   UNL A   1      39.702  28.603  27.817  1.00  0.00     0.009 A 
ATOM     50  C   UNL A   1      37.782  28.880  29.807  1.00  0.00     0.001 A 
ATOM     51  C   UNL A   1      38.626  29.486  27.644  1.00  0.00     0.001 A 
ATOM     52  C   UNL A   1      37.671  29.633  28.641  1.00  0.00     0.000 A 
ENDBRANCH  28  47
BRANCH  40  53
ATOM     53  C   UNL A   1      44.992  25.723  31.854  1.00  0.00    -0.014 A 
ATOM     54  C   UNL A   1      44.518  24.425  31.576  1.00  0.00     0.009 A 
ATOM     55  C   UNL A   1      45.351  26.027  33.174  1.00  0.00     0.009 A 
ATOM     56  C   UNL A   1      44.374  23.484  32.609  1.00  0.00     0.001 A 
ATOM     57  C   UNL A   1      45.228  25.087  34.193  1.00  0.00     0.001 A 
ATOM     58  C   UNL A   1      44.728  23.819  33.916  1.00  0.00     0.000 A 
ENDBRANCH  40  53
ENDBRANCH  14  15
ENDBRANCH   7   9
ENDBRANCH   6   7
ENDBRANCH   5   6
ENDBRANCH   4   5
ENDBRANCH   3   4
ENDBRANCH   2   3
ENDBRANCH   1   2
BRANCH   1  59
ATOM     59  O   UNL A   1      37.688  22.691  25.093  1.00  0.00    -0.376 OA
BRANCH  59  60
ATOM     60  C   UNL A   1      35.564  22.539  25.166  1.00  0.00     0.202 C 
BRANCH  60  61
ATOM     61  C   UNL A   1      34.683  22.968  26.723  1.00  0.00     0.261 C 
BRANCH  61  62
ATOM     62  O   UNL A   1      33.191  22.969  26.747  1.00  0.00    -0.462 OA
BRANCH  62  63
ATOM     63  C   UNL A   1      32.523  24.110  26.465  1.00  0.00     0.329 C 
ATOM     64  O   UNL A   1      31.522  24.427  27.101  1.00  0.00    -0.250 OA
BRANCH  63  65
ATOM     65  C   UNL A   1      33.165  24.983  25.294  1.00  0.00     0.203 C 
ATOM     66  C   UNL A   1      32.514  24.177  24.108  1.00  0.00     0.093 C 
ATOM     67  N   UNL A   1      33.032  26.523  24.931  1.00  0.00    -0.305 N 
ATOM     68  C   UNL A   1      32.808  24.752  22.792  1.00  0.00     0.042 A 
ATOM     69  C   UNL A   1      33.698  26.928  23.644  1.00  0.00     0.180 C 
ATOM     70  N   UNL A   1      32.444  24.263  21.577  1.00  0.00    -0.348 N 
ATOM     71  C   UNL A   1      33.325  25.995  22.563  1.00  0.00     0.081 A 
ATOM     72  C   UNL A   1      32.779  25.216  20.656  1.00  0.00     0.197 A 
ATOM     73  H   UNL A   1      32.022  23.391  21.397  1.00  0.00     0.167 HD
ATOM     74  N   UNL A   1      33.335  26.269  21.220  1.00  0.00    -0.240 NA
BRANCH  67  75
ATOM     75  C   UNL A   1      32.762  27.643  25.678  1.00  0.00     0.318 C 
ATOM     76  O   UNL A   1      33.036  27.728  26.882  1.00  0.00    -0.249 OA
ATOM     77  N   UNL A   1      32.162  28.728  25.198  1.00  0.00    -0.331 N 
ATOM     78  H   UNL A   1      32.018  29.431  25.872  1.00  0.00     0.165 HD
BRANCH  77  79
ATOM     79  C   UNL A   1      31.686  29.075  23.903  1.00  0.00     0.197 C 
BRANCH  79  80
ATOM     80  C   UNL A   1      30.217  28.854  23.791  1.00  0.00     0.169 A 
ATOM     81  N   UNL A   1      28.664  29.965  23.278  1.00  0.00    -0.218 NA
ATOM     82  N   UNL A   1      29.684  27.270  23.897  1.00  0.00    -0.157 NA
ATOM     83  C   UNL A   1      27.325  28.923  23.055  1.00  0.00     0.216 A 
ATOM     84  N   UNL A   1      27.934  27.257  23.464  1.00  0.00    -0.266 N 
ATOM     85  H   UNL A   1      27.375  26.446  23.452  1.00  0.00     0.191 HD
ENDBRANCH  79  80
ENDBRANCH  77  79
ENDBRANCH  67  75
ENDBRANCH  63  65
ENDBRANCH  62  63
ENDBRANCH  61  62
ENDBRANCH  60  61
ENDBRANCH  59  60
ENDBRANCH   1  59
TORSDOF 20
ENDMDL
