MODEL 1
REMARK VINA RESULT:     -10.0      0.000      0.000
REMARK SMILES CC[C@](C)(NC(=O)N1Cc2ccccc2C1)C(=O)OCCOCCOCCOC(=O)c1ccc(-c2c3nc(c(-c4ccccc4)c4ccc([nH]4)c(-c4ccccc4)c4nc(c(-c5ccccc5)c5ccc2[nH]5)C=C4)C=C3)cc1
REMARK SMILES IDX 24 1 23 2 22 3 21 4 20 5 19 6 17 7 18 8 3 9 4 10 2 11 1 12
REMARK SMILES IDX 5 13 6 14 7 16 8 17 9 18 16 19 10 20 15 21 11 22 14 23 12 24
REMARK SMILES IDX 13 25 25 26 26 27 27 28 28 29 29 30 30 31 31 32 32 33 78 34
REMARK SMILES IDX 33 35 77 36 34 37 35 38 36 39 71 40 37 41 76 42 70 43 72 44
REMARK SMILES IDX 38 45 75 46 69 47 68 48 39 50 61 51 46 52 60 53 47 54 50 55
REMARK SMILES IDX 59 56 73 57 48 58 49 59 58 61 74 62 51 63 40 64 41 65 45 66
REMARK SMILES IDX 42 67 44 68 43 69 62 70 63 71 67 72 64 73 66 74 65 75 52 76
REMARK SMILES IDX 53 77 57 78 54 79 56 80 55 81
REMARK H PARENT 5 15 72 49 50 60
REMARK Flexibility Score: inf
ROOT
ATOM      1  C   UNL A   1      35.724  20.432  24.948  1.00  0.00     0.188 C 
ENDROOT
BRANCH   1   2
ATOM      2  C   UNL A   1      34.546  21.080  25.712  1.00  0.00     0.188 C 
BRANCH   2   3
ATOM      3  O   UNL A   1      34.914  22.002  26.726  1.00  0.00    -0.376 OA
BRANCH   3   4
ATOM      4  C   UNL A   1      34.786  23.415  26.503  1.00  0.00     0.202 C 
BRANCH   4   5
ATOM      5  C   UNL A   1      35.494  24.279  25.418  1.00  0.00     0.261 C 
BRANCH   5   6
ATOM      6  O   UNL A   1      34.691  24.768  24.359  1.00  0.00    -0.462 OA
BRANCH   6   7
ATOM      7  C   UNL A   1      34.483  23.937  23.321  1.00  0.00     0.331 C 
ATOM      8  O   UNL A   1      35.379  23.348  22.724  1.00  0.00    -0.249 OA
BRANCH   7   9
ATOM      9  C   UNL A   1      32.965  23.755  23.036  1.00  0.00     0.136 C 
ATOM     10  C   UNL A   1      32.852  22.314  22.408  1.00  0.00     0.047 C 
BRANCH   9  11
ATOM     11  C   UNL A   1      32.489  24.758  21.953  1.00  0.00     0.037 C 
ATOM     12  C   UNL A   1      33.191  26.119  21.942  1.00  0.00     0.007 C 
ENDBRANCH   9  11
BRANCH   9  13
ATOM     13  N   UNL A   1      31.962  23.811  24.208  1.00  0.00    -0.322 N 
ATOM     14  C   UNL A   1      31.240  24.671  24.989  1.00  0.00     0.318 C 
ATOM     15  H   UNL A   1      31.771  22.890  24.501  1.00  0.00     0.166 HD
ATOM     16  O   UNL A   1      30.278  24.184  25.589  1.00  0.00    -0.249 OA
ATOM     17  N   UNL A   1      31.627  25.963  25.218  1.00  0.00    -0.316 N 
ATOM     18  C   UNL A   1      32.054  26.345  26.574  1.00  0.00     0.157 C 
ATOM     19  C   UNL A   1      30.804  27.080  24.745  1.00  0.00     0.157 C 
ATOM     20  C   UNL A   1      32.115  27.831  26.558  1.00  0.00    -0.023 A 
ATOM     21  C   UNL A   1      31.387  28.278  25.460  1.00  0.00    -0.023 A 
ATOM     22  C   UNL A   1      32.863  28.672  27.375  1.00  0.00     0.006 A 
ATOM     23  C   UNL A   1      31.355  29.629  25.182  1.00  0.00     0.006 A 
ATOM     24  C   UNL A   1      32.873  30.026  27.068  1.00  0.00     0.000 A 
ATOM     25  C   UNL A   1      32.114  30.500  25.985  1.00  0.00     0.000 A 
ENDBRANCH   9  13
ENDBRANCH   7   9
ENDBRANCH   6   7
ENDBRANCH   5   6
ENDBRANCH   4   5
ENDBRANCH   3   4
ENDBRANCH   2   3
ENDBRANCH   1   2
BRANCH   1  26
ATOM     26  O   UNL A   1      37.032  20.785  25.381  1.00  0.00    -0.376 OA
BRANCH  26  27
ATOM     27  C   UNL A   1      38.142  20.044  24.860  1.00  0.00     0.202 C 
BRANCH  27  28
ATOM     28  C   UNL A   1      39.376  19.951  25.788  1.00  0.00     0.261 C 
BRANCH  28  29
ATOM     29  O   UNL A   1      40.543  19.364  25.179  1.00  0.00    -0.460 OA
BRANCH  29  30
ATOM     30  C   UNL A   1      41.648  19.300  25.960  1.00  0.00     0.338 C 
ATOM     31  O   UNL A   1      42.482  18.404  25.980  1.00  0.00    -0.246 OA
BRANCH  30  32
ATOM     32  C   UNL A   1      41.875  20.646  26.528  1.00  0.00     0.060 A 
ATOM     33  C   UNL A   1      42.330  21.654  25.657  1.00  0.00     0.016 A 
ATOM     34  C   UNL A   1      41.542  20.949  27.846  1.00  0.00     0.016 A 
ATOM     35  C   UNL A   1      42.418  22.971  26.086  1.00  0.00     0.010 A 
ATOM     36  C   UNL A   1      41.734  22.253  28.307  1.00  0.00     0.010 A 
ATOM     37  C   UNL A   1      42.190  23.258  27.433  1.00  0.00    -0.014 A 
BRANCH  37  38
ATOM     38  C   UNL A   1      42.708  24.527  27.982  1.00  0.00     0.031 A 
ATOM     39  C   UNL A   1      41.695  25.583  28.325  1.00  0.00     0.074 A 
ATOM     40  C   UNL A   1      44.021  24.737  28.172  1.00  0.00     0.049 A 
ATOM     41  N   UNL A   1      41.880  26.830  28.660  1.00  0.00    -0.248 NA
ATOM     42  C   UNL A   1      40.279  25.171  28.289  1.00  0.00     0.031 C 
ATOM     43  C   UNL A   1      45.080  23.748  27.980  1.00  0.00     0.029 A 
ATOM     44  N   UNL A   1      44.684  25.875  28.556  1.00  0.00    -0.354 N 
ATOM     45  C   UNL A   1      40.607  27.357  28.843  1.00  0.00     0.074 A 
ATOM     46  C   UNL A   1      39.658  26.297  28.599  1.00  0.00     0.031 C 
ATOM     47  C   UNL A   1      46.268  24.338  28.205  1.00  0.00     0.029 A 
ATOM     48  C   UNL A   1      46.051  25.753  28.499  1.00  0.00     0.049 A 
ATOM     49  H   UNL A   1      44.226  26.697  28.845  1.00  0.00     0.167 HD
ATOM     50  C   UNL A   1      40.264  28.623  29.163  1.00  0.00     0.031 A 
ATOM     51  C   UNL A   1      47.006  26.699  28.606  1.00  0.00     0.031 A 
ATOM     52  C   UNL A   1      41.218  29.672  29.384  1.00  0.00     0.049 A 
ATOM     53  C   UNL A   1      46.589  28.130  28.843  1.00  0.00     0.074 A 
ATOM     54  C   UNL A   1      40.980  30.991  29.721  1.00  0.00     0.029 A 
ATOM     55  N   UNL A   1      42.589  29.521  29.271  1.00  0.00    -0.354 N 
ATOM     56  N   UNL A   1      45.388  28.625  29.026  1.00  0.00    -0.248 NA
ATOM     57  C   UNL A   1      47.662  29.136  28.877  1.00  0.00     0.031 C 
ATOM     58  C   UNL A   1      42.207  31.658  29.740  1.00  0.00     0.029 A 
ATOM     59  C   UNL A   1      43.211  30.737  29.484  1.00  0.00     0.049 A 
ATOM     60  H   UNL A   1      43.052  28.676  29.069  1.00  0.00     0.167 HD
ATOM     61  C   UNL A   1      45.562  29.991  29.217  1.00  0.00     0.074 A 
ATOM     62  C   UNL A   1      46.987  30.243  29.154  1.00  0.00     0.031 C 
ATOM     63  C   UNL A   1      44.632  30.956  29.421  1.00  0.00     0.031 A 
BRANCH  50  64
ATOM     64  C   UNL A   1      38.805  28.964  29.219  1.00  0.00    -0.014 A 
ATOM     65  C   UNL A   1      38.083  28.924  30.421  1.00  0.00     0.009 A 
ATOM     66  C   UNL A   1      38.160  29.395  28.049  1.00  0.00     0.009 A 
ATOM     67  C   UNL A   1      36.739  29.305  30.447  1.00  0.00     0.001 A 
ATOM     68  C   UNL A   1      36.825  29.799  28.083  1.00  0.00     0.001 A 
ATOM     69  C   UNL A   1      36.115  29.751  29.280  1.00  0.00     0.000 A 
ENDBRANCH  50  64
BRANCH  51  70
ATOM     70  C   UNL A   1      48.440  26.359  28.390  1.00  0.00    -0.014 A 
ATOM     71  C   UNL A   1      49.003  26.373  27.105  1.00  0.00     0.009 A 
ATOM     72  C   UNL A   1      49.239  25.947  29.471  1.00  0.00     0.009 A 
ATOM     73  C   UNL A   1      50.318  25.945  26.902  1.00  0.00     0.001 A 
ATOM     74  C   UNL A   1      50.564  25.556  29.270  1.00  0.00     0.001 A 
ATOM     75  C   UNL A   1      51.097  25.540  27.984  1.00  0.00     0.000 A 
ENDBRANCH  51  70
BRANCH  63  76
ATOM     76  C   UNL A   1      45.124  32.362  29.618  1.00  0.00    -0.014 A 
ATOM     77  C   UNL A   1      45.239  33.250  28.539  1.00  0.00     0.009 A 
ATOM     78  C   UNL A   1      45.408  32.822  30.915  1.00  0.00     0.009 A 
ATOM     79  C   UNL A   1      45.659  34.565  28.752  1.00  0.00     0.001 A 
ATOM     80  C   UNL A   1      45.794  34.145  31.128  1.00  0.00     0.001 A 
ATOM     81  C   UNL A   1      45.928  35.012  30.045  1.00  0.00     0.000 A 
ENDBRANCH  63  76
ENDBRANCH  37  38
ENDBRANCH  30  32
ENDBRANCH  29  30
ENDBRANCH  28  29
ENDBRANCH  27  28
ENDBRANCH  26  27
ENDBRANCH   1  26
TORSDOF 19
ENDMDL
MODEL 2
REMARK VINA RESULT:      -9.8      3.296      8.728
REMARK SMILES CC[C@](C)(NC(=O)N1Cc2ccccc2C1)C(=O)OCCOCCOCCOC(=O)c1ccc(-c2c3nc(c(-c4ccccc4)c4ccc([nH]4)c(-c4ccccc4)c4nc(c(-c5ccccc5)c5ccc2[nH]5)C=C4)C=C3)cc1
REMARK SMILES IDX 24 1 23 2 22 3 21 4 20 5 19 6 17 7 18 8 3 9 4 10 2 11 1 12
REMARK SMILES IDX 5 13 6 14 7 16 8 17 9 18 16 19 10 20 15 21 11 22 14 23 12 24
REMARK SMILES IDX 13 25 25 26 26 27 27 28 28 29 29 30 30 31 31 32 32 33 78 34
REMARK SMILES IDX 33 35 77 36 34 37 35 38 36 39 71 40 37 41 76 42 70 43 72 44
REMARK SMILES IDX 38 45 75 46 69 47 68 48 39 50 61 51 46 52 60 53 47 54 50 55
REMARK SMILES IDX 59 56 73 57 48 58 49 59 58 61 74 62 51 63 40 64 41 65 45 66
REMARK SMILES IDX 42 67 44 68 43 69 62 70 63 71 67 72 64 73 66 74 65 75 52 76
REMARK SMILES IDX 53 77 57 78 54 79 56 80 55 81
REMARK H PARENT 5 15 72 49 50 60
REMARK Flexibility Score: inf
ROOT
ATOM      1  C   UNL A   1      34.955  33.348  28.024  1.00  0.00     0.188 C 
ENDROOT
BRANCH   1   2
ATOM      2  C   UNL A   1      34.399  31.936  28.325  1.00  0.00     0.188 C 
BRANCH   2   3
ATOM      3  O   UNL A   1      34.014  31.180  27.188  1.00  0.00    -0.376 OA
BRANCH   3   4
ATOM      4  C   UNL A   1      32.724  30.549  27.139  1.00  0.00     0.202 C 
BRANCH   4   5
ATOM      5  C   UNL A   1      31.727  30.502  25.945  1.00  0.00     0.261 C 
BRANCH   5   6
ATOM      6  O   UNL A   1      31.257  29.227  25.547  1.00  0.00    -0.462 OA
BRANCH   6   7
ATOM      7  C   UNL A   1      31.529  28.848  24.284  1.00  0.00     0.331 C 
ATOM      8  O   UNL A   1      31.548  29.614  23.326  1.00  0.00    -0.249 OA
BRANCH   7   9
ATOM      9  C   UNL A   1      31.898  27.338  24.213  1.00  0.00     0.136 C 
ATOM     10  C   UNL A   1      30.511  26.598  24.099  1.00  0.00     0.047 C 
BRANCH   9  11
ATOM     11  C   UNL A   1      32.550  26.872  25.542  1.00  0.00     0.037 C 
ATOM     12  C   UNL A   1      33.963  27.394  25.815  1.00  0.00     0.007 C 
ENDBRANCH   9  11
BRANCH   9  13
ATOM     13  N   UNL A   1      32.774  26.826  23.049  1.00  0.00    -0.322 N 
ATOM     14  C   UNL A   1      33.213  25.689  22.431  1.00  0.00     0.318 C 
ATOM     15  H   UNL A   1      33.154  27.604  22.579  1.00  0.00     0.166 HD
ATOM     16  O   UNL A   1      33.637  25.824  21.279  1.00  0.00    -0.249 OA
ATOM     17  N   UNL A   1      33.321  24.489  23.079  1.00  0.00    -0.316 N 
ATOM     18  C   UNL A   1      34.661  23.929  23.318  1.00  0.00     0.157 C 
ATOM     19  C   UNL A   1      32.494  23.348  22.672  1.00  0.00     0.157 C 
ATOM     20  C   UNL A   1      34.424  22.527  23.754  1.00  0.00    -0.023 A 
ATOM     21  C   UNL A   1      33.128  22.177  23.388  1.00  0.00    -0.023 A 
ATOM     22  C   UNL A   1      35.253  21.710  24.517  1.00  0.00     0.006 A 
ATOM     23  C   UNL A   1      32.640  20.939  23.753  1.00  0.00     0.006 A 
ATOM     24  C   UNL A   1      34.746  20.484  24.927  1.00  0.00     0.000 A 
ATOM     25  C   UNL A   1      33.452  20.099  24.537  1.00  0.00     0.000 A 
ENDBRANCH   9  13
ENDBRANCH   7   9
ENDBRANCH   6   7
ENDBRANCH   5   6
ENDBRANCH   4   5
ENDBRANCH   3   4
ENDBRANCH   2   3
ENDBRANCH   1   2
BRANCH   1  26
ATOM     26  O   UNL A   1      35.237  34.173  29.148  1.00  0.00    -0.376 OA
BRANCH  26  27
ATOM     27  C   UNL A   1      34.247  34.280  30.176  1.00  0.00     0.202 C 
BRANCH  27  28
ATOM     28  C   UNL A   1      34.786  34.597  31.591  1.00  0.00     0.261 C 
BRANCH  28  29
ATOM     29  O   UNL A   1      36.126  34.128  31.842  1.00  0.00    -0.460 OA
BRANCH  29  30
ATOM     30  C   UNL A   1      36.226  32.951  32.504  1.00  0.00     0.338 C 
ATOM     31  O   UNL A   1      35.432  32.496  33.318  1.00  0.00    -0.246 OA
BRANCH  30  32
ATOM     32  C   UNL A   1      37.261  32.141  31.826  1.00  0.00     0.060 A 
ATOM     33  C   UNL A   1      38.149  31.406  32.637  1.00  0.00     0.016 A 
ATOM     34  C   UNL A   1      37.293  32.006  30.441  1.00  0.00     0.016 A 
ATOM     35  C   UNL A   1      39.044  30.509  32.070  1.00  0.00     0.010 A 
ATOM     36  C   UNL A   1      38.266  31.185  29.866  1.00  0.00     0.010 A 
ATOM     37  C   UNL A   1      39.152  30.453  30.679  1.00  0.00    -0.014 A 
BRANCH  37  38
ATOM     38  C   UNL A   1      40.372  29.866  30.090  1.00  0.00     0.031 A 
ATOM     39  C   UNL A   1      41.544  30.787  29.896  1.00  0.00     0.074 A 
ATOM     40  C   UNL A   1      40.442  28.570  29.742  1.00  0.00     0.049 A 
ATOM     41  N   UNL A   1      42.663  30.580  29.258  1.00  0.00    -0.248 NA
ATOM     42  C   UNL A   1      41.439  32.123  30.512  1.00  0.00     0.031 C 
ATOM     43  C   UNL A   1      39.410  27.565  29.986  1.00  0.00     0.029 A 
ATOM     44  N   UNL A   1      41.435  27.888  29.086  1.00  0.00    -0.354 N 
ATOM     45  C   UNL A   1      43.377  31.766  29.370  1.00  0.00     0.074 A 
ATOM     46  C   UNL A   1      42.579  32.684  30.147  1.00  0.00     0.031 C 
ATOM     47  C   UNL A   1      39.806  26.399  29.443  1.00  0.00     0.029 A 
ATOM     48  C   UNL A   1      41.089  26.596  28.770  1.00  0.00     0.049 A 
ATOM     49  H   UNL A   1      42.309  28.283  28.865  1.00  0.00     0.167 HD
ATOM     50  C   UNL A   1      44.585  32.068  28.845  1.00  0.00     0.031 A 
ATOM     51  C   UNL A   1      41.713  25.708  27.971  1.00  0.00     0.031 A 
ATOM     52  C   UNL A   1      45.360  31.152  28.058  1.00  0.00     0.049 A 
ATOM     53  C   UNL A   1      43.002  26.114  27.298  1.00  0.00     0.074 A 
ATOM     54  C   UNL A   1      46.601  31.352  27.484  1.00  0.00     0.029 A 
ATOM     55  N   UNL A   1      44.955  29.872  27.721  1.00  0.00    -0.354 N 
ATOM     56  N   UNL A   1      43.681  27.231  27.413  1.00  0.00    -0.248 NA
ATOM     57  C   UNL A   1      43.605  25.139  26.377  1.00  0.00     0.031 C 
ATOM     58  C   UNL A   1      46.916  30.214  26.736  1.00  0.00     0.029 A 
ATOM     59  C   UNL A   1      45.902  29.284  26.904  1.00  0.00     0.049 A 
ATOM     60  H   UNL A   1      44.119  29.445  28.018  1.00  0.00     0.167 HD
ATOM     61  C   UNL A   1      44.797  27.084  26.597  1.00  0.00     0.074 A 
ATOM     62  C   UNL A   1      44.718  25.761  26.015  1.00  0.00     0.031 C 
ATOM     63  C   UNL A   1      45.799  27.962  26.344  1.00  0.00     0.031 A 
BRANCH  50  64
ATOM     64  C   UNL A   1      45.108  33.460  29.040  1.00  0.00    -0.014 A 
ATOM     65  C   UNL A   1      45.848  33.819  30.176  1.00  0.00     0.009 A 
ATOM     66  C   UNL A   1      44.907  34.412  28.027  1.00  0.00     0.009 A 
ATOM     67  C   UNL A   1      46.370  35.109  30.297  1.00  0.00     0.001 A 
ATOM     68  C   UNL A   1      45.452  35.691  28.138  1.00  0.00     0.001 A 
ATOM     69  C   UNL A   1      46.180  36.039  29.273  1.00  0.00     0.000 A 
ENDBRANCH  50  64
BRANCH  51  70
ATOM     70  C   UNL A   1      41.091  24.388  27.670  1.00  0.00    -0.014 A 
ATOM     71  C   UNL A   1      41.555  23.212  28.279  1.00  0.00     0.009 A 
ATOM     72  C   UNL A   1      40.068  24.291  26.712  1.00  0.00     0.009 A 
ATOM     73  C   UNL A   1      41.039  21.969  27.905  1.00  0.00     0.001 A 
ATOM     74  C   UNL A   1      39.528  23.051  26.368  1.00  0.00     0.001 A 
ATOM     75  C   UNL A   1      40.025  21.889  26.953  1.00  0.00     0.000 A 
ENDBRANCH  51  70
BRANCH  63  76
ATOM     76  C   UNL A   1      46.898  27.513  25.425  1.00  0.00    -0.014 A 
ATOM     77  C   UNL A   1      47.944  26.698  25.885  1.00  0.00     0.009 A 
ATOM     78  C   UNL A   1      46.848  27.855  24.063  1.00  0.00     0.009 A 
ATOM     79  C   UNL A   1      48.934  26.259  25.003  1.00  0.00     0.001 A 
ATOM     80  C   UNL A   1      47.819  27.385  23.179  1.00  0.00     0.001 A 
ATOM     81  C   UNL A   1      48.865  26.596  23.652  1.00  0.00     0.000 A 
ENDBRANCH  63  76
ENDBRANCH  37  38
ENDBRANCH  30  32
ENDBRANCH  29  30
ENDBRANCH  28  29
ENDBRANCH  27  28
ENDBRANCH  26  27
ENDBRANCH   1  26
TORSDOF 19
ENDMDL
MODEL 3
REMARK VINA RESULT:      -9.6      3.984      8.796
REMARK SMILES CC[C@](C)(NC(=O)N1Cc2ccccc2C1)C(=O)OCCOCCOCCOC(=O)c1ccc(-c2c3nc(c(-c4ccccc4)c4ccc([nH]4)c(-c4ccccc4)c4nc(c(-c5ccccc5)c5ccc2[nH]5)C=C4)C=C3)cc1
REMARK SMILES IDX 24 1 23 2 22 3 21 4 20 5 19 6 17 7 18 8 3 9 4 10 2 11 1 12
REMARK SMILES IDX 5 13 6 14 7 16 8 17 9 18 16 19 10 20 15 21 11 22 14 23 12 24
REMARK SMILES IDX 13 25 25 26 26 27 27 28 28 29 29 30 30 31 31 32 32 33 78 34
REMARK SMILES IDX 33 35 77 36 34 37 35 38 36 39 71 40 37 41 76 42 70 43 72 44
REMARK SMILES IDX 38 45 75 46 69 47 68 48 39 50 61 51 46 52 60 53 47 54 50 55
REMARK SMILES IDX 59 56 73 57 48 58 49 59 58 61 74 62 51 63 40 64 41 65 45 66
REMARK SMILES IDX 42 67 44 68 43 69 62 70 63 71 67 72 64 73 66 74 65 75 52 76
REMARK SMILES IDX 53 77 57 78 54 79 56 80 55 81
REMARK H PARENT 5 15 72 49 50 60
REMARK Flexibility Score: inf
ROOT
ATOM      1  C   UNL A   1      32.321  28.119  26.715  1.00  0.00     0.188 C 
ENDROOT
BRANCH   1   2
ATOM      2  C   UNL A   1      32.342  26.650  26.229  1.00  0.00     0.188 C 
BRANCH   2   3
ATOM      3  O   UNL A   1      31.326  25.818  26.768  1.00  0.00    -0.376 OA
BRANCH   3   4
ATOM      4  C   UNL A   1      31.353  24.400  26.538  1.00  0.00     0.202 C 
BRANCH   4   5
ATOM      5  C   UNL A   1      32.233  23.332  27.251  1.00  0.00     0.261 C 
BRANCH   5   6
ATOM      6  O   UNL A   1      32.511  22.144  26.533  1.00  0.00    -0.462 OA
BRANCH   6   7
ATOM      7  C   UNL A   1      33.799  21.754  26.481  1.00  0.00     0.331 C 
ATOM      8  O   UNL A   1      34.465  21.453  27.466  1.00  0.00    -0.249 OA
BRANCH   7   9
ATOM      9  C   UNL A   1      34.301  21.655  25.012  1.00  0.00     0.136 C 
ATOM     10  C   UNL A   1      35.246  20.393  25.003  1.00  0.00     0.047 C 
BRANCH   9  11
ATOM     11  C   UNL A   1      35.182  22.881  24.653  1.00  0.00     0.037 C 
ATOM     12  C   UNL A   1      36.203  22.669  23.532  1.00  0.00     0.007 C 
ENDBRANCH   9  11
BRANCH   9  13
ATOM     13  N   UNL A   1      33.278  21.455  23.873  1.00  0.00    -0.322 N 
ATOM     14  C   UNL A   1      32.525  22.128  22.951  1.00  0.00     0.318 C 
ATOM     15  H   UNL A   1      33.105  20.491  23.773  1.00  0.00     0.166 HD
ATOM     16  O   UNL A   1      32.113  21.463  21.996  1.00  0.00    -0.249 OA
ATOM     17  N   UNL A   1      32.120  23.422  23.128  1.00  0.00    -0.316 N 
ATOM     18  C   UNL A   1      30.688  23.697  23.328  1.00  0.00     0.157 C 
ATOM     19  C   UNL A   1      32.593  24.478  22.226  1.00  0.00     0.157 C 
ATOM     20  C   UNL A   1      30.552  25.172  23.189  1.00  0.00    -0.023 A 
ATOM     21  C   UNL A   1      31.691  25.649  22.548  1.00  0.00    -0.023 A 
ATOM     22  C   UNL A   1      29.562  25.998  23.710  1.00  0.00     0.006 A 
ATOM     23  C   UNL A   1      31.839  27.008  22.369  1.00  0.00     0.006 A 
ATOM     24  C   UNL A   1      29.733  27.370  23.574  1.00  0.00     0.000 A 
ATOM     25  C   UNL A   1      30.859  27.868  22.898  1.00  0.00     0.000 A 
ENDBRANCH   9  13
ENDBRANCH   7   9
ENDBRANCH   6   7
ENDBRANCH   5   6
ENDBRANCH   4   5
ENDBRANCH   3   4
ENDBRANCH   2   3
ENDBRANCH   1   2
BRANCH   1  26
ATOM     26  O   UNL A   1      32.318  29.122  25.707  1.00  0.00    -0.376 OA
BRANCH  26  27
ATOM     27  C   UNL A   1      31.949  30.455  26.078  1.00  0.00     0.202 C 
BRANCH  27  28
ATOM     28  C   UNL A   1      33.012  31.243  26.878  1.00  0.00     0.261 C 
BRANCH  28  29
ATOM     29  O   UNL A   1      32.474  32.149  27.862  1.00  0.00    -0.460 OA
BRANCH  29  30
ATOM     30  C   UNL A   1      33.119  33.333  27.990  1.00  0.00     0.338 C 
ATOM     31  O   UNL A   1      32.645  34.450  27.821  1.00  0.00    -0.246 OA
BRANCH  30  32
ATOM     32  C   UNL A   1      34.387  33.080  28.708  1.00  0.00     0.060 A 
ATOM     33  C   UNL A   1      35.578  33.536  28.110  1.00  0.00     0.016 A 
ATOM     34  C   UNL A   1      34.406  32.519  29.983  1.00  0.00     0.016 A 
ATOM     35  C   UNL A   1      36.782  33.469  28.796  1.00  0.00     0.010 A 
ATOM     36  C   UNL A   1      35.633  32.353  30.628  1.00  0.00     0.010 A 
ATOM     37  C   UNL A   1      36.822  32.810  30.027  1.00  0.00    -0.014 A 
BRANCH  37  38
ATOM     38  C   UNL A   1      38.126  32.342  30.535  1.00  0.00     0.031 A 
ATOM     39  C   UNL A   1      38.689  31.094  29.915  1.00  0.00     0.074 A 
ATOM     40  C   UNL A   1      38.789  32.996  31.503  1.00  0.00     0.049 A 
ATOM     41  N   UNL A   1      39.718  30.379  30.279  1.00  0.00    -0.248 NA
ATOM     42  C   UNL A   1      37.995  30.585  28.716  1.00  0.00     0.031 C 
ATOM     43  C   UNL A   1      38.393  34.271  32.096  1.00  0.00     0.029 A 
ATOM     44  N   UNL A   1      39.937  32.651  32.170  1.00  0.00    -0.354 N 
ATOM     45  C   UNL A   1      39.775  29.325  29.376  1.00  0.00     0.074 A 
ATOM     46  C   UNL A   1      38.692  29.496  28.438  1.00  0.00     0.031 C 
ATOM     47  C   UNL A   1      39.264  34.582  33.075  1.00  0.00     0.029 A 
ATOM     48  C   UNL A   1      40.237  33.499  33.209  1.00  0.00     0.049 A 
ATOM     49  H   UNL A   1      40.492  31.875  31.929  1.00  0.00     0.167 HD
ATOM     50  C   UNL A   1      40.644  28.291  29.351  1.00  0.00     0.031 A 
ATOM     51  C   UNL A   1      41.153  33.370  34.190  1.00  0.00     0.031 A 
ATOM     52  C   UNL A   1      41.706  28.123  30.302  1.00  0.00     0.049 A 
ATOM     53  C   UNL A   1      42.032  32.143  34.209  1.00  0.00     0.074 A 
ATOM     54  C   UNL A   1      42.650  27.116  30.365  1.00  0.00     0.029 A 
ATOM     55  N   UNL A   1      41.948  28.976  31.366  1.00  0.00    -0.354 N 
ATOM     56  N   UNL A   1      42.092  31.153  33.349  1.00  0.00    -0.248 NA
ATOM     57  C   UNL A   1      42.962  32.010  35.340  1.00  0.00     0.031 C 
ATOM     58  C   UNL A   1      43.420  27.320  31.513  1.00  0.00     0.029 A 
ATOM     59  C   UNL A   1      42.999  28.493  32.121  1.00  0.00     0.049 A 
ATOM     60  H   UNL A   1      41.447  29.803  31.555  1.00  0.00     0.167 HD
ATOM     61  C   UNL A   1      43.077  30.295  33.825  1.00  0.00     0.074 A 
ATOM     62  C   UNL A   1      43.606  30.893  35.032  1.00  0.00     0.031 C 
ATOM     63  C   UNL A   1      43.507  29.113  33.316  1.00  0.00     0.031 A 
BRANCH  50  64
ATOM     64  C   UNL A   1      40.442  27.227  28.315  1.00  0.00    -0.014 A 
ATOM     65  C   UNL A   1      41.070  27.286  27.062  1.00  0.00     0.009 A 
ATOM     66  C   UNL A   1      39.652  26.109  28.630  1.00  0.00     0.009 A 
ATOM     67  C   UNL A   1      40.905  26.248  26.143  1.00  0.00     0.001 A 
ATOM     68  C   UNL A   1      39.510  25.062  27.721  1.00  0.00     0.001 A 
ATOM     69  C   UNL A   1      40.134  25.133  26.477  1.00  0.00     0.000 A 
ENDBRANCH  50  64
BRANCH  51  70
ATOM     70  C   UNL A   1      41.227  34.365  35.296  1.00  0.00    -0.014 A 
ATOM     71  C   UNL A   1      40.409  34.251  36.430  1.00  0.00     0.009 A 
ATOM     72  C   UNL A   1      42.075  35.480  35.187  1.00  0.00     0.009 A 
ATOM     73  C   UNL A   1      40.408  35.250  37.407  1.00  0.00     0.001 A 
ATOM     74  C   UNL A   1      42.099  36.458  36.184  1.00  0.00     0.001 A 
ATOM     75  C   UNL A   1      41.254  36.350  37.285  1.00  0.00     0.000 A 
ENDBRANCH  51  70
BRANCH  63  76
ATOM     76  C   UNL A   1      44.616  28.408  34.043  1.00  0.00    -0.014 A 
ATOM     77  C   UNL A   1      45.962  28.679  33.755  1.00  0.00     0.009 A 
ATOM     78  C   UNL A   1      44.307  27.511  35.079  1.00  0.00     0.009 A 
ATOM     79  C   UNL A   1      46.977  28.042  34.472  1.00  0.00     0.001 A 
ATOM     80  C   UNL A   1      45.323  26.903  35.816  1.00  0.00     0.001 A 
ATOM     81  C   UNL A   1      46.656  27.162  35.505  1.00  0.00     0.000 A 
ENDBRANCH  63  76
ENDBRANCH  37  38
ENDBRANCH  30  32
ENDBRANCH  29  30
ENDBRANCH  28  29
ENDBRANCH  27  28
ENDBRANCH  26  27
ENDBRANCH   1  26
TORSDOF 19
ENDMDL
