MODEL 1
REMARK VINA RESULT:      -8.5      0.000      0.000
REMARK SMILES CC1(C)[C@H](O)CC[C@@]2(C)[C@H]3Cc4c(oc(C(=O)OCCOCCOCCOC(=O)c5ccc(-c6c7nc(c(-c8ccccc8)c8ccc([nH]8)c(-c8ccccc8)c8nc(c(-c9ccccc9)c9ccc6[nH]9)C=C8)C=C7)cc5)cc4=O)O[C@@]3(C)CC[C@@H]12
REMARK SMILES IDX 23 1 22 2 21 3 20 4 19 5 18 6 16 7 17 8 15 9 1 10 2 11 3 12
REMARK SMILES IDX 4 13 86 14 6 15 8 16 85 17 7 18 9 19 10 20 84 21 82 22 11 23
REMARK SMILES IDX 83 24 81 25 12 26 13 27 79 28 14 29 78 30 80 31 5 32 24 34
REMARK SMILES IDX 25 35 26 36 27 37 28 38 29 39 30 40 31 41 77 42 32 43 76 44
REMARK SMILES IDX 33 45 34 46 35 47 70 48 36 49 75 50 69 51 71 52 37 53 74 54
REMARK SMILES IDX 68 55 67 56 38 58 60 59 45 60 59 61 46 62 49 63 58 64 72 65
REMARK SMILES IDX 47 66 48 67 57 69 73 70 50 71 39 72 40 73 44 74 41 75 43 76
REMARK SMILES IDX 42 77 61 78 62 79 66 80 63 81 65 82 64 83 51 84 52 85 56 86
REMARK SMILES IDX 53 87 55 88 54 89
REMARK H PARENT 5 33 71 57 49 68
REMARK Flexibility Score: inf
ROOT
ATOM      1  C   UNL A   1      44.898  23.854  28.512  1.00  0.00     0.188 C 
ENDROOT
BRANCH   1   2
ATOM      2  C   UNL A   1      43.500  23.347  28.923  1.00  0.00     0.188 C 
BRANCH   2   3
ATOM      3  O   UNL A   1      42.706  22.628  28.006  1.00  0.00    -0.376 OA
BRANCH   3   4
ATOM      4  C   UNL A   1      41.806  23.305  27.146  1.00  0.00     0.202 C 
BRANCH   4   5
ATOM      5  C   UNL A   1      40.403  23.757  27.583  1.00  0.00     0.261 C 
BRANCH   5   6
ATOM      6  O   UNL A   1      40.348  24.977  28.333  1.00  0.00    -0.457 OA
BRANCH   6   7
ATOM      7  C   UNL A   1      40.243  26.119  27.599  1.00  0.00     0.374 C 
ATOM      8  O   UNL A   1      40.269  26.195  26.379  1.00  0.00    -0.242 OA
BRANCH   7   9
ATOM      9  C   UNL A   1      39.906  27.275  28.473  1.00  0.00     0.219 A 
ATOM     10  C   UNL A   1      36.942  31.941  33.608  1.00  0.00     0.014 C 
ATOM     11  C   UNL A   1      36.210  33.065  32.840  1.00  0.00    -0.006 C 
ATOM     12  C   UNL A   1      34.750  32.996  33.370  1.00  0.00     0.014 C 
ATOM     13  C   UNL A   1      36.839  34.442  33.216  1.00  0.00     0.120 C 
ATOM     14  C   UNL A   1      36.243  32.986  31.255  1.00  0.00     0.004 C 
ATOM     15  C   UNL A   1      38.254  34.653  32.647  1.00  0.00     0.033 C 
ATOM     16  C   UNL A   1      37.675  33.129  30.596  1.00  0.00    -0.022 C 
ATOM     17  C   UNL A   1      35.260  31.987  30.596  1.00  0.00     0.009 C 
ATOM     18  C   UNL A   1      38.737  33.587  31.648  1.00  0.00     0.010 C 
ATOM     19  C   UNL A   1      37.664  34.325  29.586  1.00  0.00     0.012 C 
ATOM     20  C   UNL A   1      38.132  31.828  29.798  1.00  0.00     0.044 C 
ATOM     21  C   UNL A   1      35.839  30.777  29.886  1.00  0.00     0.049 C 
ATOM     22  C   UNL A   1      37.011  31.128  28.966  1.00  0.00     0.113 C 
ATOM     23  C   UNL A   1      38.804  30.760  30.700  1.00  0.00     0.055 C 
ATOM     24  C   UNL A   1      36.509  31.947  27.762  1.00  0.00     0.057 C 
ATOM     25  O   UNL A   1      37.455  29.917  28.309  1.00  0.00    -0.458 OA
ATOM     26  C   UNL A   1      39.114  29.508  29.949  1.00  0.00     0.081 A 
ATOM     27  C   UNL A   1      38.492  29.177  28.812  1.00  0.00     0.292 A 
ATOM     28  C   UNL A   1      40.189  28.624  30.450  1.00  0.00     0.192 A 
ATOM     29  O   UNL A   1      38.859  28.076  28.056  1.00  0.00    -0.418 OA
ATOM     30  C   UNL A   1      40.574  27.477  29.615  1.00  0.00     0.107 A 
ATOM     31  O   UNL A   1      40.750  28.825  31.520  1.00  0.00    -0.289 OA
BRANCH  13  32
ATOM     32  O   UNL A   1      36.042  35.526  32.715  1.00  0.00    -0.393 OA
ATOM     33  H   UNL A   1      35.399  35.794  33.391  1.00  0.00     0.210 HD
ENDBRANCH  13  32
ENDBRANCH   7   9
ENDBRANCH   6   7
ENDBRANCH   5   6
ENDBRANCH   4   5
ENDBRANCH   3   4
ENDBRANCH   2   3
ENDBRANCH   1   2
BRANCH   1  34
ATOM     34  O   UNL A   1      45.692  23.099  27.626  1.00  0.00    -0.376 OA
BRANCH  34  35
ATOM     35  C   UNL A   1      45.559  23.291  26.226  1.00  0.00     0.202 C 
BRANCH  35  36
ATOM     36  C   UNL A   1      46.464  24.211  25.386  1.00  0.00     0.261 C 
BRANCH  36  37
ATOM     37  O   UNL A   1      45.819  25.261  24.654  1.00  0.00    -0.460 OA
BRANCH  37  38
ATOM     38  C   UNL A   1      46.328  26.503  24.841  1.00  0.00     0.338 C 
ATOM     39  O   UNL A   1      46.980  27.173  24.052  1.00  0.00    -0.246 OA
BRANCH  38  40
ATOM     40  C   UNL A   1      45.835  27.027  26.123  1.00  0.00     0.060 A 
ATOM     41  C   UNL A   1      44.452  27.072  26.356  1.00  0.00     0.016 A 
ATOM     42  C   UNL A   1      46.736  27.496  27.077  1.00  0.00     0.016 A 
ATOM     43  C   UNL A   1      43.966  27.564  27.564  1.00  0.00     0.010 A 
ATOM     44  C   UNL A   1      46.246  28.035  28.268  1.00  0.00     0.010 A 
ATOM     45  C   UNL A   1      44.860  28.085  28.506  1.00  0.00    -0.014 A 
BRANCH  45  46
ATOM     46  C   UNL A   1      44.330  28.884  29.632  1.00  0.00     0.031 A 
ATOM     47  C   UNL A   1      44.092  30.347  29.404  1.00  0.00     0.074 A 
ATOM     48  C   UNL A   1      44.028  28.321  30.814  1.00  0.00     0.049 A 
ATOM     49  N   UNL A   1      43.626  31.246  30.230  1.00  0.00    -0.248 NA
ATOM     50  C   UNL A   1      44.414  30.866  28.062  1.00  0.00     0.031 C 
ATOM     51  C   UNL A   1      44.155  26.901  31.133  1.00  0.00     0.029 A 
ATOM     52  N   UNL A   1      43.540  28.888  31.964  1.00  0.00    -0.354 N 
ATOM     53  C   UNL A   1      43.587  32.429  29.506  1.00  0.00     0.074 A 
ATOM     54  C   UNL A   1      44.108  32.148  28.188  1.00  0.00     0.031 C 
ATOM     55  C   UNL A   1      43.751  26.707  32.401  1.00  0.00     0.029 A 
ATOM     56  C   UNL A   1      43.362  27.990  32.987  1.00  0.00     0.049 A 
ATOM     57  H   UNL A   1      43.338  29.849  32.048  1.00  0.00     0.167 HD
ATOM     58  C   UNL A   1      43.142  33.642  29.902  1.00  0.00     0.031 A 
ATOM     59  C   UNL A   1      42.939  28.183  34.252  1.00  0.00     0.031 A 
ATOM     60  C   UNL A   1      42.645  33.930  31.216  1.00  0.00     0.049 A 
ATOM     61  C   UNL A   1      42.558  29.565  34.709  1.00  0.00     0.074 A 
ATOM     62  C   UNL A   1      42.176  35.134  31.708  1.00  0.00     0.029 A 
ATOM     63  N   UNL A   1      42.563  33.009  32.247  1.00  0.00    -0.354 N 
ATOM     64  N   UNL A   1      42.513  30.676  34.015  1.00  0.00    -0.248 NA
ATOM     65  C   UNL A   1      42.171  29.726  36.119  1.00  0.00     0.031 C 
ATOM     66  C   UNL A   1      41.857  34.955  33.054  1.00  0.00     0.029 A 
ATOM     67  C   UNL A   1      42.078  33.627  33.384  1.00  0.00     0.049 A 
ATOM     68  H   UNL A   1      42.812  32.059  32.180  1.00  0.00     0.167 HD
ATOM     69  C   UNL A   1      42.081  31.661  34.895  1.00  0.00     0.074 A 
ATOM     70  C   UNL A   1      41.871  31.018  36.175  1.00  0.00     0.031 C 
ATOM     71  C   UNL A   1      41.876  32.978  34.654  1.00  0.00     0.031 A 
BRANCH  58  72
ATOM     72  C   UNL A   1      43.179  34.756  28.899  1.00  0.00    -0.014 A 
ATOM     73  C   UNL A   1      42.015  35.148  28.221  1.00  0.00     0.009 A 
ATOM     74  C   UNL A   1      44.370  35.463  28.683  1.00  0.00     0.009 A 
ATOM     75  C   UNL A   1      42.047  36.224  27.333  1.00  0.00     0.001 A 
ATOM     76  C   UNL A   1      44.394  36.554  27.813  1.00  0.00     0.001 A 
ATOM     77  C   UNL A   1      43.233  36.931  27.138  1.00  0.00     0.000 A 
ENDBRANCH  58  72
BRANCH  59  78
ATOM     78  C   UNL A   1      42.843  27.017  35.166  1.00  0.00    -0.014 A 
ATOM     79  C   UNL A   1      41.671  26.248  35.211  1.00  0.00     0.009 A 
ATOM     80  C   UNL A   1      43.945  26.625  35.944  1.00  0.00     0.009 A 
ATOM     81  C   UNL A   1      41.609  25.103  36.008  1.00  0.00     0.001 A 
ATOM     82  C   UNL A   1      43.885  25.470  36.726  1.00  0.00     0.001 A 
ATOM     83  C   UNL A   1      42.718  24.708  36.756  1.00  0.00     0.000 A 
ENDBRANCH  59  78
BRANCH  71  84
ATOM     84  C   UNL A   1      41.400  33.852  35.780  1.00  0.00    -0.014 A 
ATOM     85  C   UNL A   1      42.319  34.559  36.567  1.00  0.00     0.009 A 
ATOM     86  C   UNL A   1      40.028  34.116  35.923  1.00  0.00     0.009 A 
ATOM     87  C   UNL A   1      41.872  35.527  37.469  1.00  0.00     0.001 A 
ATOM     88  C   UNL A   1      39.587  35.098  36.810  1.00  0.00     0.001 A 
ATOM     89  C   UNL A   1      40.509  35.806  37.580  1.00  0.00     0.000 A 
ENDBRANCH  71  84
ENDBRANCH  45  46
ENDBRANCH  38  40
ENDBRANCH  37  38
ENDBRANCH  36  37
ENDBRANCH  35  36
ENDBRANCH  34  35
ENDBRANCH   1  34
TORSDOF 18
ENDMDL
MODEL 2
REMARK VINA RESULT:      -8.5      1.400      5.698
REMARK SMILES CC1(C)[C@H](O)CC[C@@]2(C)[C@H]3Cc4c(oc(C(=O)OCCOCCOCCOC(=O)c5ccc(-c6c7nc(c(-c8ccccc8)c8ccc([nH]8)c(-c8ccccc8)c8nc(c(-c9ccccc9)c9ccc6[nH]9)C=C8)C=C7)cc5)cc4=O)O[C@@]3(C)CC[C@@H]12
REMARK SMILES IDX 23 1 22 2 21 3 20 4 19 5 18 6 16 7 17 8 15 9 1 10 2 11 3 12
REMARK SMILES IDX 4 13 86 14 6 15 8 16 85 17 7 18 9 19 10 20 84 21 82 22 11 23
REMARK SMILES IDX 83 24 81 25 12 26 13 27 79 28 14 29 78 30 80 31 5 32 24 34
REMARK SMILES IDX 25 35 26 36 27 37 28 38 29 39 30 40 31 41 77 42 32 43 76 44
REMARK SMILES IDX 33 45 34 46 35 47 70 48 36 49 75 50 69 51 71 52 37 53 74 54
REMARK SMILES IDX 68 55 67 56 38 58 60 59 45 60 59 61 46 62 49 63 58 64 72 65
REMARK SMILES IDX 47 66 48 67 57 69 73 70 50 71 39 72 40 73 44 74 41 75 43 76
REMARK SMILES IDX 42 77 61 78 62 79 66 80 63 81 65 82 64 83 51 84 52 85 56 86
REMARK SMILES IDX 53 87 55 88 54 89
REMARK H PARENT 5 33 71 57 49 68
REMARK Flexibility Score: inf
ROOT
ATOM      1  C   UNL A   1      43.387  20.499  25.635  1.00  0.00     0.188 C 
ENDROOT
BRANCH   1   2
ATOM      2  C   UNL A   1      42.014  20.861  26.238  1.00  0.00     0.188 C 
BRANCH   2   3
ATOM      3  O   UNL A   1      41.690  22.207  26.511  1.00  0.00    -0.376 OA
BRANCH   3   4
ATOM      4  C   UNL A   1      42.575  23.025  27.256  1.00  0.00     0.202 C 
BRANCH   4   5
ATOM      5  C   UNL A   1      42.101  24.029  28.319  1.00  0.00     0.261 C 
BRANCH   5   6
ATOM      6  O   UNL A   1      41.656  25.298  27.823  1.00  0.00    -0.457 OA
BRANCH   6   7
ATOM      7  C   UNL A   1      40.322  25.543  27.935  1.00  0.00     0.374 C 
ATOM      8  O   UNL A   1      39.421  24.782  27.615  1.00  0.00    -0.242 OA
BRANCH   7   9
ATOM      9  C   UNL A   1      40.083  26.810  28.678  1.00  0.00     0.219 A 
ATOM     10  C   UNL A   1      37.912  32.111  33.588  1.00  0.00     0.014 C 
ATOM     11  C   UNL A   1      36.932  33.050  32.849  1.00  0.00    -0.006 C 
ATOM     12  C   UNL A   1      35.636  32.994  33.705  1.00  0.00     0.014 C 
ATOM     13  C   UNL A   1      37.503  34.501  32.856  1.00  0.00     0.120 C 
ATOM     14  C   UNL A   1      36.624  32.708  31.329  1.00  0.00     0.004 C 
ATOM     15  C   UNL A   1      38.735  34.688  31.951  1.00  0.00     0.033 C 
ATOM     16  C   UNL A   1      37.859  32.812  30.344  1.00  0.00    -0.022 C 
ATOM     17  C   UNL A   1      35.614  31.562  31.074  1.00  0.00     0.009 C 
ATOM     18  C   UNL A   1      39.080  33.496  31.042  1.00  0.00     0.010 C 
ATOM     19  C   UNL A   1      37.521  33.820  29.195  1.00  0.00     0.012 C 
ATOM     20  C   UNL A   1      38.244  31.422  29.670  1.00  0.00     0.044 C 
ATOM     21  C   UNL A   1      36.128  30.282  30.442  1.00  0.00     0.049 C 
ATOM     22  C   UNL A   1      37.035  30.534  29.234  1.00  0.00     0.113 C 
ATOM     23  C   UNL A   1      39.190  30.557  30.544  1.00  0.00     0.055 C 
ATOM     24  C   UNL A   1      36.211  31.113  28.069  1.00  0.00     0.057 C 
ATOM     25  O   UNL A   1      37.431  29.255  28.684  1.00  0.00    -0.458 OA
ATOM     26  C   UNL A   1      39.438  29.215  29.940  1.00  0.00     0.081 A 
ATOM     27  C   UNL A   1      38.614  28.666  29.041  1.00  0.00     0.292 A 
ATOM     28  C   UNL A   1      40.671  28.485  30.308  1.00  0.00     0.192 A 
ATOM     29  O   UNL A   1      38.903  27.474  28.397  1.00  0.00    -0.418 OA
ATOM     30  C   UNL A   1      40.964  27.236  29.591  1.00  0.00     0.107 A 
ATOM     31  O   UNL A   1      41.432  28.892  31.177  1.00  0.00    -0.289 OA
BRANCH  13  32
ATOM     32  O   UNL A   1      36.522  35.443  32.394  1.00  0.00    -0.393 OA
ATOM     33  H   UNL A   1      36.907  35.992  31.692  1.00  0.00     0.210 HD
ENDBRANCH  13  32
ENDBRANCH   7   9
ENDBRANCH   6   7
ENDBRANCH   5   6
ENDBRANCH   4   5
ENDBRANCH   3   4
ENDBRANCH   2   3
ENDBRANCH   1   2
BRANCH   1  34
ATOM     34  O   UNL A   1      44.443  21.429  25.672  1.00  0.00    -0.376 OA
BRANCH  34  35
ATOM     35  C   UNL A   1      45.144  21.746  24.479  1.00  0.00     0.202 C 
BRANCH  35  36
ATOM     36  C   UNL A   1      46.241  22.822  24.375  1.00  0.00     0.261 C 
BRANCH  36  37
ATOM     37  O   UNL A   1      45.805  24.185  24.302  1.00  0.00    -0.460 OA
BRANCH  37  38
ATOM     38  C   UNL A   1      46.740  25.115  24.615  1.00  0.00     0.338 C 
ATOM     39  O   UNL A   1      47.822  25.303  24.075  1.00  0.00    -0.246 OA
BRANCH  38  40
ATOM     40  C   UNL A   1      46.186  26.016  25.635  1.00  0.00     0.060 A 
ATOM     41  C   UNL A   1      47.063  26.758  26.441  1.00  0.00     0.016 A 
ATOM     42  C   UNL A   1      44.806  26.106  25.811  1.00  0.00     0.016 A 
ATOM     43  C   UNL A   1      46.557  27.618  27.411  1.00  0.00     0.010 A 
ATOM     44  C   UNL A   1      44.301  26.931  26.818  1.00  0.00     0.010 A 
ATOM     45  C   UNL A   1      45.176  27.675  27.630  1.00  0.00    -0.014 A 
BRANCH  45  46
ATOM     46  C   UNL A   1      44.671  28.336  28.853  1.00  0.00     0.031 A 
ATOM     47  C   UNL A   1      44.566  27.514  30.103  1.00  0.00     0.074 A 
ATOM     48  C   UNL A   1      44.352  29.641  28.867  1.00  0.00     0.049 A 
ATOM     49  N   UNL A   1      44.163  27.871  31.294  1.00  0.00    -0.248 NA
ATOM     50  C   UNL A   1      44.978  26.102  30.001  1.00  0.00     0.031 C 
ATOM     51  C   UNL A   1      44.473  30.555  27.735  1.00  0.00     0.029 A 
ATOM     52  N   UNL A   1      43.867  30.421  29.886  1.00  0.00    -0.354 N 
ATOM     53  C   UNL A   1      44.286  26.735  32.082  1.00  0.00     0.074 A 
ATOM     54  C   UNL A   1      44.765  25.668  31.233  1.00  0.00     0.031 C 
ATOM     55  C   UNL A   1      44.073  31.779  28.124  1.00  0.00     0.029 A 
ATOM     56  C   UNL A   1      43.646  31.726  29.522  1.00  0.00     0.049 A 
ATOM     57  H   UNL A   1      43.693  30.077  30.793  1.00  0.00     0.167 HD
ATOM     58  C   UNL A   1      44.036  26.598  33.402  1.00  0.00     0.031 A 
ATOM     59  C   UNL A   1      43.152  32.758  30.234  1.00  0.00     0.031 A 
ATOM     60  C   UNL A   1      43.538  27.648  34.243  1.00  0.00     0.049 A 
ATOM     61  C   UNL A   1      42.767  32.554  31.675  1.00  0.00     0.074 A 
ATOM     62  C   UNL A   1      43.251  27.597  35.595  1.00  0.00     0.029 A 
ATOM     63  N   UNL A   1      43.248  28.931  33.813  1.00  0.00    -0.354 N 
ATOM     64  N   UNL A   1      42.897  31.480  32.416  1.00  0.00    -0.248 NA
ATOM     65  C   UNL A   1      42.167  33.697  32.380  1.00  0.00     0.031 C 
ATOM     66  C   UNL A   1      42.736  28.838  35.972  1.00  0.00     0.029 A 
ATOM     67  C   UNL A   1      42.754  29.675  34.868  1.00  0.00     0.049 A 
ATOM     68  H   UNL A   1      43.374  29.264  32.895  1.00  0.00     0.167 HD
ATOM     69  C   UNL A   1      42.412  31.820  33.673  1.00  0.00     0.074 A 
ATOM     70  C   UNL A   1      41.989  33.202  33.600  1.00  0.00     0.031 C 
ATOM     71  C   UNL A   1      42.332  31.049  34.784  1.00  0.00     0.031 A 
BRANCH  58  72
ATOM     72  C   UNL A   1      44.287  25.255  34.021  1.00  0.00    -0.014 A 
ATOM     73  C   UNL A   1      45.595  24.833  34.306  1.00  0.00     0.009 A 
ATOM     74  C   UNL A   1      43.207  24.438  34.383  1.00  0.00     0.009 A 
ATOM     75  C   UNL A   1      45.816  23.607  34.935  1.00  0.00     0.001 A 
ATOM     76  C   UNL A   1      43.430  23.224  35.034  1.00  0.00     0.001 A 
ATOM     77  C   UNL A   1      44.734  22.809  35.306  1.00  0.00     0.000 A 
ENDBRANCH  58  72
BRANCH  59  78
ATOM     78  C   UNL A   1      43.011  34.084  29.582  1.00  0.00    -0.014 A 
ATOM     79  C   UNL A   1      41.779  34.478  29.041  1.00  0.00     0.009 A 
ATOM     80  C   UNL A   1      44.085  34.989  29.561  1.00  0.00     0.009 A 
ATOM     81  C   UNL A   1      41.622  35.757  28.502  1.00  0.00     0.001 A 
ATOM     82  C   UNL A   1      43.919  36.273  29.037  1.00  0.00     0.001 A 
ATOM     83  C   UNL A   1      42.687  36.657  28.510  1.00  0.00     0.000 A 
ENDBRANCH  59  78
BRANCH  71  84
ATOM     84  C   UNL A   1      41.765  31.649  36.039  1.00  0.00    -0.014 A 
ATOM     85  C   UNL A   1      42.601  32.301  36.956  1.00  0.00     0.009 A 
ATOM     86  C   UNL A   1      40.373  31.731  36.202  1.00  0.00     0.009 A 
ATOM     87  C   UNL A   1      42.051  33.037  38.008  1.00  0.00     0.001 A 
ATOM     88  C   UNL A   1      39.826  32.484  37.243  1.00  0.00     0.001 A 
ATOM     89  C   UNL A   1      40.666  33.139  38.142  1.00  0.00     0.000 A 
ENDBRANCH  71  84
ENDBRANCH  45  46
ENDBRANCH  38  40
ENDBRANCH  37  38
ENDBRANCH  36  37
ENDBRANCH  35  36
ENDBRANCH  34  35
ENDBRANCH   1  34
TORSDOF 18
ENDMDL
MODEL 3
REMARK VINA RESULT:      -8.1      2.168      7.120
REMARK SMILES CC1(C)[C@H](O)CC[C@@]2(C)[C@H]3Cc4c(oc(C(=O)OCCOCCOCCOC(=O)c5ccc(-c6c7nc(c(-c8ccccc8)c8ccc([nH]8)c(-c8ccccc8)c8nc(c(-c9ccccc9)c9ccc6[nH]9)C=C8)C=C7)cc5)cc4=O)O[C@@]3(C)CC[C@@H]12
REMARK SMILES IDX 23 1 22 2 21 3 20 4 19 5 18 6 16 7 17 8 15 9 1 10 2 11 3 12
REMARK SMILES IDX 4 13 86 14 6 15 8 16 85 17 7 18 9 19 10 20 84 21 82 22 11 23
REMARK SMILES IDX 83 24 81 25 12 26 13 27 79 28 14 29 78 30 80 31 5 32 24 34
REMARK SMILES IDX 25 35 26 36 27 37 28 38 29 39 30 40 31 41 77 42 32 43 76 44
REMARK SMILES IDX 33 45 34 46 35 47 70 48 36 49 75 50 69 51 71 52 37 53 74 54
REMARK SMILES IDX 68 55 67 56 38 58 60 59 45 60 59 61 46 62 49 63 58 64 72 65
REMARK SMILES IDX 47 66 48 67 57 69 73 70 50 71 39 72 40 73 44 74 41 75 43 76
REMARK SMILES IDX 42 77 61 78 62 79 66 80 63 81 65 82 64 83 51 84 52 85 56 86
REMARK SMILES IDX 53 87 55 88 54 89
REMARK H PARENT 5 33 71 57 49 68
REMARK Flexibility Score: inf
ROOT
ATOM      1  C   UNL A   1      44.200  22.563  25.177  1.00  0.00     0.188 C 
ENDROOT
BRANCH   1   2
ATOM      2  C   UNL A   1      45.524  22.387  25.949  1.00  0.00     0.188 C 
BRANCH   2   3
ATOM      3  O   UNL A   1      46.349  23.501  26.211  1.00  0.00    -0.376 OA
BRANCH   3   4
ATOM      4  C   UNL A   1      45.954  24.485  27.151  1.00  0.00     0.202 C 
BRANCH   4   5
ATOM      5  C   UNL A   1      46.288  25.977  27.000  1.00  0.00     0.261 C 
BRANCH   5   6
ATOM      6  O   UNL A   1      45.181  26.879  27.117  1.00  0.00    -0.457 OA
BRANCH   6   7
ATOM      7  C   UNL A   1      45.075  27.537  28.304  1.00  0.00     0.374 C 
ATOM      8  O   UNL A   1      45.255  27.054  29.412  1.00  0.00    -0.242 OA
BRANCH   7   9
ATOM      9  C   UNL A   1      44.885  28.995  28.078  1.00  0.00     0.219 A 
ATOM     10  C   UNL A   1      45.541  36.508  27.856  1.00  0.00     0.014 C 
ATOM     11  C   UNL A   1      44.412  37.096  28.732  1.00  0.00    -0.006 C 
ATOM     12  C   UNL A   1      45.160  37.956  29.788  1.00  0.00     0.014 C 
ATOM     13  C   UNL A   1      43.502  38.012  27.857  1.00  0.00     0.120 C 
ATOM     14  C   UNL A   1      43.438  36.056  29.434  1.00  0.00     0.004 C 
ATOM     15  C   UNL A   1      42.637  37.243  26.844  1.00  0.00     0.033 C 
ATOM     16  C   UNL A   1      42.560  35.177  28.454  1.00  0.00    -0.022 C 
ATOM     17  C   UNL A   1      43.977  35.363  30.711  1.00  0.00     0.009 C 
ATOM     18  C   UNL A   1      42.646  35.711  26.987  1.00  0.00     0.010 C 
ATOM     19  C   UNL A   1      41.045  35.376  28.795  1.00  0.00     0.012 C 
ATOM     20  C   UNL A   1      42.876  33.619  28.553  1.00  0.00     0.044 C 
ATOM     21  C   UNL A   1      44.255  33.872  30.653  1.00  0.00     0.049 C 
ATOM     22  C   UNL A   1      43.120  33.079  29.999  1.00  0.00     0.113 C 
ATOM     23  C   UNL A   1      44.066  33.176  27.663  1.00  0.00     0.055 C 
ATOM     24  C   UNL A   1      41.874  33.099  30.903  1.00  0.00     0.057 C 
ATOM     25  O   UNL A   1      43.465  31.674  30.035  1.00  0.00    -0.458 OA
ATOM     26  C   UNL A   1      44.413  31.738  27.866  1.00  0.00     0.081 A 
ATOM     27  C   UNL A   1      44.071  31.064  28.969  1.00  0.00     0.292 A 
ATOM     28  C   UNL A   1      45.113  31.015  26.782  1.00  0.00     0.192 A 
ATOM     29  O   UNL A   1      44.292  29.704  29.108  1.00  0.00    -0.418 OA
ATOM     30  C   UNL A   1      45.311  29.567  26.946  1.00  0.00     0.107 A 
ATOM     31  O   UNL A   1      45.520  31.584  25.777  1.00  0.00    -0.289 OA
BRANCH  13  32
ATOM     32  O   UNL A   1      42.589  38.762  28.674  1.00  0.00    -0.393 OA
ATOM     33  H   UNL A   1      42.658  39.705  28.454  1.00  0.00     0.210 HD
ENDBRANCH  13  32
ENDBRANCH   7   9
ENDBRANCH   6   7
ENDBRANCH   5   6
ENDBRANCH   4   5
ENDBRANCH   3   4
ENDBRANCH   2   3
ENDBRANCH   1   2
BRANCH   1  34
ATOM     34  O   UNL A   1      43.199  21.575  25.255  1.00  0.00    -0.376 OA
BRANCH  34  35
ATOM     35  C   UNL A   1      42.027  21.821  26.018  1.00  0.00     0.202 C 
BRANCH  35  36
ATOM     36  C   UNL A   1      41.807  23.067  26.895  1.00  0.00     0.261 C 
BRANCH  36  37
ATOM     37  O   UNL A   1      40.874  24.042  26.412  1.00  0.00    -0.460 OA
BRANCH  37  38
ATOM     38  C   UNL A   1      41.412  25.221  26.015  1.00  0.00     0.338 C 
ATOM     39  O   UNL A   1      42.043  25.451  24.991  1.00  0.00    -0.246 OA
BRANCH  38  40
ATOM     40  C   UNL A   1      40.982  26.274  26.945  1.00  0.00     0.060 A 
ATOM     41  C   UNL A   1      41.569  27.545  26.858  1.00  0.00     0.016 A 
ATOM     42  C   UNL A   1      40.021  25.996  27.915  1.00  0.00     0.016 A 
ATOM     43  C   UNL A   1      41.172  28.556  27.729  1.00  0.00     0.010 A 
ATOM     44  C   UNL A   1      39.660  26.995  28.821  1.00  0.00     0.010 A 
ATOM     45  C   UNL A   1      40.247  28.271  28.740  1.00  0.00    -0.014 A 
BRANCH  45  46
ATOM     46  C   UNL A   1      40.069  29.240  29.842  1.00  0.00     0.031 A 
ATOM     47  C   UNL A   1      41.012  29.161  31.006  1.00  0.00     0.074 A 
ATOM     48  C   UNL A   1      39.123  30.193  29.796  1.00  0.00     0.049 A 
ATOM     49  N   UNL A   1      41.062  29.904  32.080  1.00  0.00    -0.248 NA
ATOM     50  C   UNL A   1      42.044  28.110  30.947  1.00  0.00     0.031 C 
ATOM     51  C   UNL A   1      38.192  30.410  28.693  1.00  0.00     0.029 A 
ATOM     52  N   UNL A   1      38.802  31.165  30.711  1.00  0.00    -0.354 N 
ATOM     53  C   UNL A   1      42.134  29.419  32.816  1.00  0.00     0.074 A 
ATOM     54  C   UNL A   1      42.687  28.298  32.090  1.00  0.00     0.031 C 
ATOM     55  C   UNL A   1      37.401  31.456  28.995  1.00  0.00     0.029 A 
ATOM     56  C   UNL A   1      37.756  31.963  30.320  1.00  0.00     0.049 A 
ATOM     57  H   UNL A   1      39.276  31.278  31.567  1.00  0.00     0.167 HD
ATOM     58  C   UNL A   1      42.624  29.877  33.988  1.00  0.00     0.031 A 
ATOM     59  C   UNL A   1      37.151  32.982  30.961  1.00  0.00     0.031 A 
ATOM     60  C   UNL A   1      42.064  30.974  34.723  1.00  0.00     0.049 A 
ATOM     61  C   UNL A   1      37.638  33.403  32.322  1.00  0.00     0.074 A 
ATOM     62  C   UNL A   1      42.494  31.505  35.926  1.00  0.00     0.029 A 
ATOM     63  N   UNL A   1      40.952  31.699  34.332  1.00  0.00    -0.354 N 
ATOM     64  N   UNL A   1      38.659  32.946  33.006  1.00  0.00    -0.248 NA
ATOM     65  C   UNL A   1      36.894  34.474  33.003  1.00  0.00     0.031 C 
ATOM     66  C   UNL A   1      41.609  32.521  36.288  1.00  0.00     0.029 A 
ATOM     67  C   UNL A   1      40.662  32.656  35.285  1.00  0.00     0.049 A 
ATOM     68  H   UNL A   1      40.446  31.556  33.500  1.00  0.00     0.167 HD
ATOM     69  C   UNL A   1      38.691  33.681  34.184  1.00  0.00     0.074 A 
ATOM     70  C   UNL A   1      37.589  34.619  34.125  1.00  0.00     0.031 C 
ATOM     71  C   UNL A   1      39.561  33.583  35.218  1.00  0.00     0.031 A 
BRANCH  58  72
ATOM     72  C   UNL A   1      43.826  29.184  34.556  1.00  0.00    -0.014 A 
ATOM     73  C   UNL A   1      43.680  28.070  35.396  1.00  0.00     0.009 A 
ATOM     74  C   UNL A   1      45.114  29.606  34.194  1.00  0.00     0.009 A 
ATOM     75  C   UNL A   1      44.805  27.396  35.873  1.00  0.00     0.001 A 
ATOM     76  C   UNL A   1      46.236  28.916  34.653  1.00  0.00     0.001 A 
ATOM     77  C   UNL A   1      46.080  27.814  35.494  1.00  0.00     0.000 A 
ENDBRANCH  58  72
BRANCH  59  78
ATOM     78  C   UNL A   1      36.020  33.681  30.300  1.00  0.00    -0.014 A 
ATOM     79  C   UNL A   1      36.177  34.223  29.016  1.00  0.00     0.009 A 
ATOM     80  C   UNL A   1      34.760  33.747  30.918  1.00  0.00     0.009 A 
ATOM     81  C   UNL A   1      35.092  34.807  28.359  1.00  0.00     0.001 A 
ATOM     82  C   UNL A   1      33.673  34.315  30.250  1.00  0.00     0.001 A 
ATOM     83  C   UNL A   1      33.839  34.843  28.971  1.00  0.00     0.000 A 
ENDBRANCH  59  78
BRANCH  71  84
ATOM     84  C   UNL A   1      39.388  34.498  36.396  1.00  0.00    -0.014 A 
ATOM     85  C   UNL A   1      38.740  34.050  37.555  1.00  0.00     0.009 A 
ATOM     86  C   UNL A   1      40.045  35.739  36.414  1.00  0.00     0.009 A 
ATOM     87  C   UNL A   1      38.765  34.823  38.718  1.00  0.00     0.001 A 
ATOM     88  C   UNL A   1      40.086  36.500  37.584  1.00  0.00     0.001 A 
ATOM     89  C   UNL A   1      39.449  36.040  38.736  1.00  0.00     0.000 A 
ENDBRANCH  71  84
ENDBRANCH  45  46
ENDBRANCH  38  40
ENDBRANCH  37  38
ENDBRANCH  36  37
ENDBRANCH  35  36
ENDBRANCH  34  35
ENDBRANCH   1  34
TORSDOF 18
ENDMDL
