MODEL 1
REMARK VINA RESULT:      -9.8      0.000      0.000
REMARK SMILES CS(=O)(=O)N1CCC[C@@H]1C(=O)N1CCC[C@@H]1C(=O)OCCOCCOCCOC(=O)c1ccc(-c2c3nc(c(-c4ccccc4)c4ccc([nH]4)c(-c4ccccc4)c4nc(c(-c5ccccc5)c5ccc2[nH]5)C=C4)C=C3)cc1
REMARK SMILES IDX 23 1 22 2 21 3 20 4 19 5 17 6 18 7 16 8 12 9 13 10 14 11
REMARK SMILES IDX 15 12 10 13 11 14 9 15 5 16 6 17 7 18 8 19 2 20 1 21 3 22
REMARK SMILES IDX 4 23 24 24 25 25 26 26 27 27 28 28 29 29 30 30 31 31 32 32
REMARK SMILES IDX 78 33 33 34 77 35 34 36 35 37 36 38 71 39 37 40 76 41 70 42
REMARK SMILES IDX 72 43 38 44 75 45 69 46 68 47 39 49 61 50 46 51 60 52 47 53
REMARK SMILES IDX 50 54 59 55 73 56 48 57 49 58 58 60 74 61 51 62 40 63 41 64
REMARK SMILES IDX 45 65 42 66 44 67 43 68 62 69 63 70 67 71 64 72 66 73 65 74
REMARK SMILES IDX 52 75 53 76 57 77 54 78 56 79 55 80
REMARK H PARENT 72 48 50 59
REMARK Flexibility Score: inf
ROOT
ATOM      1  C   UNL A   1      35.029  33.327  28.333  1.00  0.00     0.188 C 
ENDROOT
BRANCH   1   2
ATOM      2  O   UNL A   1      34.450  32.064  28.615  1.00  0.00    -0.376 OA
BRANCH   2   3
ATOM      3  C   UNL A   1      33.387  31.644  27.768  1.00  0.00     0.202 C 
BRANCH   3   4
ATOM      4  C   UNL A   1      33.585  30.433  26.842  1.00  0.00     0.261 C 
BRANCH   4   5
ATOM      5  O   UNL A   1      32.389  29.713  26.428  1.00  0.00    -0.462 OA
BRANCH   5   6
ATOM      6  C   UNL A   1      32.287  29.382  25.107  1.00  0.00     0.328 C 
ATOM      7  O   UNL A   1      33.204  29.551  24.304  1.00  0.00    -0.250 OA
BRANCH   6   8
ATOM      8  C   UNL A   1      30.920  28.772  24.659  1.00  0.00     0.195 C 
ATOM      9  N   UNL A   1      30.893  27.352  24.302  1.00  0.00    -0.327 N 
ATOM     10  C   UNL A   1      29.637  27.087  23.633  1.00  0.00     0.120 C 
ATOM     11  C   UNL A   1      29.437  28.289  22.742  1.00  0.00     0.024 C 
ATOM     12  C   UNL A   1      30.181  29.418  23.465  1.00  0.00     0.039 C 
BRANCH   9  13
ATOM     13  C   UNL A   1      31.607  26.416  25.009  1.00  0.00     0.241 C 
ATOM     14  O   UNL A   1      31.077  25.783  25.925  1.00  0.00    -0.273 OA
BRANCH  13  15
ATOM     15  C   UNL A   1      33.102  26.206  24.671  1.00  0.00     0.162 C 
ATOM     16  N   UNL A   1      33.579  25.185  23.643  1.00  0.00    -0.190 NA
ATOM     17  C   UNL A   1      34.700  24.437  24.214  1.00  0.00     0.103 C 
ATOM     18  C   UNL A   1      34.500  24.531  25.705  1.00  0.00     0.019 C 
ATOM     19  C   UNL A   1      33.981  25.948  25.897  1.00  0.00     0.032 C 
BRANCH  16  20
ATOM     20  S   UNL A   1      32.414  24.405  22.758  1.00  0.00     0.211 S 
ATOM     21  C   UNL A   1      33.160  23.050  21.891  1.00  0.00     0.176 C 
ATOM     22  O   UNL A   1      32.014  25.382  21.768  1.00  0.00    -0.212 OA
ATOM     23  O   UNL A   1      31.495  23.784  23.680  1.00  0.00    -0.212 OA
ENDBRANCH  16  20
ENDBRANCH  13  15
ENDBRANCH   9  13
ENDBRANCH   6   8
ENDBRANCH   5   6
ENDBRANCH   4   5
ENDBRANCH   3   4
ENDBRANCH   2   3
ENDBRANCH   1   2
BRANCH   1  24
ATOM     24  C   UNL A   1      34.237  34.573  28.758  1.00  0.00     0.188 C 
BRANCH  24  25
ATOM     25  O   UNL A   1      33.483  34.431  29.940  1.00  0.00    -0.376 OA
BRANCH  25  26
ATOM     26  C   UNL A   1      34.052  34.886  31.157  1.00  0.00     0.202 C 
BRANCH  26  27
ATOM     27  C   UNL A   1      34.185  33.966  32.390  1.00  0.00     0.261 C 
BRANCH  27  28
ATOM     28  O   UNL A   1      34.956  32.760  32.253  1.00  0.00    -0.460 OA
BRANCH  28  29
ATOM     29  C   UNL A   1      36.011  32.571  33.082  1.00  0.00     0.338 C 
ATOM     30  O   UNL A   1      36.031  32.729  34.289  1.00  0.00    -0.246 OA
BRANCH  29  31
ATOM     31  C   UNL A   1      37.049  31.839  32.303  1.00  0.00     0.060 A 
ATOM     32  C   UNL A   1      38.056  31.143  32.997  1.00  0.00     0.016 A 
ATOM     33  C   UNL A   1      36.963  31.737  30.914  1.00  0.00     0.016 A 
ATOM     34  C   UNL A   1      38.980  30.357  32.305  1.00  0.00     0.010 A 
ATOM     35  C   UNL A   1      37.914  30.982  30.218  1.00  0.00     0.010 A 
ATOM     36  C   UNL A   1      38.942  30.311  30.906  1.00  0.00    -0.014 A 
BRANCH  36  37
ATOM     37  C   UNL A   1      40.107  29.784  30.152  1.00  0.00     0.031 A 
ATOM     38  C   UNL A   1      41.254  30.726  29.902  1.00  0.00     0.074 A 
ATOM     39  C   UNL A   1      40.166  28.518  29.700  1.00  0.00     0.049 A 
ATOM     40  N   UNL A   1      42.344  30.548  29.202  1.00  0.00    -0.248 NA
ATOM     41  C   UNL A   1      41.150  32.057  30.527  1.00  0.00     0.031 C 
ATOM     42  C   UNL A   1      39.158  27.484  29.922  1.00  0.00     0.029 A 
ATOM     43  N   UNL A   1      41.127  27.894  28.941  1.00  0.00    -0.354 N 
ATOM     44  C   UNL A   1      43.044  31.745  29.288  1.00  0.00     0.074 A 
ATOM     45  C   UNL A   1      42.250  32.649  30.088  1.00  0.00     0.031 C 
ATOM     46  C   UNL A   1      39.545  26.357  29.296  1.00  0.00     0.029 A 
ATOM     47  C   UNL A   1      40.807  26.602  28.598  1.00  0.00     0.049 A 
ATOM     48  H   UNL A   1      41.967  28.331  28.670  1.00  0.00     0.167 HD
ATOM     49  C   UNL A   1      44.243  32.066  28.750  1.00  0.00     0.031 A 
ATOM     50  C   UNL A   1      41.445  25.733  27.787  1.00  0.00     0.031 A 
ATOM     51  C   UNL A   1      45.028  31.176  27.941  1.00  0.00     0.049 A 
ATOM     52  C   UNL A   1      42.735  26.147  27.123  1.00  0.00     0.074 A 
ATOM     53  C   UNL A   1      46.263  31.406  27.360  1.00  0.00     0.029 A 
ATOM     54  N   UNL A   1      44.649  29.890  27.587  1.00  0.00    -0.354 N 
ATOM     55  N   UNL A   1      43.402  27.272  27.231  1.00  0.00    -0.248 NA
ATOM     56  C   UNL A   1      43.365  25.165  26.225  1.00  0.00     0.031 C 
ATOM     57  C   UNL A   1      46.601  30.283  26.599  1.00  0.00     0.029 A 
ATOM     58  C   UNL A   1      45.613  29.327  26.769  1.00  0.00     0.049 A 
ATOM     59  H   UNL A   1      43.820  29.446  27.875  1.00  0.00     0.167 HD
ATOM     60  C   UNL A   1      44.542  27.117  26.448  1.00  0.00     0.074 A 
ATOM     61  C   UNL A   1      44.485  25.786  25.883  1.00  0.00     0.031 C 
ATOM     62  C   UNL A   1      45.547  27.998  26.218  1.00  0.00     0.031 A 
BRANCH  49  63
ATOM     63  C   UNL A   1      44.758  33.457  28.984  1.00  0.00    -0.014 A 
ATOM     64  C   UNL A   1      45.594  33.757  30.070  1.00  0.00     0.009 A 
ATOM     65  C   UNL A   1      44.431  34.477  28.075  1.00  0.00     0.009 A 
ATOM     66  C   UNL A   1      46.070  35.057  30.256  1.00  0.00     0.001 A 
ATOM     67  C   UNL A   1      44.934  35.767  28.247  1.00  0.00     0.001 A 
ATOM     68  C   UNL A   1      45.746  36.059  29.341  1.00  0.00     0.000 A 
ENDBRANCH  49  63
BRANCH  50  69
ATOM     69  C   UNL A   1      40.864  24.389  27.513  1.00  0.00    -0.014 A 
ATOM     70  C   UNL A   1      41.425  23.232  28.079  1.00  0.00     0.009 A 
ATOM     71  C   UNL A   1      39.776  24.249  26.636  1.00  0.00     0.009 A 
ATOM     72  C   UNL A   1      40.931  21.967  27.747  1.00  0.00     0.001 A 
ATOM     73  C   UNL A   1      39.262  22.986  26.333  1.00  0.00     0.001 A 
ATOM     74  C   UNL A   1      39.848  21.846  26.877  1.00  0.00     0.000 A 
ENDBRANCH  50  69
BRANCH  62  75
ATOM     75  C   UNL A   1      46.696  27.537  25.362  1.00  0.00    -0.014 A 
ATOM     76  C   UNL A   1      46.788  27.882  24.005  1.00  0.00     0.009 A 
ATOM     77  C   UNL A   1      47.733  26.787  25.943  1.00  0.00     0.009 A 
ATOM     78  C   UNL A   1      47.874  27.452  23.238  1.00  0.00     0.001 A 
ATOM     79  C   UNL A   1      48.833  26.388  25.183  1.00  0.00     0.001 A 
ATOM     80  C   UNL A   1      48.898  26.711  23.830  1.00  0.00     0.000 A 
ENDBRANCH  62  75
ENDBRANCH  36  37
ENDBRANCH  29  31
ENDBRANCH  28  29
ENDBRANCH  27  28
ENDBRANCH  26  27
ENDBRANCH  25  26
ENDBRANCH  24  25
ENDBRANCH   1  24
TORSDOF 20
ENDMDL
MODEL 2
REMARK VINA RESULT:      -9.4      3.136      8.482
REMARK SMILES CS(=O)(=O)N1CCC[C@@H]1C(=O)N1CCC[C@@H]1C(=O)OCCOCCOCCOC(=O)c1ccc(-c2c3nc(c(-c4ccccc4)c4ccc([nH]4)c(-c4ccccc4)c4nc(c(-c5ccccc5)c5ccc2[nH]5)C=C4)C=C3)cc1
REMARK SMILES IDX 23 1 22 2 21 3 20 4 19 5 17 6 18 7 16 8 12 9 13 10 14 11
REMARK SMILES IDX 15 12 10 13 11 14 9 15 5 16 6 17 7 18 8 19 2 20 1 21 3 22
REMARK SMILES IDX 4 23 24 24 25 25 26 26 27 27 28 28 29 29 30 30 31 31 32 32
REMARK SMILES IDX 78 33 33 34 77 35 34 36 35 37 36 38 71 39 37 40 76 41 70 42
REMARK SMILES IDX 72 43 38 44 75 45 69 46 68 47 39 49 61 50 46 51 60 52 47 53
REMARK SMILES IDX 50 54 59 55 73 56 48 57 49 58 58 60 74 61 51 62 40 63 41 64
REMARK SMILES IDX 45 65 42 66 44 67 43 68 62 69 63 70 67 71 64 72 66 73 65 74
REMARK SMILES IDX 52 75 53 76 57 77 54 78 56 79 55 80
REMARK H PARENT 72 48 50 59
REMARK Flexibility Score: inf
ROOT
ATOM      1  C   UNL A   1      37.893  23.481  25.739  1.00  0.00     0.188 C 
ENDROOT
BRANCH   1   2
ATOM      2  O   UNL A   1      36.690  23.694  26.458  1.00  0.00    -0.376 OA
BRANCH   2   3
ATOM      3  C   UNL A   1      35.475  23.520  25.737  1.00  0.00     0.202 C 
BRANCH   3   4
ATOM      4  C   UNL A   1      35.481  23.613  24.202  1.00  0.00     0.261 C 
BRANCH   4   5
ATOM      5  O   UNL A   1      34.778  22.568  23.472  1.00  0.00    -0.462 OA
BRANCH   5   6
ATOM      6  C   UNL A   1      33.641  22.930  22.808  1.00  0.00     0.328 C 
ATOM      7  O   UNL A   1      33.646  23.335  21.647  1.00  0.00    -0.250 OA
BRANCH   6   8
ATOM      8  C   UNL A   1      32.309  22.802  23.617  1.00  0.00     0.195 C 
ATOM      9  N   UNL A   1      31.814  23.996  24.304  1.00  0.00    -0.327 N 
ATOM     10  C   UNL A   1      30.775  23.581  25.222  1.00  0.00     0.120 C 
ATOM     11  C   UNL A   1      31.307  22.300  25.819  1.00  0.00     0.024 C 
ATOM     12  C   UNL A   1      32.223  21.732  24.730  1.00  0.00     0.039 C 
BRANCH   9  13
ATOM     13  C   UNL A   1      31.888  25.243  23.731  1.00  0.00     0.241 C 
ATOM     14  O   UNL A   1      31.020  25.623  22.943  1.00  0.00    -0.273 OA
BRANCH  13  15
ATOM     15  C   UNL A   1      33.107  26.140  24.051  1.00  0.00     0.162 C 
ATOM     16  N   UNL A   1      33.039  27.302  25.036  1.00  0.00    -0.190 NA
ATOM     17  C   UNL A   1      33.688  28.466  24.430  1.00  0.00     0.103 C 
ATOM     18  C   UNL A   1      33.574  28.234  22.944  1.00  0.00     0.019 C 
ATOM     19  C   UNL A   1      33.779  26.733  22.810  1.00  0.00     0.032 C 
BRANCH  16  20
ATOM     20  S   UNL A   1      31.634  27.479  25.898  1.00  0.00     0.211 S 
ATOM     21  C   UNL A   1      31.773  28.907  26.939  1.00  0.00     0.176 C 
ATOM     22  O   UNL A   1      31.606  26.318  26.761  1.00  0.00    -0.212 OA
ATOM     23  O   UNL A   1      30.581  27.807  24.970  1.00  0.00    -0.212 OA
ENDBRANCH  16  20
ENDBRANCH  13  15
ENDBRANCH   9  13
ENDBRANCH   6   8
ENDBRANCH   5   6
ENDBRANCH   4   5
ENDBRANCH   3   4
ENDBRANCH   2   3
ENDBRANCH   1   2
BRANCH   1  24
ATOM     24  C   UNL A   1      38.519  22.081  25.818  1.00  0.00     0.188 C 
BRANCH  24  25
ATOM     25  O   UNL A   1      37.834  21.075  25.108  1.00  0.00    -0.376 OA
BRANCH  25  26
ATOM     26  C   UNL A   1      38.439  19.796  25.004  1.00  0.00     0.202 C 
BRANCH  26  27
ATOM     27  C   UNL A   1      39.576  19.352  25.950  1.00  0.00     0.261 C 
BRANCH  27  28
ATOM     28  O   UNL A   1      40.827  18.956  25.361  1.00  0.00    -0.460 OA
BRANCH  28  29
ATOM     29  C   UNL A   1      41.921  18.883  26.158  1.00  0.00     0.338 C 
ATOM     30  O   UNL A   1      42.569  17.886  26.420  1.00  0.00    -0.246 OA
BRANCH  29  31
ATOM     31  C   UNL A   1      42.371  20.281  26.406  1.00  0.00     0.060 A 
ATOM     32  C   UNL A   1      42.246  20.817  27.700  1.00  0.00     0.016 A 
ATOM     33  C   UNL A   1      43.020  21.013  25.410  1.00  0.00     0.016 A 
ATOM     34  C   UNL A   1      42.757  22.083  27.996  1.00  0.00     0.010 A 
ATOM     35  C   UNL A   1      43.495  22.297  25.696  1.00  0.00     0.010 A 
ATOM     36  C   UNL A   1      43.342  22.849  26.982  1.00  0.00    -0.014 A 
BRANCH  36  37
ATOM     37  C   UNL A   1      43.562  24.303  27.186  1.00  0.00     0.031 A 
ATOM     38  C   UNL A   1      44.966  24.820  27.030  1.00  0.00     0.074 A 
ATOM     39  C   UNL A   1      42.563  25.151  27.495  1.00  0.00     0.049 A 
ATOM     40  N   UNL A   1      45.442  26.021  27.236  1.00  0.00    -0.248 NA
ATOM     41  C   UNL A   1      45.974  23.842  26.583  1.00  0.00     0.031 C 
ATOM     42  C   UNL A   1      41.151  24.798  27.617  1.00  0.00     0.029 A 
ATOM     43  N   UNL A   1      42.601  26.495  27.776  1.00  0.00    -0.354 N 
ATOM     44  C   UNL A   1      46.802  25.937  26.961  1.00  0.00     0.074 A 
ATOM     45  C   UNL A   1      47.081  24.567  26.596  1.00  0.00     0.031 C 
ATOM     46  C   UNL A   1      40.457  25.897  27.967  1.00  0.00     0.029 A 
ATOM     47  C   UNL A   1      41.380  27.019  28.133  1.00  0.00     0.049 A 
ATOM     48  H   UNL A   1      43.423  27.033  27.727  1.00  0.00     0.167 HD
ATOM     49  C   UNL A   1      47.737  26.912  27.008  1.00  0.00     0.031 A 
ATOM     50  C   UNL A   1      41.057  28.253  28.571  1.00  0.00     0.031 A 
ATOM     51  C   UNL A   1      47.467  28.272  27.387  1.00  0.00     0.049 A 
ATOM     52  C   UNL A   1      42.136  29.300  28.705  1.00  0.00     0.074 A 
ATOM     53  C   UNL A   1      48.347  29.337  27.454  1.00  0.00     0.029 A 
ATOM     54  N   UNL A   1      46.225  28.750  27.776  1.00  0.00    -0.354 N 
ATOM     55  N   UNL A   1      43.413  29.218  28.419  1.00  0.00    -0.248 NA
ATOM     56  C   UNL A   1      41.723  30.616  29.220  1.00  0.00     0.031 C 
ATOM     57  C   UNL A   1      47.653  30.445  27.948  1.00  0.00     0.029 A 
ATOM     58  C   UNL A   1      46.324  30.088  28.115  1.00  0.00     0.049 A 
ATOM     59  H   UNL A   1      45.398  28.218  27.806  1.00  0.00     0.167 HD
ATOM     60  C   UNL A   1      43.946  30.476  28.683  1.00  0.00     0.074 A 
ATOM     61  C   UNL A   1      42.851  31.307  29.137  1.00  0.00     0.031 C 
ATOM     62  C   UNL A   1      45.226  30.906  28.559  1.00  0.00     0.031 A 
BRANCH  49  63
ATOM     63  C   UNL A   1      49.153  26.532  26.684  1.00  0.00    -0.014 A 
ATOM     64  C   UNL A   1      50.009  25.992  27.656  1.00  0.00     0.009 A 
ATOM     65  C   UNL A   1      49.625  26.681  25.370  1.00  0.00     0.009 A 
ATOM     66  C   UNL A   1      51.318  25.634  27.324  1.00  0.00     0.001 A 
ATOM     67  C   UNL A   1      50.923  26.292  25.034  1.00  0.00     0.001 A 
ATOM     68  C   UNL A   1      51.771  25.777  26.012  1.00  0.00     0.000 A 
ENDBRANCH  49  63
BRANCH  50  69
ATOM     69  C   UNL A   1      39.656  28.573  28.961  1.00  0.00    -0.014 A 
ATOM     70  C   UNL A   1      38.758  29.128  28.034  1.00  0.00     0.009 A 
ATOM     71  C   UNL A   1      39.223  28.377  30.283  1.00  0.00     0.009 A 
ATOM     72  C   UNL A   1      37.472  29.509  28.431  1.00  0.00     0.001 A 
ATOM     73  C   UNL A   1      37.926  28.727  30.668  1.00  0.00     0.001 A 
ATOM     74  C   UNL A   1      37.057  29.305  29.746  1.00  0.00     0.000 A 
ENDBRANCH  50  69
BRANCH  62  75
ATOM     75  C   UNL A   1      45.509  32.352  28.867  1.00  0.00    -0.014 A 
ATOM     76  C   UNL A   1      45.533  32.834  30.184  1.00  0.00     0.009 A 
ATOM     77  C   UNL A   1      45.809  33.236  27.817  1.00  0.00     0.009 A 
ATOM     78  C   UNL A   1      45.813  34.179  30.441  1.00  0.00     0.001 A 
ATOM     79  C   UNL A   1      46.123  34.570  28.078  1.00  0.00     0.001 A 
ATOM     80  C   UNL A   1      46.114  35.043  29.388  1.00  0.00     0.000 A 
ENDBRANCH  62  75
ENDBRANCH  36  37
ENDBRANCH  29  31
ENDBRANCH  28  29
ENDBRANCH  27  28
ENDBRANCH  26  27
ENDBRANCH  25  26
ENDBRANCH  24  25
ENDBRANCH   1  24
TORSDOF 20
ENDMDL
MODEL 3
REMARK VINA RESULT:      -9.4      4.253      6.701
REMARK SMILES CS(=O)(=O)N1CCC[C@@H]1C(=O)N1CCC[C@@H]1C(=O)OCCOCCOCCOC(=O)c1ccc(-c2c3nc(c(-c4ccccc4)c4ccc([nH]4)c(-c4ccccc4)c4nc(c(-c5ccccc5)c5ccc2[nH]5)C=C4)C=C3)cc1
REMARK SMILES IDX 23 1 22 2 21 3 20 4 19 5 17 6 18 7 16 8 12 9 13 10 14 11
REMARK SMILES IDX 15 12 10 13 11 14 9 15 5 16 6 17 7 18 8 19 2 20 1 21 3 22
REMARK SMILES IDX 4 23 24 24 25 25 26 26 27 27 28 28 29 29 30 30 31 31 32 32
REMARK SMILES IDX 78 33 33 34 77 35 34 36 35 37 36 38 71 39 37 40 76 41 70 42
REMARK SMILES IDX 72 43 38 44 75 45 69 46 68 47 39 49 61 50 46 51 60 52 47 53
REMARK SMILES IDX 50 54 59 55 73 56 48 57 49 58 58 60 74 61 51 62 40 63 41 64
REMARK SMILES IDX 45 65 42 66 44 67 43 68 62 69 63 70 67 71 64 72 66 73 65 74
REMARK SMILES IDX 52 75 53 76 57 77 54 78 56 79 55 80
REMARK H PARENT 72 48 50 59
REMARK Flexibility Score: inf
ROOT
ATOM      1  C   UNL A   1      34.820  31.588  28.127  1.00  0.00     0.188 C 
ENDROOT
BRANCH   1   2
ATOM      2  O   UNL A   1      33.583  31.148  27.593  1.00  0.00    -0.376 OA
BRANCH   2   3
ATOM      3  C   UNL A   1      33.561  29.845  27.020  1.00  0.00     0.202 C 
BRANCH   3   4
ATOM      4  C   UNL A   1      32.532  29.512  25.927  1.00  0.00     0.261 C 
BRANCH   4   5
ATOM      5  O   UNL A   1      33.022  29.429  24.559  1.00  0.00    -0.462 OA
BRANCH   5   6
ATOM      6  C   UNL A   1      32.381  28.566  23.718  1.00  0.00     0.328 C 
ATOM      7  O   UNL A   1      32.795  28.299  22.591  1.00  0.00    -0.250 OA
BRANCH   6   8
ATOM      8  C   UNL A   1      31.067  27.925  24.272  1.00  0.00     0.195 C 
ATOM      9  N   UNL A   1      31.017  26.465  24.382  1.00  0.00    -0.327 N 
ATOM     10  C   UNL A   1      29.638  26.085  24.607  1.00  0.00     0.120 C 
ATOM     11  C   UNL A   1      28.855  26.991  23.687  1.00  0.00     0.024 C 
ATOM     12  C   UNL A   1      29.735  28.239  23.554  1.00  0.00     0.039 C 
BRANCH   9  13
ATOM     13  C   UNL A   1      32.100  25.734  24.804  1.00  0.00     0.241 C 
ATOM     14  O   UNL A   1      32.531  25.858  25.952  1.00  0.00    -0.273 OA
BRANCH  13  15
ATOM     15  C   UNL A   1      32.802  24.792  23.798  1.00  0.00     0.162 C 
ATOM     16  N   UNL A   1      32.903  23.286  24.012  1.00  0.00    -0.190 NA
ATOM     17  C   UNL A   1      34.277  22.865  23.734  1.00  0.00     0.103 C 
ATOM     18  C   UNL A   1      35.108  24.100  23.975  1.00  0.00     0.019 C 
ATOM     19  C   UNL A   1      34.228  25.220  23.444  1.00  0.00     0.032 C 
BRANCH  16  20
ATOM     20  S   UNL A   1      32.076  22.650  25.301  1.00  0.00     0.211 S 
ATOM     21  C   UNL A   1      32.118  20.880  25.197  1.00  0.00     0.176 C 
ATOM     22  O   UNL A   1      30.707  23.062  25.075  1.00  0.00    -0.212 OA
ATOM     23  O   UNL A   1      32.813  22.961  26.501  1.00  0.00    -0.212 OA
ENDBRANCH  16  20
ENDBRANCH  13  15
ENDBRANCH   9  13
ENDBRANCH   6   8
ENDBRANCH   5   6
ENDBRANCH   4   5
ENDBRANCH   3   4
ENDBRANCH   2   3
ENDBRANCH   1   2
BRANCH   1  24
ATOM     24  C   UNL A   1      34.839  32.960  28.815  1.00  0.00     0.188 C 
BRANCH  24  25
ATOM     25  O   UNL A   1      33.775  33.819  28.475  1.00  0.00    -0.376 OA
BRANCH  25  26
ATOM     26  C   UNL A   1      33.918  35.204  28.743  1.00  0.00     0.202 C 
BRANCH  26  27
ATOM     27  C   UNL A   1      32.941  35.962  29.668  1.00  0.00     0.261 C 
BRANCH  27  28
ATOM     28  O   UNL A   1      32.410  35.263  30.807  1.00  0.00    -0.460 OA
BRANCH  28  29
ATOM     29  C   UNL A   1      32.725  35.714  32.045  1.00  0.00     0.338 C 
ATOM     30  O   UNL A   1      32.042  36.422  32.762  1.00  0.00    -0.246 OA
BRANCH  29  31
ATOM     31  C   UNL A   1      33.914  34.939  32.499  1.00  0.00     0.060 A 
ATOM     32  C   UNL A   1      35.177  35.559  32.483  1.00  0.00     0.016 A 
ATOM     33  C   UNL A   1      33.773  33.663  33.047  1.00  0.00     0.016 A 
ATOM     34  C   UNL A   1      36.296  34.904  33.004  1.00  0.00     0.010 A 
ATOM     35  C   UNL A   1      34.901  32.991  33.530  1.00  0.00     0.010 A 
ATOM     36  C   UNL A   1      36.171  33.596  33.486  1.00  0.00    -0.014 A 
BRANCH  36  37
ATOM     37  C   UNL A   1      37.385  32.769  33.705  1.00  0.00     0.031 A 
ATOM     38  C   UNL A   1      38.158  32.997  34.976  1.00  0.00     0.074 A 
ATOM     39  C   UNL A   1      37.799  31.843  32.822  1.00  0.00     0.049 A 
ATOM     40  N   UNL A   1      39.291  32.475  35.368  1.00  0.00    -0.248 NA
ATOM     41  C   UNL A   1      37.570  33.951  35.933  1.00  0.00     0.031 C 
ATOM     42  C   UNL A   1      37.116  31.476  31.584  1.00  0.00     0.029 A 
ATOM     43  N   UNL A   1      38.919  31.045  32.838  1.00  0.00    -0.354 N 
ATOM     44  C   UNL A   1      39.558  33.049  36.606  1.00  0.00     0.074 A 
ATOM     45  C   UNL A   1      38.484  33.973  36.889  1.00  0.00     0.031 C 
ATOM     46  C   UNL A   1      37.841  30.537  30.948  1.00  0.00     0.029 A 
ATOM     47  C   UNL A   1      39.058  30.267  31.713  1.00  0.00     0.049 A 
ATOM     48  H   UNL A   1      39.561  31.033  33.584  1.00  0.00     0.167 HD
ATOM     49  C   UNL A   1      40.604  32.829  37.434  1.00  0.00     0.031 A 
ATOM     50  C   UNL A   1      40.067  29.456  31.335  1.00  0.00     0.031 A 
ATOM     51  C   UNL A   1      41.682  31.923  37.148  1.00  0.00     0.049 A 
ATOM     52  C   UNL A   1      41.269  29.297  32.234  1.00  0.00     0.074 A 
ATOM     53  C   UNL A   1      42.782  31.622  37.931  1.00  0.00     0.029 A 
ATOM     54  N   UNL A   1      41.803  31.183  35.982  1.00  0.00    -0.354 N 
ATOM     55  N   UNL A   1      41.500  29.824  33.413  1.00  0.00    -0.248 NA
ATOM     56  C   UNL A   1      42.350  28.423  31.749  1.00  0.00     0.031 C 
ATOM     57  C   UNL A   1      43.603  30.750  37.210  1.00  0.00     0.029 A 
ATOM     58  C   UNL A   1      42.976  30.450  36.012  1.00  0.00     0.049 A 
ATOM     59  H   UNL A   1      41.151  31.180  35.245  1.00  0.00     0.167 HD
ATOM     60  C   UNL A   1      42.730  29.319  33.823  1.00  0.00     0.074 A 
ATOM     61  C   UNL A   1      43.188  28.431  32.776  1.00  0.00     0.031 C 
ATOM     62  C   UNL A   1      43.417  29.565  34.965  1.00  0.00     0.031 A 
BRANCH  49  63
ATOM     63  C   UNL A   1      40.655  33.616  38.712  1.00  0.00    -0.014 A 
ATOM     64  C   UNL A   1      41.296  34.862  38.781  1.00  0.00     0.009 A 
ATOM     65  C   UNL A   1      40.015  33.116  39.857  1.00  0.00     0.009 A 
ATOM     66  C   UNL A   1      41.318  35.579  39.979  1.00  0.00     0.001 A 
ATOM     67  C   UNL A   1      40.010  33.850  41.044  1.00  0.00     0.001 A 
ATOM     68  C   UNL A   1      40.668  35.077  41.107  1.00  0.00     0.000 A 
ENDBRANCH  49  63
BRANCH  50  69
ATOM     69  C   UNL A   1      40.020  28.752  30.023  1.00  0.00    -0.014 A 
ATOM     70  C   UNL A   1      40.423  29.399  28.843  1.00  0.00     0.009 A 
ATOM     71  C   UNL A   1      39.519  27.443  29.935  1.00  0.00     0.009 A 
ATOM     72  C   UNL A   1      40.292  28.764  27.604  1.00  0.00     0.001 A 
ATOM     73  C   UNL A   1      39.422  26.798  28.699  1.00  0.00     0.001 A 
ATOM     74  C   UNL A   1      39.796  27.464  27.534  1.00  0.00     0.000 A 
ENDBRANCH  50  69
BRANCH  62  75
ATOM     75  C   UNL A   1      44.714  28.828  35.173  1.00  0.00    -0.014 A 
ATOM     76  C   UNL A   1      45.955  29.447  34.964  1.00  0.00     0.009 A 
ATOM     77  C   UNL A   1      44.688  27.502  35.637  1.00  0.00     0.009 A 
ATOM     78  C   UNL A   1      47.142  28.742  35.178  1.00  0.00     0.001 A 
ATOM     79  C   UNL A   1      45.875  26.812  35.883  1.00  0.00     0.001 A 
ATOM     80  C   UNL A   1      47.100  27.428  35.644  1.00  0.00     0.000 A 
ENDBRANCH  62  75
ENDBRANCH  36  37
ENDBRANCH  29  31
ENDBRANCH  28  29
ENDBRANCH  27  28
ENDBRANCH  26  27
ENDBRANCH  25  26
ENDBRANCH  24  25
ENDBRANCH   1  24
TORSDOF 20
ENDMDL
