MODEL 1
REMARK VINA RESULT:     -10.3      0.000      0.000
REMARK SMILES Cc1c(CC(=O)N[C@H](CO)C(=O)OCCOCCOCCOC(=O)c2ccc(-c3c4nc(c(-c5ccccc5)c5ccc([nH]5)c(-c5ccccc5)c5nc(c(-c6ccccc6)c6ccc3[nH]6)C=C5)C=C4)cc2)cc(-c2ccc(S(C)(=O)=O)cc2)n1-c1ccc(F)cc1
REMARK SMILES IDX 16 1 15 2 14 3 13 4 11 5 12 6 8 7 7 8 5 9 6 10 4 12 3 13
REMARK SMILES IDX 1 14 2 15 85 16 73 17 74 18 86 19 87 20 92 21 88 22 91 23
REMARK SMILES IDX 89 24 90 25 75 26 76 27 84 28 77 29 83 30 78 31 79 32 80 33
REMARK SMILES IDX 81 34 82 35 9 36 10 37 17 39 18 40 19 41 20 42 21 43 22 44
REMARK SMILES IDX 23 45 24 46 25 47 26 48 72 49 27 50 71 51 28 52 29 53 30 54
REMARK SMILES IDX 65 55 31 56 70 57 64 58 66 59 32 60 69 61 63 62 62 63 33 65
REMARK SMILES IDX 55 66 40 67 54 68 41 69 44 70 53 71 67 72 42 73 43 74 52 76
REMARK SMILES IDX 68 77 45 78 34 79 35 80 39 81 36 82 38 83 37 84 56 85 57 86
REMARK SMILES IDX 61 87 58 88 60 89 59 90 46 91 47 92 51 93 48 94 50 95 49 96
REMARK H PARENT 7 11 10 38 66 64 44 75
REMARK Flexibility Score: inf
ROOT
ATOM      1  O   UNL A   1      31.836  28.989  26.162  1.00  0.00    -0.376 OA
ENDROOT
BRANCH   1   2
ATOM      2  C   UNL A   1      32.663  27.838  26.257  1.00  0.00     0.202 C 
BRANCH   2   3
ATOM      3  C   UNL A   1      32.025  26.472  26.511  1.00  0.00     0.261 C 
BRANCH   3   4
ATOM      4  O   UNL A   1      30.589  26.427  26.398  1.00  0.00    -0.462 OA
BRANCH   4   5
ATOM      5  C   UNL A   1      30.122  25.597  25.424  1.00  0.00     0.331 C 
ATOM      6  O   UNL A   1      30.457  24.420  25.313  1.00  0.00    -0.250 OA
BRANCH   5   7
ATOM      7  C   UNL A   1      29.337  26.313  24.319  1.00  0.00     0.218 C 
BRANCH   7   8
ATOM      8  N   UNL A   1      29.945  27.586  23.900  1.00  0.00    -0.341 N 
ATOM      9  C   UNL A   1      30.869  27.902  22.952  1.00  0.00     0.225 C 
ATOM     10  O   UNL A   1      31.311  29.057  22.987  1.00  0.00    -0.275 OA
ATOM     11  H   UNL A   1      29.618  28.363  24.407  1.00  0.00     0.164 HD
BRANCH   9  12
ATOM     12  C   UNL A   1      31.294  26.953  21.838  1.00  0.00     0.137 C 
BRANCH  12  13
ATOM     13  C   UNL A   1      32.145  25.795  22.272  1.00  0.00    -0.017 A 
ATOM     14  C   UNL A   1      34.234  27.062  23.127  1.00  0.00     0.065 C 
ATOM     15  C   UNL A   1      33.389  25.853  22.885  1.00  0.00     0.024 A 
ATOM     16  N   UNL A   1      33.790  24.556  23.192  1.00  0.00    -0.314 N 
ATOM     17  C   UNL A   1      31.865  24.413  22.078  1.00  0.00     0.033 A 
ATOM     18  C   UNL A   1      32.815  23.660  22.748  1.00  0.00     0.053 A 
BRANCH  16  19
ATOM     19  C   UNL A   1      34.950  24.181  23.917  1.00  0.00     0.046 A 
ATOM     20  C   UNL A   1      35.949  23.426  23.285  1.00  0.00     0.029 A 
ATOM     21  C   UNL A   1      35.016  24.450  25.289  1.00  0.00     0.029 A 
ATOM     22  C   UNL A   1      37.002  22.912  24.037  1.00  0.00     0.041 A 
ATOM     23  C   UNL A   1      36.067  23.920  26.035  1.00  0.00     0.041 A 
ATOM     24  C   UNL A   1      37.042  23.151  25.407  1.00  0.00     0.123 A 
ATOM     25  F   UNL A   1      38.030  22.617  26.137  1.00  0.00    -0.207 F 
ENDBRANCH  16  19
BRANCH  18  26
ATOM     26  C   UNL A   1      32.782  22.223  23.087  1.00  0.00    -0.001 A 
ATOM     27  C   UNL A   1      33.406  21.748  24.255  1.00  0.00     0.011 A 
ATOM     28  C   UNL A   1      32.149  21.299  22.246  1.00  0.00     0.011 A 
ATOM     29  C   UNL A   1      33.432  20.381  24.558  1.00  0.00     0.021 A 
ATOM     30  C   UNL A   1      32.170  19.927  22.542  1.00  0.00     0.021 A 
ATOM     31  C   UNL A   1      32.827  19.473  23.689  1.00  0.00     0.067 A 
BRANCH  31  32
ATOM     32  S   UNL A   1      32.835  17.731  24.074  1.00  0.00     0.175 S 
ATOM     33  C   UNL A   1      34.433  17.445  24.787  1.00  0.00     0.163 C 
ATOM     34  O   UNL A   1      31.847  17.528  25.138  1.00  0.00    -0.224 OA
ATOM     35  O   UNL A   1      32.776  16.994  22.845  1.00  0.00    -0.224 OA
ENDBRANCH  31  32
ENDBRANCH  18  26
ENDBRANCH  12  13
ENDBRANCH   9  12
ENDBRANCH   7   8
BRANCH   7  36
ATOM     36  C   UNL A   1      27.811  26.332  24.339  1.00  0.00     0.193 C 
BRANCH  36  37
ATOM     37  O   UNL A   1      27.264  27.347  23.515  1.00  0.00    -0.394 OA
ATOM     38  H   UNL A   1      27.981  27.897  23.159  1.00  0.00     0.210 HD
ENDBRANCH  36  37
ENDBRANCH   7  36
ENDBRANCH   5   7
ENDBRANCH   4   5
ENDBRANCH   3   4
ENDBRANCH   2   3
ENDBRANCH   1   2
BRANCH   1  39
ATOM     39  C   UNL A   1      31.916  29.969  27.184  1.00  0.00     0.188 C 
BRANCH  39  40
ATOM     40  C   UNL A   1      32.961  31.092  27.093  1.00  0.00     0.188 C 
BRANCH  40  41
ATOM     41  O   UNL A   1      34.328  30.759  27.217  1.00  0.00    -0.376 OA
BRANCH  41  42
ATOM     42  C   UNL A   1      35.130  31.553  28.091  1.00  0.00     0.202 C 
BRANCH  42  43
ATOM     43  C   UNL A   1      34.521  32.821  28.744  1.00  0.00     0.261 C 
BRANCH  43  44
ATOM     44  O   UNL A   1      34.182  32.795  30.174  1.00  0.00    -0.460 OA
BRANCH  44  45
ATOM     45  C   UNL A   1      35.160  33.220  31.042  1.00  0.00     0.338 C 
ATOM     46  O   UNL A   1      35.152  34.320  31.577  1.00  0.00    -0.246 OA
BRANCH  45  47
ATOM     47  C   UNL A   1      36.295  32.229  31.299  1.00  0.00     0.060 A 
ATOM     48  C   UNL A   1      37.585  32.510  30.866  1.00  0.00     0.016 A 
ATOM     49  C   UNL A   1      36.084  30.893  31.703  1.00  0.00     0.016 A 
ATOM     50  C   UNL A   1      38.622  31.509  30.908  1.00  0.00     0.010 A 
ATOM     51  C   UNL A   1      37.132  29.861  31.689  1.00  0.00     0.010 A 
ATOM     52  C   UNL A   1      38.459  30.126  31.298  1.00  0.00    -0.014 A 
BRANCH  52  53
ATOM     53  C   UNL A   1      39.586  29.061  30.787  1.00  0.00     0.031 A 
ATOM     54  C   UNL A   1      40.620  29.152  31.854  1.00  0.00     0.074 A 
ATOM     55  C   UNL A   1      39.985  28.254  29.711  1.00  0.00     0.049 A 
ATOM     56  N   UNL A   1      41.170  30.305  32.095  1.00  0.00    -0.248 NA
ATOM     57  C   UNL A   1      40.808  28.148  32.901  1.00  0.00     0.031 C 
ATOM     58  C   UNL A   1      39.344  28.117  28.391  1.00  0.00     0.029 A 
ATOM     59  N   UNL A   1      41.084  27.337  29.527  1.00  0.00    -0.354 N 
ATOM     60  C   UNL A   1      41.992  30.126  33.177  1.00  0.00     0.074 A 
ATOM     61  C   UNL A   1      41.568  28.853  33.747  1.00  0.00     0.031 C 
ATOM     62  C   UNL A   1      39.921  27.131  27.639  1.00  0.00     0.029 A 
ATOM     63  C   UNL A   1      41.056  26.520  28.331  1.00  0.00     0.049 A 
ATOM     64  H   UNL A   1      41.816  27.270  30.181  1.00  0.00     0.167 HD
ATOM     65  C   UNL A   1      43.259  30.615  33.039  1.00  0.00     0.031 A 
ATOM     66  C   UNL A   1      41.892  25.493  27.882  1.00  0.00     0.031 A 
ATOM     67  C   UNL A   1      44.191  29.572  32.704  1.00  0.00     0.049 A 
ATOM     68  C   UNL A   1      43.190  25.693  28.536  1.00  0.00     0.074 A 
ATOM     69  C   UNL A   1      44.398  28.308  33.220  1.00  0.00     0.029 A 
ATOM     70  N   UNL A   1      44.717  29.572  31.428  1.00  0.00    -0.354 N 
ATOM     71  N   UNL A   1      44.046  26.554  28.075  1.00  0.00    -0.248 NA
ATOM     72  C   UNL A   1      43.670  24.855  29.628  1.00  0.00     0.031 C 
ATOM     73  C   UNL A   1      44.549  27.480  32.089  1.00  0.00     0.029 A 
ATOM     74  C   UNL A   1      44.837  28.269  30.984  1.00  0.00     0.049 A 
ATOM     75  H   UNL A   1      44.966  30.375  30.914  1.00  0.00     0.167 HD
ATOM     76  C   UNL A   1      44.869  26.749  29.140  1.00  0.00     0.074 A 
ATOM     77  C   UNL A   1      44.795  25.519  29.906  1.00  0.00     0.031 C 
ATOM     78  C   UNL A   1      44.996  28.030  29.569  1.00  0.00     0.031 A 
BRANCH  65  79
ATOM     79  C   UNL A   1      43.298  32.018  32.492  1.00  0.00    -0.014 A 
ATOM     80  C   UNL A   1      43.306  33.090  33.391  1.00  0.00     0.009 A 
ATOM     81  C   UNL A   1      43.097  32.296  31.124  1.00  0.00     0.009 A 
ATOM     82  C   UNL A   1      43.033  34.389  32.946  1.00  0.00     0.001 A 
ATOM     83  C   UNL A   1      42.785  33.583  30.687  1.00  0.00     0.001 A 
ATOM     84  C   UNL A   1      42.739  34.628  31.603  1.00  0.00     0.000 A 
ENDBRANCH  65  79
BRANCH  66  85
ATOM     85  C   UNL A   1      42.076  24.355  26.830  1.00  0.00    -0.014 A 
ATOM     86  C   UNL A   1      43.331  24.225  26.133  1.00  0.00     0.009 A 
ATOM     87  C   UNL A   1      41.281  23.204  26.787  1.00  0.00     0.009 A 
ATOM     88  C   UNL A   1      43.808  23.024  25.569  1.00  0.00     0.001 A 
ATOM     89  C   UNL A   1      41.745  21.998  26.181  1.00  0.00     0.001 A 
ATOM     90  C   UNL A   1      43.017  21.895  25.611  1.00  0.00     0.000 A 
ENDBRANCH  66  85
BRANCH  78  91
ATOM     91  C   UNL A   1      45.052  29.119  28.510  1.00  0.00    -0.014 A 
ATOM     92  C   UNL A   1      46.211  29.518  27.807  1.00  0.00     0.009 A 
ATOM     93  C   UNL A   1      43.870  29.822  28.239  1.00  0.00     0.009 A 
ATOM     94  C   UNL A   1      46.201  30.604  26.923  1.00  0.00     0.001 A 
ATOM     95  C   UNL A   1      43.848  30.877  27.318  1.00  0.00     0.001 A 
ATOM     96  C   UNL A   1      45.014  31.278  26.673  1.00  0.00     0.000 A 
ENDBRANCH  78  91
ENDBRANCH  52  53
ENDBRANCH  45  47
ENDBRANCH  44  45
ENDBRANCH  43  44
ENDBRANCH  42  43
ENDBRANCH  41  42
ENDBRANCH  40  41
ENDBRANCH  39  40
ENDBRANCH   1  39
TORSDOF 25
ENDMDL
MODEL 2
REMARK VINA RESULT:      -9.8      3.563      8.256
REMARK SMILES Cc1c(CC(=O)N[C@H](CO)C(=O)OCCOCCOCCOC(=O)c2ccc(-c3c4nc(c(-c5ccccc5)c5ccc([nH]5)c(-c5ccccc5)c5nc(c(-c6ccccc6)c6ccc3[nH]6)C=C5)C=C4)cc2)cc(-c2ccc(S(C)(=O)=O)cc2)n1-c1ccc(F)cc1
REMARK SMILES IDX 16 1 15 2 14 3 13 4 11 5 12 6 8 7 7 8 5 9 6 10 4 12 3 13
REMARK SMILES IDX 1 14 2 15 85 16 73 17 74 18 86 19 87 20 92 21 88 22 91 23
REMARK SMILES IDX 89 24 90 25 75 26 76 27 84 28 77 29 83 30 78 31 79 32 80 33
REMARK SMILES IDX 81 34 82 35 9 36 10 37 17 39 18 40 19 41 20 42 21 43 22 44
REMARK SMILES IDX 23 45 24 46 25 47 26 48 72 49 27 50 71 51 28 52 29 53 30 54
REMARK SMILES IDX 65 55 31 56 70 57 64 58 66 59 32 60 69 61 63 62 62 63 33 65
REMARK SMILES IDX 55 66 40 67 54 68 41 69 44 70 53 71 67 72 42 73 43 74 52 76
REMARK SMILES IDX 68 77 45 78 34 79 35 80 39 81 36 82 38 83 37 84 56 85 57 86
REMARK SMILES IDX 61 87 58 88 60 89 59 90 46 91 47 92 51 93 48 94 50 95 49 96
REMARK H PARENT 7 11 10 38 66 64 44 75
REMARK Flexibility Score: inf
ROOT
ATOM      1  O   UNL A   1      31.015  28.296  25.222  1.00  0.00    -0.376 OA
ENDROOT
BRANCH   1   2
ATOM      2  C   UNL A   1      31.257  27.991  23.856  1.00  0.00     0.202 C 
BRANCH   2   3
ATOM      3  C   UNL A   1      32.662  28.175  23.282  1.00  0.00     0.261 C 
BRANCH   3   4
ATOM      4  O   UNL A   1      33.605  27.133  23.602  1.00  0.00    -0.462 OA
BRANCH   4   5
ATOM      5  C   UNL A   1      33.661  26.119  22.694  1.00  0.00     0.331 C 
ATOM      6  O   UNL A   1      33.541  26.282  21.481  1.00  0.00    -0.250 OA
BRANCH   5   7
ATOM      7  C   UNL A   1      33.630  24.720  23.320  1.00  0.00     0.218 C 
BRANCH   7   8
ATOM      8  N   UNL A   1      34.730  23.854  22.868  1.00  0.00    -0.341 N 
ATOM      9  C   UNL A   1      35.772  23.266  23.518  1.00  0.00     0.225 C 
ATOM     10  O   UNL A   1      36.638  22.750  22.802  1.00  0.00    -0.275 OA
ATOM     11  H   UNL A   1      34.708  23.661  21.903  1.00  0.00     0.164 HD
BRANCH   9  12
ATOM     12  C   UNL A   1      35.859  23.144  25.035  1.00  0.00     0.137 C 
BRANCH  12  13
ATOM     13  C   UNL A   1      37.250  23.141  25.599  1.00  0.00    -0.017 A 
ATOM     14  C   UNL A   1      37.907  20.673  25.176  1.00  0.00     0.065 C 
ATOM     15  C   UNL A   1      38.151  22.086  25.601  1.00  0.00     0.024 A 
ATOM     16  N   UNL A   1      39.352  22.531  26.147  1.00  0.00    -0.314 N 
ATOM     17  C   UNL A   1      37.888  24.204  26.298  1.00  0.00     0.033 A 
ATOM     18  C   UNL A   1      39.212  23.869  26.525  1.00  0.00     0.053 A 
BRANCH  16  19
ATOM     19  C   UNL A   1      40.563  21.798  26.235  1.00  0.00     0.046 A 
ATOM     20  C   UNL A   1      41.744  22.346  25.713  1.00  0.00     0.029 A 
ATOM     21  C   UNL A   1      40.533  20.483  26.713  1.00  0.00     0.029 A 
ATOM     22  C   UNL A   1      42.893  21.562  25.642  1.00  0.00     0.041 A 
ATOM     23  C   UNL A   1      41.685  19.703  26.626  1.00  0.00     0.041 A 
ATOM     24  C   UNL A   1      42.847  20.244  26.085  1.00  0.00     0.123 A 
ATOM     25  F   UNL A   1      43.939  19.477  25.972  1.00  0.00    -0.207 F 
ENDBRANCH  16  19
BRANCH  18  26
ATOM     26  C   UNL A   1      40.328  24.743  26.937  1.00  0.00    -0.001 A 
ATOM     27  C   UNL A   1      40.870  25.683  26.041  1.00  0.00     0.011 A 
ATOM     28  C   UNL A   1      40.884  24.645  28.219  1.00  0.00     0.011 A 
ATOM     29  C   UNL A   1      41.966  26.477  26.400  1.00  0.00     0.021 A 
ATOM     30  C   UNL A   1      41.982  25.439  28.587  1.00  0.00     0.021 A 
ATOM     31  C   UNL A   1      42.529  26.339  27.668  1.00  0.00     0.067 A 
BRANCH  31  32
ATOM     32  S   UNL A   1      43.911  27.361  28.145  1.00  0.00     0.175 S 
ATOM     33  C   UNL A   1      43.648  28.888  27.282  1.00  0.00     0.163 C 
ATOM     34  O   UNL A   1      43.756  27.643  29.575  1.00  0.00    -0.224 OA
ATOM     35  O   UNL A   1      45.111  26.775  27.622  1.00  0.00    -0.224 OA
ENDBRANCH  31  32
ENDBRANCH  18  26
ENDBRANCH  12  13
ENDBRANCH   9  12
ENDBRANCH   7   8
BRANCH   7  36
ATOM     36  C   UNL A   1      32.306  23.988  23.519  1.00  0.00     0.193 C 
BRANCH  36  37
ATOM     37  O   UNL A   1      32.093  22.969  22.557  1.00  0.00    -0.394 OA
ATOM     38  H   UNL A   1      31.609  23.335  21.799  1.00  0.00     0.210 HD
ENDBRANCH  36  37
ENDBRANCH   7  36
ENDBRANCH   5   7
ENDBRANCH   4   5
ENDBRANCH   3   4
ENDBRANCH   2   3
ENDBRANCH   1   2
BRANCH   1  39
ATOM     39  C   UNL A   1      31.570  27.451  26.216  1.00  0.00     0.188 C 
BRANCH  39  40
ATOM     40  C   UNL A   1      32.541  28.025  27.260  1.00  0.00     0.188 C 
BRANCH  40  41
ATOM     41  O   UNL A   1      33.697  28.702  26.814  1.00  0.00    -0.376 OA
BRANCH  41  42
ATOM     42  C   UNL A   1      33.566  30.074  26.446  1.00  0.00     0.202 C 
BRANCH  42  43
ATOM     43  C   UNL A   1      33.429  31.151  27.553  1.00  0.00     0.261 C 
BRANCH  43  44
ATOM     44  O   UNL A   1      34.634  31.604  28.263  1.00  0.00    -0.460 OA
BRANCH  44  45
ATOM     45  C   UNL A   1      34.483  32.694  29.088  1.00  0.00     0.338 C 
ATOM     46  O   UNL A   1      33.696  33.603  28.863  1.00  0.00    -0.246 OA
BRANCH  45  47
ATOM     47  C   UNL A   1      35.380  32.719  30.325  1.00  0.00     0.060 A 
ATOM     48  C   UNL A   1      36.215  33.804  30.565  1.00  0.00     0.016 A 
ATOM     49  C   UNL A   1      35.646  31.580  31.116  1.00  0.00     0.016 A 
ATOM     50  C   UNL A   1      37.217  33.760  31.601  1.00  0.00     0.010 A 
ATOM     51  C   UNL A   1      36.709  31.523  32.131  1.00  0.00     0.010 A 
ATOM     52  C   UNL A   1      37.540  32.620  32.429  1.00  0.00    -0.014 A 
BRANCH  52  53
ATOM     53  C   UNL A   1      39.007  32.601  33.146  1.00  0.00     0.031 A 
ATOM     54  C   UNL A   1      39.933  32.556  31.981  1.00  0.00     0.074 A 
ATOM     55  C   UNL A   1      39.672  32.472  34.375  1.00  0.00     0.049 A 
ATOM     56  N   UNL A   1      39.833  31.569  31.141  1.00  0.00    -0.248 NA
ATOM     57  C   UNL A   1      40.694  33.706  31.494  1.00  0.00     0.031 C 
ATOM     58  C   UNL A   1      39.086  32.237  35.706  1.00  0.00     0.029 A 
ATOM     59  N   UNL A   1      41.066  32.518  34.745  1.00  0.00    -0.354 N 
ATOM     60  C   UNL A   1      40.717  31.830  30.127  1.00  0.00     0.074 A 
ATOM     61  C   UNL A   1      41.053  33.239  30.293  1.00  0.00     0.031 C 
ATOM     62  C   UNL A   1      40.022  32.309  36.701  1.00  0.00     0.029 A 
ATOM     63  C   UNL A   1      41.362  32.543  36.163  1.00  0.00     0.049 A 
ATOM     64  H   UNL A   1      41.780  32.533  34.068  1.00  0.00     0.167 HD
ATOM     65  C   UNL A   1      41.538  30.796  29.783  1.00  0.00     0.031 A 
ATOM     66  C   UNL A   1      42.565  32.669  36.864  1.00  0.00     0.031 A 
ATOM     67  C   UNL A   1      42.842  30.942  30.374  1.00  0.00     0.049 A 
ATOM     68  C   UNL A   1      43.627  32.215  35.959  1.00  0.00     0.074 A 
ATOM     69  C   UNL A   1      43.708  32.013  30.463  1.00  0.00     0.029 A 
ATOM     70  N   UNL A   1      43.186  30.066  31.384  1.00  0.00    -0.354 N 
ATOM     71  N   UNL A   1      43.881  30.951  35.804  1.00  0.00    -0.248 NA
ATOM     72  C   UNL A   1      44.556  33.126  35.301  1.00  0.00     0.031 C 
ATOM     73  C   UNL A   1      44.167  31.991  31.796  1.00  0.00     0.029 A 
ATOM     74  C   UNL A   1      43.919  30.739  32.342  1.00  0.00     0.049 A 
ATOM     75  H   UNL A   1      42.945  29.111  31.417  1.00  0.00     0.167 HD
ATOM     76  C   UNL A   1      44.572  30.932  34.632  1.00  0.00     0.074 A 
ATOM     77  C   UNL A   1      45.201  32.236  34.542  1.00  0.00     0.031 C 
ATOM     78  C   UNL A   1      44.061  30.147  33.651  1.00  0.00     0.031 A 
BRANCH  65  79
ATOM     79  C   UNL A   1      40.808  29.490  29.610  1.00  0.00    -0.014 A 
ATOM     80  C   UNL A   1      40.185  29.225  28.387  1.00  0.00     0.009 A 
ATOM     81  C   UNL A   1      40.537  28.632  30.697  1.00  0.00     0.009 A 
ATOM     82  C   UNL A   1      39.250  28.188  28.279  1.00  0.00     0.001 A 
ATOM     83  C   UNL A   1      39.577  27.625  30.601  1.00  0.00     0.001 A 
ATOM     84  C   UNL A   1      38.923  27.413  29.393  1.00  0.00     0.000 A 
ENDBRANCH  65  79
BRANCH  66  85
ATOM     85  C   UNL A   1      43.218  32.895  38.263  1.00  0.00    -0.014 A 
ATOM     86  C   UNL A   1      43.724  34.199  38.611  1.00  0.00     0.009 A 
ATOM     87  C   UNL A   1      43.001  32.059  39.364  1.00  0.00     0.009 A 
ATOM     88  C   UNL A   1      43.866  34.673  39.932  1.00  0.00     0.001 A 
ATOM     89  C   UNL A   1      43.182  32.523  40.701  1.00  0.00     0.001 A 
ATOM     90  C   UNL A   1      43.573  33.834  40.986  1.00  0.00     0.000 A 
ENDBRANCH  66  85
BRANCH  78  91
ATOM     91  C   UNL A   1      43.463  28.812  34.064  1.00  0.00    -0.014 A 
ATOM     92  C   UNL A   1      44.178  27.599  34.188  1.00  0.00     0.009 A 
ATOM     93  C   UNL A   1      42.082  28.761  34.294  1.00  0.00     0.009 A 
ATOM     94  C   UNL A   1      43.535  26.387  34.469  1.00  0.00     0.001 A 
ATOM     95  C   UNL A   1      41.444  27.560  34.624  1.00  0.00     0.001 A 
ATOM     96  C   UNL A   1      42.165  26.371  34.695  1.00  0.00     0.000 A 
ENDBRANCH  78  91
ENDBRANCH  52  53
ENDBRANCH  45  47
ENDBRANCH  44  45
ENDBRANCH  43  44
ENDBRANCH  42  43
ENDBRANCH  41  42
ENDBRANCH  40  41
ENDBRANCH  39  40
ENDBRANCH   1  39
TORSDOF 25
ENDMDL
MODEL 3
REMARK VINA RESULT:      -9.2      3.868      9.064
REMARK SMILES Cc1c(CC(=O)N[C@H](CO)C(=O)OCCOCCOCCOC(=O)c2ccc(-c3c4nc(c(-c5ccccc5)c5ccc([nH]5)c(-c5ccccc5)c5nc(c(-c6ccccc6)c6ccc3[nH]6)C=C5)C=C4)cc2)cc(-c2ccc(S(C)(=O)=O)cc2)n1-c1ccc(F)cc1
REMARK SMILES IDX 16 1 15 2 14 3 13 4 11 5 12 6 8 7 7 8 5 9 6 10 4 12 3 13
REMARK SMILES IDX 1 14 2 15 85 16 73 17 74 18 86 19 87 20 92 21 88 22 91 23
REMARK SMILES IDX 89 24 90 25 75 26 76 27 84 28 77 29 83 30 78 31 79 32 80 33
REMARK SMILES IDX 81 34 82 35 9 36 10 37 17 39 18 40 19 41 20 42 21 43 22 44
REMARK SMILES IDX 23 45 24 46 25 47 26 48 72 49 27 50 71 51 28 52 29 53 30 54
REMARK SMILES IDX 65 55 31 56 70 57 64 58 66 59 32 60 69 61 63 62 62 63 33 65
REMARK SMILES IDX 55 66 40 67 54 68 41 69 44 70 53 71 67 72 42 73 43 74 52 76
REMARK SMILES IDX 68 77 45 78 34 79 35 80 39 81 36 82 38 83 37 84 56 85 57 86
REMARK SMILES IDX 61 87 58 88 60 89 59 90 46 91 47 92 51 93 48 94 50 95 49 96
REMARK H PARENT 7 11 10 38 66 64 44 75
REMARK Flexibility Score: inf
ROOT
ATOM      1  O   UNL A   1      30.367  27.176  24.741  1.00  0.00    -0.376 OA
ENDROOT
BRANCH   1   2
ATOM      2  C   UNL A   1      30.766  26.725  23.455  1.00  0.00     0.202 C 
BRANCH   2   3
ATOM      3  C   UNL A   1      32.017  27.318  22.805  1.00  0.00     0.261 C 
BRANCH   3   4
ATOM      4  O   UNL A   1      33.261  26.684  23.160  1.00  0.00    -0.462 OA
BRANCH   4   5
ATOM      5  C   UNL A   1      33.515  25.521  22.498  1.00  0.00     0.331 C 
ATOM      6  O   UNL A   1      33.331  25.369  21.292  1.00  0.00    -0.250 OA
BRANCH   5   7
ATOM      7  C   UNL A   1      33.810  24.331  23.418  1.00  0.00     0.218 C 
BRANCH   7   8
ATOM      8  N   UNL A   1      35.048  23.616  23.071  1.00  0.00    -0.341 N 
ATOM      9  C   UNL A   1      36.177  23.323  23.773  1.00  0.00     0.225 C 
ATOM     10  O   UNL A   1      37.123  22.869  23.118  1.00  0.00    -0.275 OA
ATOM     11  H   UNL A   1      35.063  23.283  22.144  1.00  0.00     0.164 HD
BRANCH   9  12
ATOM     12  C   UNL A   1      36.281  23.442  25.289  1.00  0.00     0.137 C 
BRANCH  12  13
ATOM     13  C   UNL A   1      37.663  23.283  25.851  1.00  0.00    -0.017 A 
ATOM     14  C   UNL A   1      38.007  20.741  25.504  1.00  0.00     0.065 C 
ATOM     15  C   UNL A   1      38.427  22.125  25.884  1.00  0.00     0.024 A 
ATOM     16  N   UNL A   1      39.676  22.434  26.414  1.00  0.00    -0.314 N 
ATOM     17  C   UNL A   1      38.432  24.280  26.516  1.00  0.00     0.033 A 
ATOM     18  C   UNL A   1      39.706  23.789  26.751  1.00  0.00     0.053 A 
BRANCH  16  19
ATOM     19  C   UNL A   1      40.788  21.558  26.523  1.00  0.00     0.046 A 
ATOM     20  C   UNL A   1      41.852  21.675  25.617  1.00  0.00     0.029 A 
ATOM     21  C   UNL A   1      40.741  20.504  27.442  1.00  0.00     0.029 A 
ATOM     22  C   UNL A   1      42.858  20.712  25.611  1.00  0.00     0.041 A 
ATOM     23  C   UNL A   1      41.746  19.539  27.419  1.00  0.00     0.041 A 
ATOM     24  C   UNL A   1      42.787  19.647  26.502  1.00  0.00     0.123 A 
ATOM     25  F   UNL A   1      43.730  18.697  26.463  1.00  0.00    -0.207 F 
ENDBRANCH  16  19
BRANCH  18  26
ATOM     26  C   UNL A   1      40.924  24.531  27.135  1.00  0.00    -0.001 A 
ATOM     27  C   UNL A   1      41.451  25.527  26.292  1.00  0.00     0.011 A 
ATOM     28  C   UNL A   1      41.592  24.247  28.332  1.00  0.00     0.011 A 
ATOM     29  C   UNL A   1      42.637  26.196  26.616  1.00  0.00     0.021 A 
ATOM     30  C   UNL A   1      42.782  24.914  28.665  1.00  0.00     0.021 A 
ATOM     31  C   UNL A   1      43.308  25.874  27.795  1.00  0.00     0.067 A 
BRANCH  31  32
ATOM     32  S   UNL A   1      44.808  26.736  28.230  1.00  0.00     0.175 S 
ATOM     33  C   UNL A   1      45.682  25.598  29.274  1.00  0.00     0.163 C 
ATOM     34  O   UNL A   1      45.590  26.876  26.998  1.00  0.00    -0.224 OA
ATOM     35  O   UNL A   1      44.463  27.874  29.032  1.00  0.00    -0.224 OA
ENDBRANCH  31  32
ENDBRANCH  18  26
ENDBRANCH  12  13
ENDBRANCH   9  12
ENDBRANCH   7   8
BRANCH   7  36
ATOM     36  C   UNL A   1      32.682  23.421  23.896  1.00  0.00     0.193 C 
BRANCH  36  37
ATOM     37  O   UNL A   1      32.464  23.506  25.294  1.00  0.00    -0.394 OA
ATOM     38  H   UNL A   1      31.532  23.315  25.488  1.00  0.00     0.210 HD
ENDBRANCH  36  37
ENDBRANCH   7  36
ENDBRANCH   5   7
ENDBRANCH   4   5
ENDBRANCH   3   4
ENDBRANCH   2   3
ENDBRANCH   1   2
BRANCH   1  39
ATOM     39  C   UNL A   1      31.030  26.652  25.881  1.00  0.00     0.188 C 
BRANCH  39  40
ATOM     40  C   UNL A   1      31.762  27.598  26.847  1.00  0.00     0.188 C 
BRANCH  40  41
ATOM     41  O   UNL A   1      33.053  28.055  26.502  1.00  0.00    -0.376 OA
BRANCH  41  42
ATOM     42  C   UNL A   1      33.152  29.247  25.725  1.00  0.00     0.202 C 
BRANCH  42  43
ATOM     43  C   UNL A   1      32.961  30.625  26.412  1.00  0.00     0.261 C 
BRANCH  43  44
ATOM     44  O   UNL A   1      34.005  31.121  27.320  1.00  0.00    -0.460 OA
BRANCH  44  45
ATOM     45  C   UNL A   1      33.719  32.278  28.006  1.00  0.00     0.338 C 
ATOM     46  O   UNL A   1      32.981  33.151  27.570  1.00  0.00    -0.246 OA
BRANCH  45  47
ATOM     47  C   UNL A   1      34.397  32.428  29.367  1.00  0.00     0.060 A 
ATOM     48  C   UNL A   1      34.539  33.682  29.947  1.00  0.00     0.016 A 
ATOM     49  C   UNL A   1      35.161  31.406  29.972  1.00  0.00     0.016 A 
ATOM     50  C   UNL A   1      35.355  33.875  31.120  1.00  0.00     0.010 A 
ATOM     51  C   UNL A   1      36.036  31.621  31.134  1.00  0.00     0.010 A 
ATOM     52  C   UNL A   1      36.166  32.870  31.771  1.00  0.00    -0.014 A 
BRANCH  52  53
ATOM     53  C   UNL A   1      37.386  33.389  32.724  1.00  0.00     0.031 A 
ATOM     54  C   UNL A   1      38.530  33.454  31.773  1.00  0.00     0.074 A 
ATOM     55  C   UNL A   1      37.768  33.638  34.051  1.00  0.00     0.049 A 
ATOM     56  N   UNL A   1      38.882  32.373  31.143  1.00  0.00    -0.248 NA
ATOM     57  C   UNL A   1      39.055  34.696  31.208  1.00  0.00     0.031 C 
ATOM     58  C   UNL A   1      36.978  33.432  35.278  1.00  0.00     0.029 A 
ATOM     59  N   UNL A   1      38.981  34.147  34.644  1.00  0.00    -0.354 N 
ATOM     60  C   UNL A   1      39.874  32.737  30.270  1.00  0.00     0.074 A 
ATOM     61  C   UNL A   1      39.785  34.191  30.207  1.00  0.00     0.031 C 
ATOM     62  C   UNL A   1      37.613  33.918  36.387  1.00  0.00     0.029 A 
ATOM     63  C   UNL A   1      38.932  34.459  36.058  1.00  0.00     0.049 A 
ATOM     64  H   UNL A   1      39.800  34.276  34.115  1.00  0.00     0.167 HD
ATOM     65  C   UNL A   1      40.991  31.954  30.290  1.00  0.00     0.031 A 
ATOM     66  C   UNL A   1      39.871  35.033  36.920  1.00  0.00     0.031 A 
ATOM     67  C   UNL A   1      42.044  32.561  31.060  1.00  0.00     0.049 A 
ATOM     68  C   UNL A   1      41.190  34.791  36.325  1.00  0.00     0.074 A 
ATOM     69  C   UNL A   1      42.558  33.842  31.084  1.00  0.00     0.029 A 
ATOM     70  N   UNL A   1      42.366  31.979  32.269  1.00  0.00    -0.354 N 
ATOM     71  N   UNL A   1      41.792  33.650  36.474  1.00  0.00    -0.248 NA
ATOM     72  C   UNL A   1      41.974  35.832  35.673  1.00  0.00     0.031 C 
ATOM     73  C   UNL A   1      42.694  34.147  32.454  1.00  0.00     0.029 A 
ATOM     74  C   UNL A   1      42.663  32.968  33.187  1.00  0.00     0.049 A 
ATOM     75  H   UNL A   1      42.382  31.011  32.449  1.00  0.00     0.167 HD
ATOM     76  C   UNL A   1      42.710  33.669  35.471  1.00  0.00     0.074 A 
ATOM     77  C   UNL A   1      42.982  35.074  35.234  1.00  0.00     0.031 C 
ATOM     78  C   UNL A   1      42.656  32.637  34.592  1.00  0.00     0.031 A 
BRANCH  65  79
ATOM     79  C   UNL A   1      40.684  30.479  30.256  1.00  0.00    -0.014 A 
ATOM     80  C   UNL A   1      41.495  29.642  29.484  1.00  0.00     0.009 A 
ATOM     81  C   UNL A   1      39.488  29.950  30.784  1.00  0.00     0.009 A 
ATOM     82  C   UNL A   1      41.077  28.342  29.175  1.00  0.00     0.001 A 
ATOM     83  C   UNL A   1      39.052  28.670  30.443  1.00  0.00     0.001 A 
ATOM     84  C   UNL A   1      39.842  27.871  29.625  1.00  0.00     0.000 A 
ENDBRANCH  65  79
BRANCH  66  85
ATOM     85  C   UNL A   1      40.109  35.639  38.338  1.00  0.00    -0.014 A 
ATOM     86  C   UNL A   1      41.067  35.027  39.223  1.00  0.00     0.009 A 
ATOM     87  C   UNL A   1      39.777  36.954  38.685  1.00  0.00     0.009 A 
ATOM     88  C   UNL A   1      41.734  35.701  40.268  1.00  0.00     0.001 A 
ATOM     89  C   UNL A   1      40.421  37.626  39.767  1.00  0.00     0.001 A 
ATOM     90  C   UNL A   1      41.423  37.019  40.528  1.00  0.00     0.000 A 
ENDBRANCH  66  85
BRANCH  78  91
ATOM     91  C   UNL A   1      42.349  31.258  35.152  1.00  0.00    -0.014 A 
ATOM     92  C   UNL A   1      43.289  30.391  35.754  1.00  0.00     0.009 A 
ATOM     93  C   UNL A   1      41.038  30.779  35.019  1.00  0.00     0.009 A 
ATOM     94  C   UNL A   1      42.949  29.091  36.148  1.00  0.00     0.001 A 
ATOM     95  C   UNL A   1      40.685  29.497  35.458  1.00  0.00     0.001 A 
ATOM     96  C   UNL A   1      41.642  28.648  36.007  1.00  0.00     0.000 A 
ENDBRANCH  78  91
ENDBRANCH  52  53
ENDBRANCH  45  47
ENDBRANCH  44  45
ENDBRANCH  43  44
ENDBRANCH  42  43
ENDBRANCH  41  42
ENDBRANCH  40  41
ENDBRANCH  39  40
ENDBRANCH   1  39
TORSDOF 25
ENDMDL
