MODEL 1
REMARK VINA RESULT:     -10.1      0.000      0.000
REMARK SMILES CC(C)CSc1cc2c(cc1Cl)C=C(C(=O)OCCOCCOCCOC(=O)c1ccc(-c3c4nc(c(-c5ccccc5)c5ccc([nH]5)c(-c5ccccc5)c5nc(c(-c6ccccc6)c6ccc3[nH]6)C=C5)C=C4)cc1)[C@H](C(F)(F)F)O2
REMARK SMILES IDX 21 1 20 2 19 3 18 4 17 5 15 6 16 7 14 8 6 9 7 10 11 11 8 12
REMARK SMILES IDX 10 13 12 14 9 15 82 16 13 17 77 18 5 19 4 20 2 21 1 22 3 23
REMARK SMILES IDX 78 24 79 25 80 26 81 27 22 28 23 29 24 30 25 31 26 32 27 33
REMARK SMILES IDX 28 34 29 35 30 36 76 37 31 38 75 39 32 40 33 41 34 42 69 43
REMARK SMILES IDX 35 44 74 45 68 46 70 47 36 48 73 49 67 50 66 51 37 53 59 54
REMARK SMILES IDX 44 55 58 56 45 57 48 58 57 59 71 60 46 61 47 62 56 64 72 65
REMARK SMILES IDX 49 66 38 67 39 68 43 69 40 70 42 71 41 72 60 73 61 74 65 75
REMARK SMILES IDX 62 76 64 77 63 78 50 79 51 80 55 81 52 82 54 83 53 84
REMARK H PARENT 70 52 48 63
REMARK Flexibility Score: inf
ROOT
ATOM      1  C   UNL A   1      34.940  33.568  29.715  1.00  0.00     0.188 C 
ENDROOT
BRANCH   1   2
ATOM      2  O   UNL A   1      34.859  32.160  29.525  1.00  0.00    -0.376 OA
BRANCH   2   3
ATOM      3  C   UNL A   1      34.781  31.625  28.209  1.00  0.00     0.202 C 
BRANCH   3   4
ATOM      4  C   UNL A   1      33.431  31.633  27.472  1.00  0.00     0.261 C 
BRANCH   4   5
ATOM      5  O   UNL A   1      33.045  30.373  26.889  1.00  0.00    -0.460 OA
BRANCH   5   6
ATOM      6  C   UNL A   1      31.902  30.387  26.172  1.00  0.00     0.338 C 
ATOM      7  O   UNL A   1      31.168  31.347  25.994  1.00  0.00    -0.246 OA
BRANCH   6   8
ATOM      8  C   UNL A   1      31.697  29.105  25.474  1.00  0.00     0.087 C 
ATOM      9  C   UNL A   1      32.173  24.226  24.344  1.00  0.00     0.030 A 
ATOM     10  C   UNL A   1      32.302  25.430  23.635  1.00  0.00     0.063 A 
ATOM     11  C   UNL A   1      31.852  24.301  25.716  1.00  0.00     0.055 A 
ATOM     12  C   UNL A   1      32.069  26.661  24.250  1.00  0.00     0.129 A 
ATOM     13  C   UNL A   1      31.654  25.539  26.342  1.00  0.00     0.033 A 
ATOM     14  Cl  UNL A   1      31.705  22.900  26.727  1.00  0.00    -0.083 Cl
ATOM     15  C   UNL A   1      31.767  26.721  25.608  1.00  0.00     0.019 A 
ATOM     16  O   UNL A   1      32.232  27.776  23.471  1.00  0.00    -0.475 OA
ATOM     17  C   UNL A   1      31.718  28.017  26.260  1.00  0.00     0.027 C 
ATOM     18  C   UNL A   1      31.660  29.025  23.972  1.00  0.00     0.316 C 
BRANCH   9  19
ATOM     19  S   UNL A   1      32.457  22.635  23.559  1.00  0.00    -0.124 SA
BRANCH  19  20
ATOM     20  C   UNL A   1      34.191  22.201  23.953  1.00  0.00     0.078 C 
BRANCH  20  21
ATOM     21  C   UNL A   1      35.199  23.364  23.908  1.00  0.00    -0.007 C 
ATOM     22  C   UNL A   1      35.500  23.999  25.266  1.00  0.00     0.008 C 
ATOM     23  C   UNL A   1      36.510  22.852  23.301  1.00  0.00     0.008 C 
ENDBRANCH  20  21
ENDBRANCH  19  20
ENDBRANCH   9  19
BRANCH  18  24
ATOM     24  C   UNL A   1      30.273  29.237  23.332  1.00  0.00     0.430 C 
ATOM     25  F   UNL A   1      29.331  28.424  23.862  1.00  0.00    -0.167 F 
ATOM     26  F   UNL A   1      29.846  30.512  23.467  1.00  0.00    -0.167 F 
ATOM     27  F   UNL A   1      30.309  28.985  21.999  1.00  0.00    -0.167 F 
ENDBRANCH  18  24
ENDBRANCH   6   8
ENDBRANCH   5   6
ENDBRANCH   4   5
ENDBRANCH   3   4
ENDBRANCH   2   3
ENDBRANCH   1   2
BRANCH   1  28
ATOM     28  C   UNL A   1      34.653  34.177  31.101  1.00  0.00     0.188 C 
BRANCH  28  29
ATOM     29  O   UNL A   1      33.898  33.340  31.946  1.00  0.00    -0.376 OA
BRANCH  29  30
ATOM     30  C   UNL A   1      34.356  33.145  33.272  1.00  0.00     0.202 C 
BRANCH  30  31
ATOM     31  C   UNL A   1      35.382  34.133  33.853  1.00  0.00     0.261 C 
BRANCH  31  32
ATOM     32  O   UNL A   1      36.765  33.863  33.582  1.00  0.00    -0.460 OA
BRANCH  32  33
ATOM     33  C   UNL A   1      37.306  32.742  34.111  1.00  0.00     0.338 C 
ATOM     34  O   UNL A   1      36.989  32.189  35.150  1.00  0.00    -0.246 OA
BRANCH  33  35
ATOM     35  C   UNL A   1      38.220  32.184  33.088  1.00  0.00     0.060 A 
ATOM     36  C   UNL A   1      37.972  32.418  31.734  1.00  0.00     0.016 A 
ATOM     37  C   UNL A   1      39.300  31.380  33.481  1.00  0.00     0.016 A 
ATOM     38  C   UNL A   1      38.816  31.859  30.774  1.00  0.00     0.010 A 
ATOM     39  C   UNL A   1      40.144  30.820  32.514  1.00  0.00     0.010 A 
ATOM     40  C   UNL A   1      39.918  31.070  31.153  1.00  0.00    -0.014 A 
BRANCH  40  41
ATOM     41  C   UNL A   1      40.898  30.660  30.114  1.00  0.00     0.031 A 
ATOM     42  C   UNL A   1      42.088  31.499  29.762  1.00  0.00     0.074 A 
ATOM     43  C   UNL A   1      40.718  29.466  29.516  1.00  0.00     0.049 A 
ATOM     44  N   UNL A   1      43.119  31.181  29.019  1.00  0.00    -0.248 NA
ATOM     45  C   UNL A   1      42.132  32.866  30.300  1.00  0.00     0.031 C 
ATOM     46  C   UNL A   1      39.578  28.579  29.757  1.00  0.00     0.029 A 
ATOM     47  N   UNL A   1      41.494  28.780  28.617  1.00  0.00    -0.354 N 
ATOM     48  C   UNL A   1      43.949  32.294  29.020  1.00  0.00     0.074 A 
ATOM     49  C   UNL A   1      43.274  33.318  29.792  1.00  0.00     0.031 C 
ATOM     50  C   UNL A   1      39.759  27.442  29.071  1.00  0.00     0.029 A 
ATOM     51  C   UNL A   1      41.007  27.530  28.317  1.00  0.00     0.049 A 
ATOM     52  H   UNL A   1      42.320  29.146  28.226  1.00  0.00     0.167 HD
ATOM     53  C   UNL A   1      45.169  32.433  28.447  1.00  0.00     0.031 A 
ATOM     54  C   UNL A   1      41.511  26.550  27.543  1.00  0.00     0.031 A 
ATOM     55  C   UNL A   1      45.819  31.415  27.659  1.00  0.00     0.049 A 
ATOM     56  C   UNL A   1      42.852  26.744  26.892  1.00  0.00     0.074 A 
ATOM     57  C   UNL A   1      47.073  31.456  27.071  1.00  0.00     0.029 A 
ATOM     58  N   UNL A   1      45.270  30.182  27.338  1.00  0.00    -0.354 N 
ATOM     59  N   UNL A   1      43.671  27.764  26.982  1.00  0.00    -0.248 NA
ATOM     60  C   UNL A   1      43.353  25.644  26.055  1.00  0.00     0.031 C 
ATOM     61  C   UNL A   1      47.249  30.286  26.331  1.00  0.00     0.029 A 
ATOM     62  C   UNL A   1      46.146  29.471  26.533  1.00  0.00     0.049 A 
ATOM     63  H   UNL A   1      44.389  29.859  27.637  1.00  0.00     0.167 HD
ATOM     64  C   UNL A   1      44.794  27.418  26.242  1.00  0.00     0.074 A 
ATOM     65  C   UNL A   1      44.560  26.087  25.722  1.00  0.00     0.031 C 
ATOM     66  C   UNL A   1      45.917  28.143  26.021  1.00  0.00     0.031 A 
BRANCH  53  67
ATOM     67  C   UNL A   1      45.912  33.728  28.650  1.00  0.00    -0.014 A 
ATOM     68  C   UNL A   1      46.697  33.917  29.800  1.00  0.00     0.009 A 
ATOM     69  C   UNL A   1      45.724  34.811  27.778  1.00  0.00     0.009 A 
ATOM     70  C   UNL A   1      47.257  35.164  30.083  1.00  0.00     0.001 A 
ATOM     71  C   UNL A   1      46.312  36.050  28.046  1.00  0.00     0.001 A 
ATOM     72  C   UNL A   1      47.067  36.229  29.204  1.00  0.00     0.000 A 
ENDBRANCH  53  67
BRANCH  54  73
ATOM     73  C   UNL A   1      40.756  25.275  27.401  1.00  0.00    -0.014 A 
ATOM     74  C   UNL A   1      41.214  24.103  28.025  1.00  0.00     0.009 A 
ATOM     75  C   UNL A   1      39.614  25.205  26.590  1.00  0.00     0.009 A 
ATOM     76  C   UNL A   1      40.563  22.885  27.819  1.00  0.00     0.001 A 
ATOM     77  C   UNL A   1      38.942  23.992  26.415  1.00  0.00     0.001 A 
ATOM     78  C   UNL A   1      39.424  22.832  27.019  1.00  0.00     0.000 A 
ENDBRANCH  54  73
BRANCH  66  79
ATOM     79  C   UNL A   1      47.018  27.523  25.200  1.00  0.00    -0.014 A 
ATOM     80  C   UNL A   1      47.970  26.701  25.825  1.00  0.00     0.009 A 
ATOM     81  C   UNL A   1      47.193  27.849  23.846  1.00  0.00     0.009 A 
ATOM     82  C   UNL A   1      49.087  26.240  25.124  1.00  0.00     0.001 A 
ATOM     83  C   UNL A   1      48.292  27.357  23.137  1.00  0.00     0.001 A 
ATOM     84  C   UNL A   1      49.245  26.566  23.779  1.00  0.00     0.000 A 
ENDBRANCH  66  79
ENDBRANCH  40  41
ENDBRANCH  33  35
ENDBRANCH  32  33
ENDBRANCH  31  32
ENDBRANCH  30  31
ENDBRANCH  29  30
ENDBRANCH  28  29
ENDBRANCH   1  28
TORSDOF 21
ENDMDL
MODEL 2
REMARK VINA RESULT:     -10.1      1.449      6.017
REMARK SMILES CC(C)CSc1cc2c(cc1Cl)C=C(C(=O)OCCOCCOCCOC(=O)c1ccc(-c3c4nc(c(-c5ccccc5)c5ccc([nH]5)c(-c5ccccc5)c5nc(c(-c6ccccc6)c6ccc3[nH]6)C=C5)C=C4)cc1)[C@H](C(F)(F)F)O2
REMARK SMILES IDX 21 1 20 2 19 3 18 4 17 5 15 6 16 7 14 8 6 9 7 10 11 11 8 12
REMARK SMILES IDX 10 13 12 14 9 15 82 16 13 17 77 18 5 19 4 20 2 21 1 22 3 23
REMARK SMILES IDX 78 24 79 25 80 26 81 27 22 28 23 29 24 30 25 31 26 32 27 33
REMARK SMILES IDX 28 34 29 35 30 36 76 37 31 38 75 39 32 40 33 41 34 42 69 43
REMARK SMILES IDX 35 44 74 45 68 46 70 47 36 48 73 49 67 50 66 51 37 53 59 54
REMARK SMILES IDX 44 55 58 56 45 57 48 58 57 59 71 60 46 61 47 62 56 64 72 65
REMARK SMILES IDX 49 66 38 67 39 68 43 69 40 70 42 71 41 72 60 73 61 74 65 75
REMARK SMILES IDX 62 76 64 77 63 78 50 79 51 80 55 81 52 82 54 83 53 84
REMARK H PARENT 70 52 48 63
REMARK Flexibility Score: inf
ROOT
ATOM      1  C   UNL A   1      34.119  32.675  27.970  1.00  0.00     0.188 C 
ENDROOT
BRANCH   1   2
ATOM      2  O   UNL A   1      34.617  31.387  27.630  1.00  0.00    -0.376 OA
BRANCH   2   3
ATOM      3  C   UNL A   1      33.719  30.291  27.493  1.00  0.00     0.202 C 
BRANCH   3   4
ATOM      4  C   UNL A   1      33.003  30.070  26.150  1.00  0.00     0.261 C 
BRANCH   4   5
ATOM      5  O   UNL A   1      32.170  28.895  26.087  1.00  0.00    -0.460 OA
BRANCH   5   6
ATOM      6  C   UNL A   1      31.811  28.500  24.848  1.00  0.00     0.338 C 
ATOM      7  O   UNL A   1      31.271  29.186  23.994  1.00  0.00    -0.246 OA
BRANCH   6   8
ATOM      8  C   UNL A   1      32.289  27.134  24.567  1.00  0.00     0.087 C 
ATOM      9  C   UNL A   1      34.827  22.824  25.112  1.00  0.00     0.030 A 
ATOM     10  C   UNL A   1      34.680  23.771  24.087  1.00  0.00     0.063 A 
ATOM     11  C   UNL A   1      34.153  23.061  26.329  1.00  0.00     0.055 A 
ATOM     12  C   UNL A   1      33.853  24.884  24.242  1.00  0.00     0.129 A 
ATOM     13  C   UNL A   1      33.351  24.198  26.498  1.00  0.00     0.033 A 
ATOM     14  Cl  UNL A   1      34.279  22.003  27.697  1.00  0.00    -0.083 Cl
ATOM     15  C   UNL A   1      33.204  25.112  25.454  1.00  0.00     0.019 A 
ATOM     16  O   UNL A   1      33.787  25.752  23.184  1.00  0.00    -0.475 OA
ATOM     17  C   UNL A   1      32.507  26.371  25.650  1.00  0.00     0.027 C 
ATOM     18  C   UNL A   1      32.681  26.708  23.178  1.00  0.00     0.316 C 
BRANCH   9  19
ATOM     19  S   UNL A   1      35.879  21.380  24.918  1.00  0.00    -0.124 SA
BRANCH  19  20
ATOM     20  C   UNL A   1      34.733  19.967  24.721  1.00  0.00     0.078 C 
BRANCH  20  21
ATOM     21  C   UNL A   1      33.232  20.313  24.747  1.00  0.00    -0.007 C 
ATOM     22  C   UNL A   1      32.618  20.589  23.374  1.00  0.00     0.008 C 
ATOM     23  C   UNL A   1      32.474  19.154  25.403  1.00  0.00     0.008 C 
ENDBRANCH  20  21
ENDBRANCH  19  20
ENDBRANCH   9  19
BRANCH  18  24
ATOM     24  C   UNL A   1      31.536  26.150  22.310  1.00  0.00     0.430 C 
ATOM     25  F   UNL A   1      31.262  24.854  22.587  1.00  0.00    -0.167 F 
ATOM     26  F   UNL A   1      30.395  26.857  22.463  1.00  0.00    -0.167 F 
ATOM     27  F   UNL A   1      31.850  26.213  20.991  1.00  0.00    -0.167 F 
ENDBRANCH  18  24
ENDBRANCH   6   8
ENDBRANCH   5   6
ENDBRANCH   4   5
ENDBRANCH   3   4
ENDBRANCH   2   3
ENDBRANCH   1   2
BRANCH   1  28
ATOM     28  C   UNL A   1      35.066  33.891  27.982  1.00  0.00     0.188 C 
BRANCH  28  29
ATOM     29  O   UNL A   1      35.176  34.512  29.242  1.00  0.00    -0.376 OA
BRANCH  29  30
ATOM     30  C   UNL A   1      34.061  34.449  30.114  1.00  0.00     0.202 C 
BRANCH  30  31
ATOM     31  C   UNL A   1      34.216  33.725  31.461  1.00  0.00     0.261 C 
BRANCH  31  32
ATOM     32  O   UNL A   1      34.952  32.492  31.453  1.00  0.00    -0.460 OA
BRANCH  32  33
ATOM     33  C   UNL A   1      35.873  32.299  32.424  1.00  0.00     0.338 C 
ATOM     34  O   UNL A   1      35.698  32.352  33.629  1.00  0.00    -0.246 OA
BRANCH  33  35
ATOM     35  C   UNL A   1      37.099  31.803  31.757  1.00  0.00     0.060 A 
ATOM     36  C   UNL A   1      38.083  31.156  32.505  1.00  0.00     0.016 A 
ATOM     37  C   UNL A   1      37.289  32.032  30.387  1.00  0.00     0.016 A 
ATOM     38  C   UNL A   1      39.252  30.723  31.878  1.00  0.00     0.010 A 
ATOM     39  C   UNL A   1      38.464  31.598  29.760  1.00  0.00     0.010 A 
ATOM     40  C   UNL A   1      39.447  30.924  30.499  1.00  0.00    -0.014 A 
BRANCH  40  41
ATOM     41  C   UNL A   1      40.609  30.277  29.837  1.00  0.00     0.031 A 
ATOM     42  C   UNL A   1      40.539  28.892  29.272  1.00  0.00     0.074 A 
ATOM     43  C   UNL A   1      41.740  30.999  29.709  1.00  0.00     0.049 A 
ATOM     44  N   UNL A   1      41.408  28.280  28.506  1.00  0.00    -0.248 NA
ATOM     45  C   UNL A   1      39.356  28.087  29.605  1.00  0.00     0.031 C 
ATOM     46  C   UNL A   1      41.933  32.346  30.249  1.00  0.00     0.029 A 
ATOM     47  N   UNL A   1      42.920  30.722  29.065  1.00  0.00    -0.354 N 
ATOM     48  C   UNL A   1      40.868  27.028  28.242  1.00  0.00     0.074 A 
ATOM     49  C   UNL A   1      39.621  26.947  28.975  1.00  0.00     0.031 C 
ATOM     50  C   UNL A   1      43.134  32.801  29.865  1.00  0.00     0.029 A 
ATOM     51  C   UNL A   1      43.808  31.771  29.080  1.00  0.00     0.049 A 
ATOM     52  H   UNL A   1      43.111  29.858  28.634  1.00  0.00     0.167 HD
ATOM     53  C   UNL A   1      41.361  26.051  27.442  1.00  0.00     0.031 A 
ATOM     54  C   UNL A   1      45.021  31.906  28.510  1.00  0.00     0.031 A 
ATOM     55  C   UNL A   1      42.617  26.135  26.736  1.00  0.00     0.049 A 
ATOM     56  C   UNL A   1      45.560  30.794  27.654  1.00  0.00     0.074 A 
ATOM     57  C   UNL A   1      43.178  25.207  25.873  1.00  0.00     0.029 A 
ATOM     58  N   UNL A   1      43.510  27.193  26.818  1.00  0.00    -0.354 N 
ATOM     59  N   UNL A   1      44.994  29.655  27.333  1.00  0.00    -0.248 NA
ATOM     60  C   UNL A   1      46.889  30.992  27.059  1.00  0.00     0.031 C 
ATOM     61  C   UNL A   1      44.441  25.666  25.497  1.00  0.00     0.029 A 
ATOM     62  C   UNL A   1      44.631  26.924  26.047  1.00  0.00     0.049 A 
ATOM     63  H   UNL A   1      43.369  28.013  27.344  1.00  0.00     0.167 HD
ATOM     64  C   UNL A   1      45.882  29.017  26.476  1.00  0.00     0.074 A 
ATOM     65  C   UNL A   1      47.016  29.901  26.314  1.00  0.00     0.031 C 
ATOM     66  C   UNL A   1      45.758  27.807  25.878  1.00  0.00     0.031 A 
BRANCH  53  67
ATOM     67  C   UNL A   1      40.548  24.797  27.259  1.00  0.00    -0.014 A 
ATOM     68  C   UNL A   1      41.058  23.558  27.684  1.00  0.00     0.009 A 
ATOM     69  C   UNL A   1      39.342  24.819  26.541  1.00  0.00     0.009 A 
ATOM     70  C   UNL A   1      40.392  22.370  27.375  1.00  0.00     0.001 A 
ATOM     71  C   UNL A   1      38.661  23.631  26.262  1.00  0.00     0.001 A 
ATOM     72  C   UNL A   1      39.192  22.408  26.666  1.00  0.00     0.000 A 
ENDBRANCH  53  67
BRANCH  54  73
ATOM     73  C   UNL A   1      45.772  33.178  28.691  1.00  0.00    -0.014 A 
ATOM     74  C   UNL A   1      45.629  34.228  27.767  1.00  0.00     0.009 A 
ATOM     75  C   UNL A   1      46.683  33.329  29.746  1.00  0.00     0.009 A 
ATOM     76  C   UNL A   1      46.400  35.386  27.880  1.00  0.00     0.001 A 
ATOM     77  C   UNL A   1      47.427  34.505  29.879  1.00  0.00     0.001 A 
ATOM     78  C   UNL A   1      47.294  35.526  28.939  1.00  0.00     0.000 A 
ENDBRANCH  54  73
BRANCH  66  79
ATOM     79  C   UNL A   1      46.859  27.348  24.958  1.00  0.00    -0.014 A 
ATOM     80  C   UNL A   1      47.840  26.464  25.438  1.00  0.00     0.009 A 
ATOM     81  C   UNL A   1      47.003  27.880  23.667  1.00  0.00     0.009 A 
ATOM     82  C   UNL A   1      48.955  26.145  24.661  1.00  0.00     0.001 A 
ATOM     83  C   UNL A   1      48.101  27.529  22.877  1.00  0.00     0.001 A 
ATOM     84  C   UNL A   1      49.082  26.675  23.379  1.00  0.00     0.000 A 
ENDBRANCH  66  79
ENDBRANCH  40  41
ENDBRANCH  33  35
ENDBRANCH  32  33
ENDBRANCH  31  32
ENDBRANCH  30  31
ENDBRANCH  29  30
ENDBRANCH  28  29
ENDBRANCH   1  28
TORSDOF 21
ENDMDL
MODEL 3
REMARK VINA RESULT:      -9.9      4.717     10.244
REMARK SMILES CC(C)CSc1cc2c(cc1Cl)C=C(C(=O)OCCOCCOCCOC(=O)c1ccc(-c3c4nc(c(-c5ccccc5)c5ccc([nH]5)c(-c5ccccc5)c5nc(c(-c6ccccc6)c6ccc3[nH]6)C=C5)C=C4)cc1)[C@H](C(F)(F)F)O2
REMARK SMILES IDX 21 1 20 2 19 3 18 4 17 5 15 6 16 7 14 8 6 9 7 10 11 11 8 12
REMARK SMILES IDX 10 13 12 14 9 15 82 16 13 17 77 18 5 19 4 20 2 21 1 22 3 23
REMARK SMILES IDX 78 24 79 25 80 26 81 27 22 28 23 29 24 30 25 31 26 32 27 33
REMARK SMILES IDX 28 34 29 35 30 36 76 37 31 38 75 39 32 40 33 41 34 42 69 43
REMARK SMILES IDX 35 44 74 45 68 46 70 47 36 48 73 49 67 50 66 51 37 53 59 54
REMARK SMILES IDX 44 55 58 56 45 57 48 58 57 59 71 60 46 61 47 62 56 64 72 65
REMARK SMILES IDX 49 66 38 67 39 68 43 69 40 70 42 71 41 72 60 73 61 74 65 75
REMARK SMILES IDX 62 76 64 77 63 78 50 79 51 80 55 81 52 82 54 83 53 84
REMARK H PARENT 70 52 48 63
REMARK Flexibility Score: inf
ROOT
ATOM      1  C   UNL A   1      39.912  21.259  25.785  1.00  0.00     0.188 C 
ENDROOT
BRANCH   1   2
ATOM      2  O   UNL A   1      38.581  21.668  26.074  1.00  0.00    -0.376 OA
BRANCH   2   3
ATOM      3  C   UNL A   1      37.635  21.808  25.019  1.00  0.00     0.202 C 
BRANCH   3   4
ATOM      4  C   UNL A   1      36.491  20.788  24.894  1.00  0.00     0.261 C 
BRANCH   4   5
ATOM      5  O   UNL A   1      35.279  21.140  25.589  1.00  0.00    -0.460 OA
BRANCH   5   6
ATOM      6  C   UNL A   1      34.164  21.187  24.830  1.00  0.00     0.338 C 
ATOM      7  O   UNL A   1      33.641  20.249  24.249  1.00  0.00    -0.246 OA
BRANCH   6   8
ATOM      8  C   UNL A   1      33.531  22.517  24.897  1.00  0.00     0.087 C 
ATOM      9  C   UNL A   1      33.013  27.510  24.571  1.00  0.00     0.030 A 
ATOM     10  C   UNL A   1      32.799  26.550  25.571  1.00  0.00     0.063 A 
ATOM     11  C   UNL A   1      33.509  27.066  23.327  1.00  0.00     0.055 A 
ATOM     12  C   UNL A   1      33.019  25.192  25.331  1.00  0.00     0.129 A 
ATOM     13  C   UNL A   1      33.764  25.707  23.098  1.00  0.00     0.033 A 
ATOM     14  Cl  UNL A   1      33.863  28.144  22.016  1.00  0.00    -0.083 Cl
ATOM     15  C   UNL A   1      33.522  24.770  24.103  1.00  0.00     0.019 A 
ATOM     16  O   UNL A   1      32.789  24.339  26.378  1.00  0.00    -0.475 OA
ATOM     17  C   UNL A   1      33.919  23.382  23.947  1.00  0.00     0.027 C 
ATOM     18  C   UNL A   1      32.665  22.917  26.060  1.00  0.00     0.316 C 
BRANCH   9  19
ATOM     19  S   UNL A   1      32.720  29.258  24.866  1.00  0.00    -0.124 SA
BRANCH  19  20
ATOM     20  C   UNL A   1      30.984  29.552  24.364  1.00  0.00     0.078 C 
BRANCH  20  21
ATOM     21  C   UNL A   1      30.412  28.571  23.325  1.00  0.00    -0.007 C 
ATOM     22  C   UNL A   1      29.625  27.402  23.917  1.00  0.00     0.008 C 
ATOM     23  C   UNL A   1      29.500  29.347  22.369  1.00  0.00     0.008 C 
ENDBRANCH  20  21
ENDBRANCH  19  20
ENDBRANCH   9  19
BRANCH  18  24
ATOM     24  C   UNL A   1      31.172  22.558  25.927  1.00  0.00     0.430 C 
ATOM     25  F   UNL A   1      30.547  23.294  24.979  1.00  0.00    -0.167 F 
ATOM     26  F   UNL A   1      30.991  21.254  25.627  1.00  0.00    -0.167 F 
ATOM     27  F   UNL A   1      30.513  22.777  27.093  1.00  0.00    -0.167 F 
ENDBRANCH  18  24
ENDBRANCH   6   8
ENDBRANCH   5   6
ENDBRANCH   4   5
ENDBRANCH   3   4
ENDBRANCH   2   3
ENDBRANCH   1   2
BRANCH   1  28
ATOM     28  C   UNL A   1      40.392  19.850  26.186  1.00  0.00     0.188 C 
BRANCH  28  29
ATOM     29  O   UNL A   1      41.794  19.718  26.228  1.00  0.00    -0.376 OA
BRANCH  29  30
ATOM     30  C   UNL A   1      42.555  20.841  26.636  1.00  0.00     0.202 C 
BRANCH  30  31
ATOM     31  C   UNL A   1      43.578  21.438  25.656  1.00  0.00     0.261 C 
BRANCH  31  32
ATOM     32  O   UNL A   1      44.361  22.543  26.131  1.00  0.00    -0.460 OA
BRANCH  32  33
ATOM     33  C   UNL A   1      44.276  23.715  25.461  1.00  0.00     0.338 C 
ATOM     34  O   UNL A   1      44.469  23.899  24.272  1.00  0.00    -0.246 OA
BRANCH  33  35
ATOM     35  C   UNL A   1      43.697  24.703  26.399  1.00  0.00     0.060 A 
ATOM     36  C   UNL A   1      42.823  24.280  27.401  1.00  0.00     0.016 A 
ATOM     37  C   UNL A   1      43.989  26.066  26.244  1.00  0.00     0.016 A 
ATOM     38  C   UNL A   1      42.251  25.222  28.258  1.00  0.00     0.010 A 
ATOM     39  C   UNL A   1      43.414  27.008  27.106  1.00  0.00     0.010 A 
ATOM     40  C   UNL A   1      42.553  26.590  28.131  1.00  0.00    -0.014 A 
BRANCH  40  41
ATOM     41  C   UNL A   1      42.083  27.529  29.181  1.00  0.00     0.031 A 
ATOM     42  C   UNL A   1      40.827  28.332  29.033  1.00  0.00     0.074 A 
ATOM     43  C   UNL A   1      42.801  27.611  30.318  1.00  0.00     0.049 A 
ATOM     44  N   UNL A   1      40.201  29.040  29.940  1.00  0.00    -0.248 NA
ATOM     45  C   UNL A   1      40.191  28.351  27.708  1.00  0.00     0.031 C 
ATOM     46  C   UNL A   1      44.058  26.900  30.560  1.00  0.00     0.029 A 
ATOM     47  N   UNL A   1      42.569  28.291  31.487  1.00  0.00    -0.354 N 
ATOM     48  C   UNL A   1      39.084  29.569  29.307  1.00  0.00     0.074 A 
ATOM     49  C   UNL A   1      39.147  29.145  27.923  1.00  0.00     0.031 C 
ATOM     50  C   UNL A   1      44.456  27.134  31.819  1.00  0.00     0.029 A 
ATOM     51  C   UNL A   1      43.503  28.034  32.463  1.00  0.00     0.049 A 
ATOM     52  H   UNL A   1      41.809  28.902  31.615  1.00  0.00     0.167 HD
ATOM     53  C   UNL A   1      38.090  30.319  29.843  1.00  0.00     0.031 A 
ATOM     54  C   UNL A   1      43.580  28.453  33.741  1.00  0.00     0.031 A 
ATOM     55  C   UNL A   1      38.051  30.756  31.217  1.00  0.00     0.049 A 
ATOM     56  C   UNL A   1      42.479  29.311  34.301  1.00  0.00     0.074 A 
ATOM     57  C   UNL A   1      37.063  31.488  31.856  1.00  0.00     0.029 A 
ATOM     58  N   UNL A   1      39.041  30.517  32.159  1.00  0.00    -0.354 N 
ATOM     59  N   UNL A   1      41.379  29.721  33.718  1.00  0.00    -0.248 NA
ATOM     60  C   UNL A   1      42.615  29.742  35.700  1.00  0.00     0.031 C 
ATOM     61  C   UNL A   1      37.490  31.758  33.156  1.00  0.00     0.029 A 
ATOM     62  C   UNL A   1      38.700  31.116  33.362  1.00  0.00     0.049 A 
ATOM     63  H   UNL A   1      39.862  29.998  31.998  1.00  0.00     0.167 HD
ATOM     64  C   UNL A   1      40.678  30.431  34.685  1.00  0.00     0.074 A 
ATOM     65  C   UNL A   1      41.469  30.381  35.897  1.00  0.00     0.031 C 
ATOM     66  C   UNL A   1      39.483  31.061  34.572  1.00  0.00     0.031 A 
BRANCH  53  67
ATOM     67  C   UNL A   1      36.937  30.717  28.959  1.00  0.00    -0.014 A 
ATOM     68  C   UNL A   1      36.775  32.059  28.574  1.00  0.00     0.009 A 
ATOM     69  C   UNL A   1      35.935  29.793  28.622  1.00  0.00     0.009 A 
ATOM     70  C   UNL A   1      35.626  32.470  27.894  1.00  0.00     0.001 A 
ATOM     71  C   UNL A   1      34.802  30.202  27.913  1.00  0.00     0.001 A 
ATOM     72  C   UNL A   1      34.642  31.541  27.562  1.00  0.00     0.000 A 
ENDBRANCH  53  67
BRANCH  54  73
ATOM     73  C   UNL A   1      44.719  28.004  34.585  1.00  0.00    -0.014 A 
ATOM     74  C   UNL A   1      44.611  26.845  35.373  1.00  0.00     0.009 A 
ATOM     75  C   UNL A   1      45.897  28.763  34.662  1.00  0.00     0.009 A 
ATOM     76  C   UNL A   1      45.642  26.472  36.238  1.00  0.00     0.001 A 
ATOM     77  C   UNL A   1      46.942  28.367  35.501  1.00  0.00     0.001 A 
ATOM     78  C   UNL A   1      46.809  27.230  36.296  1.00  0.00     0.000 A 
ENDBRANCH  54  73
BRANCH  66  79
ATOM     79  C   UNL A   1      38.914  31.740  35.790  1.00  0.00    -0.014 A 
ATOM     80  C   UNL A   1      38.153  30.995  36.707  1.00  0.00     0.009 A 
ATOM     81  C   UNL A   1      39.018  33.128  35.970  1.00  0.00     0.009 A 
ATOM     82  C   UNL A   1      37.485  31.625  37.759  1.00  0.00     0.001 A 
ATOM     83  C   UNL A   1      38.379  33.752  37.044  1.00  0.00     0.001 A 
ATOM     84  C   UNL A   1      37.602  33.003  37.929  1.00  0.00     0.000 A 
ENDBRANCH  66  79
ENDBRANCH  40  41
ENDBRANCH  33  35
ENDBRANCH  32  33
ENDBRANCH  31  32
ENDBRANCH  30  31
ENDBRANCH  29  30
ENDBRANCH  28  29
ENDBRANCH   1  28
TORSDOF 21
ENDMDL
