MODEL 1
REMARK VINA RESULT:     -10.5      0.000      0.000
REMARK SMILES COc1ccc(/C(=C/C(=O)OCCOCCOCCOC(=O)c2ccc(-c3c4nc(c(-c5ccccc5)c5ccc([nH]5)c(-c5ccccc5)c5nc(c(-c6ccccc6)c6ccc3[nH]6)C=C5)C=C4)cc2)C(C)C)cc1C
REMARK SMILES IDX 15 1 14 2 13 3 12 4 11 5 9 6 10 7 8 8 7 9 6 10 3 11 4 12
REMARK SMILES IDX 75 13 5 14 74 15 76 16 2 17 1 18 71 19 72 20 73 21 16 22
REMARK SMILES IDX 17 23 18 24 19 25 20 26 21 27 22 28 23 29 24 30 70 31 25 32
REMARK SMILES IDX 69 33 26 34 27 35 28 36 63 37 29 38 68 39 62 40 64 41 30 42
REMARK SMILES IDX 67 43 61 44 60 45 31 47 53 48 38 49 52 50 39 51 42 52 51 53
REMARK SMILES IDX 65 54 40 55 41 56 50 58 66 59 43 60 32 61 33 62 37 63 34 64
REMARK SMILES IDX 36 65 35 66 54 67 55 68 59 69 56 70 58 71 57 72 44 73 45 74
REMARK SMILES IDX 49 75 46 76 48 77 47 78
REMARK H PARENT 64 46 42 57
REMARK Flexibility Score: inf
ROOT
ATOM      1  C   UNL A   1      42.292  20.764  26.635  1.00  0.00     0.188 C 
ENDROOT
BRANCH   1   2
ATOM      2  O   UNL A   1      41.219  21.374  27.333  1.00  0.00    -0.376 OA
BRANCH   2   3
ATOM      3  C   UNL A   1      40.067  22.119  26.899  1.00  0.00     0.202 C 
BRANCH   3   4
ATOM      4  C   UNL A   1      38.845  21.910  25.780  1.00  0.00     0.261 C 
BRANCH   4   5
ATOM      5  O   UNL A   1      37.194  22.477  25.638  1.00  0.00    -0.460 OA
BRANCH   5   6
ATOM      6  C   UNL A   1      35.991  22.365  24.836  1.00  0.00     0.331 C 
ATOM      7  O   UNL A   1      35.549  21.339  24.316  1.00  0.00    -0.247 OA
BRANCH   6   8
ATOM      8  C   UNL A   1      35.256  23.521  24.265  1.00  0.00     0.098 C 
ATOM      9  C   UNL A   1      34.249  23.978  25.028  1.00  0.00    -0.031 C 
BRANCH   9  10
ATOM     10  C   UNL A   1      33.766  25.399  24.978  1.00  0.00    -0.021 A 
ATOM     11  C   UNL A   1      32.444  27.912  24.865  1.00  0.00     0.121 A 
ATOM     12  C   UNL A   1      32.392  27.032  23.792  1.00  0.00     0.047 A 
ATOM     13  C   UNL A   1      33.258  27.623  25.963  1.00  0.00    -0.008 A 
ATOM     14  C   UNL A   1      33.040  25.804  23.856  1.00  0.00     0.012 A 
ATOM     15  C   UNL A   1      33.894  26.351  26.022  1.00  0.00     0.015 A 
ATOM     16  C   UNL A   1      33.430  28.614  27.087  1.00  0.00     0.048 C 
BRANCH  11  17
ATOM     17  O   UNL A   1      31.717  29.075  24.839  1.00  0.00    -0.496 OA
ATOM     18  C   UNL A   1      30.861  29.132  23.691  1.00  0.00     0.278 C 
ENDBRANCH  11  17
ENDBRANCH   9  10
BRANCH   9  19
ATOM     19  C   UNL A   1      33.657  22.969  26.016  1.00  0.00     0.014 C 
ATOM     20  C   UNL A   1      34.309  22.935  27.392  1.00  0.00     0.012 C 
ATOM     21  C   UNL A   1      32.138  22.979  25.892  1.00  0.00     0.012 C 
ENDBRANCH   9  19
ENDBRANCH   6   8
ENDBRANCH   5   6
ENDBRANCH   4   5
ENDBRANCH   3   4
ENDBRANCH   2   3
ENDBRANCH   1   2
BRANCH   1  22
ATOM     22  C   UNL A   1      43.008  21.453  25.511  1.00  0.00     0.188 C 
BRANCH  22  23
ATOM     23  O   UNL A   1      44.305  21.795  25.940  1.00  0.00    -0.376 OA
BRANCH  23  24
ATOM     24  C   UNL A   1      44.369  23.051  26.590  1.00  0.00     0.202 C 
BRANCH  24  25
ATOM     25  C   UNL A   1      44.412  24.244  25.615  1.00  0.00     0.261 C 
BRANCH  25  26
ATOM     26  O   UNL A   1      43.479  25.279  26.011  1.00  0.00    -0.460 OA
BRANCH  26  27
ATOM     27  C   UNL A   1      43.540  26.500  25.355  1.00  0.00     0.338 C 
ATOM     28  O   UNL A   1      44.538  27.034  24.967  1.00  0.00    -0.246 OA
BRANCH  27  29
ATOM     29  C   UNL A   1      42.196  27.174  25.490  1.00  0.00     0.060 A 
ATOM     30  C   UNL A   1      41.951  28.549  25.597  1.00  0.00     0.016 A 
ATOM     31  C   UNL A   1      41.220  26.396  25.970  1.00  0.00     0.016 A 
ATOM     32  C   UNL A   1      40.924  29.105  26.497  1.00  0.00     0.010 A 
ATOM     33  C   UNL A   1      40.428  26.973  26.961  1.00  0.00     0.010 A 
ATOM     34  C   UNL A   1      40.204  28.331  27.406  1.00  0.00    -0.014 A 
BRANCH  34  35
ATOM     35  C   UNL A   1      39.308  28.983  28.759  1.00  0.00     0.031 A 
ATOM     36  C   UNL A   1      38.144  30.184  28.955  1.00  0.00     0.074 A 
ATOM     37  C   UNL A   1      39.538  28.502  30.007  1.00  0.00     0.049 A 
ATOM     38  N   UNL A   1      38.358  31.300  29.625  1.00  0.00    -0.248 NA
ATOM     39  C   UNL A   1      36.749  30.269  28.402  1.00  0.00     0.031 C 
ATOM     40  C   UNL A   1      38.875  28.860  31.271  1.00  0.00     0.029 A 
ATOM     41  N   UNL A   1      40.473  27.550  30.399  1.00  0.00    -0.354 N 
ATOM     42  C   UNL A   1      37.289  32.177  29.387  1.00  0.00     0.074 A 
ATOM     43  C   UNL A   1      36.425  31.560  28.449  1.00  0.00     0.031 C 
ATOM     44  C   UNL A   1      39.629  28.415  32.290  1.00  0.00     0.029 A 
ATOM     45  C   UNL A   1      40.833  27.842  31.716  1.00  0.00     0.049 A 
ATOM     46  H   UNL A   1      40.818  26.808  29.850  1.00  0.00     0.167 HD
ATOM     47  C   UNL A   1      36.955  33.264  30.135  1.00  0.00     0.031 A 
ATOM     48  C   UNL A   1      42.119  28.186  31.988  1.00  0.00     0.031 A 
ATOM     49  C   UNL A   1      37.598  33.142  31.409  1.00  0.00     0.049 A 
ATOM     50  C   UNL A   1      42.182  29.602  32.502  1.00  0.00     0.074 A 
ATOM     51  C   UNL A   1      37.207  32.408  32.516  1.00  0.00     0.029 A 
ATOM     52  N   UNL A   1      38.966  33.309  31.481  1.00  0.00    -0.354 N 
ATOM     53  N   UNL A   1      41.279  30.520  32.272  1.00  0.00    -0.248 NA
ATOM     54  C   UNL A   1      43.259  30.072  33.364  1.00  0.00     0.031 C 
ATOM     55  C   UNL A   1      38.384  32.029  33.204  1.00  0.00     0.029 A 
ATOM     56  C   UNL A   1      39.459  32.638  32.580  1.00  0.00     0.049 A 
ATOM     57  H   UNL A   1      39.508  33.830  30.844  1.00  0.00     0.167 HD
ATOM     58  C   UNL A   1      41.617  31.662  32.950  1.00  0.00     0.074 A 
ATOM     59  C   UNL A   1      42.863  31.331  33.613  1.00  0.00     0.031 C 
ATOM     60  C   UNL A   1      40.850  32.791  32.950  1.00  0.00     0.031 A 
BRANCH  47  61
ATOM     61  C   UNL A   1      35.717  34.078  29.821  1.00  0.00    -0.014 A 
ATOM     62  C   UNL A   1      34.771  34.387  30.811  1.00  0.00     0.009 A 
ATOM     63  C   UNL A   1      35.415  34.494  28.504  1.00  0.00     0.009 A 
ATOM     64  C   UNL A   1      33.547  35.000  30.495  1.00  0.00     0.001 A 
ATOM     65  C   UNL A   1      34.183  35.092  28.181  1.00  0.00     0.001 A 
ATOM     66  C   UNL A   1      33.243  35.333  29.177  1.00  0.00     0.000 A 
ENDBRANCH  47  61
BRANCH  48  67
ATOM     67  C   UNL A   1      43.127  27.487  31.123  1.00  0.00    -0.014 A 
ATOM     68  C   UNL A   1      43.838  26.396  31.687  1.00  0.00     0.009 A 
ATOM     69  C   UNL A   1      43.168  27.635  29.731  1.00  0.00     0.009 A 
ATOM     70  C   UNL A   1      44.443  25.418  30.890  1.00  0.00     0.001 A 
ATOM     71  C   UNL A   1      43.814  26.672  28.933  1.00  0.00     0.001 A 
ATOM     72  C   UNL A   1      44.418  25.549  29.509  1.00  0.00     0.000 A 
ENDBRANCH  48  67
BRANCH  60  73
ATOM     73  C   UNL A   1      41.286  34.167  33.393  1.00  0.00    -0.014 A 
ATOM     74  C   UNL A   1      40.881  34.765  34.588  1.00  0.00     0.009 A 
ATOM     75  C   UNL A   1      42.280  34.852  32.649  1.00  0.00     0.009 A 
ATOM     76  C   UNL A   1      41.391  36.006  34.987  1.00  0.00     0.001 A 
ATOM     77  C   UNL A   1      42.846  36.051  33.080  1.00  0.00     0.001 A 
ATOM     78  C   UNL A   1      42.382  36.640  34.243  1.00  0.00     0.000 A 
ENDBRANCH  60  73
ENDBRANCH  34  35
ENDBRANCH  27  29
ENDBRANCH  26  27
ENDBRANCH  25  26
ENDBRANCH  24  25
ENDBRANCH  23  24
ENDBRANCH  22  23
ENDBRANCH   1  22
TORSDOF 20
ENDMDL
MODEL 2
REMARK VINA RESULT:     -10.4      2.923      4.791
REMARK SMILES COc1ccc(/C(=C/C(=O)OCCOCCOCCOC(=O)c2ccc(-c3c4nc(c(-c5ccccc5)c5ccc([nH]5)c(-c5ccccc5)c5nc(c(-c6ccccc6)c6ccc3[nH]6)C=C5)C=C4)cc2)C(C)C)cc1C
REMARK SMILES IDX 15 1 14 2 13 3 12 4 11 5 9 6 10 7 8 8 7 9 6 10 3 11 4 12
REMARK SMILES IDX 75 13 5 14 74 15 76 16 2 17 1 18 71 19 72 20 73 21 16 22
REMARK SMILES IDX 17 23 18 24 19 25 20 26 21 27 22 28 23 29 24 30 70 31 25 32
REMARK SMILES IDX 69 33 26 34 27 35 28 36 63 37 29 38 68 39 62 40 64 41 30 42
REMARK SMILES IDX 67 43 61 44 60 45 31 47 53 48 38 49 52 50 39 51 42 52 51 53
REMARK SMILES IDX 65 54 40 55 41 56 50 58 66 59 43 60 32 61 33 62 37 63 34 64
REMARK SMILES IDX 36 65 35 66 54 67 55 68 59 69 56 70 58 71 57 72 44 73 45 74
REMARK SMILES IDX 49 75 46 76 48 77 47 78
REMARK H PARENT 64 46 42 57
REMARK Flexibility Score: inf
ROOT
ATOM      1  C   UNL A   1      37.031  21.352  25.380  1.00  0.00     0.188 C 
ENDROOT
BRANCH   1   2
ATOM      2  O   UNL A   1      36.579  22.688  25.530  1.00  0.00    -0.376 OA
BRANCH   2   3
ATOM      3  C   UNL A   1      35.490  23.275  26.265  1.00  0.00     0.202 C 
BRANCH   3   4
ATOM      4  C   UNL A   1      34.490  24.601  26.088  1.00  0.00     0.261 C 
BRANCH   4   5
ATOM      5  O   UNL A   1      32.765  24.869  26.224  1.00  0.00    -0.460 OA
BRANCH   5   6
ATOM      6  C   UNL A   1      31.483  24.191  26.272  1.00  0.00     0.331 C 
ATOM      7  O   UNL A   1      30.445  24.620  26.779  1.00  0.00    -0.247 OA
BRANCH   6   8
ATOM      8  C   UNL A   1      31.289  22.749  25.981  1.00  0.00     0.098 C 
ATOM      9  C   UNL A   1      31.799  22.340  24.807  1.00  0.00    -0.031 C 
BRANCH   9  10
ATOM     10  C   UNL A   1      32.239  20.927  24.556  1.00  0.00    -0.021 A 
ATOM     11  C   UNL A   1      32.747  18.137  24.362  1.00  0.00     0.121 A 
ATOM     12  C   UNL A   1      32.951  18.816  25.556  1.00  0.00     0.047 A 
ATOM     13  C   UNL A   1      32.413  18.848  23.205  1.00  0.00    -0.008 A 
ATOM     14  C   UNL A   1      32.698  20.180  25.643  1.00  0.00     0.012 A 
ATOM     15  C   UNL A   1      32.134  20.238  23.319  1.00  0.00     0.015 A 
ATOM     16  C   UNL A   1      32.305  18.155  21.870  1.00  0.00     0.048 C 
BRANCH  11  17
ATOM     17  O   UNL A   1      32.897  16.775  24.309  1.00  0.00    -0.496 OA
ATOM     18  C   UNL A   1      34.260  16.389  24.515  1.00  0.00     0.278 C 
ENDBRANCH  11  17
ENDBRANCH   9  10
BRANCH   9  19
ATOM     19  C   UNL A   1      31.970  23.429  23.745  1.00  0.00     0.014 C 
ATOM     20  C   UNL A   1      33.212  23.306  22.870  1.00  0.00     0.012 C 
ATOM     21  C   UNL A   1      30.617  23.728  23.110  1.00  0.00     0.012 C 
ENDBRANCH   9  19
ENDBRANCH   6   8
ENDBRANCH   5   6
ENDBRANCH   4   5
ENDBRANCH   3   4
ENDBRANCH   2   3
ENDBRANCH   1   2
BRANCH   1  22
ATOM     22  C   UNL A   1      38.488  21.005  25.312  1.00  0.00     0.188 C 
BRANCH  22  23
ATOM     23  O   UNL A   1      39.233  22.051  25.890  1.00  0.00    -0.376 OA
BRANCH  23  24
ATOM     24  C   UNL A   1      40.023  21.638  26.989  1.00  0.00     0.202 C 
BRANCH  24  25
ATOM     25  C   UNL A   1      41.119  22.652  27.372  1.00  0.00     0.261 C 
BRANCH  25  26
ATOM     26  O   UNL A   1      41.531  23.438  26.227  1.00  0.00    -0.460 OA
BRANCH  26  27
ATOM     27  C   UNL A   1      41.268  24.799  26.240  1.00  0.00     0.338 C 
ATOM     28  O   UNL A   1      41.539  25.570  25.365  1.00  0.00    -0.246 OA
BRANCH  27  29
ATOM     29  C   UNL A   1      40.876  25.190  27.644  1.00  0.00     0.060 A 
ATOM     30  C   UNL A   1      39.588  25.485  28.107  1.00  0.00     0.016 A 
ATOM     31  C   UNL A   1      41.865  25.705  28.383  1.00  0.00     0.016 A 
ATOM     32  C   UNL A   1      39.317  26.572  29.065  1.00  0.00     0.010 A 
ATOM     33  C   UNL A   1      41.538  26.853  29.102  1.00  0.00     0.010 A 
ATOM     34  C   UNL A   1      40.291  27.476  29.490  1.00  0.00    -0.014 A 
BRANCH  34  35
ATOM     35  C   UNL A   1      39.942  29.003  30.269  1.00  0.00     0.031 A 
ATOM     36  C   UNL A   1      38.715  30.150  30.153  1.00  0.00     0.074 A 
ATOM     37  C   UNL A   1      40.808  29.496  31.190  1.00  0.00     0.049 A 
ATOM     38  N   UNL A   1      38.907  31.373  29.696  1.00  0.00    -0.248 NA
ATOM     39  C   UNL A   1      37.249  30.025  30.458  1.00  0.00     0.031 C 
ATOM     40  C   UNL A   1      40.695  30.720  31.999  1.00  0.00     0.029 A 
ATOM     41  N   UNL A   1      42.029  28.964  31.588  1.00  0.00    -0.354 N 
ATOM     42  C   UNL A   1      37.656  31.978  29.500  1.00  0.00     0.074 A 
ATOM     43  C   UNL A   1      36.659  31.013  29.790  1.00  0.00     0.031 C 
ATOM     44  C   UNL A   1      41.905  31.008  32.510  1.00  0.00     0.029 A 
ATOM     45  C   UNL A   1      42.839  30.033  31.975  1.00  0.00     0.049 A 
ATOM     46  H   UNL A   1      42.277  28.011  31.597  1.00  0.00     0.167 HD
ATOM     47  C   UNL A   1      37.415  33.312  29.372  1.00  0.00     0.031 A 
ATOM     48  C   UNL A   1      43.979  30.283  31.279  1.00  0.00     0.031 A 
ATOM     49  C   UNL A   1      38.557  34.019  29.870  1.00  0.00     0.049 A 
ATOM     50  C   UNL A   1      43.895  31.631  30.607  1.00  0.00     0.074 A 
ATOM     51  C   UNL A   1      38.891  34.325  31.179  1.00  0.00     0.029 A 
ATOM     52  N   UNL A   1      39.726  33.993  29.136  1.00  0.00    -0.354 N 
ATOM     53  N   UNL A   1      42.781  32.246  30.308  1.00  0.00    -0.248 NA
ATOM     54  C   UNL A   1      45.079  32.408  30.267  1.00  0.00     0.031 C 
ATOM     55  C   UNL A   1      40.304  34.368  31.250  1.00  0.00     0.029 A 
ATOM     56  C   UNL A   1      40.803  34.213  29.969  1.00  0.00     0.049 A 
ATOM     57  H   UNL A   1      39.782  33.842  28.165  1.00  0.00     0.167 HD
ATOM     58  C   UNL A   1      43.075  33.476  29.777  1.00  0.00     0.074 A 
ATOM     59  C   UNL A   1      44.524  33.526  29.770  1.00  0.00     0.031 C 
ATOM     60  C   UNL A   1      42.125  34.380  29.404  1.00  0.00     0.031 A 
BRANCH  47  61
ATOM     61  C   UNL A   1      36.002  33.843  29.256  1.00  0.00    -0.014 A 
ATOM     62  C   UNL A   1      35.303  34.320  30.376  1.00  0.00     0.009 A 
ATOM     63  C   UNL A   1      35.293  33.809  28.034  1.00  0.00     0.009 A 
ATOM     64  C   UNL A   1      33.942  34.663  30.304  1.00  0.00     0.001 A 
ATOM     65  C   UNL A   1      33.926  34.134  27.962  1.00  0.00     0.001 A 
ATOM     66  C   UNL A   1      33.247  34.549  29.103  1.00  0.00     0.000 A 
ENDBRANCH  47  61
BRANCH  48  67
ATOM     67  C   UNL A   1      44.650  29.047  30.756  1.00  0.00    -0.014 A 
ATOM     68  C   UNL A   1      44.794  27.948  31.642  1.00  0.00     0.009 A 
ATOM     69  C   UNL A   1      44.841  28.805  29.390  1.00  0.00     0.009 A 
ATOM     70  C   UNL A   1      44.979  26.641  31.174  1.00  0.00     0.001 A 
ATOM     71  C   UNL A   1      45.069  27.495  28.924  1.00  0.00     0.001 A 
ATOM     72  C   UNL A   1      45.102  26.414  29.811  1.00  0.00     0.000 A 
ENDBRANCH  48  67
BRANCH  60  73
ATOM     73  C   UNL A   1      42.342  35.598  28.537  1.00  0.00    -0.014 A 
ATOM     74  C   UNL A   1      42.762  35.541  27.206  1.00  0.00     0.009 A 
ATOM     75  C   UNL A   1      41.961  36.873  29.026  1.00  0.00     0.009 A 
ATOM     76  C   UNL A   1      42.858  36.700  26.426  1.00  0.00     0.001 A 
ATOM     77  C   UNL A   1      41.984  38.018  28.231  1.00  0.00     0.001 A 
ATOM     78  C   UNL A   1      42.455  37.933  26.932  1.00  0.00     0.000 A 
ENDBRANCH  60  73
ENDBRANCH  34  35
ENDBRANCH  27  29
ENDBRANCH  26  27
ENDBRANCH  25  26
ENDBRANCH  24  25
ENDBRANCH  23  24
ENDBRANCH  22  23
ENDBRANCH   1  22
TORSDOF 20
ENDMDL
MODEL 3
REMARK VINA RESULT:     -10.3      2.895      9.319
REMARK SMILES COc1ccc(/C(=C/C(=O)OCCOCCOCCOC(=O)c2ccc(-c3c4nc(c(-c5ccccc5)c5ccc([nH]5)c(-c5ccccc5)c5nc(c(-c6ccccc6)c6ccc3[nH]6)C=C5)C=C4)cc2)C(C)C)cc1C
REMARK SMILES IDX 15 1 14 2 13 3 12 4 11 5 9 6 10 7 8 8 7 9 6 10 3 11 4 12
REMARK SMILES IDX 75 13 5 14 74 15 76 16 2 17 1 18 71 19 72 20 73 21 16 22
REMARK SMILES IDX 17 23 18 24 19 25 20 26 21 27 22 28 23 29 24 30 70 31 25 32
REMARK SMILES IDX 69 33 26 34 27 35 28 36 63 37 29 38 68 39 62 40 64 41 30 42
REMARK SMILES IDX 67 43 61 44 60 45 31 47 53 48 38 49 52 50 39 51 42 52 51 53
REMARK SMILES IDX 65 54 40 55 41 56 50 58 66 59 43 60 32 61 33 62 37 63 34 64
REMARK SMILES IDX 36 65 35 66 54 67 55 68 59 69 56 70 58 71 57 72 44 73 45 74
REMARK SMILES IDX 49 75 46 76 48 77 47 78
REMARK H PARENT 64 46 42 57
REMARK Flexibility Score: inf
ROOT
ATOM      1  C   UNL A   1      33.628  33.749  28.581  1.00  0.00     0.188 C 
ENDROOT
BRANCH   1   2
ATOM      2  O   UNL A   1      34.301  32.631  28.027  1.00  0.00    -0.376 OA
BRANCH   2   3
ATOM      3  C   UNL A   1      33.891  31.279  27.753  1.00  0.00     0.202 C 
BRANCH   3   4
ATOM      4  C   UNL A   1      33.318  30.437  26.430  1.00  0.00     0.261 C 
BRANCH   4   5
ATOM      5  O   UNL A   1      32.336  29.002  26.215  1.00  0.00    -0.460 OA
BRANCH   5   6
ATOM      6  C   UNL A   1      31.685  27.921  26.929  1.00  0.00     0.331 C 
ATOM      7  O   UNL A   1      30.966  28.027  27.924  1.00  0.00    -0.247 OA
BRANCH   6   8
ATOM      8  C   UNL A   1      32.020  26.485  26.756  1.00  0.00     0.098 C 
ATOM      9  C   UNL A   1      31.854  26.017  25.508  1.00  0.00    -0.031 C 
BRANCH   9  10
ATOM     10  C   UNL A   1      32.627  24.851  24.964  1.00  0.00    -0.021 A 
ATOM     11  C   UNL A   1      34.112  22.505  24.355  1.00  0.00     0.121 A 
ATOM     12  C   UNL A   1      34.668  23.520  25.121  1.00  0.00     0.047 A 
ATOM     13  C   UNL A   1      32.857  22.686  23.765  1.00  0.00    -0.008 A 
ATOM     14  C   UNL A   1      33.935  24.663  25.416  1.00  0.00     0.012 A 
ATOM     15  C   UNL A   1      32.112  23.851  24.098  1.00  0.00     0.015 A 
ATOM     16  C   UNL A   1      32.281  21.653  22.829  1.00  0.00     0.048 C 
BRANCH  11  17
ATOM     17  O   UNL A   1      34.799  21.335  24.155  1.00  0.00    -0.496 OA
ATOM     18  C   UNL A   1      35.481  20.920  25.344  1.00  0.00     0.278 C 
ENDBRANCH  11  17
ENDBRANCH   9  10
BRANCH   9  19
ATOM     19  C   UNL A   1      30.863  26.793  24.637  1.00  0.00     0.014 C 
ATOM     20  C   UNL A   1      31.395  27.254  23.286  1.00  0.00     0.012 C 
ATOM     21  C   UNL A   1      29.491  26.136  24.731  1.00  0.00     0.012 C 
ENDBRANCH   9  19
ENDBRANCH   6   8
ENDBRANCH   5   6
ENDBRANCH   4   5
ENDBRANCH   3   4
ENDBRANCH   2   3
ENDBRANCH   1   2
BRANCH   1  22
ATOM     22  C   UNL A   1      34.346  34.807  29.367  1.00  0.00     0.188 C 
BRANCH  22  23
ATOM     23  O   UNL A   1      33.468  35.329  30.337  1.00  0.00    -0.376 OA
BRANCH  23  24
ATOM     24  C   UNL A   1      33.780  34.921  31.655  1.00  0.00     0.202 C 
BRANCH  24  25
ATOM     25  C   UNL A   1      35.116  34.158  31.761  1.00  0.00     0.261 C 
BRANCH  25  26
ATOM     26  O   UNL A   1      34.897  32.735  31.918  1.00  0.00    -0.460 OA
BRANCH  26  27
ATOM     27  C   UNL A   1      35.749  32.031  32.756  1.00  0.00     0.338 C 
ATOM     28  O   UNL A   1      36.263  32.459  33.748  1.00  0.00    -0.246 OA
BRANCH  27  29
ATOM     29  C   UNL A   1      36.161  30.762  32.049  1.00  0.00     0.060 A 
ATOM     30  C   UNL A   1      36.996  29.754  32.548  1.00  0.00     0.016 A 
ATOM     31  C   UNL A   1      36.077  30.806  30.715  1.00  0.00     0.016 A 
ATOM     32  C   UNL A   1      37.995  29.064  31.712  1.00  0.00     0.010 A 
ATOM     33  C   UNL A   1      37.176  30.294  30.030  1.00  0.00     0.010 A 
ATOM     34  C   UNL A   1      38.284  29.440  30.400  1.00  0.00    -0.014 A 
BRANCH  34  35
ATOM     35  C   UNL A   1      39.721  28.950  29.532  1.00  0.00     0.031 A 
ATOM     36  C   UNL A   1      40.242  27.533  28.785  1.00  0.00     0.074 A 
ATOM     37  C   UNL A   1      40.742  29.830  29.379  1.00  0.00     0.049 A 
ATOM     38  N   UNL A   1      41.264  26.818  29.217  1.00  0.00    -0.248 NA
ATOM     39  C   UNL A   1      39.667  26.802  27.604  1.00  0.00     0.031 C 
ATOM     40  C   UNL A   1      42.010  29.656  28.652  1.00  0.00     0.029 A 
ATOM     41  N   UNL A   1      40.844  31.120  29.888  1.00  0.00    -0.354 N 
ATOM     42  C   UNL A   1      41.273  25.593  28.533  1.00  0.00     0.074 A 
ATOM     43  C   UNL A   1      40.129  25.557  27.696  1.00  0.00     0.031 C 
ATOM     44  C   UNL A   1      42.862  30.620  29.041  1.00  0.00     0.029 A 
ATOM     45  C   UNL A   1      42.201  31.381  30.086  1.00  0.00     0.049 A 
ATOM     46  H   UNL A   1      40.098  31.736  30.074  1.00  0.00     0.167 HD
ATOM     47  C   UNL A   1      42.323  24.734  28.430  1.00  0.00     0.031 A 
ATOM     48  C   UNL A   1      42.652  31.609  31.347  1.00  0.00     0.031 A 
ATOM     49  C   UNL A   1      43.517  25.449  28.772  1.00  0.00     0.049 A 
ATOM     50  C   UNL A   1      43.619  30.529  31.759  1.00  0.00     0.074 A 
ATOM     51  C   UNL A   1      44.283  26.293  27.985  1.00  0.00     0.029 A 
ATOM     52  N   UNL A   1      43.725  25.803  30.089  1.00  0.00    -0.354 N 
ATOM     53  N   UNL A   1      43.661  29.328  31.242  1.00  0.00    -0.248 NA
ATOM     54  C   UNL A   1      44.654  30.747  32.762  1.00  0.00     0.031 C 
ATOM     55  C   UNL A   1      44.871  27.248  28.847  1.00  0.00     0.029 A 
ATOM     56  C   UNL A   1      44.559  26.900  30.150  1.00  0.00     0.049 A 
ATOM     57  H   UNL A   1      43.337  25.342  30.868  1.00  0.00     0.167 HD
ATOM     58  C   UNL A   1      44.705  28.635  31.796  1.00  0.00     0.074 A 
ATOM     59  C   UNL A   1      45.291  29.566  32.742  1.00  0.00     0.031 C 
ATOM     60  C   UNL A   1      45.042  27.364  31.432  1.00  0.00     0.031 A 
BRANCH  47  61
ATOM     61  C   UNL A   1      42.230  23.483  27.583  1.00  0.00    -0.014 A 
ATOM     62  C   UNL A   1      41.725  22.280  28.102  1.00  0.00     0.009 A 
ATOM     63  C   UNL A   1      42.720  23.444  26.257  1.00  0.00     0.009 A 
ATOM     64  C   UNL A   1      41.785  21.080  27.374  1.00  0.00     0.001 A 
ATOM     65  C   UNL A   1      42.797  22.241  25.532  1.00  0.00     0.001 A 
ATOM     66  C   UNL A   1      42.341  21.056  26.097  1.00  0.00     0.000 A 
ENDBRANCH  47  61
BRANCH  48  67
ATOM     67  C   UNL A   1      41.664  32.326  32.221  1.00  0.00    -0.014 A 
ATOM     68  C   UNL A   1      41.567  33.736  32.089  1.00  0.00     0.009 A 
ATOM     69  C   UNL A   1      40.633  31.668  32.903  1.00  0.00     0.009 A 
ATOM     70  C   UNL A   1      40.425  34.438  32.494  1.00  0.00     0.001 A 
ATOM     71  C   UNL A   1      39.504  32.383  33.346  1.00  0.00     0.001 A 
ATOM     72  C   UNL A   1      39.386  33.757  33.109  1.00  0.00     0.000 A 
ENDBRANCH  48  67
BRANCH  60  73
ATOM     73  C   UNL A   1      45.952  26.429  32.192  1.00  0.00    -0.014 A 
ATOM     74  C   UNL A   1      47.343  26.424  32.068  1.00  0.00     0.009 A 
ATOM     75  C   UNL A   1      45.406  25.603  33.207  1.00  0.00     0.009 A 
ATOM     76  C   UNL A   1      48.140  25.595  32.866  1.00  0.00     0.001 A 
ATOM     77  C   UNL A   1      46.200  24.832  34.054  1.00  0.00     0.001 A 
ATOM     78  C   UNL A   1      47.571  24.812  33.867  1.00  0.00     0.000 A 
ENDBRANCH  60  73
ENDBRANCH  34  35
ENDBRANCH  27  29
ENDBRANCH  26  27
ENDBRANCH  25  26
ENDBRANCH  24  25
ENDBRANCH  23  24
ENDBRANCH  22  23
ENDBRANCH   1  22
TORSDOF 20
ENDMDL
