MODEL 1
REMARK VINA RESULT:      -8.5      0.000      0.000
REMARK SMILES C[C@H](Oc1ccc(/C=C2/SC(=S)N(c3ccc(F)c(Cl)c3)C2=O)cc1)C(=O)OCCOCCOCCOC(=O)c1ccc(-c2c3nc(c(-c4ccccc4)c4ccc([nH]4)c(-c4ccccc4)c4nc(c(-c5ccccc5)c5ccc2[nH]5)C=C4)C=C3)cc1
REMARK SMILES IDX 32 1 31 2 30 3 29 4 28 5 26 6 27 7 2 8 1 9 3 10 4 11 5 12
REMARK SMILES IDX 25 13 6 14 24 15 7 16 8 17 9 18 10 19 22 20 11 21 13 22
REMARK SMILES IDX 23 23 12 24 14 25 15 26 21 27 16 28 19 29 17 30 20 31 18 32
REMARK SMILES IDX 33 33 34 34 35 35 36 36 37 37 38 38 39 39 40 40 41 41 87 42
REMARK SMILES IDX 42 43 86 44 43 45 44 46 45 47 80 48 46 49 85 50 79 51 81 52
REMARK SMILES IDX 47 53 84 54 78 55 77 56 48 58 70 59 55 60 69 61 56 62 59 63
REMARK SMILES IDX 68 64 82 65 57 66 58 67 67 69 83 70 60 71 49 72 50 73 54 74
REMARK SMILES IDX 51 75 53 76 52 77 71 78 72 79 76 80 73 81 75 82 74 83 61 84
REMARK SMILES IDX 62 85 66 86 63 87 65 88 64 89
REMARK H PARENT 81 57 59 68
REMARK Flexibility Score: inf
ROOT
ATOM      1  C   UNL A   1      46.936  24.080  24.768  1.00  0.00     0.188 C 
ENDROOT
BRANCH   1   2
ATOM      2  O   UNL A   1      46.231  25.010  25.582  1.00  0.00    -0.376 OA
BRANCH   2   3
ATOM      3  C   UNL A   1      45.898  26.289  25.060  1.00  0.00     0.202 C 
BRANCH   3   4
ATOM      4  C   UNL A   1      45.065  27.261  25.910  1.00  0.00     0.261 C 
BRANCH   4   5
ATOM      5  O   UNL A   1      45.169  28.657  25.571  1.00  0.00    -0.461 OA
BRANCH   5   6
ATOM      6  C   UNL A   1      45.220  29.532  26.616  1.00  0.00     0.347 C 
ATOM      7  O   UNL A   1      44.509  29.461  27.614  1.00  0.00    -0.248 OA
BRANCH   6   8
ATOM      8  C   UNL A   1      46.210  30.691  26.395  1.00  0.00     0.279 C 
ATOM      9  C   UNL A   1      46.787  30.998  27.778  1.00  0.00     0.066 C 
BRANCH   8  10
ATOM     10  O   UNL A   1      45.599  31.791  25.722  1.00  0.00    -0.479 OA
BRANCH  10  11
ATOM     11  C   UNL A   1      45.458  33.024  26.284  1.00  0.00     0.120 A 
ATOM     12  C   UNL A   1      46.365  34.076  26.230  1.00  0.00     0.047 A 
ATOM     13  C   UNL A   1      44.303  33.179  27.057  1.00  0.00     0.047 A 
ATOM     14  C   UNL A   1      46.238  35.162  27.106  1.00  0.00     0.012 A 
ATOM     15  C   UNL A   1      44.139  34.294  27.884  1.00  0.00     0.012 A 
ATOM     16  C   UNL A   1      45.165  35.235  27.998  1.00  0.00    -0.024 A 
BRANCH  16  17
ATOM     17  C   UNL A   1      45.170  36.260  29.050  1.00  0.00     0.029 C 
ATOM     18  C   UNL A   1      44.595  37.472  28.970  1.00  0.00     0.081 C 
ATOM     19  S   UNL A   1      44.663  38.610  30.266  1.00  0.00    -0.054 SA
ATOM     20  C   UNL A   1      43.849  38.075  27.820  1.00  0.00     0.270 C 
ATOM     21  C   UNL A   1      43.881  39.885  29.331  1.00  0.00     0.152 C 
ATOM     22  N   UNL A   1      43.597  39.426  28.056  1.00  0.00    -0.261 N 
ATOM     23  O   UNL A   1      43.541  37.452  26.812  1.00  0.00    -0.268 OA
ATOM     24  S   UNL A   1      43.503  41.353  30.041  1.00  0.00    -0.051 S 
BRANCH  22  25
ATOM     25  C   UNL A   1      43.095  40.238  26.989  1.00  0.00     0.052 A 
ATOM     26  C   UNL A   1      41.726  40.245  26.672  1.00  0.00     0.030 A 
ATOM     27  C   UNL A   1      43.976  40.966  26.173  1.00  0.00     0.050 A 
ATOM     28  C   UNL A   1      41.246  40.971  25.580  1.00  0.00     0.043 A 
ATOM     29  C   UNL A   1      43.494  41.678  25.069  1.00  0.00     0.078 A 
ATOM     30  C   UNL A   1      42.133  41.680  24.780  1.00  0.00     0.141 A 
ATOM     31  Cl  UNL A   1      44.607  42.514  24.055  1.00  0.00    -0.081 Cl
ATOM     32  F   UNL A   1      41.657  42.350  23.721  1.00  0.00    -0.205 F 
ENDBRANCH  22  25
ENDBRANCH  16  17
ENDBRANCH  10  11
ENDBRANCH   8  10
ENDBRANCH   6   8
ENDBRANCH   5   6
ENDBRANCH   4   5
ENDBRANCH   3   4
ENDBRANCH   2   3
ENDBRANCH   1   2
BRANCH   1  33
ATOM     33  C   UNL A   1      46.276  22.740  24.381  1.00  0.00     0.188 C 
BRANCH  33  34
ATOM     34  O   UNL A   1      46.141  21.839  25.454  1.00  0.00    -0.376 OA
BRANCH  34  35
ATOM     35  C   UNL A   1      45.841  20.487  25.165  1.00  0.00     0.202 C 
BRANCH  35  36
ATOM     36  C   UNL A   1      44.398  20.032  24.873  1.00  0.00     0.261 C 
BRANCH  36  37
ATOM     37  O   UNL A   1      43.566  19.695  25.993  1.00  0.00    -0.460 OA
BRANCH  37  38
ATOM     38  C   UNL A   1      42.381  20.329  26.106  1.00  0.00     0.338 C 
ATOM     39  O   UNL A   1      41.266  19.855  25.910  1.00  0.00    -0.246 OA
BRANCH  38  40
ATOM     40  C   UNL A   1      42.625  21.662  26.694  1.00  0.00     0.060 A 
ATOM     41  C   UNL A   1      42.554  21.818  28.085  1.00  0.00     0.016 A 
ATOM     42  C   UNL A   1      42.931  22.754  25.878  1.00  0.00     0.016 A 
ATOM     43  C   UNL A   1      42.769  23.072  28.662  1.00  0.00     0.010 A 
ATOM     44  C   UNL A   1      43.123  24.014  26.456  1.00  0.00     0.010 A 
ATOM     45  C   UNL A   1      43.018  24.185  27.849  1.00  0.00    -0.014 A 
BRANCH  45  46
ATOM     46  C   UNL A   1      43.008  25.550  28.431  1.00  0.00     0.031 A 
ATOM     47  C   UNL A   1      44.276  26.079  29.049  1.00  0.00     0.074 A 
ATOM     48  C   UNL A   1      41.903  26.317  28.410  1.00  0.00     0.049 A 
ATOM     49  N   UNL A   1      44.490  27.215  29.663  1.00  0.00    -0.248 NA
ATOM     50  C   UNL A   1      45.459  25.207  28.961  1.00  0.00     0.031 C 
ATOM     51  C   UNL A   1      40.626  25.949  27.804  1.00  0.00     0.029 A 
ATOM     52  N   UNL A   1      41.684  27.572  28.926  1.00  0.00    -0.354 N 
ATOM     53  C   UNL A   1      45.828  27.191  30.041  1.00  0.00     0.074 A 
ATOM     54  C   UNL A   1      46.368  25.919  29.611  1.00  0.00     0.031 C 
ATOM     55  C   UNL A   1      39.750  26.952  27.993  1.00  0.00     0.029 A 
ATOM     56  C   UNL A   1      40.394  28.015  28.763  1.00  0.00     0.049 A 
ATOM     57  H   UNL A   1      42.384  28.102  29.370  1.00  0.00     0.167 HD
ATOM     58  C   UNL A   1      46.545  28.142  30.683  1.00  0.00     0.031 A 
ATOM     59  C   UNL A   1      39.796  29.139  29.207  1.00  0.00     0.031 A 
ATOM     60  C   UNL A   1      46.010  29.399  31.131  1.00  0.00     0.049 A 
ATOM     61  C   UNL A   1      40.594  30.141  30.002  1.00  0.00     0.074 A 
ATOM     62  C   UNL A   1      46.663  30.431  31.784  1.00  0.00     0.029 A 
ATOM     63  N   UNL A   1      44.689  29.792  30.983  1.00  0.00    -0.354 N 
ATOM     64  N   UNL A   1      41.863  30.121  30.328  1.00  0.00    -0.248 NA
ATOM     65  C   UNL A   1      39.871  31.329  30.485  1.00  0.00     0.031 C 
ATOM     66  C   UNL A   1      45.723  31.422  32.083  1.00  0.00     0.029 A 
ATOM     67  C   UNL A   1      44.500  31.037  31.558  1.00  0.00     0.049 A 
ATOM     68  H   UNL A   1      43.989  29.263  30.536  1.00  0.00     0.167 HD
ATOM     69  C   UNL A   1      42.097  31.301  31.024  1.00  0.00     0.074 A 
ATOM     70  C   UNL A   1      40.844  32.023  31.057  1.00  0.00     0.031 C 
ATOM     71  C   UNL A   1      43.248  31.747  31.584  1.00  0.00     0.031 A 
BRANCH  58  72
ATOM     72  C   UNL A   1      47.989  27.841  30.974  1.00  0.00    -0.014 A 
ATOM     73  C   UNL A   1      48.982  28.006  29.996  1.00  0.00     0.009 A 
ATOM     74  C   UNL A   1      48.366  27.421  32.260  1.00  0.00     0.009 A 
ATOM     75  C   UNL A   1      50.318  27.729  30.291  1.00  0.00     0.001 A 
ATOM     76  C   UNL A   1      49.706  27.174  32.560  1.00  0.00     0.001 A 
ATOM     77  C   UNL A   1      50.680  27.319  31.574  1.00  0.00     0.000 A 
ENDBRANCH  58  72
BRANCH  59  78
ATOM     78  C   UNL A   1      38.350  29.377  28.943  1.00  0.00    -0.014 A 
ATOM     79  C   UNL A   1      37.918  29.855  27.696  1.00  0.00     0.009 A 
ATOM     80  C   UNL A   1      37.399  29.169  29.955  1.00  0.00     0.009 A 
ATOM     81  C   UNL A   1      36.570  30.151  27.480  1.00  0.00     0.001 A 
ATOM     82  C   UNL A   1      36.047  29.435  29.724  1.00  0.00     0.001 A 
ATOM     83  C   UNL A   1      35.636  29.937  28.492  1.00  0.00     0.000 A 
ENDBRANCH  59  78
BRANCH  71  84
ATOM     84  C   UNL A   1      43.219  33.101  32.243  1.00  0.00    -0.014 A 
ATOM     85  C   UNL A   1      43.438  34.278  31.511  1.00  0.00     0.009 A 
ATOM     86  C   UNL A   1      42.929  33.198  33.613  1.00  0.00     0.009 A 
ATOM     87  C   UNL A   1      43.405  35.522  32.146  1.00  0.00     0.001 A 
ATOM     88  C   UNL A   1      42.866  34.445  34.240  1.00  0.00     0.001 A 
ATOM     89  C   UNL A   1      43.115  35.604  33.507  1.00  0.00     0.000 A 
ENDBRANCH  71  84
ENDBRANCH  45  46
ENDBRANCH  38  40
ENDBRANCH  37  38
ENDBRANCH  36  37
ENDBRANCH  35  36
ENDBRANCH  34  35
ENDBRANCH  33  34
ENDBRANCH   1  33
TORSDOF 21
ENDMDL
MODEL 2
REMARK VINA RESULT:      -8.1      2.919      4.113
REMARK SMILES C[C@H](Oc1ccc(/C=C2/SC(=S)N(c3ccc(F)c(Cl)c3)C2=O)cc1)C(=O)OCCOCCOCCOC(=O)c1ccc(-c2c3nc(c(-c4ccccc4)c4ccc([nH]4)c(-c4ccccc4)c4nc(c(-c5ccccc5)c5ccc2[nH]5)C=C4)C=C3)cc1
REMARK SMILES IDX 32 1 31 2 30 3 29 4 28 5 26 6 27 7 2 8 1 9 3 10 4 11 5 12
REMARK SMILES IDX 25 13 6 14 24 15 7 16 8 17 9 18 10 19 22 20 11 21 13 22
REMARK SMILES IDX 23 23 12 24 14 25 15 26 21 27 16 28 19 29 17 30 20 31 18 32
REMARK SMILES IDX 33 33 34 34 35 35 36 36 37 37 38 38 39 39 40 40 41 41 87 42
REMARK SMILES IDX 42 43 86 44 43 45 44 46 45 47 80 48 46 49 85 50 79 51 81 52
REMARK SMILES IDX 47 53 84 54 78 55 77 56 48 58 70 59 55 60 69 61 56 62 59 63
REMARK SMILES IDX 68 64 82 65 57 66 58 67 67 69 83 70 60 71 49 72 50 73 54 74
REMARK SMILES IDX 51 75 53 76 52 77 71 78 72 79 76 80 73 81 75 82 74 83 61 84
REMARK SMILES IDX 62 85 66 86 63 87 65 88 64 89
REMARK H PARENT 81 57 59 68
REMARK Flexibility Score: inf
ROOT
ATOM      1  C   UNL A   1      47.098  27.739  24.390  1.00  0.00     0.188 C 
ENDROOT
BRANCH   1   2
ATOM      2  O   UNL A   1      47.353  28.698  25.410  1.00  0.00    -0.376 OA
BRANCH   2   3
ATOM      3  C   UNL A   1      46.264  29.315  26.083  1.00  0.00     0.202 C 
BRANCH   3   4
ATOM      4  C   UNL A   1      46.317  30.820  26.389  1.00  0.00     0.261 C 
BRANCH   4   5
ATOM      5  O   UNL A   1      45.214  31.609  25.907  1.00  0.00    -0.461 OA
BRANCH   5   6
ATOM      6  C   UNL A   1      44.441  32.214  26.854  1.00  0.00     0.347 C 
ATOM      7  O   UNL A   1      43.901  31.626  27.787  1.00  0.00    -0.248 OA
BRANCH   6   8
ATOM      8  C   UNL A   1      44.230  33.719  26.601  1.00  0.00     0.279 C 
ATOM      9  C   UNL A   1      44.112  33.859  25.083  1.00  0.00     0.066 C 
BRANCH   8  10
ATOM     10  O   UNL A   1      45.244  34.509  27.218  1.00  0.00    -0.479 OA
BRANCH  10  11
ATOM     11  C   UNL A   1      45.406  35.840  26.973  1.00  0.00     0.120 A 
ATOM     12  C   UNL A   1      46.311  36.424  26.095  1.00  0.00     0.047 A 
ATOM     13  C   UNL A   1      44.616  36.675  27.768  1.00  0.00     0.047 A 
ATOM     14  C   UNL A   1      46.587  37.796  26.175  1.00  0.00     0.012 A 
ATOM     15  C   UNL A   1      44.841  38.054  27.803  1.00  0.00     0.012 A 
ATOM     16  C   UNL A   1      45.909  38.605  27.090  1.00  0.00    -0.024 A 
BRANCH  16  17
ATOM     17  C   UNL A   1      46.364  39.984  27.311  1.00  0.00     0.029 C 
ATOM     18  C   UNL A   1      45.860  41.082  26.722  1.00  0.00     0.081 C 
ATOM     19  S   UNL A   1      46.473  42.662  27.046  1.00  0.00    -0.054 SA
ATOM     20  C   UNL A   1      44.761  41.174  25.709  1.00  0.00     0.270 C 
ATOM     21  C   UNL A   1      45.455  43.426  25.824  1.00  0.00     0.152 C 
ATOM     22  N   UNL A   1      44.682  42.466  25.190  1.00  0.00    -0.261 N 
ATOM     23  O   UNL A   1      44.062  40.225  25.380  1.00  0.00    -0.268 OA
ATOM     24  S   UNL A   1      45.446  45.089  25.638  1.00  0.00    -0.051 S 
BRANCH  22  25
ATOM     25  C   UNL A   1      43.850  42.710  24.051  1.00  0.00     0.052 A 
ATOM     26  C   UNL A   1      42.456  42.553  24.131  1.00  0.00     0.030 A 
ATOM     27  C   UNL A   1      44.420  43.013  22.803  1.00  0.00     0.050 A 
ATOM     28  C   UNL A   1      41.649  42.710  23.001  1.00  0.00     0.043 A 
ATOM     29  C   UNL A   1      43.612  43.151  21.670  1.00  0.00     0.078 A 
ATOM     30  C   UNL A   1      42.232  43.003  21.774  1.00  0.00     0.141 A 
ATOM     31  Cl  UNL A   1      44.346  43.466  20.145  1.00  0.00    -0.081 Cl
ATOM     32  F   UNL A   1      41.445  43.123  20.696  1.00  0.00    -0.205 F 
ENDBRANCH  22  25
ENDBRANCH  16  17
ENDBRANCH  10  11
ENDBRANCH   8  10
ENDBRANCH   6   8
ENDBRANCH   5   6
ENDBRANCH   4   5
ENDBRANCH   3   4
ENDBRANCH   2   3
ENDBRANCH   1   2
BRANCH   1  33
ATOM     33  C   UNL A   1      48.158  26.670  24.055  1.00  0.00     0.188 C 
BRANCH  33  34
ATOM     34  O   UNL A   1      47.625  25.386  23.833  1.00  0.00    -0.376 OA
BRANCH  34  35
ATOM     35  C   UNL A   1      47.024  24.708  24.920  1.00  0.00     0.202 C 
BRANCH  35  36
ATOM     36  C   UNL A   1      45.767  23.839  24.725  1.00  0.00     0.261 C 
BRANCH  36  37
ATOM     37  O   UNL A   1      44.527  24.512  24.456  1.00  0.00    -0.460 OA
BRANCH  37  38
ATOM     38  C   UNL A   1      43.399  23.971  24.961  1.00  0.00     0.338 C 
ATOM     39  O   UNL A   1      42.983  22.829  24.788  1.00  0.00    -0.246 OA
BRANCH  38  40
ATOM     40  C   UNL A   1      42.822  24.927  25.927  1.00  0.00     0.060 A 
ATOM     41  C   UNL A   1      43.315  26.239  25.967  1.00  0.00     0.016 A 
ATOM     42  C   UNL A   1      41.791  24.537  26.786  1.00  0.00     0.016 A 
ATOM     43  C   UNL A   1      42.792  27.157  26.881  1.00  0.00     0.010 A 
ATOM     44  C   UNL A   1      41.285  25.452  27.716  1.00  0.00     0.010 A 
ATOM     45  C   UNL A   1      41.799  26.759  27.786  1.00  0.00    -0.014 A 
BRANCH  45  46
ATOM     46  C   UNL A   1      41.414  27.651  28.908  1.00  0.00     0.031 A 
ATOM     47  C   UNL A   1      42.200  27.577  30.190  1.00  0.00     0.074 A 
ATOM     48  C   UNL A   1      40.392  28.519  28.799  1.00  0.00     0.049 A 
ATOM     49  N   UNL A   1      42.015  28.216  31.317  1.00  0.00    -0.248 NA
ATOM     50  C   UNL A   1      43.349  26.656  30.199  1.00  0.00     0.031 C 
ATOM     51  C   UNL A   1      39.579  28.727  27.603  1.00  0.00     0.029 A 
ATOM     52  N   UNL A   1      39.862  29.386  29.723  1.00  0.00    -0.354 N 
ATOM     53  C   UNL A   1      43.017  27.770  32.170  1.00  0.00     0.074 A 
ATOM     54  C   UNL A   1      43.791  26.788  31.441  1.00  0.00     0.031 C 
ATOM     55  C   UNL A   1      38.643  29.656  27.870  1.00  0.00     0.029 A 
ATOM     56  C   UNL A   1      38.768  30.079  29.263  1.00  0.00     0.049 A 
ATOM     57  H   UNL A   1      40.230  29.500  30.629  1.00  0.00     0.167 HD
ATOM     58  C   UNL A   1      43.275  28.146  33.445  1.00  0.00     0.031 A 
ATOM     59  C   UNL A   1      37.948  30.938  29.902  1.00  0.00     0.031 A 
ATOM     60  C   UNL A   1      42.498  29.104  34.182  1.00  0.00     0.049 A 
ATOM     61  C   UNL A   1      38.202  31.269  31.351  1.00  0.00     0.074 A 
ATOM     62  C   UNL A   1      42.689  29.556  35.478  1.00  0.00     0.029 A 
ATOM     63  N   UNL A   1      41.375  29.753  33.694  1.00  0.00    -0.354 N 
ATOM     64  N   UNL A   1      39.169  30.864  32.138  1.00  0.00    -0.248 NA
ATOM     65  C   UNL A   1      37.249  32.186  31.997  1.00  0.00     0.031 C 
ATOM     66  C   UNL A   1      41.646  30.433  35.792  1.00  0.00     0.029 A 
ATOM     67  C   UNL A   1      40.845  30.579  34.671  1.00  0.00     0.049 A 
ATOM     68  H   UNL A   1      41.008  29.642  32.787  1.00  0.00     0.167 HD
ATOM     69  C   UNL A   1      38.959  31.498  33.357  1.00  0.00     0.074 A 
ATOM     70  C   UNL A   1      37.785  32.330  33.200  1.00  0.00     0.031 C 
ATOM     71  C   UNL A   1      39.676  31.402  34.504  1.00  0.00     0.031 A 
BRANCH  58  72
ATOM     72  C   UNL A   1      44.433  27.485  34.140  1.00  0.00    -0.014 A 
ATOM     73  C   UNL A   1      44.303  26.219  34.734  1.00  0.00     0.009 A 
ATOM     74  C   UNL A   1      45.683  28.122  34.167  1.00  0.00     0.009 A 
ATOM     75  C   UNL A   1      45.394  25.619  35.366  1.00  0.00     0.001 A 
ATOM     76  C   UNL A   1      46.780  27.506  34.773  1.00  0.00     0.001 A 
ATOM     77  C   UNL A   1      46.633  26.261  35.379  1.00  0.00     0.000 A 
ENDBRANCH  58  72
BRANCH  59  78
ATOM     78  C   UNL A   1      36.781  31.532  29.194  1.00  0.00    -0.014 A 
ATOM     79  C   UNL A   1      35.627  30.772  28.949  1.00  0.00     0.009 A 
ATOM     80  C   UNL A   1      36.836  32.851  28.717  1.00  0.00     0.009 A 
ATOM     81  C   UNL A   1      34.567  31.309  28.215  1.00  0.00     0.001 A 
ATOM     82  C   UNL A   1      35.761  33.397  28.011  1.00  0.00     0.001 A 
ATOM     83  C   UNL A   1      34.633  32.622  27.750  1.00  0.00     0.000 A 
ENDBRANCH  59  78
BRANCH  71  84
ATOM     84  C   UNL A   1      39.238  32.250  35.668  1.00  0.00    -0.014 A 
ATOM     85  C   UNL A   1      38.381  31.749  36.659  1.00  0.00     0.009 A 
ATOM     86  C   UNL A   1      39.724  33.562  35.791  1.00  0.00     0.009 A 
ATOM     87  C   UNL A   1      37.989  32.556  37.730  1.00  0.00     0.001 A 
ATOM     88  C   UNL A   1      39.356  34.357  36.879  1.00  0.00     0.001 A 
ATOM     89  C   UNL A   1      38.481  33.856  37.841  1.00  0.00     0.000 A 
ENDBRANCH  71  84
ENDBRANCH  45  46
ENDBRANCH  38  40
ENDBRANCH  37  38
ENDBRANCH  36  37
ENDBRANCH  35  36
ENDBRANCH  34  35
ENDBRANCH  33  34
ENDBRANCH   1  33
TORSDOF 21
ENDMDL
MODEL 3
REMARK VINA RESULT:      -8.1      7.752     13.819
REMARK SMILES C[C@H](Oc1ccc(/C=C2/SC(=S)N(c3ccc(F)c(Cl)c3)C2=O)cc1)C(=O)OCCOCCOCCOC(=O)c1ccc(-c2c3nc(c(-c4ccccc4)c4ccc([nH]4)c(-c4ccccc4)c4nc(c(-c5ccccc5)c5ccc2[nH]5)C=C4)C=C3)cc1
REMARK SMILES IDX 32 1 31 2 30 3 29 4 28 5 26 6 27 7 2 8 1 9 3 10 4 11 5 12
REMARK SMILES IDX 25 13 6 14 24 15 7 16 8 17 9 18 10 19 22 20 11 21 13 22
REMARK SMILES IDX 23 23 12 24 14 25 15 26 21 27 16 28 19 29 17 30 20 31 18 32
REMARK SMILES IDX 33 33 34 34 35 35 36 36 37 37 38 38 39 39 40 40 41 41 87 42
REMARK SMILES IDX 42 43 86 44 43 45 44 46 45 47 80 48 46 49 85 50 79 51 81 52
REMARK SMILES IDX 47 53 84 54 78 55 77 56 48 58 70 59 55 60 69 61 56 62 59 63
REMARK SMILES IDX 68 64 82 65 57 66 58 67 67 69 83 70 60 71 49 72 50 73 54 74
REMARK SMILES IDX 51 75 53 76 52 77 71 78 72 79 76 80 73 81 75 82 74 83 61 84
REMARK SMILES IDX 62 85 66 86 63 87 65 88 64 89
REMARK H PARENT 81 57 59 68
REMARK Flexibility Score: inf
ROOT
ATOM      1  C   UNL A   1      34.767  29.745  27.650  1.00  0.00     0.188 C 
ENDROOT
BRANCH   1   2
ATOM      2  O   UNL A   1      33.841  28.696  27.386  1.00  0.00    -0.376 OA
BRANCH   2   3
ATOM      3  C   UNL A   1      32.627  28.986  26.707  1.00  0.00     0.202 C 
BRANCH   3   4
ATOM      4  C   UNL A   1      31.425  28.042  26.867  1.00  0.00     0.261 C 
BRANCH   4   5
ATOM      5  O   UNL A   1      31.096  27.228  25.726  1.00  0.00    -0.461 OA
BRANCH   5   6
ATOM      6  C   UNL A   1      31.308  25.887  25.856  1.00  0.00     0.347 C 
ATOM      7  O   UNL A   1      31.079  25.245  26.878  1.00  0.00    -0.248 OA
BRANCH   6   8
ATOM      8  C   UNL A   1      31.952  25.246  24.612  1.00  0.00     0.279 C 
ATOM      9  C   UNL A   1      30.884  25.327  23.519  1.00  0.00     0.066 C 
BRANCH   8  10
ATOM     10  O   UNL A   1      32.457  23.941  24.887  1.00  0.00    -0.479 OA
BRANCH  10  11
ATOM     11  C   UNL A   1      33.777  23.684  25.110  1.00  0.00     0.120 A 
ATOM     12  C   UNL A   1      34.847  24.053  24.305  1.00  0.00     0.047 A 
ATOM     13  C   UNL A   1      34.030  22.892  26.234  1.00  0.00     0.047 A 
ATOM     14  C   UNL A   1      36.103  23.457  24.484  1.00  0.00     0.012 A 
ATOM     15  C   UNL A   1      35.298  22.348  26.456  1.00  0.00     0.012 A 
ATOM     16  C   UNL A   1      36.312  22.536  25.514  1.00  0.00    -0.024 A 
BRANCH  16  17
ATOM     17  C   UNL A   1      37.561  21.764  25.549  1.00  0.00     0.029 C 
ATOM     18  C   UNL A   1      38.740  22.195  26.030  1.00  0.00     0.081 C 
ATOM     19  S   UNL A   1      40.155  21.208  26.019  1.00  0.00    -0.054 SA
ATOM     20  C   UNL A   1      39.074  23.534  26.611  1.00  0.00     0.270 C 
ATOM     21  C   UNL A   1      41.195  22.503  26.612  1.00  0.00     0.152 C 
ATOM     22  N   UNL A   1      40.451  23.657  26.794  1.00  0.00    -0.261 N 
ATOM     23  O   UNL A   1      38.238  24.394  26.854  1.00  0.00    -0.268 OA
ATOM     24  S   UNL A   1      42.806  22.211  26.963  1.00  0.00    -0.051 S 
BRANCH  22  25
ATOM     25  C   UNL A   1      40.999  24.937  27.128  1.00  0.00     0.052 A 
ATOM     26  C   UNL A   1      41.139  25.333  28.469  1.00  0.00     0.030 A 
ATOM     27  C   UNL A   1      41.312  25.863  26.119  1.00  0.00     0.050 A 
ATOM     28  C   UNL A   1      41.595  26.612  28.796  1.00  0.00     0.043 A 
ATOM     29  C   UNL A   1      41.751  27.149  26.450  1.00  0.00     0.078 A 
ATOM     30  C   UNL A   1      41.894  27.516  27.785  1.00  0.00     0.141 A 
ATOM     31  Cl  UNL A   1      42.073  28.279  25.191  1.00  0.00    -0.081 Cl
ATOM     32  F   UNL A   1      42.305  28.748  28.118  1.00  0.00    -0.205 F 
ENDBRANCH  22  25
ENDBRANCH  16  17
ENDBRANCH  10  11
ENDBRANCH   8  10
ENDBRANCH   6   8
ENDBRANCH   5   6
ENDBRANCH   4   5
ENDBRANCH   3   4
ENDBRANCH   2   3
ENDBRANCH   1   2
BRANCH   1  33
ATOM     33  C   UNL A   1      34.288  31.211  27.657  1.00  0.00     0.188 C 
BRANCH  33  34
ATOM     34  O   UNL A   1      34.539  31.888  28.866  1.00  0.00    -0.376 OA
BRANCH  34  35
ATOM     35  C   UNL A   1      34.652  33.297  28.839  1.00  0.00     0.202 C 
BRANCH  35  36
ATOM     36  C   UNL A   1      34.669  34.126  30.138  1.00  0.00     0.261 C 
BRANCH  36  37
ATOM     37  O   UNL A   1      35.441  33.622  31.239  1.00  0.00    -0.460 OA
BRANCH  37  38
ATOM     38  C   UNL A   1      34.771  33.146  32.308  1.00  0.00     0.338 C 
ATOM     39  O   UNL A   1      33.663  32.618  32.312  1.00  0.00    -0.246 OA
BRANCH  38  40
ATOM     40  C   UNL A   1      35.674  33.191  33.476  1.00  0.00     0.060 A 
ATOM     41  C   UNL A   1      35.463  34.163  34.465  1.00  0.00     0.016 A 
ATOM     42  C   UNL A   1      36.721  32.275  33.602  1.00  0.00     0.016 A 
ATOM     43  C   UNL A   1      36.312  34.232  35.571  1.00  0.00     0.010 A 
ATOM     44  C   UNL A   1      37.584  32.361  34.700  1.00  0.00     0.010 A 
ATOM     45  C   UNL A   1      37.400  33.356  35.678  1.00  0.00    -0.014 A 
BRANCH  45  46
ATOM     46  C   UNL A   1      38.436  33.578  36.717  1.00  0.00     0.031 A 
ATOM     47  C   UNL A   1      39.688  34.322  36.338  1.00  0.00     0.074 A 
ATOM     48  C   UNL A   1      38.275  33.137  37.978  1.00  0.00     0.049 A 
ATOM     49  N   UNL A   1      40.749  34.587  37.058  1.00  0.00    -0.248 NA
ATOM     50  C   UNL A   1      39.751  34.837  34.960  1.00  0.00     0.031 C 
ATOM     51  C   UNL A   1      37.095  32.446  38.491  1.00  0.00     0.029 A 
ATOM     52  N   UNL A   1      39.122  33.206  39.057  1.00  0.00    -0.354 N 
ATOM     53  C   UNL A   1      41.606  35.290  36.220  1.00  0.00     0.074 A 
ATOM     54  C   UNL A   1      40.955  35.389  34.932  1.00  0.00     0.031 C 
ATOM     55  C   UNL A   1      37.298  32.142  39.786  1.00  0.00     0.029 A 
ATOM     56  C   UNL A   1      38.634  32.585  40.181  1.00  0.00     0.049 A 
ATOM     57  H   UNL A   1      39.997  33.657  39.028  1.00  0.00     0.167 HD
ATOM     58  C   UNL A   1      42.824  35.813  36.497  1.00  0.00     0.031 A 
ATOM     59  C   UNL A   1      39.210  32.377  41.382  1.00  0.00     0.031 A 
ATOM     60  C   UNL A   1      43.485  35.701  37.769  1.00  0.00     0.049 A 
ATOM     61  C   UNL A   1      40.605  32.888  41.635  1.00  0.00     0.074 A 
ATOM     62  C   UNL A   1      44.718  36.207  38.147  1.00  0.00     0.029 A 
ATOM     63  N   UNL A   1      42.973  35.030  38.868  1.00  0.00    -0.354 N 
ATOM     64  N   UNL A   1      41.394  33.576  40.846  1.00  0.00    -0.248 NA
ATOM     65  C   UNL A   1      41.187  32.596  42.956  1.00  0.00     0.031 C 
ATOM     66  C   UNL A   1      44.978  35.789  39.457  1.00  0.00     0.029 A 
ATOM     67  C   UNL A   1      43.878  35.081  39.916  1.00  0.00     0.049 A 
ATOM     68  H   UNL A   1      42.097  34.581  38.899  1.00  0.00     0.167 HD
ATOM     69  C   UNL A   1      42.547  33.825  41.582  1.00  0.00     0.074 A 
ATOM     70  C   UNL A   1      42.348  33.232  42.886  1.00  0.00     0.031 C 
ATOM     71  C   UNL A   1      43.669  34.488  41.210  1.00  0.00     0.031 A 
BRANCH  58  72
ATOM     72  C   UNL A   1      43.540  36.526  35.384  1.00  0.00    -0.014 A 
ATOM     73  C   UNL A   1      43.283  37.875  35.097  1.00  0.00     0.009 A 
ATOM     74  C   UNL A   1      44.514  35.845  34.637  1.00  0.00     0.009 A 
ATOM     75  C   UNL A   1      43.967  38.521  34.064  1.00  0.00     0.001 A 
ATOM     76  C   UNL A   1      45.218  36.502  33.626  1.00  0.00     0.001 A 
ATOM     77  C   UNL A   1      44.938  37.835  33.334  1.00  0.00     0.000 A 
ENDBRANCH  58  72
BRANCH  59  78
ATOM     78  C   UNL A   1      38.487  31.621  42.442  1.00  0.00    -0.014 A 
ATOM     79  C   UNL A   1      37.629  32.280  43.335  1.00  0.00     0.009 A 
ATOM     80  C   UNL A   1      38.690  30.240  42.593  1.00  0.00     0.009 A 
ATOM     81  C   UNL A   1      37.016  31.579  44.376  1.00  0.00     0.001 A 
ATOM     82  C   UNL A   1      38.050  29.535  43.615  1.00  0.00     0.001 A 
ATOM     83  C   UNL A   1      37.223  30.207  44.513  1.00  0.00     0.000 A 
ENDBRANCH  59  78
BRANCH  71  84
ATOM     84  C   UNL A   1      44.754  34.646  42.242  1.00  0.00    -0.014 A 
ATOM     85  C   UNL A   1      45.800  33.718  42.355  1.00  0.00     0.009 A 
ATOM     86  C   UNL A   1      44.745  35.765  43.090  1.00  0.00     0.009 A 
ATOM     87  C   UNL A   1      46.795  33.888  43.321  1.00  0.00     0.001 A 
ATOM     88  C   UNL A   1      45.758  35.950  44.034  1.00  0.00     0.001 A 
ATOM     89  C   UNL A   1      46.775  35.005  44.155  1.00  0.00     0.000 A 
ENDBRANCH  71  84
ENDBRANCH  45  46
ENDBRANCH  38  40
ENDBRANCH  37  38
ENDBRANCH  36  37
ENDBRANCH  35  36
ENDBRANCH  34  35
ENDBRANCH  33  34
ENDBRANCH   1  33
TORSDOF 21
ENDMDL
