MODEL 1
REMARK VINA RESULT:     -10.3      0.000      0.000
REMARK SMILES O=C(OCCOCCOCCOC(=O)c1ccc2c(=O)n(CCC[NH+]3CCOCC3)c(=O)[nH]c2c1)c1ccc(-c2c3nc(c(-c4ccccc4)c4ccc([nH]4)c(-c4ccccc4)c4nc(c(-c5ccccc5)c5ccc2[nH]5)C=C4)C=C3)cc1
REMARK SMILES IDX 8 1 7 2 6 3 5 4 4 5 3 6 2 7 1 8 36 9 37 10 83 11 38 12 82 13
REMARK SMILES IDX 39 14 40 15 41 16 76 17 42 18 81 19 75 20 77 21 43 22 80 23
REMARK SMILES IDX 74 24 73 25 44 27 66 28 51 29 65 30 52 31 55 32 64 33 78 34
REMARK SMILES IDX 53 35 54 36 63 38 79 39 56 40 45 41 46 42 50 43 47 44 49 45
REMARK SMILES IDX 48 46 67 47 68 48 72 49 69 50 71 51 70 52 57 53 58 54 62 55
REMARK SMILES IDX 59 56 61 57 60 58 9 59 10 60 11 61 12 62 13 63 14 64 15 65
REMARK SMILES IDX 16 66 35 67 17 68 34 69 18 70 33 71 19 72 31 73 20 75 21 76
REMARK SMILES IDX 32 77 22 78 23 79 24 80 25 81 26 82 30 83 27 85 29 86 28 87
REMARK H PARENT 77 26 55 37 33 74 25 84
REMARK Flexibility Score: inf
ROOT
ATOM      1  C   UNL A   1      35.579  22.657  25.525  1.00  0.00     0.188 C 
ENDROOT
BRANCH   1   2
ATOM      2  C   UNL A   1      36.512  21.465  25.335  1.00  0.00     0.188 C 
BRANCH   2   3
ATOM      3  O   UNL A   1      37.880  21.704  25.046  1.00  0.00    -0.376 OA
BRANCH   3   4
ATOM      4  C   UNL A   1      38.886  21.005  25.760  1.00  0.00     0.202 C 
BRANCH   4   5
ATOM      5  C   UNL A   1      39.382  19.630  25.275  1.00  0.00     0.261 C 
BRANCH   5   6
ATOM      6  O   UNL A   1      40.490  18.999  25.951  1.00  0.00    -0.460 OA
BRANCH   6   7
ATOM      7  C   UNL A   1      41.801  19.360  25.889  1.00  0.00     0.338 C 
ATOM      8  O   UNL A   1      42.684  18.515  25.800  1.00  0.00    -0.246 OA
BRANCH   7   9
ATOM      9  C   UNL A   1      42.148  20.732  26.341  1.00  0.00     0.060 A 
ATOM     10  C   UNL A   1      41.980  21.041  27.704  1.00  0.00     0.016 A 
ATOM     11  C   UNL A   1      42.534  21.732  25.456  1.00  0.00     0.016 A 
ATOM     12  C   UNL A   1      42.119  22.360  28.153  1.00  0.00     0.010 A 
ATOM     13  C   UNL A   1      42.586  23.057  25.880  1.00  0.00     0.010 A 
ATOM     14  C   UNL A   1      42.402  23.379  27.233  1.00  0.00    -0.014 A 
BRANCH  14  15
ATOM     15  C   UNL A   1      42.872  24.707  27.676  1.00  0.00     0.031 A 
ATOM     16  C   UNL A   1      44.299  25.036  27.974  1.00  0.00     0.074 A 
ATOM     17  C   UNL A   1      41.899  25.580  27.991  1.00  0.00     0.049 A 
ATOM     18  N   UNL A   1      44.819  26.199  28.282  1.00  0.00    -0.248 NA
ATOM     19  C   UNL A   1      45.262  23.929  27.962  1.00  0.00     0.031 C 
ATOM     20  C   UNL A   1      40.463  25.303  27.875  1.00  0.00     0.029 A 
ATOM     21  N   UNL A   1      41.959  26.837  28.523  1.00  0.00    -0.354 N 
ATOM     22  C   UNL A   1      46.184  25.983  28.415  1.00  0.00     0.074 A 
ATOM     23  C   UNL A   1      46.392  24.558  28.273  1.00  0.00     0.031 C 
ATOM     24  C   UNL A   1      39.780  26.344  28.360  1.00  0.00     0.029 A 
ATOM     25  C   UNL A   1      40.725  27.368  28.788  1.00  0.00     0.049 A 
ATOM     26  H   UNL A   1      42.803  27.312  28.697  1.00  0.00     0.167 HD
ATOM     27  C   UNL A   1      47.162  26.902  28.614  1.00  0.00     0.031 A 
ATOM     28  C   UNL A   1      40.381  28.561  29.298  1.00  0.00     0.031 A 
ATOM     29  C   UNL A   1      46.893  28.295  28.879  1.00  0.00     0.049 A 
ATOM     30  C   UNL A   1      41.462  29.560  29.559  1.00  0.00     0.074 A 
ATOM     31  C   UNL A   1      47.791  29.338  29.024  1.00  0.00     0.029 A 
ATOM     32  N   UNL A   1      45.629  28.824  29.098  1.00  0.00    -0.354 N 
ATOM     33  N   UNL A   1      42.760  29.415  29.440  1.00  0.00    -0.248 NA
ATOM     34  C   UNL A   1      41.034  30.900  29.969  1.00  0.00     0.031 C 
ATOM     35  C   UNL A   1      47.081  30.465  29.448  1.00  0.00     0.029 A 
ATOM     36  C   UNL A   1      45.729  30.157  29.461  1.00  0.00     0.049 A 
ATOM     37  H   UNL A   1      44.784  28.326  29.008  1.00  0.00     0.167 HD
ATOM     38  C   UNL A   1      43.309  30.652  29.742  1.00  0.00     0.074 A 
ATOM     39  C   UNL A   1      42.196  31.540  30.020  1.00  0.00     0.031 C 
ATOM     40  C   UNL A   1      44.615  31.018  29.783  1.00  0.00     0.031 A 
BRANCH  27  41
ATOM     41  C   UNL A   1      48.608  26.468  28.540  1.00  0.00    -0.014 A 
ATOM     42  C   UNL A   1      49.335  26.174  29.704  1.00  0.00     0.009 A 
ATOM     43  C   UNL A   1      49.302  26.503  27.321  1.00  0.00     0.009 A 
ATOM     44  C   UNL A   1      50.714  25.935  29.649  1.00  0.00     0.001 A 
ATOM     45  C   UNL A   1      50.670  26.215  27.259  1.00  0.00     0.001 A 
ATOM     46  C   UNL A   1      51.378  25.947  28.425  1.00  0.00     0.000 A 
ENDBRANCH  27  41
BRANCH  28  47
ATOM     47  C   UNL A   1      38.937  28.863  29.449  1.00  0.00    -0.014 A 
ATOM     48  C   UNL A   1      38.216  29.440  28.389  1.00  0.00     0.009 A 
ATOM     49  C   UNL A   1      38.323  28.740  30.703  1.00  0.00     0.009 A 
ATOM     50  C   UNL A   1      36.922  29.922  28.594  1.00  0.00     0.001 A 
ATOM     51  C   UNL A   1      37.018  29.194  30.896  1.00  0.00     0.001 A 
ATOM     52  C   UNL A   1      36.325  29.798  29.848  1.00  0.00     0.000 A 
ENDBRANCH  28  47
BRANCH  40  53
ATOM     53  C   UNL A   1      44.920  32.437  30.184  1.00  0.00    -0.014 A 
ATOM     54  C   UNL A   1      45.076  33.427  29.202  1.00  0.00     0.009 A 
ATOM     55  C   UNL A   1      45.121  32.780  31.531  1.00  0.00     0.009 A 
ATOM     56  C   UNL A   1      45.438  34.727  29.557  1.00  0.00     0.001 A 
ATOM     57  C   UNL A   1      45.439  34.092  31.888  1.00  0.00     0.001 A 
ATOM     58  C   UNL A   1      45.609  35.061  30.900  1.00  0.00     0.000 A 
ENDBRANCH  40  53
ENDBRANCH  14  15
ENDBRANCH   7   9
ENDBRANCH   6   7
ENDBRANCH   5   6
ENDBRANCH   4   5
ENDBRANCH   3   4
ENDBRANCH   2   3
ENDBRANCH   1   2
BRANCH   1  59
ATOM     59  O   UNL A   1      34.552  22.385  26.448  1.00  0.00    -0.376 OA
BRANCH  59  60
ATOM     60  C   UNL A   1      33.936  21.110  26.410  1.00  0.00     0.202 C 
BRANCH  60  61
ATOM     61  C   UNL A   1      33.198  20.550  25.175  1.00  0.00     0.261 C 
BRANCH  61  62
ATOM     62  O   UNL A   1      32.028  21.212  24.678  1.00  0.00    -0.460 OA
BRANCH  62  63
ATOM     63  C   UNL A   1      32.079  21.835  23.476  1.00  0.00     0.338 C 
ATOM     64  O   UNL A   1      32.020  21.334  22.379  1.00  0.00    -0.246 OA
BRANCH  63  65
ATOM     65  C   UNL A   1      32.166  23.289  23.760  1.00  0.00     0.062 A 
ATOM     66  C   UNL A   1      32.786  24.109  22.815  1.00  0.00     0.016 A 
ATOM     67  C   UNL A   1      31.691  23.825  24.973  1.00  0.00     0.042 A 
ATOM     68  C   UNL A   1      32.972  25.458  23.100  1.00  0.00     0.017 A 
ATOM     69  C   UNL A   1      31.896  25.181  25.246  1.00  0.00     0.056 A 
ATOM     70  C   UNL A   1      32.565  25.977  24.331  1.00  0.00     0.064 A 
ATOM     71  N   UNL A   1      31.434  25.776  26.420  1.00  0.00    -0.307 N 
ATOM     72  C   UNL A   1      32.845  27.376  24.700  1.00  0.00     0.264 A 
ATOM     73  C   UNL A   1      31.433  27.133  26.631  1.00  0.00     0.328 A 
ATOM     74  H   UNL A   1      31.091  25.192  27.134  1.00  0.00     0.171 HD
ATOM     75  O   UNL A   1      33.801  27.930  24.175  1.00  0.00    -0.268 OA
ATOM     76  N   UNL A   1      32.015  27.931  25.649  1.00  0.00    -0.260 N 
ATOM     77  O   UNL A   1      30.929  27.575  27.664  1.00  0.00    -0.248 OA
BRANCH  76  78
ATOM     78  C   UNL A   1      31.876  29.380  25.827  1.00  0.00     0.137 C 
BRANCH  78  79
ATOM     79  C   UNL A   1      31.097  30.276  24.851  1.00  0.00     0.083 C 
BRANCH  79  80
ATOM     80  C   UNL A   1      30.157  29.723  23.764  1.00  0.00     0.264 C 
BRANCH  80  81
ATOM     81  N   UNL A   1      28.812  30.215  23.486  1.00  0.00    -0.331 N 
ATOM     82  C   UNL A   1      28.075  29.784  22.306  1.00  0.00     0.291 C 
ATOM     83  C   UNL A   1      28.651  31.661  23.716  1.00  0.00     0.291 C 
ATOM     84  H   UNL A   1      28.335  29.672  24.206  1.00  0.00     0.348 HD
ATOM     85  C   UNL A   1      28.254  30.693  21.079  1.00  0.00     0.221 C 
ATOM     86  C   UNL A   1      28.863  32.503  22.450  1.00  0.00     0.221 C 
ATOM     87  O   UNL A   1      28.005  32.070  21.389  1.00  0.00    -0.370 OA
ENDBRANCH  80  81
ENDBRANCH  79  80
ENDBRANCH  78  79
ENDBRANCH  76  78
ENDBRANCH  63  65
ENDBRANCH  62  63
ENDBRANCH  61  62
ENDBRANCH  60  61
ENDBRANCH  59  60
ENDBRANCH   1  59
TORSDOF 21
ENDMDL
MODEL 2
REMARK VINA RESULT:     -10.2      3.942      5.491
REMARK SMILES O=C(OCCOCCOCCOC(=O)c1ccc2c(=O)n(CCC[NH+]3CCOCC3)c(=O)[nH]c2c1)c1ccc(-c2c3nc(c(-c4ccccc4)c4ccc([nH]4)c(-c4ccccc4)c4nc(c(-c5ccccc5)c5ccc2[nH]5)C=C4)C=C3)cc1
REMARK SMILES IDX 8 1 7 2 6 3 5 4 4 5 3 6 2 7 1 8 36 9 37 10 83 11 38 12 82 13
REMARK SMILES IDX 39 14 40 15 41 16 76 17 42 18 81 19 75 20 77 21 43 22 80 23
REMARK SMILES IDX 74 24 73 25 44 27 66 28 51 29 65 30 52 31 55 32 64 33 78 34
REMARK SMILES IDX 53 35 54 36 63 38 79 39 56 40 45 41 46 42 50 43 47 44 49 45
REMARK SMILES IDX 48 46 67 47 68 48 72 49 69 50 71 51 70 52 57 53 58 54 62 55
REMARK SMILES IDX 59 56 61 57 60 58 9 59 10 60 11 61 12 62 13 63 14 64 15 65
REMARK SMILES IDX 16 66 35 67 17 68 34 69 18 70 33 71 19 72 31 73 20 75 21 76
REMARK SMILES IDX 32 77 22 78 23 79 24 80 25 81 26 82 30 83 27 85 29 86 28 87
REMARK H PARENT 77 26 55 37 33 74 25 84
REMARK Flexibility Score: inf
ROOT
ATOM      1  C   UNL A   1      40.025  22.049  26.695  1.00  0.00     0.188 C 
ENDROOT
BRANCH   1   2
ATOM      2  C   UNL A   1      41.355  21.424  27.107  1.00  0.00     0.188 C 
BRANCH   2   3
ATOM      3  O   UNL A   1      42.240  20.965  26.098  1.00  0.00    -0.376 OA
BRANCH   3   4
ATOM      4  C   UNL A   1      43.453  21.656  25.854  1.00  0.00     0.202 C 
BRANCH   4   5
ATOM      5  C   UNL A   1      43.606  22.564  24.619  1.00  0.00     0.261 C 
BRANCH   5   6
ATOM      6  O   UNL A   1      43.287  23.967  24.729  1.00  0.00    -0.460 OA
BRANCH   6   7
ATOM      7  C   UNL A   1      44.097  24.958  25.188  1.00  0.00     0.338 C 
ATOM      8  O   UNL A   1      45.287  24.986  24.898  1.00  0.00    -0.246 OA
BRANCH   7   9
ATOM      9  C   UNL A   1      43.613  25.745  26.352  1.00  0.00     0.060 A 
ATOM     10  C   UNL A   1      42.611  25.177  27.163  1.00  0.00     0.016 A 
ATOM     11  C   UNL A   1      44.041  27.043  26.603  1.00  0.00     0.016 A 
ATOM     12  C   UNL A   1      41.992  25.938  28.161  1.00  0.00     0.010 A 
ATOM     13  C   UNL A   1      43.368  27.832  27.533  1.00  0.00     0.010 A 
ATOM     14  C   UNL A   1      42.356  27.281  28.334  1.00  0.00    -0.014 A 
BRANCH  14  15
ATOM     15  C   UNL A   1      41.984  28.028  29.553  1.00  0.00     0.031 A 
ATOM     16  C   UNL A   1      42.615  27.819  30.891  1.00  0.00     0.074 A 
ATOM     17  C   UNL A   1      40.886  28.796  29.437  1.00  0.00     0.049 A 
ATOM     18  N   UNL A   1      42.416  28.491  31.998  1.00  0.00    -0.248 NA
ATOM     19  C   UNL A   1      43.556  26.702  31.024  1.00  0.00     0.031 C 
ATOM     20  C   UNL A   1      40.107  28.954  28.204  1.00  0.00     0.029 A 
ATOM     21  N   UNL A   1      40.203  29.530  30.364  1.00  0.00    -0.354 N 
ATOM     22  C   UNL A   1      43.272  27.936  32.940  1.00  0.00     0.074 A 
ATOM     23  C   UNL A   1      43.901  26.798  32.305  1.00  0.00     0.031 C 
ATOM     24  C   UNL A   1      39.032  29.704  28.463  1.00  0.00     0.029 A 
ATOM     25  C   UNL A   1      39.064  30.103  29.864  1.00  0.00     0.049 A 
ATOM     26  H   UNL A   1      40.500  29.638  31.297  1.00  0.00     0.167 HD
ATOM     27  C   UNL A   1      43.517  28.364  34.204  1.00  0.00     0.031 A 
ATOM     28  C   UNL A   1      38.151  30.887  30.458  1.00  0.00     0.031 A 
ATOM     29  C   UNL A   1      42.770  29.424  34.836  1.00  0.00     0.049 A 
ATOM     30  C   UNL A   1      38.397  31.324  31.866  1.00  0.00     0.074 A 
ATOM     31  C   UNL A   1      42.966  30.000  36.080  1.00  0.00     0.029 A 
ATOM     32  N   UNL A   1      41.645  30.027  34.291  1.00  0.00    -0.354 N 
ATOM     33  N   UNL A   1      39.368  30.976  32.676  1.00  0.00    -0.248 NA
ATOM     34  C   UNL A   1      37.458  32.301  32.426  1.00  0.00     0.031 C 
ATOM     35  C   UNL A   1      41.892  30.858  36.334  1.00  0.00     0.029 A 
ATOM     36  C   UNL A   1      41.086  30.904  35.207  1.00  0.00     0.049 A 
ATOM     37  H   UNL A   1      41.294  29.857  33.387  1.00  0.00     0.167 HD
ATOM     38  C   UNL A   1      39.172  31.706  33.839  1.00  0.00     0.074 A 
ATOM     39  C   UNL A   1      38.004  32.537  33.612  1.00  0.00     0.031 C 
ATOM     40  C   UNL A   1      39.895  31.689  34.987  1.00  0.00     0.031 A 
BRANCH  27  41
ATOM     41  C   UNL A   1      44.633  27.721  34.996  1.00  0.00    -0.014 A 
ATOM     42  C   UNL A   1      45.975  28.053  34.752  1.00  0.00     0.009 A 
ATOM     43  C   UNL A   1      44.365  26.664  35.878  1.00  0.00     0.009 A 
ATOM     44  C   UNL A   1      47.014  27.340  35.365  1.00  0.00     0.001 A 
ATOM     45  C   UNL A   1      45.400  25.985  36.528  1.00  0.00     0.001 A 
ATOM     46  C   UNL A   1      46.725  26.313  36.260  1.00  0.00     0.000 A 
ENDBRANCH  27  41
BRANCH  28  47
ATOM     47  C   UNL A   1      37.018  31.381  29.637  1.00  0.00    -0.014 A 
ATOM     48  C   UNL A   1      35.977  30.512  29.265  1.00  0.00     0.009 A 
ATOM     49  C   UNL A   1      37.065  32.665  29.079  1.00  0.00     0.009 A 
ATOM     50  C   UNL A   1      35.028  30.909  28.322  1.00  0.00     0.001 A 
ATOM     51  C   UNL A   1      36.096  33.071  28.160  1.00  0.00     0.001 A 
ATOM     52  C   UNL A   1      35.088  32.188  27.771  1.00  0.00     0.000 A 
ENDBRANCH  28  47
BRANCH  40  53
ATOM     53  C   UNL A   1      39.419  32.570  36.112  1.00  0.00    -0.014 A 
ATOM     54  C   UNL A   1      40.002  33.832  36.312  1.00  0.00     0.009 A 
ATOM     55  C   UNL A   1      38.442  32.124  37.016  1.00  0.00     0.009 A 
ATOM     56  C   UNL A   1      39.626  34.622  37.398  1.00  0.00     0.001 A 
ATOM     57  C   UNL A   1      38.035  32.935  38.077  1.00  0.00     0.001 A 
ATOM     58  C   UNL A   1      38.636  34.178  38.274  1.00  0.00     0.000 A 
ENDBRANCH  40  53
ENDBRANCH  14  15
ENDBRANCH   7   9
ENDBRANCH   6   7
ENDBRANCH   5   6
ENDBRANCH   4   5
ENDBRANCH   3   4
ENDBRANCH   2   3
ENDBRANCH   1   2
BRANCH   1  59
ATOM     59  O   UNL A   1      39.342  21.263  25.749  1.00  0.00    -0.376 OA
BRANCH  59  60
ATOM     60  C   UNL A   1      38.098  21.731  25.260  1.00  0.00     0.202 C 
BRANCH  60  61
ATOM     61  C   UNL A   1      36.878  20.820  25.003  1.00  0.00     0.261 C 
BRANCH  61  62
ATOM     62  O   UNL A   1      35.637  21.078  25.674  1.00  0.00    -0.460 OA
BRANCH  62  63
ATOM     63  C   UNL A   1      34.484  20.615  25.133  1.00  0.00     0.338 C 
ATOM     64  O   UNL A   1      34.108  19.472  25.056  1.00  0.00    -0.246 OA
BRANCH  63  65
ATOM     65  C   UNL A   1      33.719  21.809  24.692  1.00  0.00     0.062 A 
ATOM     66  C   UNL A   1      32.690  22.273  25.514  1.00  0.00     0.016 A 
ATOM     67  C   UNL A   1      33.980  22.426  23.453  1.00  0.00     0.042 A 
ATOM     68  C   UNL A   1      31.892  23.326  25.079  1.00  0.00     0.017 A 
ATOM     69  C   UNL A   1      33.161  23.477  23.028  1.00  0.00     0.056 A 
ATOM     70  C   UNL A   1      32.104  23.893  23.820  1.00  0.00     0.064 A 
ATOM     71  N   UNL A   1      33.378  24.141  21.821  1.00  0.00    -0.307 N 
ATOM     72  C   UNL A   1      31.207  24.937  23.293  1.00  0.00     0.264 A 
ATOM     73  C   UNL A   1      32.731  25.299  21.467  1.00  0.00     0.328 A 
ATOM     74  H   UNL A   1      34.029  23.758  21.190  1.00  0.00     0.171 HD
ATOM     75  O   UNL A   1      30.059  24.974  23.710  1.00  0.00    -0.268 OA
ATOM     76  N   UNL A   1      31.742  25.765  22.330  1.00  0.00    -0.260 N 
ATOM     77  O   UNL A   1      33.046  25.861  20.418  1.00  0.00    -0.248 OA
BRANCH  76  78
ATOM     78  C   UNL A   1      31.165  27.074  22.006  1.00  0.00     0.137 C 
BRANCH  78  79
ATOM     79  C   UNL A   1      31.245  28.284  22.951  1.00  0.00     0.083 C 
BRANCH  79  80
ATOM     80  C   UNL A   1      30.015  29.108  23.374  1.00  0.00     0.264 C 
BRANCH  80  81
ATOM     81  N   UNL A   1      28.967  29.577  22.475  1.00  0.00    -0.331 N 
ATOM     82  C   UNL A   1      29.221  30.626  21.497  1.00  0.00     0.291 C 
ATOM     83  C   UNL A   1      27.663  29.766  23.133  1.00  0.00     0.291 C 
ATOM     84  H   UNL A   1      28.958  28.759  21.865  1.00  0.00     0.348 HD
ATOM     85  C   UNL A   1      28.908  32.047  21.995  1.00  0.00     0.221 C 
ATOM     86  C   UNL A   1      27.432  31.203  23.618  1.00  0.00     0.221 C 
ATOM     87  O   UNL A   1      27.590  32.144  22.550  1.00  0.00    -0.370 OA
ENDBRANCH  80  81
ENDBRANCH  79  80
ENDBRANCH  78  79
ENDBRANCH  76  78
ENDBRANCH  63  65
ENDBRANCH  62  63
ENDBRANCH  61  62
ENDBRANCH  60  61
ENDBRANCH  59  60
ENDBRANCH   1  59
TORSDOF 21
ENDMDL
MODEL 3
REMARK VINA RESULT:     -10.2      5.205      8.440
REMARK SMILES O=C(OCCOCCOCCOC(=O)c1ccc2c(=O)n(CCC[NH+]3CCOCC3)c(=O)[nH]c2c1)c1ccc(-c2c3nc(c(-c4ccccc4)c4ccc([nH]4)c(-c4ccccc4)c4nc(c(-c5ccccc5)c5ccc2[nH]5)C=C4)C=C3)cc1
REMARK SMILES IDX 8 1 7 2 6 3 5 4 4 5 3 6 2 7 1 8 36 9 37 10 83 11 38 12 82 13
REMARK SMILES IDX 39 14 40 15 41 16 76 17 42 18 81 19 75 20 77 21 43 22 80 23
REMARK SMILES IDX 74 24 73 25 44 27 66 28 51 29 65 30 52 31 55 32 64 33 78 34
REMARK SMILES IDX 53 35 54 36 63 38 79 39 56 40 45 41 46 42 50 43 47 44 49 45
REMARK SMILES IDX 48 46 67 47 68 48 72 49 69 50 71 51 70 52 57 53 58 54 62 55
REMARK SMILES IDX 59 56 61 57 60 58 9 59 10 60 11 61 12 62 13 63 14 64 15 65
REMARK SMILES IDX 16 66 35 67 17 68 34 69 18 70 33 71 19 72 31 73 20 75 21 76
REMARK SMILES IDX 32 77 22 78 23 79 24 80 25 81 26 82 30 83 27 85 29 86 28 87
REMARK H PARENT 77 26 55 37 33 74 25 84
REMARK Flexibility Score: inf
ROOT
ATOM      1  C   UNL A   1      41.122  21.007  27.409  1.00  0.00     0.188 C 
ENDROOT
BRANCH   1   2
ATOM      2  C   UNL A   1      42.013  21.201  26.185  1.00  0.00     0.188 C 
BRANCH   2   3
ATOM      3  O   UNL A   1      43.017  22.203  26.219  1.00  0.00    -0.376 OA
BRANCH   3   4
ATOM      4  C   UNL A   1      43.067  23.188  25.202  1.00  0.00     0.202 C 
BRANCH   4   5
ATOM      5  C   UNL A   1      44.401  23.547  24.521  1.00  0.00     0.261 C 
BRANCH   5   6
ATOM      6  O   UNL A   1      45.397  24.284  25.261  1.00  0.00    -0.460 OA
BRANCH   6   7
ATOM      7  C   UNL A   1      45.683  25.610  25.154  1.00  0.00     0.338 C 
ATOM      8  O   UNL A   1      46.599  26.003  24.441  1.00  0.00    -0.246 OA
BRANCH   7   9
ATOM      9  C   UNL A   1      45.147  26.506  26.211  1.00  0.00     0.060 A 
ATOM     10  C   UNL A   1      43.806  26.923  26.107  1.00  0.00     0.016 A 
ATOM     11  C   UNL A   1      45.944  27.015  27.230  1.00  0.00     0.016 A 
ATOM     12  C   UNL A   1      43.300  27.903  26.969  1.00  0.00     0.010 A 
ATOM     13  C   UNL A   1      45.474  28.053  28.030  1.00  0.00     0.010 A 
ATOM     14  C   UNL A   1      44.144  28.489  27.922  1.00  0.00    -0.014 A 
BRANCH  14  15
ATOM     15  C   UNL A   1      43.603  29.275  29.050  1.00  0.00     0.031 A 
ATOM     16  C   UNL A   1      43.505  30.766  29.064  1.00  0.00     0.074 A 
ATOM     17  C   UNL A   1      43.369  28.574  30.173  1.00  0.00     0.049 A 
ATOM     18  N   UNL A   1      42.960  31.537  29.972  1.00  0.00    -0.248 NA
ATOM     19  C   UNL A   1      44.120  31.492  27.946  1.00  0.00     0.031 C 
ATOM     20  C   UNL A   1      43.575  27.128  30.309  1.00  0.00     0.029 A 
ATOM     21  N   UNL A   1      42.975  28.977  31.417  1.00  0.00    -0.354 N 
ATOM     22  C   UNL A   1      43.088  32.836  29.496  1.00  0.00     0.074 A 
ATOM     23  C   UNL A   1      43.867  32.754  28.279  1.00  0.00     0.031 C 
ATOM     24  C   UNL A   1      43.342  26.773  31.576  1.00  0.00     0.029 A 
ATOM     25  C   UNL A   1      42.943  27.955  32.329  1.00  0.00     0.049 A 
ATOM     26  H   UNL A   1      42.737  29.907  31.635  1.00  0.00     0.167 HD
ATOM     27  C   UNL A   1      42.576  33.976  30.024  1.00  0.00     0.031 A 
ATOM     28  C   UNL A   1      42.605  27.958  33.628  1.00  0.00     0.031 A 
ATOM     29  C   UNL A   1      41.917  34.023  31.308  1.00  0.00     0.049 A 
ATOM     30  C   UNL A   1      42.082  29.225  34.224  1.00  0.00     0.074 A 
ATOM     31  C   UNL A   1      41.292  35.095  31.921  1.00  0.00     0.029 A 
ATOM     32  N   UNL A   1      41.852  32.961  32.199  1.00  0.00    -0.354 N 
ATOM     33  N   UNL A   1      41.976  30.409  33.671  1.00  0.00    -0.248 NA
ATOM     34  C   UNL A   1      41.581  29.147  35.599  1.00  0.00     0.031 C 
ATOM     35  C   UNL A   1      40.960  34.715  33.225  1.00  0.00     0.029 A 
ATOM     36  C   UNL A   1      41.277  33.375  33.389  1.00  0.00     0.049 A 
ATOM     37  H   UNL A   1      42.169  32.048  32.013  1.00  0.00     0.167 HD
ATOM     38  C   UNL A   1      41.377  31.220  34.624  1.00  0.00     0.074 A 
ATOM     39  C   UNL A   1      41.118  30.379  35.777  1.00  0.00     0.031 C 
ATOM     40  C   UNL A   1      41.069  32.540  34.548  1.00  0.00     0.031 A 
BRANCH  27  41
ATOM     41  C   UNL A   1      42.676  35.262  29.238  1.00  0.00    -0.014 A 
ATOM     42  C   UNL A   1      43.500  36.313  29.672  1.00  0.00     0.009 A 
ATOM     43  C   UNL A   1      41.828  35.499  28.145  1.00  0.00     0.009 A 
ATOM     44  C   UNL A   1      43.466  37.562  29.039  1.00  0.00     0.001 A 
ATOM     45  C   UNL A   1      41.830  36.730  27.482  1.00  0.00     0.001 A 
ATOM     46  C   UNL A   1      42.637  37.766  27.939  1.00  0.00     0.000 A 
ENDBRANCH  27  41
BRANCH  28  47
ATOM     47  C   UNL A   1      42.648  26.668  34.360  1.00  0.00    -0.014 A 
ATOM     48  C   UNL A   1      41.461  26.072  34.821  1.00  0.00     0.009 A 
ATOM     49  C   UNL A   1      43.879  26.125  34.751  1.00  0.00     0.009 A 
ATOM     50  C   UNL A   1      41.510  24.981  35.689  1.00  0.00     0.001 A 
ATOM     51  C   UNL A   1      43.924  25.015  35.594  1.00  0.00     0.001 A 
ATOM     52  C   UNL A   1      42.741  24.453  36.075  1.00  0.00     0.000 A 
ENDBRANCH  28  47
BRANCH  40  53
ATOM     53  C   UNL A   1      40.451  33.173  35.766  1.00  0.00    -0.014 A 
ATOM     54  C   UNL A   1      39.055  33.276  35.873  1.00  0.00     0.009 A 
ATOM     55  C   UNL A   1      41.251  33.728  36.777  1.00  0.00     0.009 A 
ATOM     56  C   UNL A   1      38.474  33.932  36.959  1.00  0.00     0.001 A 
ATOM     57  C   UNL A   1      40.667  34.346  37.884  1.00  0.00     0.001 A 
ATOM     58  C   UNL A   1      39.279  34.457  37.968  1.00  0.00     0.000 A 
ENDBRANCH  40  53
ENDBRANCH  14  15
ENDBRANCH   7   9
ENDBRANCH   6   7
ENDBRANCH   5   6
ENDBRANCH   4   5
ENDBRANCH   3   4
ENDBRANCH   2   3
ENDBRANCH   1   2
BRANCH   1  59
ATOM     59  O   UNL A   1      40.493  22.203  27.801  1.00  0.00    -0.376 OA
BRANCH  59  60
ATOM     60  C   UNL A   1      39.630  22.841  26.878  1.00  0.00     0.202 C 
BRANCH  60  61
ATOM     61  C   UNL A   1      39.528  24.373  26.714  1.00  0.00     0.261 C 
BRANCH  61  62
ATOM     62  O   UNL A   1      39.347  25.207  27.867  1.00  0.00    -0.460 OA
BRANCH  62  63
ATOM     63  C   UNL A   1      40.434  25.730  28.484  1.00  0.00     0.338 C 
ATOM     64  O   UNL A   1      41.555  25.285  28.511  1.00  0.00    -0.246 OA
BRANCH  63  65
ATOM     65  C   UNL A   1      39.996  27.013  29.088  1.00  0.00     0.062 A 
ATOM     66  C   UNL A   1      39.962  28.147  28.274  1.00  0.00     0.016 A 
ATOM     67  C   UNL A   1      39.680  27.105  30.458  1.00  0.00     0.042 A 
ATOM     68  C   UNL A   1      39.655  29.382  28.836  1.00  0.00     0.017 A 
ATOM     69  C   UNL A   1      39.383  28.356  31.007  1.00  0.00     0.056 A 
ATOM     70  C   UNL A   1      39.409  29.486  30.207  1.00  0.00     0.064 A 
ATOM     71  N   UNL A   1      39.043  28.510  32.351  1.00  0.00    -0.307 N 
ATOM     72  C   UNL A   1      39.186  30.795  30.845  1.00  0.00     0.264 A 
ATOM     73  C   UNL A   1      38.549  29.678  32.878  1.00  0.00     0.328 A 
ATOM     74  H   UNL A   1      39.165  27.742  32.953  1.00  0.00     0.171 HD
ATOM     75  O   UNL A   1      39.662  31.786  30.309  1.00  0.00    -0.268 OA
ATOM     76  N   UNL A   1      38.481  30.781  32.029  1.00  0.00    -0.260 N 
ATOM     77  O   UNL A   1      38.199  29.698  34.057  1.00  0.00    -0.248 OA
BRANCH  76  78
ATOM     78  C   UNL A   1      37.820  31.973  32.570  1.00  0.00     0.137 C 
BRANCH  78  79
ATOM     79  C   UNL A   1      36.309  32.046  32.841  1.00  0.00     0.083 C 
BRANCH  79  80
ATOM     80  C   UNL A   1      35.293  32.588  31.820  1.00  0.00     0.264 C 
BRANCH  80  81
ATOM     81  N   UNL A   1      35.499  33.752  30.965  1.00  0.00    -0.331 N 
ATOM     82  C   UNL A   1      34.386  34.590  30.542  1.00  0.00     0.291 C 
ATOM     83  C   UNL A   1      36.437  33.512  29.855  1.00  0.00     0.291 C 
ATOM     84  H   UNL A   1      35.917  34.351  31.677  1.00  0.00     0.348 HD
ATOM     85  C   UNL A   1      33.760  34.183  29.198  1.00  0.00     0.221 C 
ATOM     86  C   UNL A   1      35.740  33.092  28.553  1.00  0.00     0.221 C 
ATOM     87  O   UNL A   1      34.745  34.047  28.165  1.00  0.00    -0.370 OA
ENDBRANCH  80  81
ENDBRANCH  79  80
ENDBRANCH  78  79
ENDBRANCH  76  78
ENDBRANCH  63  65
ENDBRANCH  62  63
ENDBRANCH  61  62
ENDBRANCH  60  61
ENDBRANCH  59  60
ENDBRANCH   1  59
TORSDOF 21
ENDMDL
