MODEL 1
REMARK VINA RESULT:     -10.6      0.000      0.000
REMARK SMILES O=C(OCCOCCOCCOC(=O)[C@@H]1CCCN1C(=O)[C@@H]1CCCN1C(=O)OCC1c2ccccc2-c2ccccc21)c1ccc(-c2c3nc(c(-c4ccccc4)c4ccc([nH]4)c(-c4ccccc4)c4nc(c(-c5ccccc5)c5ccc2[nH]5)C=C4)C=C3)cc1
REMARK SMILES IDX 10 1 9 2 8 3 7 4 6 5 5 6 4 7 3 8 2 9 1 10 44 11 45 12 91 13
REMARK SMILES IDX 46 14 90 15 47 16 48 17 49 18 84 19 50 20 89 21 83 22 85 23
REMARK SMILES IDX 51 24 88 25 82 26 81 27 52 29 74 30 59 31 73 32 60 33 63 34
REMARK SMILES IDX 72 35 86 36 61 37 62 38 71 40 87 41 64 42 53 43 54 44 58 45
REMARK SMILES IDX 55 46 57 47 56 48 75 49 76 50 80 51 77 52 79 53 78 54 65 55
REMARK SMILES IDX 66 56 70 57 67 58 69 59 68 60 11 61 12 62 13 63 14 64 15 65
REMARK SMILES IDX 16 66 19 67 17 68 18 69 20 70 21 71 22 72 23 73 26 74 24 75
REMARK SMILES IDX 25 76 27 77 28 78 29 79 30 80 31 81 32 82 43 83 33 84 37 85
REMARK SMILES IDX 38 86 42 87 34 88 36 89 39 90 41 91 35 92 40 93
REMARK H PARENT 85 28 63 39
REMARK Flexibility Score: inf
ROOT
ATOM      1  C   UNL A   1      34.258  31.678  28.015  1.00  0.00     0.202 C 
ENDROOT
BRANCH   1   2
ATOM      2  O   UNL A   1      35.051  31.705  29.194  1.00  0.00    -0.376 OA
BRANCH   2   3
ATOM      3  C   UNL A   1      35.087  32.925  29.924  1.00  0.00     0.188 C 
BRANCH   3   4
ATOM      4  C   UNL A   1      34.433  32.944  31.313  1.00  0.00     0.188 C 
BRANCH   4   5
ATOM      5  O   UNL A   1      33.905  34.194  31.724  1.00  0.00    -0.376 OA
BRANCH   5   6
ATOM      6  C   UNL A   1      34.687  35.047  32.574  1.00  0.00     0.202 C 
BRANCH   6   7
ATOM      7  C   UNL A   1      36.205  34.774  32.947  1.00  0.00     0.261 C 
BRANCH   7   8
ATOM      8  O   UNL A   1      36.581  34.244  34.278  1.00  0.00    -0.460 OA
BRANCH   8   9
ATOM      9  C   UNL A   1      36.988  33.012  34.746  1.00  0.00     0.338 C 
ATOM     10  O   UNL A   1      36.768  32.684  35.906  1.00  0.00    -0.246 OA
BRANCH   9  11
ATOM     11  C   UNL A   1      37.940  32.178  33.945  1.00  0.00     0.060 A 
ATOM     12  C   UNL A   1      37.098  31.327  32.738  1.00  0.00     0.016 A 
ATOM     13  C   UNL A   1      39.703  32.525  33.795  1.00  0.00     0.016 A 
ATOM     14  C   UNL A   1      37.899  30.798  31.277  1.00  0.00     0.010 A 
ATOM     15  C   UNL A   1      40.693  32.053  32.358  1.00  0.00     0.010 A 
ATOM     16  C   UNL A   1      39.890  31.157  30.987  1.00  0.00    -0.014 A 
BRANCH  16  17
ATOM     17  C   UNL A   1      41.077  30.564  29.847  1.00  0.00     0.031 A 
ATOM     18  C   UNL A   1      42.377  31.324  29.797  1.00  0.00     0.074 A 
ATOM     19  C   UNL A   1      41.156  29.517  28.943  1.00  0.00     0.049 A 
ATOM     20  N   UNL A   1      43.555  30.907  29.409  1.00  0.00    -0.248 NA
ATOM     21  C   UNL A   1      42.329  32.740  30.169  1.00  0.00     0.031 C 
ATOM     22  C   UNL A   1      40.055  28.835  28.299  1.00  0.00     0.029 A 
ATOM     23  N   UNL A   1      42.246  28.654  28.592  1.00  0.00    -0.354 N 
ATOM     24  C   UNL A   1      44.367  32.018  29.449  1.00  0.00     0.074 A 
ATOM     25  C   UNL A   1      43.594  33.091  30.037  1.00  0.00     0.031 C 
ATOM     26  C   UNL A   1      40.430  27.575  27.986  1.00  0.00     0.029 A 
ATOM     27  C   UNL A   1      41.850  27.363  28.175  1.00  0.00     0.049 A 
ATOM     28  H   UNL A   1      43.189  28.935  28.639  1.00  0.00     0.167 HD
ATOM     29  C   UNL A   1      45.593  32.189  28.914  1.00  0.00     0.031 A 
ATOM     30  C   UNL A   1      42.471  26.159  27.926  1.00  0.00     0.031 A 
ATOM     31  C   UNL A   1      46.295  31.236  28.098  1.00  0.00     0.049 A 
ATOM     32  C   UNL A   1      43.897  26.304  27.472  1.00  0.00     0.074 A 
ATOM     33  C   UNL A   1      47.493  31.429  27.431  1.00  0.00     0.029 A 
ATOM     34  N   UNL A   1      45.856  29.963  27.764  1.00  0.00    -0.354 N 
ATOM     35  N   UNL A   1      44.662  27.354  27.598  1.00  0.00    -0.248 NA
ATOM     36  C   UNL A   1      44.473  25.229  26.639  1.00  0.00     0.031 C 
ATOM     37  C   UNL A   1      47.746  30.308  26.639  1.00  0.00     0.029 A 
ATOM     38  C   UNL A   1      46.758  29.373  26.884  1.00  0.00     0.049 A 
ATOM     39  H   UNL A   1      45.032  29.542  28.098  1.00  0.00     0.167 HD
ATOM     40  C   UNL A   1      45.723  27.140  26.744  1.00  0.00     0.074 A 
ATOM     41  C   UNL A   1      45.602  25.792  26.228  1.00  0.00     0.031 C 
ATOM     42  C   UNL A   1      46.647  28.043  26.351  1.00  0.00     0.031 A 
BRANCH  29  43
ATOM     43  C   UNL A   1      46.148  33.572  29.042  1.00  0.00    -0.014 A 
ATOM     44  C   UNL A   1      46.725  34.017  30.239  1.00  0.00     0.009 A 
ATOM     45  C   UNL A   1      46.027  34.452  27.957  1.00  0.00     0.009 A 
ATOM     46  C   UNL A   1      47.172  35.333  30.345  1.00  0.00     0.001 A 
ATOM     47  C   UNL A   1      46.499  35.756  28.059  1.00  0.00     0.001 A 
ATOM     48  C   UNL A   1      47.068  36.197  29.253  1.00  0.00     0.000 A 
ENDBRANCH  29  43
BRANCH  30  49
ATOM     49  C   UNL A   1      41.807  24.773  27.776  1.00  0.00    -0.014 A 
ATOM     50  C   UNL A   1      42.156  23.670  28.602  1.00  0.00     0.009 A 
ATOM     51  C   UNL A   1      40.860  24.488  26.782  1.00  0.00     0.009 A 
ATOM     52  C   UNL A   1      41.544  22.401  28.465  1.00  0.00     0.001 A 
ATOM     53  C   UNL A   1      40.179  23.260  26.705  1.00  0.00     0.001 A 
ATOM     54  C   UNL A   1      40.521  22.212  27.545  1.00  0.00     0.000 A 
ENDBRANCH  30  49
BRANCH  42  55
ATOM     55  C   UNL A   1      47.635  27.569  25.333  1.00  0.00    -0.014 A 
ATOM     56  C   UNL A   1      48.857  26.988  25.710  1.00  0.00     0.009 A 
ATOM     57  C   UNL A   1      47.352  27.761  23.976  1.00  0.00     0.009 A 
ATOM     58  C   UNL A   1      49.803  26.658  24.737  1.00  0.00     0.001 A 
ATOM     59  C   UNL A   1      48.286  27.405  23.007  1.00  0.00     0.001 A 
ATOM     60  C   UNL A   1      49.517  26.870  23.388  1.00  0.00     0.000 A 
ENDBRANCH  42  55
ENDBRANCH  16  17
ENDBRANCH   9  11
ENDBRANCH   8   9
ENDBRANCH   7   8
ENDBRANCH   6   7
ENDBRANCH   5   6
ENDBRANCH   4   5
ENDBRANCH   3   4
ENDBRANCH   2   3
ENDBRANCH   1   2
BRANCH   1  61
ATOM     61  C   UNL A   1      34.322  30.438  27.119  1.00  0.00     0.261 C 
BRANCH  61  62
ATOM     62  O   UNL A   1      33.722  29.242  27.636  1.00  0.00    -0.462 OA
BRANCH  62  63
ATOM     63  C   UNL A   1      32.481  28.948  27.144  1.00  0.00     0.328 C 
ATOM     64  O   UNL A   1      31.472  28.803  27.824  1.00  0.00    -0.250 OA
BRANCH  63  65
ATOM     65  C   UNL A   1      32.517  28.769  25.633  1.00  0.00     0.195 C 
ATOM     66  C   UNL A   1      31.553  29.836  25.059  1.00  0.00     0.039 C 
ATOM     67  N   UNL A   1      31.980  27.488  25.143  1.00  0.00    -0.327 N 
ATOM     68  C   UNL A   1      30.661  29.145  24.038  1.00  0.00     0.024 C 
ATOM     69  C   UNL A   1      31.113  27.706  23.996  1.00  0.00     0.120 C 
BRANCH  67  70
ATOM     70  C   UNL A   1      32.387  26.187  25.350  1.00  0.00     0.246 C 
ATOM     71  O   UNL A   1      33.600  25.923  25.264  1.00  0.00    -0.272 OA
BRANCH  70  72
ATOM     72  C   UNL A   1      31.445  24.984  25.668  1.00  0.00     0.178 C 
ATOM     73  C   UNL A   1      31.701  24.255  26.967  1.00  0.00     0.037 C 
ATOM     74  N   UNL A   1      31.259  23.918  24.695  1.00  0.00    -0.296 N 
ATOM     75  C   UNL A   1      30.922  22.949  26.798  1.00  0.00     0.024 C 
ATOM     76  C   UNL A   1      30.969  22.644  25.306  1.00  0.00     0.124 C 
BRANCH  74  77
ATOM     77  C   UNL A   1      30.861  24.220  23.428  1.00  0.00     0.410 C 
ATOM     78  O   UNL A   1      29.710  24.227  23.026  1.00  0.00    -0.224 OA
BRANCH  77  79
ATOM     79  O   UNL A   1      31.972  24.445  22.709  1.00  0.00    -0.448 OA
BRANCH  79  80
ATOM     80  C   UNL A   1      32.621  23.398  22.038  1.00  0.00     0.248 C 
BRANCH  80  81
ATOM     81  C   UNL A   1      33.510  22.554  22.938  1.00  0.00     0.088 C 
ATOM     82  C   UNL A   1      34.652  22.751  24.055  1.00  0.00    -0.029 A 
ATOM     83  C   UNL A   1      33.038  21.141  23.089  1.00  0.00    -0.029 A 
ATOM     84  C   UNL A   1      35.803  23.536  23.995  1.00  0.00     0.005 A 
ATOM     85  C   UNL A   1      34.784  21.648  24.935  1.00  0.00    -0.014 A 
ATOM     86  C   UNL A   1      33.954  20.613  24.461  1.00  0.00    -0.014 A 
ATOM     87  C   UNL A   1      32.134  20.054  21.983  1.00  0.00     0.005 A 
ATOM     88  C   UNL A   1      36.963  23.220  24.763  1.00  0.00     0.000 A 
ATOM     89  C   UNL A   1      35.832  21.421  25.837  1.00  0.00     0.009 A 
ATOM     90  C   UNL A   1      34.067  18.924  24.781  1.00  0.00     0.009 A 
ATOM     91  C   UNL A   1      32.112  18.288  22.219  1.00  0.00     0.000 A 
ATOM     92  C   UNL A   1      36.960  22.203  25.718  1.00  0.00     0.001 A 
ATOM     93  C   UNL A   1      33.080  17.613  23.589  1.00  0.00     0.001 A 
ENDBRANCH  80  81
ENDBRANCH  79  80
ENDBRANCH  77  79
ENDBRANCH  74  77
ENDBRANCH  70  72
ENDBRANCH  67  70
ENDBRANCH  63  65
ENDBRANCH  62  63
ENDBRANCH  61  62
ENDBRANCH   1  61
TORSDOF 23
ENDMDL
MODEL 2
REMARK VINA RESULT:     -10.4      1.925      2.774
REMARK SMILES O=C(OCCOCCOCCOC(=O)[C@@H]1CCCN1C(=O)[C@@H]1CCCN1C(=O)OCC1c2ccccc2-c2ccccc21)c1ccc(-c2c3nc(c(-c4ccccc4)c4ccc([nH]4)c(-c4ccccc4)c4nc(c(-c5ccccc5)c5ccc2[nH]5)C=C4)C=C3)cc1
REMARK SMILES IDX 10 1 9 2 8 3 7 4 6 5 5 6 4 7 3 8 2 9 1 10 44 11 45 12 91 13
REMARK SMILES IDX 46 14 90 15 47 16 48 17 49 18 84 19 50 20 89 21 83 22 85 23
REMARK SMILES IDX 51 24 88 25 82 26 81 27 52 29 74 30 59 31 73 32 60 33 63 34
REMARK SMILES IDX 72 35 86 36 61 37 62 38 71 40 87 41 64 42 53 43 54 44 58 45
REMARK SMILES IDX 55 46 57 47 56 48 75 49 76 50 80 51 77 52 79 53 78 54 65 55
REMARK SMILES IDX 66 56 70 57 67 58 69 59 68 60 11 61 12 62 13 63 14 64 15 65
REMARK SMILES IDX 16 66 19 67 17 68 18 69 20 70 21 71 22 72 23 73 26 74 24 75
REMARK SMILES IDX 25 76 27 77 28 78 29 79 30 80 31 81 32 82 43 83 33 84 37 85
REMARK SMILES IDX 38 86 42 87 34 88 36 89 39 90 41 91 35 92 40 93
REMARK H PARENT 85 28 63 39
REMARK Flexibility Score: inf
ROOT
ATOM      1  C   UNL A   1      33.701  29.459  27.608  1.00  0.00     0.202 C 
ENDROOT
BRANCH   1   2
ATOM      2  O   UNL A   1      33.640  30.793  27.125  1.00  0.00    -0.376 OA
BRANCH   2   3
ATOM      3  C   UNL A   1      32.517  31.145  26.325  1.00  0.00     0.188 C 
BRANCH   3   4
ATOM      4  C   UNL A   1      31.605  32.268  26.836  1.00  0.00     0.188 C 
BRANCH   4   5
ATOM      5  O   UNL A   1      32.225  33.228  27.675  1.00  0.00    -0.376 OA
BRANCH   5   6
ATOM      6  C   UNL A   1      33.643  33.170  27.889  1.00  0.00     0.202 C 
BRANCH   6   7
ATOM      7  C   UNL A   1      34.397  33.947  29.048  1.00  0.00     0.261 C 
BRANCH   7   8
ATOM      8  O   UNL A   1      34.074  33.697  30.472  1.00  0.00    -0.460 OA
BRANCH   8   9
ATOM      9  C   UNL A   1      34.677  32.984  31.487  1.00  0.00     0.338 C 
ATOM     10  O   UNL A   1      34.165  32.934  32.600  1.00  0.00    -0.246 OA
BRANCH   9  11
ATOM     11  C   UNL A   1      36.086  32.502  31.335  1.00  0.00     0.060 A 
ATOM     12  C   UNL A   1      36.271  30.993  32.097  1.00  0.00     0.016 A 
ATOM     13  C   UNL A   1      37.197  33.034  30.020  1.00  0.00     0.016 A 
ATOM     14  C   UNL A   1      37.519  29.874  31.598  1.00  0.00     0.010 A 
ATOM     15  C   UNL A   1      38.543  32.011  29.377  1.00  0.00     0.010 A 
ATOM     16  C   UNL A   1      38.822  30.360  30.100  1.00  0.00    -0.014 A 
BRANCH  16  17
ATOM     17  C   UNL A   1      40.325  29.672  29.528  1.00  0.00     0.031 A 
ATOM     18  C   UNL A   1      41.583  30.321  30.046  1.00  0.00     0.074 A 
ATOM     19  C   UNL A   1      40.691  28.626  28.698  1.00  0.00     0.049 A 
ATOM     20  N   UNL A   1      42.781  29.806  30.161  1.00  0.00    -0.248 NA
ATOM     21  C   UNL A   1      41.493  31.734  30.419  1.00  0.00     0.031 C 
ATOM     22  C   UNL A   1      39.906  28.042  27.632  1.00  0.00     0.029 A 
ATOM     23  N   UNL A   1      41.760  27.674  28.793  1.00  0.00    -0.354 N 
ATOM     24  C   UNL A   1      43.585  30.844  30.574  1.00  0.00     0.074 A 
ATOM     25  C   UNL A   1      42.723  31.977  30.833  1.00  0.00     0.031 C 
ATOM     26  C   UNL A   1      40.280  26.756  27.453  1.00  0.00     0.029 A 
ATOM     27  C   UNL A   1      41.474  26.424  28.201  1.00  0.00     0.049 A 
ATOM     28  H   UNL A   1      42.618  27.875  29.234  1.00  0.00     0.167 HD
ATOM     29  C   UNL A   1      44.932  30.913  30.597  1.00  0.00     0.031 A 
ATOM     30  C   UNL A   1      42.050  25.173  28.183  1.00  0.00     0.031 A 
ATOM     31  C   UNL A   1      45.834  29.906  30.107  1.00  0.00     0.049 A 
ATOM     32  C   UNL A   1      43.542  25.198  28.362  1.00  0.00     0.074 A 
ATOM     33  C   UNL A   1      47.211  29.999  29.999  1.00  0.00     0.029 A 
ATOM     34  N   UNL A   1      45.477  28.677  29.573  1.00  0.00    -0.354 N 
ATOM     35  N   UNL A   1      44.264  26.178  28.832  1.00  0.00    -0.248 NA
ATOM     36  C   UNL A   1      44.328  24.081  27.799  1.00  0.00     0.031 C 
ATOM     37  C   UNL A   1      47.683  28.864  29.339  1.00  0.00     0.029 A 
ATOM     38  C   UNL A   1      46.614  28.015  29.120  1.00  0.00     0.049 A 
ATOM     39  H   UNL A   1      44.559  28.325  29.522  1.00  0.00     0.167 HD
ATOM     40  C   UNL A   1      45.564  25.879  28.481  1.00  0.00     0.074 A 
ATOM     41  C   UNL A   1      45.565  24.547  27.911  1.00  0.00     0.031 C 
ATOM     42  C   UNL A   1      46.633  26.701  28.539  1.00  0.00     0.031 A 
BRANCH  29  43
ATOM     43  C   UNL A   1      45.487  32.243  30.995  1.00  0.00    -0.014 A 
ATOM     44  C   UNL A   1      45.907  32.494  32.308  1.00  0.00     0.009 A 
ATOM     45  C   UNL A   1      45.526  33.272  30.042  1.00  0.00     0.009 A 
ATOM     46  C   UNL A   1      46.357  33.765  32.661  1.00  0.00     0.001 A 
ATOM     47  C   UNL A   1      46.001  34.531  30.392  1.00  0.00     0.001 A 
ATOM     48  C   UNL A   1      46.414  34.778  31.701  1.00  0.00     0.000 A 
ENDBRANCH  29  43
BRANCH  30  49
ATOM     49  C   UNL A   1      41.404  23.848  27.722  1.00  0.00    -0.014 A 
ATOM     50  C   UNL A   1      41.640  22.614  28.387  1.00  0.00     0.009 A 
ATOM     51  C   UNL A   1      40.590  23.756  26.583  1.00  0.00     0.009 A 
ATOM     52  C   UNL A   1      41.045  21.402  27.964  1.00  0.00     0.001 A 
ATOM     53  C   UNL A   1      39.918  22.577  26.217  1.00  0.00     0.001 A 
ATOM     54  C   UNL A   1      40.146  21.395  26.905  1.00  0.00     0.000 A 
ENDBRANCH  30  49
BRANCH  42  55
ATOM     55  C   UNL A   1      47.914  26.149  28.000  1.00  0.00    -0.014 A 
ATOM     56  C   UNL A   1      48.823  25.463  28.823  1.00  0.00     0.009 A 
ATOM     57  C   UNL A   1      48.234  26.371  26.656  1.00  0.00     0.009 A 
ATOM     58  C   UNL A   1      50.058  25.057  28.313  1.00  0.00     0.001 A 
ATOM     59  C   UNL A   1      49.455  25.940  26.144  1.00  0.00     0.001 A 
ATOM     60  C   UNL A   1      50.372  25.299  26.976  1.00  0.00     0.000 A 
ENDBRANCH  42  55
ENDBRANCH  16  17
ENDBRANCH   9  11
ENDBRANCH   8   9
ENDBRANCH   7   8
ENDBRANCH   6   7
ENDBRANCH   5   6
ENDBRANCH   4   5
ENDBRANCH   3   4
ENDBRANCH   2   3
ENDBRANCH   1   2
BRANCH   1  61
ATOM     61  C   UNL A   1      32.473  28.562  27.436  1.00  0.00     0.261 C 
BRANCH  61  62
ATOM     62  O   UNL A   1      32.577  27.511  26.465  1.00  0.00    -0.462 OA
BRANCH  62  63
ATOM     63  C   UNL A   1      32.307  27.874  25.176  1.00  0.00     0.328 C 
ATOM     64  O   UNL A   1      31.350  28.552  24.822  1.00  0.00    -0.250 OA
BRANCH  63  65
ATOM     65  C   UNL A   1      33.326  27.281  24.213  1.00  0.00     0.195 C 
ATOM     66  C   UNL A   1      34.049  28.490  23.568  1.00  0.00     0.039 C 
ATOM     67  N   UNL A   1      32.755  26.545  23.073  1.00  0.00    -0.327 N 
ATOM     68  C   UNL A   1      34.094  28.248  22.066  1.00  0.00     0.024 C 
ATOM     69  C   UNL A   1      33.433  26.910  21.840  1.00  0.00     0.120 C 
BRANCH  67  70
ATOM     70  C   UNL A   1      31.976  25.408  23.017  1.00  0.00     0.246 C 
ATOM     71  O   UNL A   1      32.361  24.459  22.310  1.00  0.00    -0.272 OA
BRANCH  70  72
ATOM     72  C   UNL A   1      30.617  25.205  23.755  1.00  0.00     0.178 C 
ATOM     73  C   UNL A   1      29.541  26.229  23.476  1.00  0.00     0.037 C 
ATOM     74  N   UNL A   1      30.582  25.040  25.200  1.00  0.00    -0.296 N 
ATOM     75  C   UNL A   1      28.532  25.997  24.603  1.00  0.00     0.024 C 
ATOM     76  C   UNL A   1      29.360  25.527  25.793  1.00  0.00     0.124 C 
BRANCH  74  77
ATOM     77  C   UNL A   1      31.334  24.069  25.790  1.00  0.00     0.410 C 
ATOM     78  O   UNL A   1      32.073  24.223  26.747  1.00  0.00    -0.224 OA
BRANCH  77  79
ATOM     79  O   UNL A   1      31.149  22.944  25.081  1.00  0.00    -0.448 OA
BRANCH  79  80
ATOM     80  C   UNL A   1      31.593  21.705  25.566  1.00  0.00     0.248 C 
BRANCH  80  81
ATOM     81  C   UNL A   1      32.995  21.337  25.106  1.00  0.00     0.088 C 
ATOM     82  C   UNL A   1      34.422  22.039  24.859  1.00  0.00    -0.029 A 
ATOM     83  C   UNL A   1      33.273  19.867  25.157  1.00  0.00    -0.029 A 
ATOM     84  C   UNL A   1      34.709  23.199  24.139  1.00  0.00     0.005 A 
ATOM     85  C   UNL A   1      35.516  21.140  24.914  1.00  0.00    -0.014 A 
ATOM     86  C   UNL A   1      35.000  19.834  25.020  1.00  0.00    -0.014 A 
ATOM     87  C   UNL A   1      32.205  18.436  24.967  1.00  0.00     0.005 A 
ATOM     88  C   UNL A   1      35.988  23.410  23.545  1.00  0.00     0.000 A 
ATOM     89  C   UNL A   1      36.830  21.401  24.505  1.00  0.00     0.009 A 
ATOM     90  C   UNL A   1      35.771  18.347  24.620  1.00  0.00     0.009 A 
ATOM     91  C   UNL A   1      32.863  16.820  24.606  1.00  0.00     0.000 A 
ATOM     92  C   UNL A   1      37.059  22.544  23.770  1.00  0.00     0.001 A 
ATOM     93  C   UNL A   1      34.650  16.672  24.384  1.00  0.00     0.001 A 
ENDBRANCH  80  81
ENDBRANCH  79  80
ENDBRANCH  77  79
ENDBRANCH  74  77
ENDBRANCH  70  72
ENDBRANCH  67  70
ENDBRANCH  63  65
ENDBRANCH  62  63
ENDBRANCH  61  62
ENDBRANCH   1  61
TORSDOF 23
ENDMDL
MODEL 3
REMARK VINA RESULT:     -10.3      1.669      5.637
REMARK SMILES O=C(OCCOCCOCCOC(=O)[C@@H]1CCCN1C(=O)[C@@H]1CCCN1C(=O)OCC1c2ccccc2-c2ccccc21)c1ccc(-c2c3nc(c(-c4ccccc4)c4ccc([nH]4)c(-c4ccccc4)c4nc(c(-c5ccccc5)c5ccc2[nH]5)C=C4)C=C3)cc1
REMARK SMILES IDX 10 1 9 2 8 3 7 4 6 5 5 6 4 7 3 8 2 9 1 10 44 11 45 12 91 13
REMARK SMILES IDX 46 14 90 15 47 16 48 17 49 18 84 19 50 20 89 21 83 22 85 23
REMARK SMILES IDX 51 24 88 25 82 26 81 27 52 29 74 30 59 31 73 32 60 33 63 34
REMARK SMILES IDX 72 35 86 36 61 37 62 38 71 40 87 41 64 42 53 43 54 44 58 45
REMARK SMILES IDX 55 46 57 47 56 48 75 49 76 50 80 51 77 52 79 53 78 54 65 55
REMARK SMILES IDX 66 56 70 57 67 58 69 59 68 60 11 61 12 62 13 63 14 64 15 65
REMARK SMILES IDX 16 66 19 67 17 68 18 69 20 70 21 71 22 72 23 73 26 74 24 75
REMARK SMILES IDX 25 76 27 77 28 78 29 79 30 80 31 81 32 82 43 83 33 84 37 85
REMARK SMILES IDX 38 86 42 87 34 88 36 89 39 90 41 91 35 92 40 93
REMARK H PARENT 85 28 63 39
REMARK Flexibility Score: inf
ROOT
ATOM      1  C   UNL A   1      34.601  30.744  27.492  1.00  0.00     0.202 C 
ENDROOT
BRANCH   1   2
ATOM      2  O   UNL A   1      33.759  31.876  27.651  1.00  0.00    -0.376 OA
BRANCH   2   3
ATOM      3  C   UNL A   1      34.153  32.851  28.610  1.00  0.00     0.188 C 
BRANCH   3   4
ATOM      4  C   UNL A   1      34.945  32.366  29.832  1.00  0.00     0.188 C 
BRANCH   4   5
ATOM      5  O   UNL A   1      34.262  32.437  31.072  1.00  0.00    -0.376 OA
BRANCH   5   6
ATOM      6  C   UNL A   1      34.831  33.194  32.151  1.00  0.00     0.202 C 
BRANCH   6   7
ATOM      7  C   UNL A   1      35.645  34.542  31.955  1.00  0.00     0.261 C 
BRANCH   7   8
ATOM      8  O   UNL A   1      37.113  34.583  32.151  1.00  0.00    -0.460 OA
BRANCH   8   9
ATOM      9  C   UNL A   1      37.947  34.384  33.231  1.00  0.00     0.338 C 
ATOM     10  O   UNL A   1      37.772  35.003  34.274  1.00  0.00    -0.246 OA
BRANCH   9  11
ATOM     11  C   UNL A   1      39.231  33.632  33.063  1.00  0.00     0.060 A 
ATOM     12  C   UNL A   1      38.965  31.966  33.272  1.00  0.00     0.016 A 
ATOM     13  C   UNL A   1      40.644  34.248  32.128  1.00  0.00     0.016 A 
ATOM     14  C   UNL A   1      40.024  30.781  32.545  1.00  0.00     0.010 A 
ATOM     15  C   UNL A   1      41.843  33.171  31.308  1.00  0.00     0.010 A 
ATOM     16  C   UNL A   1      41.644  31.363  31.443  1.00  0.00    -0.014 A 
BRANCH  16  17
ATOM     17  C   UNL A   1      43.051  30.531  30.821  1.00  0.00     0.031 A 
ATOM     18  C   UNL A   1      42.774  29.361  29.913  1.00  0.00     0.074 A 
ATOM     19  C   UNL A   1      44.424  30.676  30.928  1.00  0.00     0.049 A 
ATOM     20  N   UNL A   1      43.543  28.841  28.990  1.00  0.00    -0.248 NA
ATOM     21  C   UNL A   1      41.507  28.655  30.113  1.00  0.00     0.031 C 
ATOM     22  C   UNL A   1      45.153  31.305  32.008  1.00  0.00     0.029 A 
ATOM     23  N   UNL A   1      45.469  30.517  29.959  1.00  0.00    -0.354 N 
ATOM     24  C   UNL A   1      42.870  27.728  28.539  1.00  0.00     0.074 A 
ATOM     25  C   UNL A   1      41.571  27.727  29.176  1.00  0.00     0.031 C 
ATOM     26  C   UNL A   1      46.328  31.781  31.538  1.00  0.00     0.029 A 
ATOM     27  C   UNL A   1      46.600  31.332  30.189  1.00  0.00     0.049 A 
ATOM     28  H   UNL A   1      45.404  29.894  29.198  1.00  0.00     0.167 HD
ATOM     29  C   UNL A   1      43.329  26.711  27.781  1.00  0.00     0.031 A 
ATOM     30  C   UNL A   1      47.735  31.686  29.493  1.00  0.00     0.031 A 
ATOM     31  C   UNL A   1      44.686  26.539  27.338  1.00  0.00     0.049 A 
ATOM     32  C   UNL A   1      48.193  30.634  28.520  1.00  0.00     0.074 A 
ATOM     33  C   UNL A   1      45.215  25.447  26.671  1.00  0.00     0.029 A 
ATOM     34  N   UNL A   1      45.740  27.410  27.570  1.00  0.00    -0.354 N 
ATOM     35  N   UNL A   1      47.496  29.634  28.055  1.00  0.00    -0.248 NA
ATOM     36  C   UNL A   1      49.626  30.594  28.164  1.00  0.00     0.031 C 
ATOM     37  C   UNL A   1      46.596  25.619  26.561  1.00  0.00     0.029 A 
ATOM     38  C   UNL A   1      46.918  26.862  27.071  1.00  0.00     0.049 A 
ATOM     39  H   UNL A   1      45.667  28.282  28.019  1.00  0.00     0.167 HD
ATOM     40  C   UNL A   1      48.417  28.773  27.497  1.00  0.00     0.074 A 
ATOM     41  C   UNL A   1      49.705  29.435  27.524  1.00  0.00     0.031 C 
ATOM     42  C   UNL A   1      48.207  27.499  27.101  1.00  0.00     0.031 A 
BRANCH  29  43
ATOM     43  C   UNL A   1      42.357  25.594  27.572  1.00  0.00    -0.014 A 
ATOM     44  C   UNL A   1      41.370  25.664  26.581  1.00  0.00     0.009 A 
ATOM     45  C   UNL A   1      42.406  24.486  28.431  1.00  0.00     0.009 A 
ATOM     46  C   UNL A   1      40.438  24.635  26.457  1.00  0.00     0.001 A 
ATOM     47  C   UNL A   1      41.491  23.449  28.286  1.00  0.00     0.001 A 
ATOM     48  C   UNL A   1      40.507  23.525  27.302  1.00  0.00     0.000 A 
ENDBRANCH  29  43
BRANCH  30  49
ATOM     49  C   UNL A   1      48.704  32.846  29.804  1.00  0.00    -0.014 A 
ATOM     50  C   UNL A   1      49.595  32.818  30.911  1.00  0.00     0.009 A 
ATOM     51  C   UNL A   1      48.736  34.031  29.053  1.00  0.00     0.009 A 
ATOM     52  C   UNL A   1      50.484  33.882  31.192  1.00  0.00     0.001 A 
ATOM     53  C   UNL A   1      49.684  35.047  29.268  1.00  0.00     0.001 A 
ATOM     54  C   UNL A   1      50.560  34.976  30.340  1.00  0.00     0.000 A 
ENDBRANCH  30  49
BRANCH  42  55
ATOM     55  C   UNL A   1      49.411  26.754  26.621  1.00  0.00    -0.014 A 
ATOM     56  C   UNL A   1      50.172  25.951  27.487  1.00  0.00     0.009 A 
ATOM     57  C   UNL A   1      49.814  26.907  25.290  1.00  0.00     0.009 A 
ATOM     58  C   UNL A   1      51.352  25.358  27.033  1.00  0.00     0.001 A 
ATOM     59  C   UNL A   1      50.977  26.291  24.833  1.00  0.00     0.001 A 
ATOM     60  C   UNL A   1      51.753  25.532  25.709  1.00  0.00     0.000 A 
ENDBRANCH  42  55
ENDBRANCH  16  17
ENDBRANCH   9  11
ENDBRANCH   8   9
ENDBRANCH   7   8
ENDBRANCH   6   7
ENDBRANCH   5   6
ENDBRANCH   4   5
ENDBRANCH   3   4
ENDBRANCH   2   3
ENDBRANCH   1   2
BRANCH   1  61
ATOM     61  C   UNL A   1      33.958  29.395  27.159  1.00  0.00     0.261 C 
BRANCH  61  62
ATOM     62  O   UNL A   1      33.392  29.261  25.848  1.00  0.00    -0.462 OA
BRANCH  62  63
ATOM     63  C   UNL A   1      32.028  29.173  25.804  1.00  0.00     0.328 C 
ATOM     64  O   UNL A   1      31.333  28.612  26.642  1.00  0.00    -0.250 OA
BRANCH  63  65
ATOM     65  C   UNL A   1      31.476  29.822  24.543  1.00  0.00     0.195 C 
ATOM     66  C   UNL A   1      30.757  31.111  25.013  1.00  0.00     0.039 C 
ATOM     67  N   UNL A   1      30.431  29.051  23.849  1.00  0.00    -0.327 N 
ATOM     68  C   UNL A   1      29.397  31.150  24.332  1.00  0.00     0.024 C 
ATOM     69  C   UNL A   1      29.332  29.920  23.459  1.00  0.00     0.120 C 
BRANCH  67  70
ATOM     70  C   UNL A   1      30.456  27.809  23.251  1.00  0.00     0.246 C 
ATOM     71  O   UNL A   1      30.391  27.746  22.010  1.00  0.00    -0.272 OA
BRANCH  70  72
ATOM     72  C   UNL A   1      30.538  26.444  24.003  1.00  0.00     0.178 C 
ATOM     73  C   UNL A   1      29.684  26.306  25.242  1.00  0.00     0.037 C 
ATOM     74  N   UNL A   1      31.828  25.901  24.401  1.00  0.00    -0.296 N 
ATOM     75  C   UNL A   1      30.269  25.078  25.939  1.00  0.00     0.024 C 
ATOM     76  C   UNL A   1      31.752  25.085  25.588  1.00  0.00     0.124 C 
BRANCH  74  77
ATOM     77  C   UNL A   1      32.809  25.733  23.471  1.00  0.00     0.410 C 
ATOM     78  O   UNL A   1      33.865  26.342  23.432  1.00  0.00    -0.224 OA
BRANCH  77  79
ATOM     79  O   UNL A   1      32.364  24.826  22.588  1.00  0.00    -0.448 OA
BRANCH  79  80
ATOM     80  C   UNL A   1      33.243  23.917  21.983  1.00  0.00     0.248 C 
BRANCH  80  81
ATOM     81  C   UNL A   1      33.949  23.000  22.971  1.00  0.00     0.088 C 
ATOM     82  C   UNL A   1      35.074  23.081  24.118  1.00  0.00    -0.029 A 
ATOM     83  C   UNL A   1      33.240  21.701  23.191  1.00  0.00    -0.029 A 
ATOM     84  C   UNL A   1      36.344  23.656  24.056  1.00  0.00     0.005 A 
ATOM     85  C   UNL A   1      34.990  22.035  25.072  1.00  0.00    -0.014 A 
ATOM     86  C   UNL A   1      34.011  21.124  24.631  1.00  0.00    -0.014 A 
ATOM     87  C   UNL A   1      32.197  20.706  22.121  1.00  0.00     0.005 A 
ATOM     88  C   UNL A   1      37.409  23.204  24.890  1.00  0.00     0.000 A 
ATOM     89  C   UNL A   1      35.958  21.700  26.028  1.00  0.00     0.009 A 
ATOM     90  C   UNL A   1      33.826  19.466  25.063  1.00  0.00     0.009 A 
ATOM     91  C   UNL A   1      31.868  18.989  22.469  1.00  0.00     0.000 A 
ATOM     92  C   UNL A   1      37.206  22.271  25.907  1.00  0.00     0.001 A 
ATOM     93  C   UNL A   1      32.666  18.260  23.917  1.00  0.00     0.001 A 
ENDBRANCH  80  81
ENDBRANCH  79  80
ENDBRANCH  77  79
ENDBRANCH  74  77
ENDBRANCH  70  72
ENDBRANCH  67  70
ENDBRANCH  63  65
ENDBRANCH  62  63
ENDBRANCH  61  62
ENDBRANCH   1  61
TORSDOF 23
ENDMDL
