MODEL 1
REMARK VINA RESULT:     -10.0      0.000      0.000
REMARK SMILES C[C@H](C(=O)OCCOCCOCCOC(=O)c1ccc(-c2c3nc(c(-c4ccccc4)c4ccc([nH]4)c(-c4ccccc4)c4nc(c(-c5ccccc5)c5ccc2[nH]5)C=C4)C=C3)cc1)c1ccc(C[C@H]2CCC[C@@H]2O)cc1
REMARK SMILES IDX 9 1 8 2 7 3 6 4 5 5 3 6 4 7 2 8 1 9 65 10 66 11 77 12 67 13
REMARK SMILES IDX 76 14 68 15 69 16 70 17 71 18 74 19 72 20 73 21 75 22 10 24
REMARK SMILES IDX 11 25 12 26 13 27 14 28 15 29 16 30 17 31 18 32 64 33 19 34
REMARK SMILES IDX 63 35 20 36 21 37 22 38 57 39 23 40 62 41 56 42 58 43 24 44
REMARK SMILES IDX 61 45 55 46 54 47 25 49 47 50 32 51 46 52 33 53 36 54 45 55
REMARK SMILES IDX 59 56 34 57 35 58 44 60 60 61 37 62 26 63 27 64 31 65 28 66
REMARK SMILES IDX 30 67 29 68 48 69 49 70 53 71 50 72 52 73 51 74 38 75 39 76
REMARK SMILES IDX 43 77 40 78 42 79 41 80
REMARK H PARENT 75 23 58 48 36 59
REMARK Flexibility Score: inf
ROOT
ATOM      1  C   UNL A   1      37.391  22.972  25.977  1.00  0.00     0.188 C 
ENDROOT
BRANCH   1   2
ATOM      2  O   UNL A   1      36.131  22.945  25.341  1.00  0.00    -0.376 OA
BRANCH   2   3
ATOM      3  C   UNL A   1      35.732  24.053  24.556  1.00  0.00     0.202 C 
BRANCH   3   4
ATOM      4  C   UNL A   1      34.608  24.995  25.021  1.00  0.00     0.261 C 
BRANCH   4   5
ATOM      5  O   UNL A   1      34.276  26.076  24.131  1.00  0.00    -0.463 OA
BRANCH   5   6
ATOM      6  C   UNL A   1      33.443  25.785  23.094  1.00  0.00     0.313 C 
ATOM      7  O   UNL A   1      33.766  25.880  21.913  1.00  0.00    -0.252 OA
BRANCH   6   8
ATOM      8  C   UNL A   1      32.087  25.216  23.514  1.00  0.00     0.126 C 
ATOM      9  C   UNL A   1      30.944  25.815  22.682  1.00  0.00     0.025 C 
BRANCH   8  10
ATOM     10  C   UNL A   1      31.934  23.711  23.710  1.00  0.00    -0.034 A 
ATOM     11  C   UNL A   1      31.363  23.250  24.913  1.00  0.00     0.005 A 
ATOM     12  C   UNL A   1      32.477  22.755  22.844  1.00  0.00     0.005 A 
ATOM     13  C   UNL A   1      31.418  21.912  25.281  1.00  0.00     0.004 A 
ATOM     14  C   UNL A   1      32.572  21.413  23.235  1.00  0.00     0.004 A 
ATOM     15  C   UNL A   1      32.130  21.008  24.501  1.00  0.00    -0.048 A 
BRANCH  15  16
ATOM     16  C   UNL A   1      32.566  19.691  25.100  1.00  0.00     0.041 C 
BRANCH  16  17
ATOM     17  C   UNL A   1      33.436  18.832  24.149  1.00  0.00     0.022 C 
ATOM     18  C   UNL A   1      34.712  18.221  24.763  1.00  0.00     0.007 C 
ATOM     19  C   UNL A   1      32.737  17.637  23.484  1.00  0.00     0.117 C 
ATOM     20  C   UNL A   1      34.884  16.841  24.120  1.00  0.00     0.003 C 
ATOM     21  C   UNL A   1      33.897  16.800  22.965  1.00  0.00     0.032 C 
BRANCH  19  22
ATOM     22  O   UNL A   1      31.879  18.054  22.441  1.00  0.00    -0.393 OA
ATOM     23  H   UNL A   1      31.741  19.013  22.500  1.00  0.00     0.210 HD
ENDBRANCH  19  22
ENDBRANCH  16  17
ENDBRANCH  15  16
ENDBRANCH   8  10
ENDBRANCH   6   8
ENDBRANCH   5   6
ENDBRANCH   4   5
ENDBRANCH   3   4
ENDBRANCH   2   3
ENDBRANCH   1   2
BRANCH   1  24
ATOM     24  C   UNL A   1      38.443  21.869  25.720  1.00  0.00     0.188 C 
BRANCH  24  25
ATOM     25  O   UNL A   1      38.073  20.634  25.143  1.00  0.00    -0.376 OA
BRANCH  25  26
ATOM     26  C   UNL A   1      38.962  19.538  25.215  1.00  0.00     0.202 C 
BRANCH  26  27
ATOM     27  C   UNL A   1      40.214  19.616  26.102  1.00  0.00     0.261 C 
BRANCH  27  28
ATOM     28  O   UNL A   1      41.336  18.824  25.674  1.00  0.00    -0.460 OA
BRANCH  28  29
ATOM     29  C   UNL A   1      42.561  19.345  25.922  1.00  0.00     0.338 C 
ATOM     30  O   UNL A   1      43.646  18.830  25.674  1.00  0.00    -0.246 OA
BRANCH  29  31
ATOM     31  C   UNL A   1      42.441  20.736  26.408  1.00  0.00     0.060 A 
ATOM     32  C   UNL A   1      42.705  21.786  25.515  1.00  0.00     0.016 A 
ATOM     33  C   UNL A   1      42.146  21.012  27.743  1.00  0.00     0.016 A 
ATOM     34  C   UNL A   1      42.706  23.111  25.962  1.00  0.00     0.010 A 
ATOM     35  C   UNL A   1      42.168  22.338  28.195  1.00  0.00     0.010 A 
ATOM     36  C   UNL A   1      42.476  23.393  27.315  1.00  0.00    -0.014 A 
BRANCH  36  37
ATOM     37  C   UNL A   1      42.720  24.762  27.847  1.00  0.00     0.031 A 
ATOM     38  C   UNL A   1      44.121  25.149  28.244  1.00  0.00     0.074 A 
ATOM     39  C   UNL A   1      41.724  25.659  27.969  1.00  0.00     0.049 A 
ATOM     40  N   UNL A   1      44.555  26.259  28.785  1.00  0.00    -0.248 NA
ATOM     41  C   UNL A   1      45.170  24.149  27.994  1.00  0.00     0.031 C 
ATOM     42  C   UNL A   1      40.336  25.446  27.565  1.00  0.00     0.029 A 
ATOM     43  N   UNL A   1      41.735  26.936  28.478  1.00  0.00    -0.354 N 
ATOM     44  C   UNL A   1      45.925  26.087  28.952  1.00  0.00     0.074 A 
ATOM     45  C   UNL A   1      46.244  24.758  28.473  1.00  0.00     0.031 C 
ATOM     46  C   UNL A   1      39.626  26.553  27.850  1.00  0.00     0.029 A 
ATOM     47  C   UNL A   1      40.497  27.535  28.493  1.00  0.00     0.049 A 
ATOM     48  H   UNL A   1      42.552  27.380  28.802  1.00  0.00     0.167 HD
ATOM     49  C   UNL A   1      46.836  26.952  29.457  1.00  0.00     0.031 A 
ATOM     50  C   UNL A   1      40.109  28.725  28.992  1.00  0.00     0.031 A 
ATOM     51  C   UNL A   1      46.523  28.264  29.958  1.00  0.00     0.049 A 
ATOM     52  C   UNL A   1      41.125  29.627  29.649  1.00  0.00     0.074 A 
ATOM     53  C   UNL A   1      47.382  29.212  30.488  1.00  0.00     0.029 A 
ATOM     54  N   UNL A   1      45.250  28.808  30.006  1.00  0.00    -0.354 N 
ATOM     55  N   UNL A   1      42.419  29.461  29.782  1.00  0.00    -0.248 NA
ATOM     56  C   UNL A   1      40.621  30.886  30.222  1.00  0.00     0.031 C 
ATOM     57  C   UNL A   1      46.619  30.302  30.918  1.00  0.00     0.029 A 
ATOM     58  C   UNL A   1      45.296  30.065  30.587  1.00  0.00     0.049 A 
ATOM     59  H   UNL A   1      44.434  28.368  29.674  1.00  0.00     0.167 HD
ATOM     60  C   UNL A   1      42.887  30.605  30.420  1.00  0.00     0.074 A 
ATOM     61  C   UNL A   1      41.741  31.465  30.634  1.00  0.00     0.031 C 
ATOM     62  C   UNL A   1      44.152  30.917  30.794  1.00  0.00     0.031 A 
BRANCH  49  63
ATOM     63  C   UNL A   1      48.263  26.480  29.546  1.00  0.00    -0.014 A 
ATOM     64  C   UNL A   1      49.185  26.732  28.518  1.00  0.00     0.009 A 
ATOM     65  C   UNL A   1      48.696  25.798  30.694  1.00  0.00     0.009 A 
ATOM     66  C   UNL A   1      50.501  26.277  28.622  1.00  0.00     0.001 A 
ATOM     67  C   UNL A   1      50.020  25.371  30.809  1.00  0.00     0.001 A 
ATOM     68  C   UNL A   1      50.918  25.601  29.769  1.00  0.00     0.000 A 
ENDBRANCH  49  63
BRANCH  50  69
ATOM     69  C   UNL A   1      38.680  29.139  28.926  1.00  0.00    -0.014 A 
ATOM     70  C   UNL A   1      38.173  29.793  27.792  1.00  0.00     0.009 A 
ATOM     71  C   UNL A   1      37.825  28.924  30.019  1.00  0.00     0.009 A 
ATOM     72  C   UNL A   1      36.851  30.249  27.767  1.00  0.00     0.001 A 
ATOM     73  C   UNL A   1      36.495  29.349  29.977  1.00  0.00     0.001 A 
ATOM     74  C   UNL A   1      36.013  30.022  28.856  1.00  0.00     0.000 A 
ENDBRANCH  50  69
BRANCH  62  75
ATOM     75  C   UNL A   1      44.383  32.264  31.427  1.00  0.00    -0.014 A 
ATOM     76  C   UNL A   1      44.643  33.406  30.654  1.00  0.00     0.009 A 
ATOM     77  C   UNL A   1      44.290  32.397  32.822  1.00  0.00     0.009 A 
ATOM     78  C   UNL A   1      44.840  34.646  31.268  1.00  0.00     0.001 A 
ATOM     79  C   UNL A   1      44.453  33.643  33.431  1.00  0.00     0.001 A 
ATOM     80  C   UNL A   1      44.739  34.764  32.655  1.00  0.00     0.000 A 
ENDBRANCH  62  75
ENDBRANCH  36  37
ENDBRANCH  29  31
ENDBRANCH  28  29
ENDBRANCH  27  28
ENDBRANCH  26  27
ENDBRANCH  25  26
ENDBRANCH  24  25
ENDBRANCH   1  24
TORSDOF 21
ENDMDL
MODEL 2
REMARK VINA RESULT:      -9.8      4.202      8.205
REMARK SMILES C[C@H](C(=O)OCCOCCOCCOC(=O)c1ccc(-c2c3nc(c(-c4ccccc4)c4ccc([nH]4)c(-c4ccccc4)c4nc(c(-c5ccccc5)c5ccc2[nH]5)C=C4)C=C3)cc1)c1ccc(C[C@H]2CCC[C@@H]2O)cc1
REMARK SMILES IDX 9 1 8 2 7 3 6 4 5 5 3 6 4 7 2 8 1 9 65 10 66 11 77 12 67 13
REMARK SMILES IDX 76 14 68 15 69 16 70 17 71 18 74 19 72 20 73 21 75 22 10 24
REMARK SMILES IDX 11 25 12 26 13 27 14 28 15 29 16 30 17 31 18 32 64 33 19 34
REMARK SMILES IDX 63 35 20 36 21 37 22 38 57 39 23 40 62 41 56 42 58 43 24 44
REMARK SMILES IDX 61 45 55 46 54 47 25 49 47 50 32 51 46 52 33 53 36 54 45 55
REMARK SMILES IDX 59 56 34 57 35 58 44 60 60 61 37 62 26 63 27 64 31 65 28 66
REMARK SMILES IDX 30 67 29 68 48 69 49 70 53 71 50 72 52 73 51 74 38 75 39 76
REMARK SMILES IDX 43 77 40 78 42 79 41 80
REMARK H PARENT 75 23 58 48 36 59
REMARK Flexibility Score: inf
ROOT
ATOM      1  C   UNL A   1      44.298  17.950  26.116  1.00  0.00     0.188 C 
ENDROOT
BRANCH   1   2
ATOM      2  O   UNL A   1      44.779  18.380  24.861  1.00  0.00    -0.376 OA
BRANCH   2   3
ATOM      3  C   UNL A   1      45.639  19.501  24.799  1.00  0.00     0.202 C 
BRANCH   3   4
ATOM      4  C   UNL A   1      45.154  20.847  24.233  1.00  0.00     0.261 C 
BRANCH   4   5
ATOM      5  O   UNL A   1      44.585  21.768  25.182  1.00  0.00    -0.463 OA
BRANCH   5   6
ATOM      6  C   UNL A   1      45.417  22.720  25.688  1.00  0.00     0.313 C 
ATOM      7  O   UNL A   1      46.636  22.707  25.541  1.00  0.00    -0.252 OA
BRANCH   6   8
ATOM      8  C   UNL A   1      44.702  23.886  26.371  1.00  0.00     0.126 C 
ATOM      9  C   UNL A   1      43.292  24.094  25.799  1.00  0.00     0.025 C 
BRANCH   8  10
ATOM     10  C   UNL A   1      44.733  23.997  27.893  1.00  0.00    -0.034 A 
ATOM     11  C   UNL A   1      43.524  23.834  28.598  1.00  0.00     0.005 A 
ATOM     12  C   UNL A   1      45.854  24.415  28.618  1.00  0.00     0.005 A 
ATOM     13  C   UNL A   1      43.413  24.166  29.942  1.00  0.00     0.004 A 
ATOM     14  C   UNL A   1      45.731  24.792  29.962  1.00  0.00     0.004 A 
ATOM     15  C   UNL A   1      44.484  24.762  30.598  1.00  0.00    -0.048 A 
BRANCH  15  16
ATOM     16  C   UNL A   1      44.241  25.517  31.884  1.00  0.00     0.041 C 
BRANCH  16  17
ATOM     17  C   UNL A   1      44.263  24.618  33.147  1.00  0.00     0.022 C 
ATOM     18  C   UNL A   1      44.681  23.151  32.928  1.00  0.00     0.007 C 
ATOM     19  C   UNL A   1      45.161  25.090  34.300  1.00  0.00     0.117 C 
ATOM     20  C   UNL A   1      45.486  22.740  34.165  1.00  0.00     0.003 C 
ATOM     21  C   UNL A   1      45.278  23.853  35.178  1.00  0.00     0.032 C 
BRANCH  19  22
ATOM     22  O   UNL A   1      44.583  26.177  34.994  1.00  0.00    -0.393 OA
ATOM     23  H   UNL A   1      44.255  25.874  35.855  1.00  0.00     0.210 HD
ENDBRANCH  19  22
ENDBRANCH  16  17
ENDBRANCH  15  16
ENDBRANCH   8  10
ENDBRANCH   6   8
ENDBRANCH   5   6
ENDBRANCH   4   5
ENDBRANCH   3   4
ENDBRANCH   2   3
ENDBRANCH   1   2
BRANCH   1  24
ATOM     24  C   UNL A   1      42.830  18.187  26.538  1.00  0.00     0.188 C 
BRANCH  24  25
ATOM     25  O   UNL A   1      41.930  18.858  25.681  1.00  0.00    -0.376 OA
BRANCH  25  26
ATOM     26  C   UNL A   1      40.962  19.729  26.232  1.00  0.00     0.202 C 
BRANCH  26  27
ATOM     27  C   UNL A   1      41.321  21.194  26.525  1.00  0.00     0.261 C 
BRANCH  27  28
ATOM     28  O   UNL A   1      40.376  21.922  27.329  1.00  0.00    -0.460 OA
BRANCH  28  29
ATOM     29  C   UNL A   1      39.469  22.666  26.653  1.00  0.00     0.338 C 
ATOM     30  O   UNL A   1      38.591  22.254  25.900  1.00  0.00    -0.246 OA
BRANCH  29  31
ATOM     31  C   UNL A   1      39.555  24.083  27.062  1.00  0.00     0.060 A 
ATOM     32  C   UNL A   1      40.131  25.006  26.175  1.00  0.00     0.016 A 
ATOM     33  C   UNL A   1      39.145  24.496  28.330  1.00  0.00     0.016 A 
ATOM     34  C   UNL A   1      40.326  26.334  26.566  1.00  0.00     0.010 A 
ATOM     35  C   UNL A   1      39.361  25.822  28.728  1.00  0.00     0.010 A 
ATOM     36  C   UNL A   1      39.978  26.742  27.860  1.00  0.00    -0.014 A 
BRANCH  36  37
ATOM     37  C   UNL A   1      40.407  28.074  28.367  1.00  0.00     0.031 A 
ATOM     38  C   UNL A   1      41.870  28.311  28.641  1.00  0.00     0.074 A 
ATOM     39  C   UNL A   1      39.525  29.069  28.572  1.00  0.00     0.049 A 
ATOM     40  N   UNL A   1      42.462  29.365  29.142  1.00  0.00    -0.248 NA
ATOM     41  C   UNL A   1      42.785  27.209  28.304  1.00  0.00     0.031 C 
ATOM     42  C   UNL A   1      38.093  29.004  28.289  1.00  0.00     0.029 A 
ATOM     43  N   UNL A   1      39.712  30.334  29.076  1.00  0.00    -0.354 N 
ATOM     44  C   UNL A   1      43.816  29.051  29.191  1.00  0.00     0.074 A 
ATOM     45  C   UNL A   1      43.953  27.700  28.689  1.00  0.00     0.031 C 
ATOM     46  C   UNL A   1      37.529  30.176  28.632  1.00  0.00     0.029 A 
ATOM     47  C   UNL A   1      38.549  31.058  29.196  1.00  0.00     0.049 A 
ATOM     48  H   UNL A   1      40.596  30.688  29.328  1.00  0.00     0.167 HD
ATOM     49  C   UNL A   1      44.852  29.813  29.615  1.00  0.00     0.031 A 
ATOM     50  C   UNL A   1      38.331  32.279  29.725  1.00  0.00     0.031 A 
ATOM     51  C   UNL A   1      44.721  31.147  30.139  1.00  0.00     0.049 A 
ATOM     52  C   UNL A   1      39.487  33.065  30.291  1.00  0.00     0.074 A 
ATOM     53  C   UNL A   1      45.716  31.997  30.592  1.00  0.00     0.029 A 
ATOM     54  N   UNL A   1      43.520  31.820  30.295  1.00  0.00    -0.354 N 
ATOM     55  N   UNL A   1      40.763  32.765  30.313  1.00  0.00    -0.248 NA
ATOM     56  C   UNL A   1      39.168  34.365  30.903  1.00  0.00     0.031 C 
ATOM     57  C   UNL A   1      45.111  33.157  31.084  1.00  0.00     0.029 A 
ATOM     58  C   UNL A   1      43.746  33.061  30.868  1.00  0.00     0.049 A 
ATOM     59  H   UNL A   1      42.637  31.469  30.035  1.00  0.00     0.167 HD
ATOM     60  C   UNL A   1      41.401  33.850  30.907  1.00  0.00     0.074 A 
ATOM     61  C   UNL A   1      40.373  34.822  31.217  1.00  0.00     0.031 C 
ATOM     62  C   UNL A   1      42.719  34.026  31.170  1.00  0.00     0.031 A 
BRANCH  49  63
ATOM     63  C   UNL A   1      46.224  29.195  29.582  1.00  0.00    -0.014 A 
ATOM     64  C   UNL A   1      46.676  28.354  30.611  1.00  0.00     0.009 A 
ATOM     65  C   UNL A   1      47.066  29.438  28.485  1.00  0.00     0.009 A 
ATOM     66  C   UNL A   1      47.957  27.800  30.558  1.00  0.00     0.001 A 
ATOM     67  C   UNL A   1      48.334  28.858  28.420  1.00  0.00     0.001 A 
ATOM     68  C   UNL A   1      48.782  28.049  29.461  1.00  0.00     0.000 A 
ENDBRANCH  49  63
BRANCH  50  69
ATOM     69  C   UNL A   1      36.952  32.838  29.781  1.00  0.00    -0.014 A 
ATOM     70  C   UNL A   1      36.115  32.580  30.878  1.00  0.00     0.009 A 
ATOM     71  C   UNL A   1      36.447  33.595  28.711  1.00  0.00     0.009 A 
ATOM     72  C   UNL A   1      34.796  33.042  30.890  1.00  0.00     0.001 A 
ATOM     73  C   UNL A   1      35.139  34.086  28.741  1.00  0.00     0.001 A 
ATOM     74  C   UNL A   1      34.311  33.798  29.825  1.00  0.00     0.000 A 
ENDBRANCH  50  69
BRANCH  62  75
ATOM     75  C   UNL A   1      43.141  35.336  31.779  1.00  0.00    -0.014 A 
ATOM     76  C   UNL A   1      43.637  36.388  30.993  1.00  0.00     0.009 A 
ATOM     77  C   UNL A   1      42.995  35.536  33.162  1.00  0.00     0.009 A 
ATOM     78  C   UNL A   1      44.009  37.599  31.584  1.00  0.00     0.001 A 
ATOM     79  C   UNL A   1      43.335  36.758  33.745  1.00  0.00     0.001 A 
ATOM     80  C   UNL A   1      43.853  37.784  32.958  1.00  0.00     0.000 A 
ENDBRANCH  62  75
ENDBRANCH  36  37
ENDBRANCH  29  31
ENDBRANCH  28  29
ENDBRANCH  27  28
ENDBRANCH  26  27
ENDBRANCH  25  26
ENDBRANCH  24  25
ENDBRANCH   1  24
TORSDOF 21
ENDMDL
MODEL 3
REMARK VINA RESULT:      -9.8      2.861      8.081
REMARK SMILES C[C@H](C(=O)OCCOCCOCCOC(=O)c1ccc(-c2c3nc(c(-c4ccccc4)c4ccc([nH]4)c(-c4ccccc4)c4nc(c(-c5ccccc5)c5ccc2[nH]5)C=C4)C=C3)cc1)c1ccc(C[C@H]2CCC[C@@H]2O)cc1
REMARK SMILES IDX 9 1 8 2 7 3 6 4 5 5 3 6 4 7 2 8 1 9 65 10 66 11 77 12 67 13
REMARK SMILES IDX 76 14 68 15 69 16 70 17 71 18 74 19 72 20 73 21 75 22 10 24
REMARK SMILES IDX 11 25 12 26 13 27 14 28 15 29 16 30 17 31 18 32 64 33 19 34
REMARK SMILES IDX 63 35 20 36 21 37 22 38 57 39 23 40 62 41 56 42 58 43 24 44
REMARK SMILES IDX 61 45 55 46 54 47 25 49 47 50 32 51 46 52 33 53 36 54 45 55
REMARK SMILES IDX 59 56 34 57 35 58 44 60 60 61 37 62 26 63 27 64 31 65 28 66
REMARK SMILES IDX 30 67 29 68 48 69 49 70 53 71 50 72 52 73 51 74 38 75 39 76
REMARK SMILES IDX 43 77 40 78 42 79 41 80
REMARK H PARENT 75 23 58 48 36 59
REMARK Flexibility Score: inf
ROOT
ATOM      1  C   UNL A   1      35.595  21.973  24.977  1.00  0.00     0.188 C 
ENDROOT
BRANCH   1   2
ATOM      2  O   UNL A   1      35.142  22.796  26.030  1.00  0.00    -0.376 OA
BRANCH   2   3
ATOM      3  C   UNL A   1      34.431  23.980  25.723  1.00  0.00     0.202 C 
BRANCH   3   4
ATOM      4  C   UNL A   1      32.917  23.952  25.448  1.00  0.00     0.261 C 
BRANCH   4   5
ATOM      5  O   UNL A   1      32.345  25.162  24.918  1.00  0.00    -0.463 OA
BRANCH   5   6
ATOM      6  C   UNL A   1      32.283  26.232  25.758  1.00  0.00     0.313 C 
ATOM      7  O   UNL A   1      31.608  26.255  26.784  1.00  0.00    -0.252 OA
BRANCH   6   8
ATOM      8  C   UNL A   1      33.219  27.383  25.386  1.00  0.00     0.126 C 
ATOM      9  C   UNL A   1      32.968  27.869  23.952  1.00  0.00     0.025 C 
BRANCH   8  10
ATOM     10  C   UNL A   1      33.414  28.537  26.364  1.00  0.00    -0.034 A 
ATOM     11  C   UNL A   1      32.442  29.558  26.394  1.00  0.00     0.005 A 
ATOM     12  C   UNL A   1      34.579  28.731  27.114  1.00  0.00     0.005 A 
ATOM     13  C   UNL A   1      32.664  30.756  27.060  1.00  0.00     0.004 A 
ATOM     14  C   UNL A   1      34.821  29.957  27.748  1.00  0.00     0.004 A 
ATOM     15  C   UNL A   1      33.903  31.009  27.636  1.00  0.00    -0.048 A 
BRANCH  15  16
ATOM     16  C   UNL A   1      34.297  32.432  27.957  1.00  0.00     0.041 C 
BRANCH  16  17
ATOM     17  C   UNL A   1      35.453  32.542  28.984  1.00  0.00     0.022 C 
ATOM     18  C   UNL A   1      36.825  32.957  28.418  1.00  0.00     0.007 C 
ATOM     19  C   UNL A   1      35.228  33.508  30.156  1.00  0.00     0.117 C 
ATOM     20  C   UNL A   1      37.482  33.844  29.481  1.00  0.00     0.003 C 
ATOM     21  C   UNL A   1      36.626  33.691  30.728  1.00  0.00     0.032 C 
BRANCH  19  22
ATOM     22  O   UNL A   1      34.336  32.966  31.109  1.00  0.00    -0.393 OA
ATOM     23  H   UNL A   1      33.705  32.378  30.664  1.00  0.00     0.210 HD
ENDBRANCH  19  22
ENDBRANCH  16  17
ENDBRANCH  15  16
ENDBRANCH   8  10
ENDBRANCH   6   8
ENDBRANCH   5   6
ENDBRANCH   4   5
ENDBRANCH   3   4
ENDBRANCH   2   3
ENDBRANCH   1   2
BRANCH   1  24
ATOM     24  C   UNL A   1      35.355  20.446  24.992  1.00  0.00     0.188 C 
BRANCH  24  25
ATOM     25  O   UNL A   1      36.441  19.542  25.021  1.00  0.00    -0.376 OA
BRANCH  25  26
ATOM     26  C   UNL A   1      37.761  20.036  24.910  1.00  0.00     0.202 C 
BRANCH  26  27
ATOM     27  C   UNL A   1      38.904  19.364  25.685  1.00  0.00     0.261 C 
BRANCH  27  28
ATOM     28  O   UNL A   1      40.157  20.072  25.693  1.00  0.00    -0.460 OA
BRANCH  28  29
ATOM     29  C   UNL A   1      40.788  20.148  26.888  1.00  0.00     0.338 C 
ATOM     30  O   UNL A   1      41.238  19.215  27.546  1.00  0.00    -0.246 OA
BRANCH  29  31
ATOM     31  C   UNL A   1      41.026  21.559  27.257  1.00  0.00     0.060 A 
ATOM     32  C   UNL A   1      40.546  22.568  26.409  1.00  0.00     0.016 A 
ATOM     33  C   UNL A   1      41.777  21.893  28.386  1.00  0.00     0.016 A 
ATOM     34  C   UNL A   1      40.842  23.910  26.668  1.00  0.00     0.010 A 
ATOM     35  C   UNL A   1      42.090  23.237  28.633  1.00  0.00     0.010 A 
ATOM     36  C   UNL A   1      41.650  24.250  27.761  1.00  0.00    -0.014 A 
BRANCH  36  37
ATOM     37  C   UNL A   1      42.174  25.636  27.903  1.00  0.00     0.031 A 
ATOM     38  C   UNL A   1      41.363  26.645  28.674  1.00  0.00     0.074 A 
ATOM     39  C   UNL A   1      43.354  26.003  27.370  1.00  0.00     0.049 A 
ATOM     40  N   UNL A   1      41.590  27.919  28.873  1.00  0.00    -0.248 NA
ATOM     41  C   UNL A   1      40.131  26.146  29.306  1.00  0.00     0.031 C 
ATOM     42  C   UNL A   1      44.273  25.119  26.655  1.00  0.00     0.029 A 
ATOM     43  N   UNL A   1      43.977  27.228  27.346  1.00  0.00    -0.354 N 
ATOM     44  C   UNL A   1      40.526  28.377  29.642  1.00  0.00     0.074 A 
ATOM     45  C   UNL A   1      39.644  27.249  29.855  1.00  0.00     0.031 C 
ATOM     46  C   UNL A   1      45.340  25.834  26.256  1.00  0.00     0.029 A 
ATOM     47  C   UNL A   1      45.161  27.231  26.648  1.00  0.00     0.049 A 
ATOM     48  H   UNL A   1      43.609  28.028  27.786  1.00  0.00     0.167 HD
ATOM     49  C   UNL A   1      40.299  29.621  30.126  1.00  0.00     0.031 A 
ATOM     50  C   UNL A   1      45.991  28.248  26.339  1.00  0.00     0.031 A 
ATOM     51  C   UNL A   1      41.159  30.753  29.897  1.00  0.00     0.049 A 
ATOM     52  C   UNL A   1      45.661  29.647  26.799  1.00  0.00     0.074 A 
ATOM     53  C   UNL A   1      41.010  32.053  30.351  1.00  0.00     0.029 A 
ATOM     54  N   UNL A   1      42.318  30.724  29.139  1.00  0.00    -0.354 N 
ATOM     55  N   UNL A   1      44.663  30.062  27.541  1.00  0.00    -0.248 NA
ATOM     56  C   UNL A   1      46.579  30.717  26.378  1.00  0.00     0.031 C 
ATOM     57  C   UNL A   1      42.043  32.825  29.811  1.00  0.00     0.029 A 
ATOM     58  C   UNL A   1      42.876  31.991  29.084  1.00  0.00     0.049 A 
ATOM     59  H   UNL A   1      42.690  29.922  28.705  1.00  0.00     0.167 HD
ATOM     60  C   UNL A   1      44.853  31.431  27.704  1.00  0.00     0.074 A 
ATOM     61  C   UNL A   1      46.069  31.773  26.996  1.00  0.00     0.031 C 
ATOM     62  C   UNL A   1      44.089  32.324  28.381  1.00  0.00     0.031 A 
BRANCH  49  63
ATOM     63  C   UNL A   1      39.035  29.838  30.912  1.00  0.00    -0.014 A 
ATOM     64  C   UNL A   1      37.780  29.892  30.285  1.00  0.00     0.009 A 
ATOM     65  C   UNL A   1      39.101  29.960  32.310  1.00  0.00     0.009 A 
ATOM     66  C   UNL A   1      36.622  30.102  31.038  1.00  0.00     0.001 A 
ATOM     67  C   UNL A   1      37.939  30.138  33.063  1.00  0.00     0.001 A 
ATOM     68  C   UNL A   1      36.703  30.220  32.426  1.00  0.00     0.000 A 
ENDBRANCH  49  63
BRANCH  50  69
ATOM     69  C   UNL A   1      47.211  28.002  25.521  1.00  0.00    -0.014 A 
ATOM     70  C   UNL A   1      47.117  27.803  24.134  1.00  0.00     0.009 A 
ATOM     71  C   UNL A   1      48.472  27.917  26.131  1.00  0.00     0.009 A 
ATOM     72  C   UNL A   1      48.256  27.494  23.383  1.00  0.00     0.001 A 
ATOM     73  C   UNL A   1      49.613  27.643  25.372  1.00  0.00     0.001 A 
ATOM     74  C   UNL A   1      49.502  27.420  24.001  1.00  0.00     0.000 A 
ENDBRANCH  50  69
BRANCH  62  75
ATOM     75  C   UNL A   1      44.567  33.751  28.437  1.00  0.00    -0.014 A 
ATOM     76  C   UNL A   1      45.458  34.191  29.428  1.00  0.00     0.009 A 
ATOM     77  C   UNL A   1      44.150  34.659  27.450  1.00  0.00     0.009 A 
ATOM     78  C   UNL A   1      45.894  35.518  29.448  1.00  0.00     0.001 A 
ATOM     79  C   UNL A   1      44.615  35.976  27.452  1.00  0.00     0.001 A 
ATOM     80  C   UNL A   1      45.478  36.408  28.457  1.00  0.00     0.000 A 
ENDBRANCH  62  75
ENDBRANCH  36  37
ENDBRANCH  29  31
ENDBRANCH  28  29
ENDBRANCH  27  28
ENDBRANCH  26  27
ENDBRANCH  25  26
ENDBRANCH  24  25
ENDBRANCH   1  24
TORSDOF 21
ENDMDL
