MODEL 1
REMARK VINA RESULT:     -10.7      0.000      0.000
REMARK SMILES Nn1c(S[C@@H](C(=O)OCCOCCOCCOC(=O)c2ccc(-c3c4nc(c(-c5ccccc5)c5ccc([nH]5)c(-c5ccccc5)c5nc(c(-c6ccccc6)c6ccc3[nH]6)C=C5)C=C4)cc2)c2ccccc2)nc2ccc(Br)cc2c1=O
REMARK SMILES IDX 12 1 11 2 10 3 9 4 8 5 6 6 7 7 5 8 4 9 3 10 2 11 82 12 74 13
REMARK SMILES IDX 81 14 83 15 75 16 80 17 76 18 78 19 77 20 79 21 1 22 68 25
REMARK SMILES IDX 69 26 73 27 70 28 72 29 71 30 13 31 14 32 15 33 16 34 17 35
REMARK SMILES IDX 18 36 19 37 20 38 21 39 67 40 22 41 66 42 23 43 24 44 25 45
REMARK SMILES IDX 60 46 26 47 65 48 59 49 61 50 27 51 64 52 58 53 57 54 28 56
REMARK SMILES IDX 50 57 35 58 49 59 36 60 39 61 48 62 62 63 37 64 38 65 47 67
REMARK SMILES IDX 63 68 40 69 29 70 30 71 34 72 31 73 33 74 32 75 51 76 52 77
REMARK SMILES IDX 56 78 53 79 55 80 54 81 41 82 42 83 46 84 43 85 45 86 44 87
REMARK H PARENT 1 23 1 24 61 55 39 66
REMARK Flexibility Score: inf
ROOT
ATOM      1  C   UNL A   1      34.820  32.072  28.270  1.00  0.00     0.188 C 
ENDROOT
BRANCH   1   2
ATOM      2  O   UNL A   1      33.570  31.820  27.638  1.00  0.00    -0.376 OA
BRANCH   2   3
ATOM      3  C   UNL A   1      33.311  30.489  27.209  1.00  0.00     0.202 C 
BRANCH   3   4
ATOM      4  C   UNL A   1      32.339  30.285  26.029  1.00  0.00     0.261 C 
BRANCH   4   5
ATOM      5  O   UNL A   1      32.201  28.951  25.464  1.00  0.00    -0.462 OA
BRANCH   5   6
ATOM      6  C   UNL A   1      31.790  28.930  24.158  1.00  0.00     0.324 C 
ATOM      7  O   UNL A   1      32.589  29.138  23.247  1.00  0.00    -0.251 OA
BRANCH   6   8
ATOM      8  C   UNL A   1      30.253  28.768  23.932  1.00  0.00     0.194 C 
BRANCH   8   9
ATOM      9  S   UNL A   1      29.668  27.108  23.494  1.00  0.00    -0.066 SA
BRANCH   9  10
ATOM     10  C   UNL A   1      30.906  25.864  23.528  1.00  0.00     0.191 A 
ATOM     11  N   UNL A   1      31.767  25.635  22.471  1.00  0.00    -0.202 N 
ATOM     12  C   UNL A   1      32.993  25.069  22.740  1.00  0.00     0.280 A 
ATOM     13  N   UNL A   1      31.037  25.218  24.659  1.00  0.00    -0.222 NA
ATOM     14  C   UNL A   1      33.047  24.110  23.818  1.00  0.00     0.069 A 
ATOM     15  O   UNL A   1      34.028  25.388  22.175  1.00  0.00    -0.267 OA
ATOM     16  C   UNL A   1      32.054  24.238  24.777  1.00  0.00     0.079 A 
ATOM     17  C   UNL A   1      34.061  23.146  23.855  1.00  0.00     0.031 A 
ATOM     18  C   UNL A   1      32.137  23.378  25.871  1.00  0.00     0.030 A 
ATOM     19  C   UNL A   1      34.098  22.277  24.930  1.00  0.00     0.018 A 
ATOM     20  C   UNL A   1      33.153  22.401  25.949  1.00  0.00     0.018 A 
ATOM     21  Br  UNL A   1      35.431  20.941  25.001  1.00  0.00    -0.051 Br
BRANCH  11  22
ATOM     22  N   UNL A   1      31.586  26.109  21.169  1.00  0.00    -0.334 N 
ATOM     23  H   UNL A   1      31.896  25.573  20.402  1.00  0.00     0.178 HD
ATOM     24  H   UNL A   1      31.150  26.978  21.016  1.00  0.00     0.178 HD
ENDBRANCH  11  22
ENDBRANCH   9  10
ENDBRANCH   8   9
BRANCH   8  25
ATOM     25  C   UNL A   1      29.627  29.993  23.226  1.00  0.00    -0.023 A 
ATOM     26  C   UNL A   1      29.237  31.174  23.874  1.00  0.00     0.005 A 
ATOM     27  C   UNL A   1      29.309  29.879  21.854  1.00  0.00     0.005 A 
ATOM     28  C   UNL A   1      28.421  32.113  23.230  1.00  0.00     0.000 A 
ATOM     29  C   UNL A   1      28.499  30.816  21.209  1.00  0.00     0.000 A 
ATOM     30  C   UNL A   1      28.028  31.918  21.909  1.00  0.00     0.000 A 
ENDBRANCH   8  25
ENDBRANCH   6   8
ENDBRANCH   5   6
ENDBRANCH   4   5
ENDBRANCH   3   4
ENDBRANCH   2   3
ENDBRANCH   1   2
BRANCH   1  31
ATOM     31  C   UNL A   1      35.465  33.432  28.005  1.00  0.00     0.188 C 
BRANCH  31  32
ATOM     32  O   UNL A   1      34.501  34.372  27.538  1.00  0.00    -0.376 OA
BRANCH  32  33
ATOM     33  C   UNL A   1      34.336  35.494  28.414  1.00  0.00     0.202 C 
BRANCH  33  34
ATOM     34  C   UNL A   1      33.089  35.374  29.301  1.00  0.00     0.261 C 
BRANCH  34  35
ATOM     35  O   UNL A   1      33.087  36.268  30.437  1.00  0.00    -0.460 OA
BRANCH  35  36
ATOM     36  C   UNL A   1      32.639  35.751  31.612  1.00  0.00     0.338 C 
ATOM     37  O   UNL A   1      31.520  35.835  32.084  1.00  0.00    -0.246 OA
BRANCH  36  38
ATOM     38  C   UNL A   1      33.737  35.034  32.298  1.00  0.00     0.060 A 
ATOM     39  C   UNL A   1      33.522  33.784  32.877  1.00  0.00     0.016 A 
ATOM     40  C   UNL A   1      35.034  35.548  32.244  1.00  0.00     0.016 A 
ATOM     41  C   UNL A   1      34.609  33.079  33.415  1.00  0.00     0.010 A 
ATOM     42  C   UNL A   1      36.092  34.914  32.868  1.00  0.00     0.010 A 
ATOM     43  C   UNL A   1      35.893  33.651  33.415  1.00  0.00    -0.014 A 
BRANCH  43  44
ATOM     44  C   UNL A   1      37.100  32.889  33.775  1.00  0.00     0.031 A 
ATOM     45  C   UNL A   1      37.622  31.806  32.895  1.00  0.00     0.074 A 
ATOM     46  C   UNL A   1      37.612  33.074  35.006  1.00  0.00     0.049 A 
ATOM     47  N   UNL A   1      38.773  31.193  32.964  1.00  0.00    -0.248 NA
ATOM     48  C   UNL A   1      36.734  31.324  31.827  1.00  0.00     0.031 C 
ATOM     49  C   UNL A   1      37.047  33.962  36.027  1.00  0.00     0.029 A 
ATOM     50  N   UNL A   1      38.692  32.503  35.620  1.00  0.00    -0.354 N 
ATOM     51  C   UNL A   1      38.780  30.298  31.906  1.00  0.00     0.074 A 
ATOM     52  C   UNL A   1      37.483  30.379  31.270  1.00  0.00     0.031 C 
ATOM     53  C   UNL A   1      37.782  33.868  37.144  1.00  0.00     0.029 A 
ATOM     54  C   UNL A   1      38.902  32.968  36.893  1.00  0.00     0.049 A 
ATOM     55  H   UNL A   1      39.262  31.824  35.191  1.00  0.00     0.167 HD
ATOM     56  C   UNL A   1      39.808  29.521  31.495  1.00  0.00     0.031 A 
ATOM     57  C   UNL A   1      39.925  32.749  37.738  1.00  0.00     0.031 A 
ATOM     58  C   UNL A   1      41.060  29.437  32.203  1.00  0.00     0.049 A 
ATOM     59  C   UNL A   1      41.094  31.953  37.241  1.00  0.00     0.074 A 
ATOM     60  C   UNL A   1      42.229  28.804  31.824  1.00  0.00     0.029 A 
ATOM     61  N   UNL A   1      41.288  29.985  33.457  1.00  0.00    -0.354 N 
ATOM     62  N   UNL A   1      41.228  31.315  36.102  1.00  0.00    -0.248 NA
ATOM     63  C   UNL A   1      42.278  31.900  38.108  1.00  0.00     0.031 C 
ATOM     64  C   UNL A   1      43.143  28.918  32.877  1.00  0.00     0.029 A 
ATOM     65  C   UNL A   1      42.565  29.675  33.885  1.00  0.00     0.049 A 
ATOM     66  H   UNL A   1      40.635  30.517  33.968  1.00  0.00     0.167 HD
ATOM     67  C   UNL A   1      42.519  30.811  36.098  1.00  0.00     0.074 A 
ATOM     68  C   UNL A   1      43.131  31.225  37.345  1.00  0.00     0.031 C 
ATOM     69  C   UNL A   1      43.143  30.082  35.142  1.00  0.00     0.031 A 
BRANCH  56  70
ATOM     70  C   UNL A   1      39.657  28.763  30.206  1.00  0.00    -0.014 A 
ATOM     71  C   UNL A   1      39.290  27.409  30.209  1.00  0.00     0.009 A 
ATOM     72  C   UNL A   1      40.001  29.367  28.984  1.00  0.00     0.009 A 
ATOM     73  C   UNL A   1      39.280  26.675  29.019  1.00  0.00     0.001 A 
ATOM     74  C   UNL A   1      39.965  28.639  27.794  1.00  0.00     0.001 A 
ATOM     75  C   UNL A   1      39.614  27.290  27.814  1.00  0.00     0.000 A 
ENDBRANCH  56  70
BRANCH  57  76
ATOM     76  C   UNL A   1      39.935  33.456  39.042  1.00  0.00    -0.014 A 
ATOM     77  C   UNL A   1      39.322  32.893  40.172  1.00  0.00     0.009 A 
ATOM     78  C   UNL A   1      40.451  34.758  39.127  1.00  0.00     0.009 A 
ATOM     79  C   UNL A   1      39.215  33.626  41.356  1.00  0.00     0.001 A 
ATOM     80  C   UNL A   1      40.359  35.481  40.317  1.00  0.00     0.001 A 
ATOM     81  C   UNL A   1      39.734  34.918  41.428  1.00  0.00     0.000 A 
ENDBRANCH  57  76
BRANCH  69  82
ATOM     82  C   UNL A   1      44.561  29.663  35.406  1.00  0.00    -0.014 A 
ATOM     83  C   UNL A   1      44.818  28.470  36.099  1.00  0.00     0.009 A 
ATOM     84  C   UNL A   1      45.632  30.501  35.063  1.00  0.00     0.009 A 
ATOM     85  C   UNL A   1      46.123  28.133  36.462  1.00  0.00     0.001 A 
ATOM     86  C   UNL A   1      46.938  30.146  35.403  1.00  0.00     0.001 A 
ATOM     87  C   UNL A   1      47.181  28.969  36.111  1.00  0.00     0.000 A 
ENDBRANCH  69  82
ENDBRANCH  43  44
ENDBRANCH  36  38
ENDBRANCH  35  36
ENDBRANCH  34  35
ENDBRANCH  33  34
ENDBRANCH  32  33
ENDBRANCH  31  32
ENDBRANCH   1  31
TORSDOF 21
ENDMDL
MODEL 2
REMARK VINA RESULT:     -10.4      8.091     13.841
REMARK SMILES Nn1c(S[C@@H](C(=O)OCCOCCOCCOC(=O)c2ccc(-c3c4nc(c(-c5ccccc5)c5ccc([nH]5)c(-c5ccccc5)c5nc(c(-c6ccccc6)c6ccc3[nH]6)C=C5)C=C4)cc2)c2ccccc2)nc2ccc(Br)cc2c1=O
REMARK SMILES IDX 12 1 11 2 10 3 9 4 8 5 6 6 7 7 5 8 4 9 3 10 2 11 82 12 74 13
REMARK SMILES IDX 81 14 83 15 75 16 80 17 76 18 78 19 77 20 79 21 1 22 68 25
REMARK SMILES IDX 69 26 73 27 70 28 72 29 71 30 13 31 14 32 15 33 16 34 17 35
REMARK SMILES IDX 18 36 19 37 20 38 21 39 67 40 22 41 66 42 23 43 24 44 25 45
REMARK SMILES IDX 60 46 26 47 65 48 59 49 61 50 27 51 64 52 58 53 57 54 28 56
REMARK SMILES IDX 50 57 35 58 49 59 36 60 39 61 48 62 62 63 37 64 38 65 47 67
REMARK SMILES IDX 63 68 40 69 29 70 30 71 34 72 31 73 33 74 32 75 51 76 52 77
REMARK SMILES IDX 56 78 53 79 55 80 54 81 41 82 42 83 46 84 43 85 45 86 44 87
REMARK H PARENT 1 23 1 24 61 55 39 66
REMARK Flexibility Score: inf
ROOT
ATOM      1  C   UNL A   1      45.857  20.296  25.094  1.00  0.00     0.188 C 
ENDROOT
BRANCH   1   2
ATOM      2  O   UNL A   1      46.683  21.374  24.669  1.00  0.00    -0.376 OA
BRANCH   2   3
ATOM      3  C   UNL A   1      46.075  22.652  24.537  1.00  0.00     0.202 C 
BRANCH   3   4
ATOM      4  C   UNL A   1      46.005  23.553  25.786  1.00  0.00     0.261 C 
BRANCH   4   5
ATOM      5  O   UNL A   1      46.631  24.866  25.733  1.00  0.00    -0.462 OA
BRANCH   5   6
ATOM      6  C   UNL A   1      45.766  25.895  25.473  1.00  0.00     0.324 C 
ATOM      7  O   UNL A   1      44.627  25.668  25.070  1.00  0.00    -0.251 OA
BRANCH   6   8
ATOM      8  C   UNL A   1      46.366  27.333  25.588  1.00  0.00     0.194 C 
BRANCH   8   9
ATOM      9  S   UNL A   1      48.117  27.446  26.048  1.00  0.00    -0.066 SA
BRANCH   9  10
ATOM     10  C   UNL A   1      49.230  27.465  24.690  1.00  0.00     0.191 A 
ATOM     11  N   UNL A   1      50.602  27.513  24.848  1.00  0.00    -0.202 N 
ATOM     12  C   UNL A   1      51.392  26.999  23.845  1.00  0.00     0.280 A 
ATOM     13  N   UNL A   1      48.690  27.334  23.506  1.00  0.00    -0.222 NA
ATOM     14  C   UNL A   1      50.906  27.143  22.493  1.00  0.00     0.069 A 
ATOM     15  O   UNL A   1      52.423  26.374  24.043  1.00  0.00    -0.267 OA
ATOM     16  C   UNL A   1      49.532  27.285  22.367  1.00  0.00     0.079 A 
ATOM     17  C   UNL A   1      51.799  27.119  21.415  1.00  0.00     0.031 A 
ATOM     18  C   UNL A   1      49.033  27.339  21.067  1.00  0.00     0.030 A 
ATOM     19  C   UNL A   1      51.283  27.216  20.136  1.00  0.00     0.018 A 
ATOM     20  C   UNL A   1      49.902  27.305  19.955  1.00  0.00     0.018 A 
ATOM     21  Br  UNL A   1      52.457  27.221  18.657  1.00  0.00    -0.051 Br
BRANCH  11  22
ATOM     22  N   UNL A   1      51.265  27.860  26.029  1.00  0.00    -0.334 N 
ATOM     23  H   UNL A   1      52.069  28.429  25.994  1.00  0.00     0.178 HD
ATOM     24  H   UNL A   1      50.930  27.538  26.896  1.00  0.00     0.178 HD
ENDBRANCH  11  22
ENDBRANCH   9  10
ENDBRANCH   8   9
BRANCH   8  25
ATOM     25  C   UNL A   1      45.366  28.343  26.196  1.00  0.00    -0.023 A 
ATOM     26  C   UNL A   1      43.981  28.140  26.282  1.00  0.00     0.005 A 
ATOM     27  C   UNL A   1      45.854  29.611  26.584  1.00  0.00     0.005 A 
ATOM     28  C   UNL A   1      43.115  29.202  26.571  1.00  0.00     0.000 A 
ATOM     29  C   UNL A   1      44.992  30.669  26.877  1.00  0.00     0.000 A 
ATOM     30  C   UNL A   1      43.619  30.471  26.838  1.00  0.00     0.000 A 
ENDBRANCH   8  25
ENDBRANCH   6   8
ENDBRANCH   5   6
ENDBRANCH   4   5
ENDBRANCH   3   4
ENDBRANCH   2   3
ENDBRANCH   1   2
BRANCH   1  31
ATOM     31  C   UNL A   1      45.605  19.178  24.082  1.00  0.00     0.188 C 
BRANCH  31  32
ATOM     32  O   UNL A   1      44.457  18.415  24.440  1.00  0.00    -0.376 OA
BRANCH  32  33
ATOM     33  C   UNL A   1      44.193  18.421  25.848  1.00  0.00     0.202 C 
BRANCH  33  34
ATOM     34  C   UNL A   1      42.692  18.418  26.169  1.00  0.00     0.261 C 
BRANCH  34  35
ATOM     35  O   UNL A   1      41.909  19.297  25.330  1.00  0.00    -0.460 OA
BRANCH  35  36
ATOM     36  C   UNL A   1      40.953  20.036  25.954  1.00  0.00     0.338 C 
ATOM     37  O   UNL A   1      39.765  19.787  26.052  1.00  0.00    -0.246 OA
BRANCH  36  38
ATOM     38  C   UNL A   1      41.558  21.257  26.531  1.00  0.00     0.060 A 
ATOM     39  C   UNL A   1      42.107  22.239  25.708  1.00  0.00     0.016 A 
ATOM     40  C   UNL A   1      41.454  21.495  27.902  1.00  0.00     0.016 A 
ATOM     41  C   UNL A   1      42.566  23.437  26.277  1.00  0.00     0.010 A 
ATOM     42  C   UNL A   1      42.002  22.622  28.486  1.00  0.00     0.010 A 
ATOM     43  C   UNL A   1      42.518  23.622  27.669  1.00  0.00    -0.014 A 
BRANCH  43  44
ATOM     44  C   UNL A   1      42.790  24.921  28.306  1.00  0.00     0.031 A 
ATOM     45  C   UNL A   1      44.119  25.224  28.908  1.00  0.00     0.074 A 
ATOM     46  C   UNL A   1      41.751  25.756  28.492  1.00  0.00     0.049 A 
ATOM     47  N   UNL A   1      44.578  26.376  29.314  1.00  0.00    -0.248 NA
ATOM     48  C   UNL A   1      45.035  24.092  29.113  1.00  0.00     0.031 C 
ATOM     49  C   UNL A   1      40.361  25.464  28.127  1.00  0.00     0.029 A 
ATOM     50  N   UNL A   1      41.692  26.996  29.065  1.00  0.00    -0.354 N 
ATOM     51  C   UNL A   1      45.866  26.125  29.761  1.00  0.00     0.074 A 
ATOM     52  C   UNL A   1      46.080  24.697  29.667  1.00  0.00     0.031 C 
ATOM     53  C   UNL A   1      39.586  26.494  28.493  1.00  0.00     0.029 A 
ATOM     54  C   UNL A   1      40.433  27.540  29.055  1.00  0.00     0.049 A 
ATOM     55  H   UNL A   1      42.477  27.454  29.446  1.00  0.00     0.167 HD
ATOM     56  C   UNL A   1      46.785  27.030  30.166  1.00  0.00     0.031 A 
ATOM     57  C   UNL A   1      40.020  28.774  29.394  1.00  0.00     0.031 A 
ATOM     58  C   UNL A   1      46.498  28.436  30.296  1.00  0.00     0.049 A 
ATOM     59  C   UNL A   1      41.057  29.791  29.764  1.00  0.00     0.074 A 
ATOM     60  C   UNL A   1      47.368  29.479  30.558  1.00  0.00     0.029 A 
ATOM     61  N   UNL A   1      45.228  28.988  30.201  1.00  0.00    -0.354 N 
ATOM     62  N   UNL A   1      42.349  29.623  29.926  1.00  0.00    -0.248 NA
ATOM     63  C   UNL A   1      40.601  31.175  29.933  1.00  0.00     0.031 C 
ATOM     64  C   UNL A   1      46.614  30.650  30.682  1.00  0.00     0.029 A 
ATOM     65  C   UNL A   1      45.283  30.349  30.435  1.00  0.00     0.049 A 
ATOM     66  H   UNL A   1      44.407  28.482  29.997  1.00  0.00     0.167 HD
ATOM     67  C   UNL A   1      42.866  30.883  30.183  1.00  0.00     0.074 A 
ATOM     68  C   UNL A   1      41.749  31.806  30.147  1.00  0.00     0.031 C 
ATOM     69  C   UNL A   1      44.152  31.243  30.415  1.00  0.00     0.031 A 
BRANCH  56  70
ATOM     70  C   UNL A   1      48.187  26.555  30.430  1.00  0.00    -0.014 A 
ATOM     71  C   UNL A   1      48.600  26.230  31.731  1.00  0.00     0.009 A 
ATOM     72  C   UNL A   1      49.138  26.544  29.396  1.00  0.00     0.009 A 
ATOM     73  C   UNL A   1      49.937  25.916  31.990  1.00  0.00     0.001 A 
ATOM     74  C   UNL A   1      50.467  26.205  29.653  1.00  0.00     0.001 A 
ATOM     75  C   UNL A   1      50.868  25.901  30.953  1.00  0.00     0.000 A 
ENDBRANCH  56  70
BRANCH  57  76
ATOM     76  C   UNL A   1      38.590  29.123  29.205  1.00  0.00    -0.014 A 
ATOM     77  C   UNL A   1      38.114  29.559  27.959  1.00  0.00     0.009 A 
ATOM     78  C   UNL A   1      37.723  29.138  30.307  1.00  0.00     0.009 A 
ATOM     79  C   UNL A   1      36.801  30.016  27.825  1.00  0.00     0.001 A 
ATOM     80  C   UNL A   1      36.406  29.579  30.167  1.00  0.00     0.001 A 
ATOM     81  C   UNL A   1      35.948  30.024  28.928  1.00  0.00     0.000 A 
ENDBRANCH  57  76
BRANCH  69  82
ATOM     82  C   UNL A   1      44.429  32.696  30.669  1.00  0.00    -0.014 A 
ATOM     83  C   UNL A   1      44.921  33.505  29.633  1.00  0.00     0.009 A 
ATOM     84  C   UNL A   1      44.307  33.235  31.958  1.00  0.00     0.009 A 
ATOM     85  C   UNL A   1      45.303  34.822  29.886  1.00  0.00     0.001 A 
ATOM     86  C   UNL A   1      44.663  34.562  32.202  1.00  0.00     0.001 A 
ATOM     87  C   UNL A   1      45.170  35.351  31.169  1.00  0.00     0.000 A 
ENDBRANCH  69  82
ENDBRANCH  43  44
ENDBRANCH  36  38
ENDBRANCH  35  36
ENDBRANCH  34  35
ENDBRANCH  33  34
ENDBRANCH  32  33
ENDBRANCH  31  32
ENDBRANCH   1  31
TORSDOF 21
ENDMDL
MODEL 3
REMARK VINA RESULT:     -10.0      2.249      6.636
REMARK SMILES Nn1c(S[C@@H](C(=O)OCCOCCOCCOC(=O)c2ccc(-c3c4nc(c(-c5ccccc5)c5ccc([nH]5)c(-c5ccccc5)c5nc(c(-c6ccccc6)c6ccc3[nH]6)C=C5)C=C4)cc2)c2ccccc2)nc2ccc(Br)cc2c1=O
REMARK SMILES IDX 12 1 11 2 10 3 9 4 8 5 6 6 7 7 5 8 4 9 3 10 2 11 82 12 74 13
REMARK SMILES IDX 81 14 83 15 75 16 80 17 76 18 78 19 77 20 79 21 1 22 68 25
REMARK SMILES IDX 69 26 73 27 70 28 72 29 71 30 13 31 14 32 15 33 16 34 17 35
REMARK SMILES IDX 18 36 19 37 20 38 21 39 67 40 22 41 66 42 23 43 24 44 25 45
REMARK SMILES IDX 60 46 26 47 65 48 59 49 61 50 27 51 64 52 58 53 57 54 28 56
REMARK SMILES IDX 50 57 35 58 49 59 36 60 39 61 48 62 62 63 37 64 38 65 47 67
REMARK SMILES IDX 63 68 40 69 29 70 30 71 34 72 31 73 33 74 32 75 51 76 52 77
REMARK SMILES IDX 56 78 53 79 55 80 54 81 41 82 42 83 46 84 43 85 45 86 44 87
REMARK H PARENT 1 23 1 24 61 55 39 66
REMARK Flexibility Score: inf
ROOT
ATOM      1  C   UNL A   1      35.241  31.093  28.295  1.00  0.00     0.188 C 
ENDROOT
BRANCH   1   2
ATOM      2  O   UNL A   1      33.858  30.964  27.987  1.00  0.00    -0.376 OA
BRANCH   2   3
ATOM      3  C   UNL A   1      33.505  30.110  26.907  1.00  0.00     0.202 C 
BRANCH   3   4
ATOM      4  C   UNL A   1      32.294  30.505  26.036  1.00  0.00     0.261 C 
BRANCH   4   5
ATOM      5  O   UNL A   1      31.338  29.473  25.665  1.00  0.00    -0.462 OA
BRANCH   5   6
ATOM      6  C   UNL A   1      31.228  29.264  24.316  1.00  0.00     0.324 C 
ATOM      7  O   UNL A   1      32.170  29.509  23.566  1.00  0.00    -0.251 OA
BRANCH   6   8
ATOM      8  C   UNL A   1      29.813  28.839  23.809  1.00  0.00     0.194 C 
BRANCH   8   9
ATOM      9  S   UNL A   1      29.661  27.157  23.145  1.00  0.00    -0.066 SA
BRANCH   9  10
ATOM     10  C   UNL A   1      31.106  26.173  23.308  1.00  0.00     0.191 A 
ATOM     11  N   UNL A   1      31.907  25.836  22.233  1.00  0.00    -0.202 N 
ATOM     12  C   UNL A   1      33.234  25.556  22.472  1.00  0.00     0.280 A 
ATOM     13  N   UNL A   1      31.443  25.849  24.531  1.00  0.00    -0.222 NA
ATOM     14  C   UNL A   1      33.548  24.907  23.723  1.00  0.00     0.069 A 
ATOM     15  O   UNL A   1      34.144  25.890  21.729  1.00  0.00    -0.267 OA
ATOM     16  C   UNL A   1      32.628  25.103  24.742  1.00  0.00     0.079 A 
ATOM     17  C   UNL A   1      34.723  24.156  23.853  1.00  0.00     0.031 A 
ATOM     18  C   UNL A   1      32.955  24.558  25.983  1.00  0.00     0.030 A 
ATOM     19  C   UNL A   1      35.004  23.591  25.083  1.00  0.00     0.018 A 
ATOM     20  C   UNL A   1      34.137  23.805  26.155  1.00  0.00     0.018 A 
ATOM     21  Br  UNL A   1      36.561  22.542  25.290  1.00  0.00    -0.051 Br
BRANCH  11  22
ATOM     22  N   UNL A   1      31.539  25.946  20.889  1.00  0.00    -0.334 N 
ATOM     23  H   UNL A   1      32.232  26.045  20.196  1.00  0.00     0.178 HD
ATOM     24  H   UNL A   1      30.589  25.924  20.634  1.00  0.00     0.178 HD
ENDBRANCH  11  22
ENDBRANCH   9  10
ENDBRANCH   8   9
BRANCH   8  25
ATOM     25  C   UNL A   1      29.068  29.993  23.099  1.00  0.00    -0.023 A 
ATOM     26  C   UNL A   1      28.556  29.929  21.795  1.00  0.00     0.005 A 
ATOM     27  C   UNL A   1      29.000  31.243  23.755  1.00  0.00     0.005 A 
ATOM     28  C   UNL A   1      28.158  31.089  21.120  1.00  0.00     0.000 A 
ATOM     29  C   UNL A   1      28.599  32.400  23.084  1.00  0.00     0.000 A 
ATOM     30  C   UNL A   1      28.210  32.327  21.754  1.00  0.00     0.000 A 
ENDBRANCH   8  25
ENDBRANCH   6   8
ENDBRANCH   5   6
ENDBRANCH   4   5
ENDBRANCH   3   4
ENDBRANCH   2   3
ENDBRANCH   1   2
BRANCH   1  31
ATOM     31  C   UNL A   1      35.912  32.414  27.917  1.00  0.00     0.188 C 
BRANCH  31  32
ATOM     32  O   UNL A   1      34.943  33.391  27.549  1.00  0.00    -0.376 OA
BRANCH  32  33
ATOM     33  C   UNL A   1      34.908  34.514  28.438  1.00  0.00     0.202 C 
BRANCH  33  34
ATOM     34  C   UNL A   1      34.055  34.253  29.688  1.00  0.00     0.261 C 
BRANCH  34  35
ATOM     35  O   UNL A   1      34.804  34.261  30.923  1.00  0.00    -0.460 OA
BRANCH  35  36
ATOM     36  C   UNL A   1      34.758  33.122  31.665  1.00  0.00     0.338 C 
ATOM     37  O   UNL A   1      33.829  32.706  32.333  1.00  0.00    -0.246 OA
BRANCH  36  38
ATOM     38  C   UNL A   1      36.049  32.405  31.568  1.00  0.00     0.060 A 
ATOM     39  C   UNL A   1      37.167  33.022  31.008  1.00  0.00     0.016 A 
ATOM     40  C   UNL A   1      36.188  31.153  32.167  1.00  0.00     0.016 A 
ATOM     41  C   UNL A   1      38.404  32.360  31.037  1.00  0.00     0.010 A 
ATOM     42  C   UNL A   1      37.374  30.446  32.103  1.00  0.00     0.010 A 
ATOM     43  C   UNL A   1      38.503  31.068  31.580  1.00  0.00    -0.014 A 
BRANCH  43  44
ATOM     44  C   UNL A   1      39.795  30.407  31.825  1.00  0.00     0.031 A 
ATOM     45  C   UNL A   1      40.687  30.839  32.937  1.00  0.00     0.074 A 
ATOM     46  C   UNL A   1      40.230  29.526  30.905  1.00  0.00     0.049 A 
ATOM     47  N   UNL A   1      41.743  30.233  33.408  1.00  0.00    -0.248 NA
ATOM     48  C   UNL A   1      40.380  32.125  33.581  1.00  0.00     0.031 C 
ATOM     49  C   UNL A   1      39.525  29.187  29.664  1.00  0.00     0.029 A 
ATOM     50  N   UNL A   1      41.379  28.786  30.849  1.00  0.00    -0.354 N 
ATOM     51  C   UNL A   1      42.192  31.027  34.451  1.00  0.00     0.074 A 
ATOM     52  C   UNL A   1      41.352  32.205  34.482  1.00  0.00     0.031 C 
ATOM     53  C   UNL A   1      40.262  28.312  28.967  1.00  0.00     0.029 A 
ATOM     54  C   UNL A   1      41.453  27.981  29.741  1.00  0.00     0.049 A 
ATOM     55  H   UNL A   1      42.082  28.827  31.536  1.00  0.00     0.167 HD
ATOM     56  C   UNL A   1      43.190  30.753  35.321  1.00  0.00     0.031 A 
ATOM     57  C   UNL A   1      42.347  27.029  29.420  1.00  0.00     0.031 A 
ATOM     58  C   UNL A   1      44.033  29.590  35.206  1.00  0.00     0.049 A 
ATOM     59  C   UNL A   1      43.400  26.679  30.427  1.00  0.00     0.074 A 
ATOM     60  C   UNL A   1      44.984  29.118  36.092  1.00  0.00     0.029 A 
ATOM     61  N   UNL A   1      44.041  28.734  34.115  1.00  0.00    -0.354 N 
ATOM     62  N   UNL A   1      43.665  27.263  31.572  1.00  0.00    -0.248 NA
ATOM     63  C   UNL A   1      44.233  25.506  30.138  1.00  0.00     0.031 C 
ATOM     64  C   UNL A   1      45.608  28.011  35.507  1.00  0.00     0.029 A 
ATOM     65  C   UNL A   1      45.004  27.757  34.285  1.00  0.00     0.049 A 
ATOM     66  H   UNL A   1      43.447  28.811  33.332  1.00  0.00     0.167 HD
ATOM     67  C   UNL A   1      44.672  26.510  32.158  1.00  0.00     0.074 A 
ATOM     68  C   UNL A   1      44.963  25.423  31.244  1.00  0.00     0.031 C 
ATOM     69  C   UNL A   1      45.289  26.698  33.349  1.00  0.00     0.031 A 
BRANCH  56  70
ATOM     70  C   UNL A   1      43.385  31.671  36.495  1.00  0.00    -0.014 A 
ATOM     71  C   UNL A   1      44.386  32.653  36.479  1.00  0.00     0.009 A 
ATOM     72  C   UNL A   1      42.646  31.477  37.676  1.00  0.00     0.009 A 
ATOM     73  C   UNL A   1      44.649  33.415  37.622  1.00  0.00     0.001 A 
ATOM     74  C   UNL A   1      42.894  32.256  38.807  1.00  0.00     0.001 A 
ATOM     75  C   UNL A   1      43.902  33.218  38.782  1.00  0.00     0.000 A 
ENDBRANCH  56  70
BRANCH  57  76
ATOM     76  C   UNL A   1      42.136  26.245  28.178  1.00  0.00    -0.014 A 
ATOM     77  C   UNL A   1      41.399  25.050  28.197  1.00  0.00     0.009 A 
ATOM     78  C   UNL A   1      42.780  26.627  26.992  1.00  0.00     0.009 A 
ATOM     79  C   UNL A   1      41.323  24.249  27.055  1.00  0.00     0.001 A 
ATOM     80  C   UNL A   1      42.687  25.834  25.847  1.00  0.00     0.001 A 
ATOM     81  C   UNL A   1      41.966  24.642  25.882  1.00  0.00     0.000 A 
ENDBRANCH  57  76
BRANCH  69  82
ATOM     82  C   UNL A   1      46.360  25.718  33.736  1.00  0.00    -0.014 A 
ATOM     83  C   UNL A   1      47.683  25.931  33.321  1.00  0.00     0.009 A 
ATOM     84  C   UNL A   1      46.037  24.536  34.417  1.00  0.00     0.009 A 
ATOM     85  C   UNL A   1      48.662  24.967  33.564  1.00  0.00     0.001 A 
ATOM     86  C   UNL A   1      47.024  23.586  34.683  1.00  0.00     0.001 A 
ATOM     87  C   UNL A   1      48.332  23.797  34.247  1.00  0.00     0.000 A 
ENDBRANCH  69  82
ENDBRANCH  43  44
ENDBRANCH  36  38
ENDBRANCH  35  36
ENDBRANCH  34  35
ENDBRANCH  33  34
ENDBRANCH  32  33
ENDBRANCH  31  32
ENDBRANCH   1  31
TORSDOF 21
ENDMDL
