MODEL 1
REMARK VINA RESULT:     -10.7      0.000      0.000
REMARK SMILES C[C@@H](C(=O)OCCOCCOCCOC(=O)c1ccc(-c2c3nc(c(-c4ccccc4)c4ccc([nH]4)c(-c4ccccc4)c4nc(c(-c5ccccc5)c5ccc2[nH]5)C=C4)C=C3)cc1)c1cc(/C=C/S(C)(=O)=O)cc(C(=O)c2ccccc2)c1
REMARK SMILES IDX 9 1 8 2 7 3 6 4 5 5 3 6 4 7 2 8 1 9 65 10 66 11 84 12 67 13
REMARK SMILES IDX 75 14 74 15 68 16 69 17 70 18 71 19 72 20 73 21 76 22 77 23
REMARK SMILES IDX 78 24 79 25 83 26 80 27 82 28 81 29 10 30 11 31 12 32 13 33
REMARK SMILES IDX 14 34 15 35 16 36 17 37 18 38 64 39 19 40 63 41 20 42 21 43
REMARK SMILES IDX 22 44 57 45 23 46 62 47 56 48 58 49 24 50 61 51 55 52 54 53
REMARK SMILES IDX 25 55 47 56 32 57 46 58 33 59 36 60 45 61 59 62 34 63 35 64
REMARK SMILES IDX 44 66 60 67 37 68 26 69 27 70 31 71 28 72 30 73 29 74 48 75
REMARK SMILES IDX 49 76 53 77 50 78 52 79 51 80 38 81 39 82 43 83 40 84 42 85
REMARK SMILES IDX 41 86
REMARK H PARENT 58 54 36 65
REMARK Flexibility Score: inf
ROOT
ATOM      1  C   UNL A   1      43.232  20.486  25.783  1.00  0.00     0.188 C 
ENDROOT
BRANCH   1   2
ATOM      2  O   UNL A   1      42.503  19.673  26.679  1.00  0.00    -0.376 OA
BRANCH   2   3
ATOM      3  C   UNL A   1      41.624  20.307  27.599  1.00  0.00     0.202 C 
BRANCH   3   4
ATOM      4  C   UNL A   1      41.420  21.830  27.554  1.00  0.00     0.261 C 
BRANCH   4   5
ATOM      5  O   UNL A   1      40.036  22.250  27.563  1.00  0.00    -0.463 OA
BRANCH   5   6
ATOM      6  C   UNL A   1      39.405  22.227  26.358  1.00  0.00     0.313 C 
ATOM      7  O   UNL A   1      39.558  21.324  25.539  1.00  0.00    -0.252 OA
BRANCH   6   8
ATOM      8  C   UNL A   1      38.405  23.384  26.127  1.00  0.00     0.126 C 
ATOM      9  C   UNL A   1      38.510  24.533  27.133  1.00  0.00     0.025 C 
BRANCH   8  10
ATOM     10  C   UNL A   1      36.990  22.872  25.803  1.00  0.00    -0.033 A 
ATOM     11  C   UNL A   1      36.665  21.568  25.383  1.00  0.00     0.012 A 
ATOM     12  C   UNL A   1      35.931  23.783  25.961  1.00  0.00     0.016 A 
ATOM     13  C   UNL A   1      35.336  21.195  25.074  1.00  0.00    -0.024 A 
ATOM     14  C   UNL A   1      34.613  23.464  25.619  1.00  0.00     0.023 A 
ATOM     15  C   UNL A   1      34.321  22.166  25.186  1.00  0.00     0.020 A 
BRANCH  13  16
ATOM     16  C   UNL A   1      34.948  19.838  24.619  1.00  0.00     0.020 C 
ATOM     17  C   UNL A   1      33.745  19.260  24.781  1.00  0.00     0.106 C 
BRANCH  17  18
ATOM     18  S   UNL A   1      33.514  17.584  24.347  1.00  0.00     0.168 S 
ATOM     19  C   UNL A   1      32.471  16.982  25.656  1.00  0.00     0.163 C 
ATOM     20  O   UNL A   1      32.738  17.533  23.131  1.00  0.00    -0.225 OA
ATOM     21  O   UNL A   1      34.776  16.869  24.462  1.00  0.00    -0.225 OA
ENDBRANCH  17  18
ENDBRANCH  13  16
BRANCH  14  22
ATOM     22  C   UNL A   1      33.521  24.482  25.737  1.00  0.00     0.193 C 
ATOM     23  O   UNL A   1      32.506  24.239  26.380  1.00  0.00    -0.289 OA
BRANCH  22  24
ATOM     24  C   UNL A   1      33.673  25.821  25.118  1.00  0.00     0.022 A 
ATOM     25  C   UNL A   1      33.538  25.938  23.733  1.00  0.00     0.012 A 
ATOM     26  C   UNL A   1      33.872  26.962  25.907  1.00  0.00     0.012 A 
ATOM     27  C   UNL A   1      33.546  27.202  23.140  1.00  0.00     0.001 A 
ATOM     28  C   UNL A   1      33.872  28.223  25.309  1.00  0.00     0.001 A 
ATOM     29  C   UNL A   1      33.700  28.343  23.930  1.00  0.00     0.000 A 
ENDBRANCH  22  24
ENDBRANCH  14  22
ENDBRANCH   8  10
ENDBRANCH   6   8
ENDBRANCH   5   6
ENDBRANCH   4   5
ENDBRANCH   3   4
ENDBRANCH   2   3
ENDBRANCH   1   2
BRANCH   1  30
ATOM     30  C   UNL A   1      44.420  19.881  25.011  1.00  0.00     0.188 C 
BRANCH  30  31
ATOM     31  O   UNL A   1      45.701  20.454  25.095  1.00  0.00    -0.376 OA
BRANCH  31  32
ATOM     32  C   UNL A   1      45.833  21.867  25.171  1.00  0.00     0.202 C 
BRANCH  32  33
ATOM     33  C   UNL A   1      45.344  22.857  24.092  1.00  0.00     0.261 C 
BRANCH  33  34
ATOM     34  O   UNL A   1      44.419  23.876  24.501  1.00  0.00    -0.460 OA
BRANCH  34  35
ATOM     35  C   UNL A   1      44.994  24.988  25.027  1.00  0.00     0.338 C 
ATOM     36  O   UNL A   1      46.064  25.489  24.724  1.00  0.00    -0.246 OA
BRANCH  35  37
ATOM     37  C   UNL A   1      44.045  25.693  25.904  1.00  0.00     0.060 A 
ATOM     38  C   UNL A   1      44.292  27.037  26.191  1.00  0.00     0.016 A 
ATOM     39  C   UNL A   1      43.044  25.007  26.587  1.00  0.00     0.016 A 
ATOM     40  C   UNL A   1      43.558  27.688  27.169  1.00  0.00     0.010 A 
ATOM     41  C   UNL A   1      42.320  25.668  27.593  1.00  0.00     0.010 A 
ATOM     42  C   UNL A   1      42.606  27.004  27.923  1.00  0.00    -0.014 A 
BRANCH  42  43
ATOM     43  C   UNL A   1      42.086  27.673  29.144  1.00  0.00     0.031 A 
ATOM     44  C   UNL A   1      40.790  28.445  29.079  1.00  0.00     0.074 A 
ATOM     45  C   UNL A   1      42.647  27.442  30.348  1.00  0.00     0.049 A 
ATOM     46  N   UNL A   1      40.159  29.089  30.028  1.00  0.00    -0.248 NA
ATOM     47  C   UNL A   1      40.097  28.471  27.779  1.00  0.00     0.031 C 
ATOM     48  C   UNL A   1      43.790  26.560  30.605  1.00  0.00     0.029 A 
ATOM     49  N   UNL A   1      42.306  27.913  31.591  1.00  0.00    -0.354 N 
ATOM     50  C   UNL A   1      38.989  29.566  29.450  1.00  0.00     0.074 A 
ATOM     51  C   UNL A   1      39.007  29.168  28.062  1.00  0.00     0.031 C 
ATOM     52  C   UNL A   1      44.044  26.548  31.923  1.00  0.00     0.029 A 
ATOM     53  C   UNL A   1      43.150  27.491  32.589  1.00  0.00     0.049 A 
ATOM     54  H   UNL A   1      41.529  28.496  31.752  1.00  0.00     0.167 HD
ATOM     55  C   UNL A   1      37.994  30.290  30.016  1.00  0.00     0.031 A 
ATOM     56  C   UNL A   1      43.240  27.870  33.878  1.00  0.00     0.031 A 
ATOM     57  C   UNL A   1      37.999  30.750  31.377  1.00  0.00     0.049 A 
ATOM     58  C   UNL A   1      42.279  28.893  34.412  1.00  0.00     0.074 A 
ATOM     59  C   UNL A   1      37.084  31.572  32.012  1.00  0.00     0.029 A 
ATOM     60  N   UNL A   1      38.980  30.447  32.306  1.00  0.00    -0.354 N 
ATOM     61  N   UNL A   1      41.223  29.416  33.837  1.00  0.00    -0.248 NA
ATOM     62  C   UNL A   1      42.533  29.393  35.771  1.00  0.00     0.031 C 
ATOM     63  C   UNL A   1      37.567  31.849  33.294  1.00  0.00     0.029 A 
ATOM     64  C   UNL A   1      38.733  31.128  33.487  1.00  0.00     0.049 A 
ATOM     65  H   UNL A   1      39.738  29.840  32.151  1.00  0.00     0.167 HD
ATOM     66  C   UNL A   1      40.674  30.285  34.771  1.00  0.00     0.074 A 
ATOM     67  C   UNL A   1      41.506  30.213  35.953  1.00  0.00     0.031 C 
ATOM     68  C   UNL A   1      39.572  31.067  34.656  1.00  0.00     0.031 A 
BRANCH  55  69
ATOM     69  C   UNL A   1      36.868  30.730  29.124  1.00  0.00    -0.014 A 
ATOM     70  C   UNL A   1      35.858  29.847  28.714  1.00  0.00     0.009 A 
ATOM     71  C   UNL A   1      36.807  32.074  28.721  1.00  0.00     0.009 A 
ATOM     72  C   UNL A   1      34.816  30.302  27.902  1.00  0.00     0.001 A 
ATOM     73  C   UNL A   1      35.754  32.529  27.928  1.00  0.00     0.001 A 
ATOM     74  C   UNL A   1      34.762  31.642  27.515  1.00  0.00     0.000 A 
ENDBRANCH  55  69
BRANCH  56  75
ATOM     75  C   UNL A   1      44.358  27.362  34.719  1.00  0.00    -0.014 A 
ATOM     76  C   UNL A   1      45.598  28.014  34.750  1.00  0.00     0.009 A 
ATOM     77  C   UNL A   1      44.185  26.198  35.488  1.00  0.00     0.009 A 
ATOM     78  C   UNL A   1      46.643  27.504  35.527  1.00  0.00     0.001 A 
ATOM     79  C   UNL A   1      45.218  25.711  36.289  1.00  0.00     0.001 A 
ATOM     80  C   UNL A   1      46.450  26.360  36.300  1.00  0.00     0.000 A 
ENDBRANCH  56  75
BRANCH  68  81
ATOM     81  C   UNL A   1      39.176  31.890  35.850  1.00  0.00    -0.014 A 
ATOM     82  C   UNL A   1      38.163  31.472  36.726  1.00  0.00     0.009 A 
ATOM     83  C   UNL A   1      39.865  33.082  36.128  1.00  0.00     0.009 A 
ATOM     84  C   UNL A   1      37.826  32.248  37.837  1.00  0.00     0.001 A 
ATOM     85  C   UNL A   1      39.550  33.838  37.257  1.00  0.00     0.001 A 
ATOM     86  C   UNL A   1      38.523  33.427  38.104  1.00  0.00     0.000 A 
ENDBRANCH  68  81
ENDBRANCH  42  43
ENDBRANCH  35  37
ENDBRANCH  34  35
ENDBRANCH  33  34
ENDBRANCH  32  33
ENDBRANCH  31  32
ENDBRANCH  30  31
ENDBRANCH   1  30
TORSDOF 22
ENDMDL
MODEL 2
REMARK VINA RESULT:     -10.2      1.592      3.834
REMARK SMILES C[C@@H](C(=O)OCCOCCOCCOC(=O)c1ccc(-c2c3nc(c(-c4ccccc4)c4ccc([nH]4)c(-c4ccccc4)c4nc(c(-c5ccccc5)c5ccc2[nH]5)C=C4)C=C3)cc1)c1cc(/C=C/S(C)(=O)=O)cc(C(=O)c2ccccc2)c1
REMARK SMILES IDX 9 1 8 2 7 3 6 4 5 5 3 6 4 7 2 8 1 9 65 10 66 11 84 12 67 13
REMARK SMILES IDX 75 14 74 15 68 16 69 17 70 18 71 19 72 20 73 21 76 22 77 23
REMARK SMILES IDX 78 24 79 25 83 26 80 27 82 28 81 29 10 30 11 31 12 32 13 33
REMARK SMILES IDX 14 34 15 35 16 36 17 37 18 38 64 39 19 40 63 41 20 42 21 43
REMARK SMILES IDX 22 44 57 45 23 46 62 47 56 48 58 49 24 50 61 51 55 52 54 53
REMARK SMILES IDX 25 55 47 56 32 57 46 58 33 59 36 60 45 61 59 62 34 63 35 64
REMARK SMILES IDX 44 66 60 67 37 68 26 69 27 70 31 71 28 72 30 73 29 74 48 75
REMARK SMILES IDX 49 76 53 77 50 78 52 79 51 80 38 81 39 82 43 83 40 84 42 85
REMARK SMILES IDX 41 86
REMARK H PARENT 58 54 36 65
REMARK Flexibility Score: inf
ROOT
ATOM      1  C   UNL A   1      42.981  21.470  26.486  1.00  0.00     0.188 C 
ENDROOT
BRANCH   1   2
ATOM      2  O   UNL A   1      42.015  20.804  27.271  1.00  0.00    -0.376 OA
BRANCH   2   3
ATOM      3  C   UNL A   1      41.057  21.589  27.968  1.00  0.00     0.202 C 
BRANCH   3   4
ATOM      4  C   UNL A   1      40.182  22.600  27.210  1.00  0.00     0.261 C 
BRANCH   4   5
ATOM      5  O   UNL A   1      39.461  22.044  26.085  1.00  0.00    -0.463 OA
BRANCH   5   6
ATOM      6  C   UNL A   1      38.155  22.407  25.984  1.00  0.00     0.313 C 
ATOM      7  O   UNL A   1      37.769  23.567  26.117  1.00  0.00    -0.252 OA
BRANCH   6   8
ATOM      8  C   UNL A   1      37.191  21.261  25.601  1.00  0.00     0.126 C 
ATOM      9  C   UNL A   1      37.853  20.073  24.898  1.00  0.00     0.025 C 
BRANCH   8  10
ATOM     10  C   UNL A   1      35.878  21.784  24.992  1.00  0.00    -0.033 A 
ATOM     11  C   UNL A   1      35.535  23.140  24.823  1.00  0.00     0.012 A 
ATOM     12  C   UNL A   1      34.953  20.824  24.549  1.00  0.00     0.016 A 
ATOM     13  C   UNL A   1      34.288  23.529  24.283  1.00  0.00    -0.024 A 
ATOM     14  C   UNL A   1      33.692  21.171  24.054  1.00  0.00     0.023 A 
ATOM     15  C   UNL A   1      33.370  22.526  23.915  1.00  0.00     0.020 A 
BRANCH  13  16
ATOM     16  C   UNL A   1      33.879  24.943  24.095  1.00  0.00     0.020 C 
ATOM     17  C   UNL A   1      32.617  25.400  24.009  1.00  0.00     0.106 C 
BRANCH  17  18
ATOM     18  S   UNL A   1      32.319  27.072  23.602  1.00  0.00     0.168 S 
ATOM     19  C   UNL A   1      31.221  26.946  22.209  1.00  0.00     0.163 C 
ATOM     20  O   UNL A   1      31.568  27.674  24.679  1.00  0.00    -0.225 OA
ATOM     21  O   UNL A   1      33.544  27.684  23.109  1.00  0.00    -0.225 OA
ENDBRANCH  17  18
ENDBRANCH  13  16
BRANCH  14  22
ATOM     22  C   UNL A   1      32.707  20.117  23.654  1.00  0.00     0.193 C 
ATOM     23  O   UNL A   1      31.740  20.398  22.954  1.00  0.00    -0.289 OA
BRANCH  22  24
ATOM     24  C   UNL A   1      32.913  18.705  24.057  1.00  0.00     0.022 A 
ATOM     25  C   UNL A   1      33.537  17.836  23.159  1.00  0.00     0.012 A 
ATOM     26  C   UNL A   1      32.562  18.262  25.339  1.00  0.00     0.012 A 
ATOM     27  C   UNL A   1      33.860  16.539  23.562  1.00  0.00     0.001 A 
ATOM     28  C   UNL A   1      32.894  16.967  25.738  1.00  0.00     0.001 A 
ATOM     29  C   UNL A   1      33.549  16.110  24.853  1.00  0.00     0.000 A 
ENDBRANCH  22  24
ENDBRANCH  14  22
ENDBRANCH   8  10
ENDBRANCH   6   8
ENDBRANCH   5   6
ENDBRANCH   4   5
ENDBRANCH   3   4
ENDBRANCH   2   3
ENDBRANCH   1   2
BRANCH   1  30
ATOM     30  C   UNL A   1      43.750  20.684  25.407  1.00  0.00     0.188 C 
BRANCH  30  31
ATOM     31  O   UNL A   1      45.155  20.716  25.354  1.00  0.00    -0.376 OA
BRANCH  31  32
ATOM     32  C   UNL A   1      45.822  21.964  25.216  1.00  0.00     0.202 C 
BRANCH  32  33
ATOM     33  C   UNL A   1      45.532  23.000  24.111  1.00  0.00     0.261 C 
BRANCH  33  34
ATOM     34  O   UNL A   1      44.582  24.035  24.408  1.00  0.00    -0.460 OA
BRANCH  34  35
ATOM     35  C   UNL A   1      45.114  25.151  24.969  1.00  0.00     0.338 C 
ATOM     36  O   UNL A   1      46.178  25.686  24.704  1.00  0.00    -0.246 OA
BRANCH  35  37
ATOM     37  C   UNL A   1      44.124  25.816  25.833  1.00  0.00     0.060 A 
ATOM     38  C   UNL A   1      44.307  27.170  26.118  1.00  0.00     0.016 A 
ATOM     39  C   UNL A   1      43.148  25.087  26.507  1.00  0.00     0.016 A 
ATOM     40  C   UNL A   1      43.533  27.790  27.086  1.00  0.00     0.010 A 
ATOM     41  C   UNL A   1      42.383  25.717  27.503  1.00  0.00     0.010 A 
ATOM     42  C   UNL A   1      42.606  27.065  27.832  1.00  0.00    -0.014 A 
BRANCH  42  43
ATOM     43  C   UNL A   1      42.042  27.714  29.045  1.00  0.00     0.031 A 
ATOM     44  C   UNL A   1      40.704  28.410  28.967  1.00  0.00     0.074 A 
ATOM     45  C   UNL A   1      42.610  27.525  30.253  1.00  0.00     0.049 A 
ATOM     46  N   UNL A   1      40.033  29.024  29.909  1.00  0.00    -0.248 NA
ATOM     47  C   UNL A   1      40.017  28.385  27.664  1.00  0.00     0.031 C 
ATOM     48  C   UNL A   1      43.800  26.713  30.523  1.00  0.00     0.029 A 
ATOM     49  N   UNL A   1      42.236  27.986  31.490  1.00  0.00    -0.354 N 
ATOM     50  C   UNL A   1      38.839  29.428  29.321  1.00  0.00     0.074 A 
ATOM     51  C   UNL A   1      38.887  29.020  27.936  1.00  0.00     0.031 C 
ATOM     52  C   UNL A   1      44.048  26.726  31.842  1.00  0.00     0.029 A 
ATOM     53  C   UNL A   1      43.099  27.622  32.495  1.00  0.00     0.049 A 
ATOM     54  H   UNL A   1      41.427  28.526  31.644  1.00  0.00     0.167 HD
ATOM     55  C   UNL A   1      37.802  30.098  29.876  1.00  0.00     0.031 A 
ATOM     56  C   UNL A   1      43.161  28.016  33.781  1.00  0.00     0.031 A 
ATOM     57  C   UNL A   1      37.774  30.570  31.234  1.00  0.00     0.049 A 
ATOM     58  C   UNL A   1      42.139  28.987  34.303  1.00  0.00     0.074 A 
ATOM     59  C   UNL A   1      36.811  31.343  31.857  1.00  0.00     0.029 A 
ATOM     60  N   UNL A   1      38.767  30.331  32.170  1.00  0.00    -0.354 N 
ATOM     61  N   UNL A   1      41.059  29.444  33.719  1.00  0.00    -0.248 NA
ATOM     62  C   UNL A   1      42.359  29.513  35.658  1.00  0.00     0.031 C 
ATOM     63  C   UNL A   1      37.271  31.658  33.139  1.00  0.00     0.029 A 
ATOM     64  C   UNL A   1      38.475  31.006  33.343  1.00  0.00     0.049 A 
ATOM     65  H   UNL A   1      39.560  29.767  32.023  1.00  0.00     0.167 HD
ATOM     66  C   UNL A   1      40.456  30.287  34.643  1.00  0.00     0.074 A 
ATOM     67  C   UNL A   1      41.285  30.273  35.828  1.00  0.00     0.031 C 
ATOM     68  C   UNL A   1      39.311  31.003  34.517  1.00  0.00     0.031 A 
BRANCH  55  69
ATOM     69  C   UNL A   1      36.657  30.466  28.977  1.00  0.00    -0.014 A 
ATOM     70  C   UNL A   1      35.750  29.506  28.500  1.00  0.00     0.009 A 
ATOM     71  C   UNL A   1      36.469  31.814  28.632  1.00  0.00     0.009 A 
ATOM     72  C   UNL A   1      34.685  29.893  27.683  1.00  0.00     0.001 A 
ATOM     73  C   UNL A   1      35.393  32.199  27.834  1.00  0.00     0.001 A 
ATOM     74  C   UNL A   1      34.505  31.238  27.355  1.00  0.00     0.000 A 
ENDBRANCH  55  69
BRANCH  56  75
ATOM     75  C   UNL A   1      44.302  27.581  34.632  1.00  0.00    -0.014 A 
ATOM     76  C   UNL A   1      45.432  28.392  34.801  1.00  0.00     0.009 A 
ATOM     77  C   UNL A   1      44.265  26.328  35.268  1.00  0.00     0.009 A 
ATOM     78  C   UNL A   1      46.505  27.951  35.583  1.00  0.00     0.001 A 
ATOM     79  C   UNL A   1      45.321  25.906  36.076  1.00  0.00     0.001 A 
ATOM     80  C   UNL A   1      46.445  26.714  36.225  1.00  0.00     0.000 A 
ENDBRANCH  56  75
BRANCH  68  81
ATOM     81  C   UNL A   1      38.863  31.813  35.702  1.00  0.00    -0.014 A 
ATOM     82  C   UNL A   1      38.097  31.245  36.731  1.00  0.00     0.009 A 
ATOM     83  C   UNL A   1      39.257  33.156  35.811  1.00  0.00     0.009 A 
ATOM     84  C   UNL A   1      37.708  32.015  37.829  1.00  0.00     0.001 A 
ATOM     85  C   UNL A   1      38.896  33.914  36.925  1.00  0.00     0.001 A 
ATOM     86  C   UNL A   1      38.112  33.346  37.927  1.00  0.00     0.000 A 
ENDBRANCH  68  81
ENDBRANCH  42  43
ENDBRANCH  35  37
ENDBRANCH  34  35
ENDBRANCH  33  34
ENDBRANCH  32  33
ENDBRANCH  31  32
ENDBRANCH  30  31
ENDBRANCH   1  30
TORSDOF 22
ENDMDL
MODEL 3
REMARK VINA RESULT:     -10.0      2.113      4.271
REMARK SMILES C[C@@H](C(=O)OCCOCCOCCOC(=O)c1ccc(-c2c3nc(c(-c4ccccc4)c4ccc([nH]4)c(-c4ccccc4)c4nc(c(-c5ccccc5)c5ccc2[nH]5)C=C4)C=C3)cc1)c1cc(/C=C/S(C)(=O)=O)cc(C(=O)c2ccccc2)c1
REMARK SMILES IDX 9 1 8 2 7 3 6 4 5 5 3 6 4 7 2 8 1 9 65 10 66 11 84 12 67 13
REMARK SMILES IDX 75 14 74 15 68 16 69 17 70 18 71 19 72 20 73 21 76 22 77 23
REMARK SMILES IDX 78 24 79 25 83 26 80 27 82 28 81 29 10 30 11 31 12 32 13 33
REMARK SMILES IDX 14 34 15 35 16 36 17 37 18 38 64 39 19 40 63 41 20 42 21 43
REMARK SMILES IDX 22 44 57 45 23 46 62 47 56 48 58 49 24 50 61 51 55 52 54 53
REMARK SMILES IDX 25 55 47 56 32 57 46 58 33 59 36 60 45 61 59 62 34 63 35 64
REMARK SMILES IDX 44 66 60 67 37 68 26 69 27 70 31 71 28 72 30 73 29 74 48 75
REMARK SMILES IDX 49 76 53 77 50 78 52 79 51 80 38 81 39 82 43 83 40 84 42 85
REMARK SMILES IDX 41 86
REMARK H PARENT 58 54 36 65
REMARK Flexibility Score: inf
ROOT
ATOM      1  C   UNL A   1      43.059  21.177  26.626  1.00  0.00     0.188 C 
ENDROOT
BRANCH   1   2
ATOM      2  O   UNL A   1      42.162  20.089  26.715  1.00  0.00    -0.376 OA
BRANCH   2   3
ATOM      3  C   UNL A   1      40.805  20.362  27.037  1.00  0.00     0.202 C 
BRANCH   3   4
ATOM      4  C   UNL A   1      40.279  21.806  27.027  1.00  0.00     0.261 C 
BRANCH   4   5
ATOM      5  O   UNL A   1      39.629  22.199  25.795  1.00  0.00    -0.463 OA
BRANCH   5   6
ATOM      6  C   UNL A   1      38.293  22.435  25.883  1.00  0.00     0.313 C 
ATOM      7  O   UNL A   1      37.824  23.529  26.187  1.00  0.00    -0.252 OA
BRANCH   6   8
ATOM      8  C   UNL A   1      37.396  21.241  25.483  1.00  0.00     0.126 C 
ATOM      9  C   UNL A   1      38.113  20.128  24.714  1.00  0.00     0.025 C 
BRANCH   8  10
ATOM     10  C   UNL A   1      36.032  21.697  24.932  1.00  0.00    -0.033 A 
ATOM     11  C   UNL A   1      35.779  22.917  24.276  1.00  0.00     0.012 A 
ATOM     12  C   UNL A   1      34.955  20.807  25.080  1.00  0.00     0.016 A 
ATOM     13  C   UNL A   1      34.483  23.267  23.833  1.00  0.00    -0.024 A 
ATOM     14  C   UNL A   1      33.652  21.139  24.697  1.00  0.00     0.023 A 
ATOM     15  C   UNL A   1      33.425  22.367  24.064  1.00  0.00     0.020 A 
BRANCH  13  16
ATOM     16  C   UNL A   1      34.167  24.544  23.147  1.00  0.00     0.020 C 
ATOM     17  C   UNL A   1      33.638  25.642  23.716  1.00  0.00     0.106 C 
BRANCH  17  18
ATOM     18  S   UNL A   1      33.157  26.997  22.724  1.00  0.00     0.168 S 
ATOM     19  C   UNL A   1      31.646  26.423  21.984  1.00  0.00     0.163 C 
ATOM     20  O   UNL A   1      32.811  28.096  23.594  1.00  0.00    -0.225 OA
ATOM     21  O   UNL A   1      34.110  27.172  21.638  1.00  0.00    -0.225 OA
ENDBRANCH  17  18
ENDBRANCH  13  16
BRANCH  14  22
ATOM     22  C   UNL A   1      32.517  20.191  24.931  1.00  0.00     0.193 C 
ATOM     23  O   UNL A   1      31.407  20.609  25.240  1.00  0.00    -0.289 OA
BRANCH  22  24
ATOM     24  C   UNL A   1      32.707  18.732  24.744  1.00  0.00     0.022 A 
ATOM     25  C   UNL A   1      33.001  18.253  23.464  1.00  0.00     0.012 A 
ATOM     26  C   UNL A   1      32.672  17.854  25.835  1.00  0.00     0.012 A 
ATOM     27  C   UNL A   1      33.313  16.904  23.285  1.00  0.00     0.001 A 
ATOM     28  C   UNL A   1      32.991  16.508  25.650  1.00  0.00     0.001 A 
ATOM     29  C   UNL A   1      33.319  16.036  24.378  1.00  0.00     0.000 A 
ENDBRANCH  22  24
ENDBRANCH  14  22
ENDBRANCH   8  10
ENDBRANCH   6   8
ENDBRANCH   5   6
ENDBRANCH   4   5
ENDBRANCH   3   4
ENDBRANCH   2   3
ENDBRANCH   1   2
BRANCH   1  30
ATOM     30  C   UNL A   1      43.926  21.338  25.363  1.00  0.00     0.188 C 
BRANCH  30  31
ATOM     31  O   UNL A   1      45.098  22.115  25.387  1.00  0.00    -0.376 OA
BRANCH  31  32
ATOM     32  C   UNL A   1      44.999  23.528  25.507  1.00  0.00     0.202 C 
BRANCH  32  33
ATOM     33  C   UNL A   1      43.813  24.374  25.001  1.00  0.00     0.261 C 
BRANCH  33  34
ATOM     34  O   UNL A   1      42.687  24.527  25.880  1.00  0.00    -0.460 OA
BRANCH  34  35
ATOM     35  C   UNL A   1      42.122  25.762  25.868  1.00  0.00     0.338 C 
ATOM     36  O   UNL A   1      41.467  26.275  24.976  1.00  0.00    -0.246 OA
BRANCH  35  37
ATOM     37  C   UNL A   1      42.201  26.377  27.204  1.00  0.00     0.060 A 
ATOM     38  C   UNL A   1      41.210  26.057  28.133  1.00  0.00     0.016 A 
ATOM     39  C   UNL A   1      43.113  27.392  27.479  1.00  0.00     0.016 A 
ATOM     40  C   UNL A   1      41.115  26.761  29.323  1.00  0.00     0.010 A 
ATOM     41  C   UNL A   1      42.997  28.116  28.678  1.00  0.00     0.010 A 
ATOM     42  C   UNL A   1      41.964  27.834  29.588  1.00  0.00    -0.014 A 
BRANCH  42  43
ATOM     43  C   UNL A   1      41.611  28.725  30.724  1.00  0.00     0.031 A 
ATOM     44  C   UNL A   1      40.453  29.686  30.589  1.00  0.00     0.074 A 
ATOM     45  C   UNL A   1      42.180  28.556  31.934  1.00  0.00     0.049 A 
ATOM     46  N   UNL A   1      39.975  30.537  31.462  1.00  0.00    -0.248 NA
ATOM     47  C   UNL A   1      39.717  29.664  29.313  1.00  0.00     0.031 C 
ATOM     48  C   UNL A   1      43.177  27.538  32.277  1.00  0.00     0.029 A 
ATOM     49  N   UNL A   1      41.972  29.227  33.114  1.00  0.00    -0.354 N 
ATOM     50  C   UNL A   1      38.871  31.123  30.854  1.00  0.00     0.074 A 
ATOM     51  C   UNL A   1      38.765  30.559  29.528  1.00  0.00     0.031 C 
ATOM     52  C   UNL A   1      43.483  27.647  33.580  1.00  0.00     0.029 A 
ATOM     53  C   UNL A   1      42.781  28.799  34.138  1.00  0.00     0.049 A 
ATOM     54  H   UNL A   1      41.307  29.945  33.216  1.00  0.00     0.167 HD
ATOM     55  C   UNL A   1      38.031  32.065  31.344  1.00  0.00     0.031 A 
ATOM     56  C   UNL A   1      42.987  29.314  35.365  1.00  0.00     0.031 A 
ATOM     57  C   UNL A   1      38.168  32.683  32.634  1.00  0.00     0.049 A 
ATOM     58  C   UNL A   1      42.225  30.539  35.785  1.00  0.00     0.074 A 
ATOM     59  C   UNL A   1      37.424  33.715  33.178  1.00  0.00     0.029 A 
ATOM     60  N   UNL A   1      39.128  32.340  33.572  1.00  0.00    -0.354 N 
ATOM     61  N   UNL A   1      41.242  31.153  35.171  1.00  0.00    -0.248 NA
ATOM     62  C   UNL A   1      42.615  31.155  37.061  1.00  0.00     0.031 C 
ATOM     63  C   UNL A   1      38.001  34.066  34.402  1.00  0.00     0.029 A 
ATOM     64  C   UNL A   1      39.044  33.193  34.660  1.00  0.00     0.049 A 
ATOM     65  H   UNL A   1      39.772  31.603  33.479  1.00  0.00     0.167 HD
ATOM     66  C   UNL A   1      40.879  32.209  35.997  1.00  0.00     0.074 A 
ATOM     67  C   UNL A   1      41.740  32.148  37.159  1.00  0.00     0.031 C 
ATOM     68  C   UNL A   1      39.912  33.140  35.808  1.00  0.00     0.031 A 
BRANCH  55  69
ATOM     69  C   UNL A   1      36.951  32.570  30.429  1.00  0.00    -0.014 A 
ATOM     70  C   UNL A   1      37.193  33.574  29.479  1.00  0.00     0.009 A 
ATOM     71  C   UNL A   1      35.673  31.994  30.504  1.00  0.00     0.009 A 
ATOM     72  C   UNL A   1      36.167  34.000  28.633  1.00  0.00     0.001 A 
ATOM     73  C   UNL A   1      34.657  32.407  29.643  1.00  0.00     0.001 A 
ATOM     74  C   UNL A   1      34.903  33.413  28.711  1.00  0.00     0.000 A 
ENDBRANCH  55  69
BRANCH  56  75
ATOM     75  C   UNL A   1      44.044  28.739  36.239  1.00  0.00    -0.014 A 
ATOM     76  C   UNL A   1      45.344  29.261  36.247  1.00  0.00     0.009 A 
ATOM     77  C   UNL A   1      43.751  27.639  37.064  1.00  0.00     0.009 A 
ATOM     78  C   UNL A   1      46.330  28.687  37.055  1.00  0.00     0.001 A 
ATOM     79  C   UNL A   1      44.727  27.090  37.896  1.00  0.00     0.001 A 
ATOM     80  C   UNL A   1      46.019  27.609  37.884  1.00  0.00     0.000 A 
ENDBRANCH  56  75
BRANCH  68  81
ATOM     81  C   UNL A   1      39.705  34.159  36.894  1.00  0.00    -0.014 A 
ATOM     82  C   UNL A   1      38.950  33.866  38.039  1.00  0.00     0.009 A 
ATOM     83  C   UNL A   1      40.320  35.417  36.789  1.00  0.00     0.009 A 
ATOM     84  C   UNL A   1      38.787  34.825  39.042  1.00  0.00     0.001 A 
ATOM     85  C   UNL A   1      40.184  36.361  37.807  1.00  0.00     0.001 A 
ATOM     86  C   UNL A   1      39.408  36.069  38.927  1.00  0.00     0.000 A 
ENDBRANCH  68  81
ENDBRANCH  42  43
ENDBRANCH  35  37
ENDBRANCH  34  35
ENDBRANCH  33  34
ENDBRANCH  32  33
ENDBRANCH  31  32
ENDBRANCH  30  31
ENDBRANCH   1  30
TORSDOF 22
ENDMDL
