MODEL 1
REMARK VINA RESULT:     -10.0      0.000      0.000
REMARK SMILES C[C@@H](C(=O)OCCOCCOCCOC(=O)c1ccc(-c2c3nc(c(-c4ccccc4)c4ccc([nH]4)c(-c4ccccc4)c4nc(c(-c5ccccc5)c5ccc2[nH]5)C=C4)C=C3)cc1)c1ccc(Cc2ccco2)cc1F
REMARK SMILES IDX 9 1 8 2 7 3 6 4 5 5 3 6 4 7 2 8 1 9 65 10 66 11 76 12 67 13
REMARK SMILES IDX 75 14 77 15 68 16 69 17 70 18 71 19 74 20 72 21 73 22 10 23
REMARK SMILES IDX 11 24 12 25 13 26 14 27 15 28 16 29 17 30 18 31 64 32 19 33
REMARK SMILES IDX 63 34 20 35 21 36 22 37 57 38 23 39 62 40 56 41 58 42 24 43
REMARK SMILES IDX 61 44 55 45 54 46 25 48 47 49 32 50 46 51 33 52 36 53 45 54
REMARK SMILES IDX 59 55 34 56 35 57 44 59 60 60 37 61 26 62 27 63 31 64 28 65
REMARK SMILES IDX 30 66 29 67 48 68 49 69 53 70 50 71 52 72 51 73 38 74 39 75
REMARK SMILES IDX 43 76 40 77 42 78 41 79
REMARK H PARENT 58 47 36 58
REMARK Flexibility Score: inf
ROOT
ATOM      1  C   UNL A   1      40.436  19.787  26.119  1.00  0.00     0.188 C 
ENDROOT
BRANCH   1   2
ATOM      2  O   UNL A   1      40.164  21.148  26.427  1.00  0.00    -0.376 OA
BRANCH   2   3
ATOM      3  C   UNL A   1      39.087  21.801  25.762  1.00  0.00     0.202 C 
BRANCH   3   4
ATOM      4  C   UNL A   1      38.372  22.970  26.461  1.00  0.00     0.261 C 
BRANCH   4   5
ATOM      5  O   UNL A   1      37.258  23.554  25.745  1.00  0.00    -0.463 OA
BRANCH   5   6
ATOM      6  C   UNL A   1      36.168  22.756  25.581  1.00  0.00     0.313 C 
ATOM      7  O   UNL A   1      35.692  22.070  26.481  1.00  0.00    -0.252 OA
BRANCH   6   8
ATOM      8  C   UNL A   1      35.550  22.788  24.166  1.00  0.00     0.129 C 
ATOM      9  C   UNL A   1      36.480  22.980  22.965  1.00  0.00     0.025 C 
BRANCH   8  10
ATOM     10  C   UNL A   1      34.358  23.740  24.151  1.00  0.00     0.002 A 
ATOM     11  C   UNL A   1      34.410  25.021  24.723  1.00  0.00     0.008 A 
ATOM     12  C   UNL A   1      33.117  23.268  23.709  1.00  0.00     0.127 A 
ATOM     13  C   UNL A   1      33.239  25.751  24.940  1.00  0.00     0.005 A 
ATOM     14  C   UNL A   1      31.947  23.992  23.913  1.00  0.00     0.043 A 
ATOM     15  F   UNL A   1      33.029  22.061  23.134  1.00  0.00    -0.207 F 
ATOM     16  C   UNL A   1      31.994  25.220  24.582  1.00  0.00    -0.038 A 
BRANCH  16  17
ATOM     17  C   UNL A   1      30.721  25.850  25.105  1.00  0.00     0.111 C 
BRANCH  17  18
ATOM     18  C   UNL A   1      30.363  27.052  24.296  1.00  0.00     0.108 A 
ATOM     19  C   UNL A   1      29.322  27.338  23.430  1.00  0.00     0.046 A 
ATOM     20  O   UNL A   1      31.209  28.118  24.366  1.00  0.00    -0.469 OA
ATOM     21  C   UNL A   1      29.545  28.647  22.949  1.00  0.00     0.042 A 
ATOM     22  C   UNL A   1      30.708  29.075  23.543  1.00  0.00     0.195 A 
ENDBRANCH  17  18
ENDBRANCH  16  17
ENDBRANCH   8  10
ENDBRANCH   6   8
ENDBRANCH   5   6
ENDBRANCH   4   5
ENDBRANCH   3   4
ENDBRANCH   2   3
ENDBRANCH   1   2
BRANCH   1  23
ATOM     23  C   UNL A   1      41.878  19.264  26.257  1.00  0.00     0.188 C 
BRANCH  23  24
ATOM     24  O   UNL A   1      42.596  19.260  25.046  1.00  0.00    -0.376 OA
BRANCH  24  25
ATOM     25  C   UNL A   1      43.853  19.901  25.008  1.00  0.00     0.202 C 
BRANCH  25  26
ATOM     26  C   UNL A   1      44.015  21.287  25.657  1.00  0.00     0.261 C 
BRANCH  26  27
ATOM     27  O   UNL A   1      43.254  22.371  25.095  1.00  0.00    -0.460 OA
BRANCH  27  28
ATOM     28  C   UNL A   1      43.862  23.573  25.009  1.00  0.00     0.338 C 
ATOM     29  O   UNL A   1      44.701  23.913  24.181  1.00  0.00    -0.246 OA
BRANCH  28  30
ATOM     30  C   UNL A   1      43.224  24.505  25.966  1.00  0.00     0.060 A 
ATOM     31  C   UNL A   1      43.683  25.826  26.035  1.00  0.00     0.016 A 
ATOM     32  C   UNL A   1      42.205  24.074  26.820  1.00  0.00     0.016 A 
ATOM     33  C   UNL A   1      43.136  26.712  26.970  1.00  0.00     0.010 A 
ATOM     34  C   UNL A   1      41.673  24.959  27.770  1.00  0.00     0.010 A 
ATOM     35  C   UNL A   1      42.145  26.279  27.863  1.00  0.00    -0.014 A 
BRANCH  35  36
ATOM     36  C   UNL A   1      41.711  27.171  28.973  1.00  0.00     0.031 A 
ATOM     37  C   UNL A   1      42.504  27.206  30.246  1.00  0.00     0.074 A 
ATOM     38  C   UNL A   1      40.625  27.957  28.868  1.00  0.00     0.049 A 
ATOM     39  N   UNL A   1      42.289  27.902  31.334  1.00  0.00    -0.248 NA
ATOM     40  C   UNL A   1      43.681  26.328  30.304  1.00  0.00     0.031 C 
ATOM     41  C   UNL A   1      39.748  28.020  27.707  1.00  0.00     0.029 A 
ATOM     42  N   UNL A   1      40.078  28.856  29.756  1.00  0.00    -0.354 N 
ATOM     43  C   UNL A   1      43.283  27.522  32.223  1.00  0.00     0.074 A 
ATOM     44  C   UNL A   1      44.105  26.541  31.541  1.00  0.00     0.031 C 
ATOM     45  C   UNL A   1      38.784  28.922  27.948  1.00  0.00     0.029 A 
ATOM     46  C   UNL A   1      38.969  29.506  29.270  1.00  0.00     0.049 A 
ATOM     47  H   UNL A   1      40.446  29.018  30.654  1.00  0.00     0.167 HD
ATOM     48  C   UNL A   1      43.480  27.928  33.501  1.00  0.00     0.031 A 
ATOM     49  C   UNL A   1      38.182  30.458  29.813  1.00  0.00     0.031 A 
ATOM     50  C   UNL A   1      42.648  28.867  34.209  1.00  0.00     0.049 A 
ATOM     51  C   UNL A   1      38.433  30.907  31.226  1.00  0.00     0.074 A 
ATOM     52  C   UNL A   1      42.767  29.304  35.517  1.00  0.00     0.029 A 
ATOM     53  N   UNL A   1      41.537  29.502  33.678  1.00  0.00    -0.354 N 
ATOM     54  N   UNL A   1      39.378  30.536  32.054  1.00  0.00    -0.248 NA
ATOM     55  C   UNL A   1      37.489  31.885  31.789  1.00  0.00     0.031 C 
ATOM     56  C   UNL A   1      41.696  30.161  35.796  1.00  0.00     0.029 A 
ATOM     57  C   UNL A   1      40.950  30.311  34.640  1.00  0.00     0.049 A 
ATOM     58  H   UNL A   1      41.212  29.396  32.755  1.00  0.00     0.167 HD
ATOM     59  C   UNL A   1      39.133  31.223  33.236  1.00  0.00     0.074 A 
ATOM     60  C   UNL A   1      37.986  32.074  33.002  1.00  0.00     0.031 C 
ATOM     61  C   UNL A   1      39.790  31.135  34.419  1.00  0.00     0.031 A 
BRANCH  48  62
ATOM     62  C   UNL A   1      44.612  27.276  34.242  1.00  0.00    -0.014 A 
ATOM     63  C   UNL A   1      44.466  26.021  34.851  1.00  0.00     0.009 A 
ATOM     64  C   UNL A   1      45.842  27.946  34.342  1.00  0.00     0.009 A 
ATOM     65  C   UNL A   1      45.518  25.469  35.585  1.00  0.00     0.001 A 
ATOM     66  C   UNL A   1      46.900  27.377  35.049  1.00  0.00     0.001 A 
ATOM     67  C   UNL A   1      46.734  26.146  35.681  1.00  0.00     0.000 A 
ENDBRANCH  48  62
BRANCH  49  68
ATOM     68  C   UNL A   1      37.053  31.053  29.044  1.00  0.00    -0.014 A 
ATOM     69  C   UNL A   1      37.039  32.427  28.749  1.00  0.00     0.009 A 
ATOM     70  C   UNL A   1      35.956  30.270  28.651  1.00  0.00     0.009 A 
ATOM     71  C   UNL A   1      35.939  33.008  28.113  1.00  0.00     0.001 A 
ATOM     72  C   UNL A   1      34.875  30.846  27.980  1.00  0.00     0.001 A 
ATOM     73  C   UNL A   1      34.859  32.217  27.726  1.00  0.00     0.000 A 
ENDBRANCH  49  68
BRANCH  61  74
ATOM     74  C   UNL A   1      39.276  31.984  35.549  1.00  0.00    -0.014 A 
ATOM     75  C   UNL A   1      38.338  31.484  36.469  1.00  0.00     0.009 A 
ATOM     76  C   UNL A   1      39.735  33.302  35.699  1.00  0.00     0.009 A 
ATOM     77  C   UNL A   1      37.839  32.303  37.486  1.00  0.00     0.001 A 
ATOM     78  C   UNL A   1      39.256  34.106  36.734  1.00  0.00     0.001 A 
ATOM     79  C   UNL A   1      38.300  33.610  37.618  1.00  0.00     0.000 A 
ENDBRANCH  61  74
ENDBRANCH  35  36
ENDBRANCH  28  30
ENDBRANCH  27  28
ENDBRANCH  26  27
ENDBRANCH  25  26
ENDBRANCH  24  25
ENDBRANCH  23  24
ENDBRANCH   1  23
TORSDOF 20
ENDMDL
MODEL 2
REMARK VINA RESULT:     -10.0      4.085      9.738
REMARK SMILES C[C@@H](C(=O)OCCOCCOCCOC(=O)c1ccc(-c2c3nc(c(-c4ccccc4)c4ccc([nH]4)c(-c4ccccc4)c4nc(c(-c5ccccc5)c5ccc2[nH]5)C=C4)C=C3)cc1)c1ccc(Cc2ccco2)cc1F
REMARK SMILES IDX 9 1 8 2 7 3 6 4 5 5 3 6 4 7 2 8 1 9 65 10 66 11 76 12 67 13
REMARK SMILES IDX 75 14 77 15 68 16 69 17 70 18 71 19 74 20 72 21 73 22 10 23
REMARK SMILES IDX 11 24 12 25 13 26 14 27 15 28 16 29 17 30 18 31 64 32 19 33
REMARK SMILES IDX 63 34 20 35 21 36 22 37 57 38 23 39 62 40 56 41 58 42 24 43
REMARK SMILES IDX 61 44 55 45 54 46 25 48 47 49 32 50 46 51 33 52 36 53 45 54
REMARK SMILES IDX 59 55 34 56 35 57 44 59 60 60 37 61 26 62 27 63 31 64 28 65
REMARK SMILES IDX 30 66 29 67 48 68 49 69 53 70 50 71 52 72 51 73 38 74 39 75
REMARK SMILES IDX 43 76 40 77 42 78 41 79
REMARK H PARENT 58 47 36 58
REMARK Flexibility Score: inf
ROOT
ATOM      1  C   UNL A   1      35.607  32.258  27.896  1.00  0.00     0.188 C 
ENDROOT
BRANCH   1   2
ATOM      2  O   UNL A   1      34.712  31.154  27.901  1.00  0.00    -0.376 OA
BRANCH   2   3
ATOM      3  C   UNL A   1      33.331  31.387  27.646  1.00  0.00     0.202 C 
BRANCH   3   4
ATOM      4  C   UNL A   1      32.645  30.642  26.487  1.00  0.00     0.261 C 
BRANCH   4   5
ATOM      5  O   UNL A   1      32.369  29.239  26.708  1.00  0.00    -0.463 OA
BRANCH   5   6
ATOM      6  C   UNL A   1      33.199  28.361  26.080  1.00  0.00     0.313 C 
ATOM      7  O   UNL A   1      34.393  28.578  25.891  1.00  0.00    -0.252 OA
BRANCH   6   8
ATOM      8  C   UNL A   1      32.527  27.045  25.630  1.00  0.00     0.129 C 
ATOM      9  C   UNL A   1      33.420  25.868  25.229  1.00  0.00     0.025 C 
BRANCH   8  10
ATOM     10  C   UNL A   1      31.448  27.351  24.596  1.00  0.00     0.002 A 
ATOM     11  C   UNL A   1      31.580  28.381  23.651  1.00  0.00     0.008 A 
ATOM     12  C   UNL A   1      30.212  26.703  24.692  1.00  0.00     0.127 A 
ATOM     13  C   UNL A   1      30.477  28.813  22.911  1.00  0.00     0.005 A 
ATOM     14  C   UNL A   1      29.110  27.121  23.953  1.00  0.00     0.043 A 
ATOM     15  F   UNL A   1      30.052  25.698  25.563  1.00  0.00    -0.207 F 
ATOM     16  C   UNL A   1      29.223  28.219  23.093  1.00  0.00    -0.038 A 
BRANCH  16  17
ATOM     17  C   UNL A   1      27.980  28.889  22.549  1.00  0.00     0.111 C 
BRANCH  17  18
ATOM     18  C   UNL A   1      28.157  30.371  22.518  1.00  0.00     0.108 A 
ATOM     19  C   UNL A   1      28.206  31.342  23.502  1.00  0.00     0.046 A 
ATOM     20  O   UNL A   1      28.281  30.952  21.291  1.00  0.00    -0.469 OA
ATOM     21  C   UNL A   1      28.372  32.580  22.840  1.00  0.00     0.042 A 
ATOM     22  C   UNL A   1      28.405  32.289  21.498  1.00  0.00     0.195 A 
ENDBRANCH  17  18
ENDBRANCH  16  17
ENDBRANCH   8  10
ENDBRANCH   6   8
ENDBRANCH   5   6
ENDBRANCH   4   5
ENDBRANCH   3   4
ENDBRANCH   2   3
ENDBRANCH   1   2
BRANCH   1  23
ATOM     23  C   UNL A   1      35.228  33.529  28.679  1.00  0.00     0.188 C 
BRANCH  23  24
ATOM     24  O   UNL A   1      34.380  34.399  27.968  1.00  0.00    -0.376 OA
BRANCH  24  25
ATOM     25  C   UNL A   1      34.172  35.700  28.475  1.00  0.00     0.202 C 
BRANCH  25  26
ATOM     26  C   UNL A   1      32.900  36.001  29.286  1.00  0.00     0.261 C 
BRANCH  26  27
ATOM     27  O   UNL A   1      32.566  35.094  30.352  1.00  0.00    -0.460 OA
BRANCH  27  28
ATOM     28  C   UNL A   1      32.699  35.550  31.615  1.00  0.00     0.338 C 
ATOM     29  O   UNL A   1      31.900  36.250  32.230  1.00  0.00    -0.246 OA
BRANCH  28  30
ATOM     30  C   UNL A   1      33.887  34.920  32.232  1.00  0.00     0.060 A 
ATOM     31  C   UNL A   1      35.130  35.555  32.117  1.00  0.00     0.016 A 
ATOM     32  C   UNL A   1      33.790  33.690  32.890  1.00  0.00     0.016 A 
ATOM     33  C   UNL A   1      36.278  34.953  32.641  1.00  0.00     0.010 A 
ATOM     34  C   UNL A   1      34.946  33.080  33.398  1.00  0.00     0.010 A 
ATOM     35  C   UNL A   1      36.202  33.698  33.264  1.00  0.00    -0.014 A 
BRANCH  35  36
ATOM     36  C   UNL A   1      37.451  32.985  33.644  1.00  0.00     0.031 A 
ATOM     37  C   UNL A   1      38.067  32.011  32.685  1.00  0.00     0.074 A 
ATOM     38  C   UNL A   1      38.053  33.192  34.829  1.00  0.00     0.049 A 
ATOM     39  N   UNL A   1      39.144  31.279  32.828  1.00  0.00    -0.248 NA
ATOM     40  C   UNL A   1      37.368  31.825  31.406  1.00  0.00     0.031 C 
ATOM     41  C   UNL A   1      37.567  34.090  35.868  1.00  0.00     0.029 A 
ATOM     42  N   UNL A   1      39.209  32.659  35.355  1.00  0.00    -0.354 N 
ATOM     43  C   UNL A   1      39.235  30.518  31.673  1.00  0.00     0.074 A 
ATOM     44  C   UNL A   1      38.109  30.886  30.837  1.00  0.00     0.031 C 
ATOM     45  C   UNL A   1      38.428  34.057  36.897  1.00  0.00     0.029 A 
ATOM     46  C   UNL A   1      39.525  33.147  36.600  1.00  0.00     0.049 A 
ATOM     47  H   UNL A   1      39.756  31.990  34.883  1.00  0.00     0.167 HD
ATOM     48  C   UNL A   1      40.154  29.577  31.346  1.00  0.00     0.031 A 
ATOM     49  C   UNL A   1      40.569  32.899  37.418  1.00  0.00     0.031 A 
ATOM     50  C   UNL A   1      41.252  29.167  32.182  1.00  0.00     0.049 A 
ATOM     51  C   UNL A   1      41.586  31.864  37.023  1.00  0.00     0.074 A 
ATOM     52  C   UNL A   1      42.208  28.196  31.932  1.00  0.00     0.029 A 
ATOM     53  N   UNL A   1      41.537  29.688  33.434  1.00  0.00    -0.354 N 
ATOM     54  N   UNL A   1      41.657  31.152  35.926  1.00  0.00    -0.248 NA
ATOM     55  C   UNL A   1      42.653  31.578  37.996  1.00  0.00     0.031 C 
ATOM     56  C   UNL A   1      43.037  28.091  33.055  1.00  0.00     0.029 A 
ATOM     57  C   UNL A   1      42.640  29.045  33.976  1.00  0.00     0.049 A 
ATOM     58  H   UNL A   1      41.031  30.410  33.874  1.00  0.00     0.167 HD
ATOM     59  C   UNL A   1      42.763  30.327  36.084  1.00  0.00     0.074 A 
ATOM     60  C   UNL A   1      43.366  30.664  37.356  1.00  0.00     0.031 C 
ATOM     61  C   UNL A   1      43.223  29.357  35.255  1.00  0.00     0.031 A 
BRANCH  48  62
ATOM     62  C   UNL A   1      39.945  28.864  30.041  1.00  0.00    -0.014 A 
ATOM     63  C   UNL A   1      39.261  27.641  29.972  1.00  0.00     0.009 A 
ATOM     64  C   UNL A   1      40.460  29.426  28.863  1.00  0.00     0.009 A 
ATOM     65  C   UNL A   1      39.136  26.972  28.753  1.00  0.00     0.001 A 
ATOM     66  C   UNL A   1      40.306  28.771  27.641  1.00  0.00     0.001 A 
ATOM     67  C   UNL A   1      39.657  27.539  27.589  1.00  0.00     0.000 A 
ENDBRANCH  48  62
BRANCH  49  68
ATOM     68  C   UNL A   1      40.715  33.614  38.716  1.00  0.00    -0.014 A 
ATOM     69  C   UNL A   1      40.105  33.110  39.879  1.00  0.00     0.009 A 
ATOM     70  C   UNL A   1      41.409  34.831  38.796  1.00  0.00     0.009 A 
ATOM     71  C   UNL A   1      40.157  33.826  41.078  1.00  0.00     0.001 A 
ATOM     72  C   UNL A   1      41.494  35.525  40.005  1.00  0.00     0.001 A 
ATOM     73  C   UNL A   1      40.854  35.031  41.141  1.00  0.00     0.000 A 
ENDBRANCH  49  68
BRANCH  61  74
ATOM     74  C   UNL A   1      44.437  28.594  35.705  1.00  0.00    -0.014 A 
ATOM     75  C   UNL A   1      45.734  29.021  35.369  1.00  0.00     0.009 A 
ATOM     76  C   UNL A   1      44.287  27.432  36.478  1.00  0.00     0.009 A 
ATOM     77  C   UNL A   1      46.849  28.273  35.759  1.00  0.00     0.001 A 
ATOM     78  C   UNL A   1      45.404  26.705  36.891  1.00  0.00     0.001 A 
ATOM     79  C   UNL A   1      46.683  27.119  36.521  1.00  0.00     0.000 A 
ENDBRANCH  61  74
ENDBRANCH  35  36
ENDBRANCH  28  30
ENDBRANCH  27  28
ENDBRANCH  26  27
ENDBRANCH  25  26
ENDBRANCH  24  25
ENDBRANCH  23  24
ENDBRANCH   1  23
TORSDOF 20
ENDMDL
MODEL 3
REMARK VINA RESULT:     -10.0      5.162     10.140
REMARK SMILES C[C@@H](C(=O)OCCOCCOCCOC(=O)c1ccc(-c2c3nc(c(-c4ccccc4)c4ccc([nH]4)c(-c4ccccc4)c4nc(c(-c5ccccc5)c5ccc2[nH]5)C=C4)C=C3)cc1)c1ccc(Cc2ccco2)cc1F
REMARK SMILES IDX 9 1 8 2 7 3 6 4 5 5 3 6 4 7 2 8 1 9 65 10 66 11 76 12 67 13
REMARK SMILES IDX 75 14 77 15 68 16 69 17 70 18 71 19 74 20 72 21 73 22 10 23
REMARK SMILES IDX 11 24 12 25 13 26 14 27 15 28 16 29 17 30 18 31 64 32 19 33
REMARK SMILES IDX 63 34 20 35 21 36 22 37 57 38 23 39 62 40 56 41 58 42 24 43
REMARK SMILES IDX 61 44 55 45 54 46 25 48 47 49 32 50 46 51 33 52 36 53 45 54
REMARK SMILES IDX 59 55 34 56 35 57 44 59 60 60 37 61 26 62 27 63 31 64 28 65
REMARK SMILES IDX 30 66 29 67 48 68 49 69 53 70 50 71 52 72 51 73 38 74 39 75
REMARK SMILES IDX 43 76 40 77 42 78 41 79
REMARK H PARENT 58 47 36 58
REMARK Flexibility Score: inf
ROOT
ATOM      1  C   UNL A   1      33.023  35.916  29.174  1.00  0.00     0.188 C 
ENDROOT
BRANCH   1   2
ATOM      2  O   UNL A   1      34.238  35.705  28.469  1.00  0.00    -0.376 OA
BRANCH   2   3
ATOM      3  C   UNL A   1      34.661  34.370  28.212  1.00  0.00     0.202 C 
BRANCH   3   4
ATOM      4  C   UNL A   1      33.615  33.317  27.803  1.00  0.00     0.261 C 
BRANCH   4   5
ATOM      5  O   UNL A   1      34.096  31.959  27.675  1.00  0.00    -0.463 OA
BRANCH   5   6
ATOM      6  C   UNL A   1      33.184  31.038  27.259  1.00  0.00     0.313 C 
ATOM      7  O   UNL A   1      32.040  31.327  26.919  1.00  0.00    -0.252 OA
BRANCH   6   8
ATOM      8  C   UNL A   1      33.701  29.583  27.228  1.00  0.00     0.129 C 
ATOM      9  C   UNL A   1      35.213  29.343  27.255  1.00  0.00     0.025 C 
BRANCH   8  10
ATOM     10  C   UNL A   1      32.999  28.816  26.112  1.00  0.00     0.002 A 
ATOM     11  C   UNL A   1      33.347  28.964  24.760  1.00  0.00     0.008 A 
ATOM     12  C   UNL A   1      31.857  28.067  26.417  1.00  0.00     0.127 A 
ATOM     13  C   UNL A   1      32.516  28.470  23.753  1.00  0.00     0.005 A 
ATOM     14  C   UNL A   1      31.027  27.564  25.420  1.00  0.00     0.043 A 
ATOM     15  F   UNL A   1      31.504  27.880  27.696  1.00  0.00    -0.207 F 
ATOM     16  C   UNL A   1      31.324  27.811  24.075  1.00  0.00    -0.038 A 
BRANCH  16  17
ATOM     17  C   UNL A   1      30.277  27.571  23.009  1.00  0.00     0.111 C 
BRANCH  17  18
ATOM     18  C   UNL A   1      29.222  28.626  23.068  1.00  0.00     0.108 A 
ATOM     19  C   UNL A   1      27.844  28.597  22.949  1.00  0.00     0.046 A 
ATOM     20  O   UNL A   1      29.642  29.909  23.255  1.00  0.00    -0.469 OA
ATOM     21  C   UNL A   1      27.400  29.933  23.073  1.00  0.00     0.042 A 
ATOM     22  C   UNL A   1      28.531  30.691  23.251  1.00  0.00     0.195 A 
ENDBRANCH  17  18
ENDBRANCH  16  17
ENDBRANCH   8  10
ENDBRANCH   6   8
ENDBRANCH   5   6
ENDBRANCH   4   5
ENDBRANCH   3   4
ENDBRANCH   2   3
ENDBRANCH   1   2
BRANCH   1  23
ATOM     23  C   UNL A   1      33.078  36.479  30.607  1.00  0.00     0.188 C 
BRANCH  23  24
ATOM     24  O   UNL A   1      32.818  35.518  31.602  1.00  0.00    -0.376 OA
BRANCH  24  25
ATOM     25  C   UNL A   1      33.547  35.586  32.809  1.00  0.00     0.202 C 
BRANCH  25  26
ATOM     26  C   UNL A   1      34.442  34.403  33.218  1.00  0.00     0.261 C 
BRANCH  26  27
ATOM     27  O   UNL A   1      35.483  34.015  32.303  1.00  0.00    -0.460 OA
BRANCH  27  28
ATOM     28  C   UNL A   1      35.326  32.846  31.648  1.00  0.00     0.338 C 
ATOM     29  O   UNL A   1      34.264  32.327  31.318  1.00  0.00    -0.246 OA
BRANCH  28  30
ATOM     30  C   UNL A   1      36.652  32.356  31.213  1.00  0.00     0.060 A 
ATOM     31  C   UNL A   1      37.120  32.703  29.939  1.00  0.00     0.016 A 
ATOM     32  C   UNL A   1      37.419  31.526  32.035  1.00  0.00     0.016 A 
ATOM     33  C   UNL A   1      38.345  32.206  29.480  1.00  0.00     0.010 A 
ATOM     34  C   UNL A   1      38.638  31.014  31.565  1.00  0.00     0.010 A 
ATOM     35  C   UNL A   1      39.102  31.336  30.279  1.00  0.00    -0.014 A 
BRANCH  35  36
ATOM     36  C   UNL A   1      40.302  30.667  29.708  1.00  0.00     0.031 A 
ATOM     37  C   UNL A   1      41.624  31.374  29.730  1.00  0.00     0.074 A 
ATOM     38  C   UNL A   1      40.240  29.435  29.172  1.00  0.00     0.049 A 
ATOM     39  N   UNL A   1      42.785  30.972  29.275  1.00  0.00    -0.248 NA
ATOM     40  C   UNL A   1      41.635  32.717  30.329  1.00  0.00     0.031 C 
ATOM     41  C   UNL A   1      39.029  28.632  29.062  1.00  0.00     0.029 A 
ATOM     42  N   UNL A   1      41.223  28.644  28.621  1.00  0.00    -0.354 N 
ATOM     43  C   UNL A   1      43.659  32.025  29.498  1.00  0.00     0.074 A 
ATOM     44  C   UNL A   1      42.895  33.078  30.139  1.00  0.00     0.031 C 
ATOM     45  C   UNL A   1      39.346  27.457  28.496  1.00  0.00     0.029 A 
ATOM     46  C   UNL A   1      40.773  27.414  28.205  1.00  0.00     0.049 A 
ATOM     47  H   UNL A   1      42.160  28.932  28.534  1.00  0.00     0.167 HD
ATOM     48  C   UNL A   1      44.972  32.122  29.176  1.00  0.00     0.031 A 
ATOM     49  C   UNL A   1      41.419  26.367  27.651  1.00  0.00     0.031 A 
ATOM     50  C   UNL A   1      45.735  31.105  28.500  1.00  0.00     0.049 A 
ATOM     51  C   UNL A   1      42.880  26.492  27.320  1.00  0.00     0.074 A 
ATOM     52  C   UNL A   1      47.064  31.144  28.111  1.00  0.00     0.029 A 
ATOM     53  N   UNL A   1      45.241  29.875  28.098  1.00  0.00    -0.354 N 
ATOM     54  N   UNL A   1      43.693  27.496  27.538  1.00  0.00    -0.248 NA
ATOM     55  C   UNL A   1      43.507  25.347  26.640  1.00  0.00     0.031 C 
ATOM     56  C   UNL A   1      47.358  29.960  27.424  1.00  0.00     0.029 A 
ATOM     57  C   UNL A   1      46.233  29.155  27.448  1.00  0.00     0.049 A 
ATOM     58  H   UNL A   1      44.322  29.558  28.253  1.00  0.00     0.167 HD
ATOM     59  C   UNL A   1      44.918  27.110  27.008  1.00  0.00     0.074 A 
ATOM     60  C   UNL A   1      44.758  25.760  26.511  1.00  0.00     0.031 C 
ATOM     61  C   UNL A   1      46.067  27.824  26.924  1.00  0.00     0.031 A 
BRANCH  48  62
ATOM     62  C   UNL A   1      45.640  33.431  29.485  1.00  0.00    -0.014 A 
ATOM     63  C   UNL A   1      46.298  33.651  30.704  1.00  0.00     0.009 A 
ATOM     64  C   UNL A   1      45.593  34.466  28.537  1.00  0.00     0.009 A 
ATOM     65  C   UNL A   1      46.856  34.899  30.987  1.00  0.00     0.001 A 
ATOM     66  C   UNL A   1      46.180  35.700  28.810  1.00  0.00     0.001 A 
ATOM     67  C   UNL A   1      46.799  35.921  30.039  1.00  0.00     0.000 A 
ENDBRANCH  48  62
BRANCH  49  68
ATOM     68  C   UNL A   1      40.701  25.100  27.337  1.00  0.00    -0.014 A 
ATOM     69  C   UNL A   1      39.544  25.116  26.538  1.00  0.00     0.009 A 
ATOM     70  C   UNL A   1      41.126  23.877  27.879  1.00  0.00     0.009 A 
ATOM     71  C   UNL A   1      38.813  23.945  26.320  1.00  0.00     0.001 A 
ATOM     72  C   UNL A   1      40.416  22.701  27.627  1.00  0.00     0.001 A 
ATOM     73  C   UNL A   1      39.251  22.738  26.862  1.00  0.00     0.000 A 
ENDBRANCH  49  68
BRANCH  61  74
ATOM     74  C   UNL A   1      47.240  27.153  26.263  1.00  0.00    -0.014 A 
ATOM     75  C   UNL A   1      48.131  26.352  26.999  1.00  0.00     0.009 A 
ATOM     76  C   UNL A   1      47.459  27.321  24.888  1.00  0.00     0.009 A 
ATOM     77  C   UNL A   1      49.240  25.772  26.377  1.00  0.00     0.001 A 
ATOM     78  C   UNL A   1      48.551  26.716  24.264  1.00  0.00     0.001 A 
ATOM     79  C   UNL A   1      49.447  25.953  25.011  1.00  0.00     0.000 A 
ENDBRANCH  61  74
ENDBRANCH  35  36
ENDBRANCH  28  30
ENDBRANCH  27  28
ENDBRANCH  26  27
ENDBRANCH  25  26
ENDBRANCH  24  25
ENDBRANCH  23  24
ENDBRANCH   1  23
TORSDOF 20
ENDMDL
