MODEL 1
REMARK VINA RESULT:      -9.4      0.000      0.000
REMARK SMILES [NH3+][C@H](/C=C\c1ccccc1)C(=O)OCCOCCOCCOC(=O)c1ccc(-c2c3nc(c(-c4ccccc4)c4ccc([nH]4)c(-c4ccccc4)c4nc(c(-c5ccccc5)c5ccc2[nH]5)C=C4)C=C3)cc1
REMARK SMILES IDX 17 1 16 2 15 3 14 4 13 5 11 6 12 7 2 8 1 9 3 13 4 14 5 15
REMARK SMILES IDX 6 16 10 17 7 18 9 19 8 20 18 21 19 22 20 23 21 24 22 25
REMARK SMILES IDX 23 26 24 27 25 28 26 29 72 30 27 31 71 32 28 33 29 34 30 35
REMARK SMILES IDX 65 36 31 37 70 38 64 39 66 40 32 41 69 42 63 43 62 44 33 46
REMARK SMILES IDX 55 47 40 48 54 49 41 50 44 51 53 52 67 53 42 54 43 55 52 57
REMARK SMILES IDX 68 58 45 59 34 60 35 61 39 62 36 63 38 64 37 65 56 66 57 67
REMARK SMILES IDX 61 68 58 69 60 70 59 71 46 72 47 73 51 74 48 75 50 76 49 77
REMARK H PARENT 1 10 1 11 1 12 66 45 44 56
REMARK Flexibility Score: inf
ROOT
ATOM      1  C   UNL A   1      33.958  28.420  26.090  1.00  0.00     0.188 C 
ENDROOT
BRANCH   1   2
ATOM      2  O   UNL A   1      32.741  27.744  25.821  1.00  0.00    -0.376 OA
BRANCH   2   3
ATOM      3  C   UNL A   1      32.790  26.359  25.488  1.00  0.00     0.202 C 
BRANCH   3   4
ATOM      4  C   UNL A   1      32.925  25.926  24.016  1.00  0.00     0.261 C 
BRANCH   4   5
ATOM      5  O   UNL A   1      32.927  26.995  23.046  1.00  0.00    -0.459 OA
BRANCH   5   6
ATOM      6  C   UNL A   1      31.823  27.061  22.252  1.00  0.00     0.369 C 
ATOM      7  O   UNL A   1      31.568  26.233  21.377  1.00  0.00    -0.245 OA
BRANCH   6   8
ATOM      8  C   UNL A   1      30.846  28.236  22.590  1.00  0.00     0.315 C 
BRANCH   8   9
ATOM      9  N   UNL A   1      31.612  29.196  23.389  1.00  0.00    -0.343 N 
ATOM     10  H   UNL A   1      32.558  29.272  23.014  1.00  0.00     0.345 HD
ATOM     11  H   UNL A   1      31.655  28.875  24.356  1.00  0.00     0.345 HD
ATOM     12  H   UNL A   1      31.158  30.108  23.352  1.00  0.00     0.345 HD
ENDBRANCH   8   9
BRANCH   8  13
ATOM     13  C   UNL A   1      29.446  27.932  23.100  1.00  0.00     0.049 C 
ATOM     14  C   UNL A   1      28.280  28.604  23.056  1.00  0.00     0.010 C 
BRANCH  14  15
ATOM     15  C   UNL A   1      28.121  29.981  22.606  1.00  0.00    -0.026 A 
ATOM     16  C   UNL A   1      28.188  30.977  23.585  1.00  0.00     0.008 A 
ATOM     17  C   UNL A   1      28.074  30.328  21.253  1.00  0.00     0.008 A 
ATOM     18  C   UNL A   1      28.325  32.309  23.213  1.00  0.00     0.001 A 
ATOM     19  C   UNL A   1      28.237  31.663  20.883  1.00  0.00     0.001 A 
ATOM     20  C   UNL A   1      28.384  32.648  21.862  1.00  0.00     0.000 A 
ENDBRANCH  14  15
ENDBRANCH   8  13
ENDBRANCH   6   8
ENDBRANCH   5   6
ENDBRANCH   4   5
ENDBRANCH   3   4
ENDBRANCH   2   3
ENDBRANCH   1   2
BRANCH   1  21
ATOM     21  C   UNL A   1      33.911  29.711  26.911  1.00  0.00     0.188 C 
BRANCH  21  22
ATOM     22  O   UNL A   1      32.621  30.150  27.265  1.00  0.00    -0.376 OA
BRANCH  22  23
ATOM     23  C   UNL A   1      32.233  31.494  26.996  1.00  0.00     0.202 C 
BRANCH  23  24
ATOM     24  C   UNL A   1      33.021  32.693  27.577  1.00  0.00     0.261 C 
BRANCH  24  25
ATOM     25  O   UNL A   1      32.266  33.822  28.055  1.00  0.00    -0.460 OA
BRANCH  25  26
ATOM     26  C   UNL A   1      32.967  34.887  28.515  1.00  0.00     0.338 C 
ATOM     27  O   UNL A   1      32.581  36.045  28.563  1.00  0.00    -0.246 OA
BRANCH  26  28
ATOM     28  C   UNL A   1      34.160  34.373  29.243  1.00  0.00     0.060 A 
ATOM     29  C   UNL A   1      35.425  34.583  28.671  1.00  0.00     0.016 A 
ATOM     30  C   UNL A   1      34.057  33.760  30.494  1.00  0.00     0.016 A 
ATOM     31  C   UNL A   1      36.579  34.141  29.321  1.00  0.00     0.010 A 
ATOM     32  C   UNL A   1      35.215  33.293  31.133  1.00  0.00     0.010 A 
ATOM     33  C   UNL A   1      36.479  33.446  30.532  1.00  0.00    -0.014 A 
BRANCH  33  34
ATOM     34  C   UNL A   1      37.659  32.697  31.044  1.00  0.00     0.031 A 
ATOM     35  C   UNL A   1      38.280  33.149  32.342  1.00  0.00     0.074 A 
ATOM     36  C   UNL A   1      38.147  31.609  30.421  1.00  0.00     0.049 A 
ATOM     37  N   UNL A   1      39.311  32.664  32.987  1.00  0.00    -0.248 NA
ATOM     38  C   UNL A   1      37.647  34.304  33.001  1.00  0.00     0.031 C 
ATOM     39  C   UNL A   1      37.620  31.026  29.189  1.00  0.00     0.029 A 
ATOM     40  N   UNL A   1      39.206  30.797  30.751  1.00  0.00    -0.354 N 
ATOM     41  C   UNL A   1      39.447  33.452  34.125  1.00  0.00     0.074 A 
ATOM     42  C   UNL A   1      38.424  34.472  34.060  1.00  0.00     0.031 C 
ATOM     43  C   UNL A   1      38.365  29.954  28.861  1.00  0.00     0.029 A 
ATOM     44  C   UNL A   1      39.439  29.792  29.842  1.00  0.00     0.049 A 
ATOM     45  H   UNL A   1      39.748  30.923  31.563  1.00  0.00     0.167 HD
ATOM     46  C   UNL A   1      40.333  33.335  35.143  1.00  0.00     0.031 A 
ATOM     47  C   UNL A   1      40.416  28.864  29.794  1.00  0.00     0.031 A 
ATOM     48  C   UNL A   1      41.371  32.342  35.207  1.00  0.00     0.049 A 
ATOM     49  C   UNL A   1      41.451  28.813  30.892  1.00  0.00     0.074 A 
ATOM     50  C   UNL A   1      42.323  32.153  36.194  1.00  0.00     0.029 A 
ATOM     51  N   UNL A   1      41.598  31.373  34.243  1.00  0.00    -0.354 N 
ATOM     52  N   UNL A   1      41.556  29.553  31.970  1.00  0.00    -0.248 NA
ATOM     53  C   UNL A   1      42.496  27.785  30.768  1.00  0.00     0.031 C 
ATOM     54  C   UNL A   1      43.163  31.107  35.799  1.00  0.00     0.029 A 
ATOM     55  C   UNL A   1      42.689  30.598  34.601  1.00  0.00     0.049 A 
ATOM     56  H   UNL A   1      41.065  31.254  33.424  1.00  0.00     0.167 HD
ATOM     57  C   UNL A   1      42.655  29.057  32.665  1.00  0.00     0.074 A 
ATOM     58  C   UNL A   1      43.167  27.941  31.901  1.00  0.00     0.031 C 
ATOM     59  C   UNL A   1      43.193  29.488  33.834  1.00  0.00     0.031 A 
BRANCH  46  60
ATOM     60  C   UNL A   1      40.227  34.331  36.265  1.00  0.00    -0.014 A 
ATOM     61  C   UNL A   1      40.908  35.558  36.215  1.00  0.00     0.009 A 
ATOM     62  C   UNL A   1      39.409  34.053  37.371  1.00  0.00     0.009 A 
ATOM     63  C   UNL A   1      40.796  36.472  37.266  1.00  0.00     0.001 A 
ATOM     64  C   UNL A   1      39.275  34.982  38.404  1.00  0.00     0.001 A 
ATOM     65  C   UNL A   1      39.975  36.185  38.356  1.00  0.00     0.000 A 
ENDBRANCH  46  60
BRANCH  47  66
ATOM     66  C   UNL A   1      40.498  27.914  28.650  1.00  0.00    -0.014 A 
ATOM     67  C   UNL A   1      41.155  28.266  27.460  1.00  0.00     0.009 A 
ATOM     68  C   UNL A   1      39.861  26.664  28.724  1.00  0.00     0.009 A 
ATOM     69  C   UNL A   1      41.140  27.405  26.359  1.00  0.00     0.001 A 
ATOM     70  C   UNL A   1      39.879  25.790  27.635  1.00  0.00     0.001 A 
ATOM     71  C   UNL A   1      40.505  26.166  26.449  1.00  0.00     0.000 A 
ENDBRANCH  47  66
BRANCH  59  72
ATOM     72  C   UNL A   1      44.366  28.721  34.382  1.00  0.00    -0.014 A 
ATOM     73  C   UNL A   1      45.689  29.080  34.076  1.00  0.00     0.009 A 
ATOM     74  C   UNL A   1      44.144  27.632  35.241  1.00  0.00     0.009 A 
ATOM     75  C   UNL A   1      46.760  28.335  34.577  1.00  0.00     0.001 A 
ATOM     76  C   UNL A   1      45.216  26.911  35.770  1.00  0.00     0.001 A 
ATOM     77  C   UNL A   1      46.522  27.254  35.427  1.00  0.00     0.000 A 
ENDBRANCH  59  72
ENDBRANCH  33  34
ENDBRANCH  26  28
ENDBRANCH  25  26
ENDBRANCH  24  25
ENDBRANCH  23  24
ENDBRANCH  22  23
ENDBRANCH  21  22
ENDBRANCH   1  21
TORSDOF 20
ENDMDL
MODEL 2
REMARK VINA RESULT:      -9.2      2.963      4.999
REMARK SMILES [NH3+][C@H](/C=C\c1ccccc1)C(=O)OCCOCCOCCOC(=O)c1ccc(-c2c3nc(c(-c4ccccc4)c4ccc([nH]4)c(-c4ccccc4)c4nc(c(-c5ccccc5)c5ccc2[nH]5)C=C4)C=C3)cc1
REMARK SMILES IDX 17 1 16 2 15 3 14 4 13 5 11 6 12 7 2 8 1 9 3 13 4 14 5 15
REMARK SMILES IDX 6 16 10 17 7 18 9 19 8 20 18 21 19 22 20 23 21 24 22 25
REMARK SMILES IDX 23 26 24 27 25 28 26 29 72 30 27 31 71 32 28 33 29 34 30 35
REMARK SMILES IDX 65 36 31 37 70 38 64 39 66 40 32 41 69 42 63 43 62 44 33 46
REMARK SMILES IDX 55 47 40 48 54 49 41 50 44 51 53 52 67 53 42 54 43 55 52 57
REMARK SMILES IDX 68 58 45 59 34 60 35 61 39 62 36 63 38 64 37 65 56 66 57 67
REMARK SMILES IDX 61 68 58 69 60 70 59 71 46 72 47 73 51 74 48 75 50 76 49 77
REMARK H PARENT 1 10 1 11 1 12 66 45 44 56
REMARK Flexibility Score: inf
ROOT
ATOM      1  C   UNL A   1      32.100  28.960  24.445  1.00  0.00     0.188 C 
ENDROOT
BRANCH   1   2
ATOM      2  O   UNL A   1      31.133  27.932  24.302  1.00  0.00    -0.376 OA
BRANCH   2   3
ATOM      3  C   UNL A   1      31.167  27.122  23.129  1.00  0.00     0.202 C 
BRANCH   3   4
ATOM      4  C   UNL A   1      32.394  26.235  22.843  1.00  0.00     0.261 C 
BRANCH   4   5
ATOM      5  O   UNL A   1      32.141  24.816  22.780  1.00  0.00    -0.459 OA
BRANCH   5   6
ATOM      6  C   UNL A   1      33.250  24.027  22.793  1.00  0.00     0.369 C 
ATOM      7  O   UNL A   1      34.397  24.471  22.828  1.00  0.00    -0.245 OA
BRANCH   6   8
ATOM      8  C   UNL A   1      32.955  22.490  22.845  1.00  0.00     0.315 C 
BRANCH   8   9
ATOM      9  N   UNL A   1      32.398  22.129  21.538  1.00  0.00    -0.343 N 
ATOM     10  H   UNL A   1      31.473  22.548  21.437  1.00  0.00     0.345 HD
ATOM     11  H   UNL A   1      32.321  21.115  21.471  1.00  0.00     0.345 HD
ATOM     12  H   UNL A   1      33.011  22.475  20.801  1.00  0.00     0.345 HD
ENDBRANCH   8   9
BRANCH   8  13
ATOM     13  C   UNL A   1      32.237  21.898  24.047  1.00  0.00     0.049 C 
ATOM     14  C   UNL A   1      32.292  20.699  24.658  1.00  0.00     0.010 C 
BRANCH  14  15
ATOM     15  C   UNL A   1      33.007  19.532  24.157  1.00  0.00    -0.026 A 
ATOM     16  C   UNL A   1      34.299  19.325  24.650  1.00  0.00     0.008 A 
ATOM     17  C   UNL A   1      32.395  18.561  23.360  1.00  0.00     0.008 A 
ATOM     18  C   UNL A   1      34.933  18.105  24.443  1.00  0.00     0.001 A 
ATOM     19  C   UNL A   1      33.024  17.330  23.176  1.00  0.00     0.001 A 
ATOM     20  C   UNL A   1      34.281  17.096  23.736  1.00  0.00     0.000 A 
ENDBRANCH  14  15
ENDBRANCH   8  13
ENDBRANCH   6   8
ENDBRANCH   5   6
ENDBRANCH   4   5
ENDBRANCH   3   4
ENDBRANCH   2   3
ENDBRANCH   1   2
BRANCH   1  21
ATOM     21  C   UNL A   1      32.749  29.166  25.815  1.00  0.00     0.188 C 
BRANCH  21  22
ATOM     22  O   UNL A   1      32.055  30.029  26.684  1.00  0.00    -0.376 OA
BRANCH  22  23
ATOM     23  C   UNL A   1      31.462  31.219  26.173  1.00  0.00     0.202 C 
BRANCH  23  24
ATOM     24  C   UNL A   1      31.538  32.557  26.949  1.00  0.00     0.261 C 
BRANCH  24  25
ATOM     25  O   UNL A   1      32.768  33.301  26.880  1.00  0.00    -0.460 OA
BRANCH  25  26
ATOM     26  C   UNL A   1      33.230  33.842  28.034  1.00  0.00     0.338 C 
ATOM     27  O   UNL A   1      32.612  34.576  28.790  1.00  0.00    -0.246 OA
BRANCH  26  28
ATOM     28  C   UNL A   1      34.498  33.147  28.392  1.00  0.00     0.060 A 
ATOM     29  C   UNL A   1      34.448  31.764  28.630  1.00  0.00     0.016 A 
ATOM     30  C   UNL A   1      35.724  33.814  28.427  1.00  0.00     0.016 A 
ATOM     31  C   UNL A   1      35.610  31.058  28.949  1.00  0.00     0.010 A 
ATOM     32  C   UNL A   1      36.885  33.109  28.773  1.00  0.00     0.010 A 
ATOM     33  C   UNL A   1      36.830  31.735  29.075  1.00  0.00    -0.014 A 
BRANCH  33  34
ATOM     34  C   UNL A   1      37.979  31.053  29.730  1.00  0.00     0.031 A 
ATOM     35  C   UNL A   1      38.234  31.335  31.190  1.00  0.00     0.074 A 
ATOM     36  C   UNL A   1      38.753  30.163  29.083  1.00  0.00     0.049 A 
ATOM     37  N   UNL A   1      39.170  30.869  31.978  1.00  0.00    -0.248 NA
ATOM     38  C   UNL A   1      37.302  32.267  31.847  1.00  0.00     0.031 C 
ATOM     39  C   UNL A   1      38.595  29.753  27.689  1.00  0.00     0.029 A 
ATOM     40  N   UNL A   1      39.834  29.438  29.527  1.00  0.00    -0.354 N 
ATOM     41  C   UNL A   1      38.938  31.449  33.220  1.00  0.00     0.074 A 
ATOM     42  C   UNL A   1      37.803  32.333  33.071  1.00  0.00     0.031 C 
ATOM     43  C   UNL A   1      39.553  28.857  27.388  1.00  0.00     0.029 A 
ATOM     44  C   UNL A   1      40.409  28.650  28.557  1.00  0.00     0.049 A 
ATOM     45  H   UNL A   1      40.167  29.480  30.452  1.00  0.00     0.167 HD
ATOM     46  C   UNL A   1      39.597  31.257  34.388  1.00  0.00     0.031 A 
ATOM     47  C   UNL A   1      41.508  27.872  28.602  1.00  0.00     0.031 A 
ATOM     48  C   UNL A   1      40.742  30.402  34.544  1.00  0.00     0.049 A 
ATOM     49  C   UNL A   1      42.284  27.748  29.891  1.00  0.00     0.074 A 
ATOM     50  C   UNL A   1      41.483  30.154  35.687  1.00  0.00     0.029 A 
ATOM     51  N   UNL A   1      41.317  29.658  33.526  1.00  0.00    -0.354 N 
ATOM     52  N   UNL A   1      42.042  28.287  31.061  1.00  0.00    -0.248 NA
ATOM     53  C   UNL A   1      43.481  26.893  29.862  1.00  0.00     0.031 C 
ATOM     54  C   UNL A   1      42.542  29.306  35.348  1.00  0.00     0.029 A 
ATOM     55  C   UNL A   1      42.417  28.969  34.010  1.00  0.00     0.049 A 
ATOM     56  H   UNL A   1      40.993  29.626  32.597  1.00  0.00     0.167 HD
ATOM     57  C   UNL A   1      43.034  27.810  31.912  1.00  0.00     0.074 A 
ATOM     58  C   UNL A   1      43.865  26.921  31.131  1.00  0.00     0.031 C 
ATOM     59  C   UNL A   1      43.240  28.084  33.225  1.00  0.00     0.031 A 
BRANCH  46  60
ATOM     60  C   UNL A   1      39.101  32.014  35.590  1.00  0.00    -0.014 A 
ATOM     61  C   UNL A   1      38.212  31.425  36.504  1.00  0.00     0.009 A 
ATOM     62  C   UNL A   1      39.556  33.319  35.831  1.00  0.00     0.009 A 
ATOM     63  C   UNL A   1      37.764  32.141  37.616  1.00  0.00     0.001 A 
ATOM     64  C   UNL A   1      39.132  34.020  36.960  1.00  0.00     0.001 A 
ATOM     65  C   UNL A   1      38.229  33.436  37.847  1.00  0.00     0.000 A 
ENDBRANCH  46  60
BRANCH  47  66
ATOM     66  C   UNL A   1      41.978  27.161  27.380  1.00  0.00    -0.014 A 
ATOM     67  C   UNL A   1      41.580  25.841  27.110  1.00  0.00     0.009 A 
ATOM     68  C   UNL A   1      42.882  27.784  26.504  1.00  0.00     0.009 A 
ATOM     69  C   UNL A   1      42.106  25.151  26.014  1.00  0.00     0.001 A 
ATOM     70  C   UNL A   1      43.377  27.105  25.388  1.00  0.00     0.001 A 
ATOM     71  C   UNL A   1      43.000  25.785  25.152  1.00  0.00     0.000 A 
ENDBRANCH  47  66
BRANCH  59  72
ATOM     72  C   UNL A   1      44.378  27.378  33.912  1.00  0.00    -0.014 A 
ATOM     73  C   UNL A   1      45.657  27.952  33.997  1.00  0.00     0.009 A 
ATOM     74  C   UNL A   1      44.160  26.125  34.504  1.00  0.00     0.009 A 
ATOM     75  C   UNL A   1      46.703  27.264  34.617  1.00  0.00     0.001 A 
ATOM     76  C   UNL A   1      45.198  25.454  35.155  1.00  0.00     0.001 A 
ATOM     77  C   UNL A   1      46.471  26.017  35.199  1.00  0.00     0.000 A 
ENDBRANCH  59  72
ENDBRANCH  33  34
ENDBRANCH  26  28
ENDBRANCH  25  26
ENDBRANCH  24  25
ENDBRANCH  23  24
ENDBRANCH  22  23
ENDBRANCH  21  22
ENDBRANCH   1  21
TORSDOF 20
ENDMDL
MODEL 3
REMARK VINA RESULT:      -9.2      4.257      9.236
REMARK SMILES [NH3+][C@H](/C=C\c1ccccc1)C(=O)OCCOCCOCCOC(=O)c1ccc(-c2c3nc(c(-c4ccccc4)c4ccc([nH]4)c(-c4ccccc4)c4nc(c(-c5ccccc5)c5ccc2[nH]5)C=C4)C=C3)cc1
REMARK SMILES IDX 17 1 16 2 15 3 14 4 13 5 11 6 12 7 2 8 1 9 3 13 4 14 5 15
REMARK SMILES IDX 6 16 10 17 7 18 9 19 8 20 18 21 19 22 20 23 21 24 22 25
REMARK SMILES IDX 23 26 24 27 25 28 26 29 72 30 27 31 71 32 28 33 29 34 30 35
REMARK SMILES IDX 65 36 31 37 70 38 64 39 66 40 32 41 69 42 63 43 62 44 33 46
REMARK SMILES IDX 55 47 40 48 54 49 41 50 44 51 53 52 67 53 42 54 43 55 52 57
REMARK SMILES IDX 68 58 45 59 34 60 35 61 39 62 36 63 38 64 37 65 56 66 57 67
REMARK SMILES IDX 61 68 58 69 60 70 59 71 46 72 47 73 51 74 48 75 50 76 49 77
REMARK H PARENT 1 10 1 11 1 12 66 45 44 56
REMARK Flexibility Score: inf
ROOT
ATOM      1  C   UNL A   1      42.679  19.705  26.335  1.00  0.00     0.188 C 
ENDROOT
BRANCH   1   2
ATOM      2  O   UNL A   1      41.350  20.010  25.947  1.00  0.00    -0.376 OA
BRANCH   2   3
ATOM      3  C   UNL A   1      40.522  20.731  26.857  1.00  0.00     0.202 C 
BRANCH   3   4
ATOM      4  C   UNL A   1      39.776  21.993  26.382  1.00  0.00     0.261 C 
BRANCH   4   5
ATOM      5  O   UNL A   1      38.403  21.798  25.986  1.00  0.00    -0.459 OA
BRANCH   5   6
ATOM      6  C   UNL A   1      37.664  22.935  25.869  1.00  0.00     0.369 C 
ATOM      7  O   UNL A   1      38.143  24.065  25.957  1.00  0.00    -0.245 OA
BRANCH   6   8
ATOM      8  C   UNL A   1      36.154  22.700  25.531  1.00  0.00     0.315 C 
BRANCH   8   9
ATOM      9  N   UNL A   1      35.897  21.274  25.747  1.00  0.00    -0.343 N 
ATOM     10  H   UNL A   1      36.665  20.867  26.282  1.00  0.00     0.345 HD
ATOM     11  H   UNL A   1      35.823  20.802  24.847  1.00  0.00     0.345 HD
ATOM     12  H   UNL A   1      35.025  21.160  26.264  1.00  0.00     0.345 HD
ENDBRANCH   8   9
BRANCH   8  13
ATOM     13  C   UNL A   1      35.565  23.284  24.257  1.00  0.00     0.049 C 
ATOM     14  C   UNL A   1      34.670  24.261  24.016  1.00  0.00     0.010 C 
BRANCH  14  15
ATOM     15  C   UNL A   1      33.869  24.936  25.028  1.00  0.00    -0.026 A 
ATOM     16  C   UNL A   1      34.030  26.320  25.141  1.00  0.00     0.008 A 
ATOM     17  C   UNL A   1      32.860  24.285  25.744  1.00  0.00     0.008 A 
ATOM     18  C   UNL A   1      33.116  27.068  25.874  1.00  0.00     0.001 A 
ATOM     19  C   UNL A   1      31.931  25.042  26.459  1.00  0.00     0.001 A 
ATOM     20  C   UNL A   1      32.048  26.433  26.504  1.00  0.00     0.000 A 
ENDBRANCH  14  15
ENDBRANCH   8  13
ENDBRANCH   6   8
ENDBRANCH   5   6
ENDBRANCH   4   5
ENDBRANCH   3   4
ENDBRANCH   2   3
ENDBRANCH   1   2
BRANCH   1  21
ATOM     21  C   UNL A   1      43.614  19.068  25.304  1.00  0.00     0.188 C 
BRANCH  21  22
ATOM     22  O   UNL A   1      44.194  19.965  24.387  1.00  0.00    -0.376 OA
BRANCH  22  23
ATOM     23  C   UNL A   1      45.408  20.632  24.721  1.00  0.00     0.202 C 
BRANCH  23  24
ATOM     24  C   UNL A   1      45.590  22.149  24.474  1.00  0.00     0.261 C 
BRANCH  24  25
ATOM     25  O   UNL A   1      45.083  23.055  25.472  1.00  0.00    -0.460 OA
BRANCH  25  26
ATOM     26  C   UNL A   1      43.790  23.446  25.353  1.00  0.00     0.338 C 
ATOM     27  O   UNL A   1      42.949  22.959  24.613  1.00  0.00    -0.246 OA
BRANCH  26  28
ATOM     28  C   UNL A   1      43.478  24.353  26.493  1.00  0.00     0.060 A 
ATOM     29  C   UNL A   1      42.762  23.826  27.579  1.00  0.00     0.016 A 
ATOM     30  C   UNL A   1      43.935  25.672  26.536  1.00  0.00     0.016 A 
ATOM     31  C   UNL A   1      42.459  24.625  28.684  1.00  0.00     0.010 A 
ATOM     32  C   UNL A   1      43.608  26.481  27.634  1.00  0.00     0.010 A 
ATOM     33  C   UNL A   1      42.836  25.974  28.697  1.00  0.00    -0.014 A 
BRANCH  33  34
ATOM     34  C   UNL A   1      42.233  26.891  29.703  1.00  0.00     0.031 A 
ATOM     35  C   UNL A   1      42.923  27.035  31.037  1.00  0.00     0.074 A 
ATOM     36  C   UNL A   1      41.137  27.626  29.441  1.00  0.00     0.049 A 
ATOM     37  N   UNL A   1      42.592  27.765  32.072  1.00  0.00    -0.248 NA
ATOM     38  C   UNL A   1      44.156  26.251  31.221  1.00  0.00     0.031 C 
ATOM     39  C   UNL A   1      40.394  27.629  28.183  1.00  0.00     0.029 A 
ATOM     40  N   UNL A   1      40.459  28.521  30.235  1.00  0.00    -0.354 N 
ATOM     41  C   UNL A   1      43.575  27.529  33.027  1.00  0.00     0.074 A 
ATOM     42  C   UNL A   1      44.487  26.557  32.467  1.00  0.00     0.031 C 
ATOM     43  C   UNL A   1      39.356  28.478  28.293  1.00  0.00     0.029 A 
ATOM     44  C   UNL A   1      39.342  29.056  29.637  1.00  0.00     0.049 A 
ATOM     45  H   UNL A   1      40.745  28.757  31.146  1.00  0.00     0.167 HD
ATOM     46  C   UNL A   1      43.718  28.078  34.257  1.00  0.00     0.031 A 
ATOM     47  C   UNL A   1      38.407  29.897  30.124  1.00  0.00     0.031 A 
ATOM     48  C   UNL A   1      42.805  29.026  34.835  1.00  0.00     0.049 A 
ATOM     49  C   UNL A   1      38.537  30.422  31.533  1.00  0.00     0.074 A 
ATOM     50  C   UNL A   1      42.863  29.629  36.081  1.00  0.00     0.029 A 
ATOM     51  N   UNL A   1      41.664  29.505  34.213  1.00  0.00    -0.354 N 
ATOM     52  N   UNL A   1      39.481  30.205  32.417  1.00  0.00    -0.248 NA
ATOM     53  C   UNL A   1      37.472  31.323  32.003  1.00  0.00     0.031 C 
ATOM     54  C   UNL A   1      41.726  30.428  36.234  1.00  0.00     0.029 A 
ATOM     55  C   UNL A   1      40.998  30.379  35.056  1.00  0.00     0.049 A 
ATOM     56  H   UNL A   1      41.369  29.260  33.306  1.00  0.00     0.167 HD
ATOM     57  C   UNL A   1      39.140  30.966  33.531  1.00  0.00     0.074 A 
ATOM     58  C   UNL A   1      37.919  31.669  33.202  1.00  0.00     0.031 C 
ATOM     59  C   UNL A   1      39.782  31.075  34.721  1.00  0.00     0.031 A 
BRANCH  46  60
ATOM     60  C   UNL A   1      44.906  27.643  35.071  1.00  0.00    -0.014 A 
ATOM     61  C   UNL A   1      44.875  26.460  35.826  1.00  0.00     0.009 A 
ATOM     62  C   UNL A   1      46.083  28.407  35.054  1.00  0.00     0.009 A 
ATOM     63  C   UNL A   1      45.989  26.070  36.575  1.00  0.00     0.001 A 
ATOM     64  C   UNL A   1      47.204  27.998  35.777  1.00  0.00     0.001 A 
ATOM     65  C   UNL A   1      47.153  26.836  36.544  1.00  0.00     0.000 A 
ENDBRANCH  46  60
BRANCH  47  66
ATOM     66  C   UNL A   1      37.233  30.281  29.292  1.00  0.00    -0.014 A 
ATOM     67  C   UNL A   1      36.277  29.330  28.901  1.00  0.00     0.009 A 
ATOM     68  C   UNL A   1      37.097  31.602  28.830  1.00  0.00     0.009 A 
ATOM     69  C   UNL A   1      35.234  29.682  28.039  1.00  0.00     0.001 A 
ATOM     70  C   UNL A   1      36.033  31.960  27.999  1.00  0.00     0.001 A 
ATOM     71  C   UNL A   1      35.111  30.998  27.592  1.00  0.00     0.000 A 
ENDBRANCH  47  66
BRANCH  59  72
ATOM     72  C   UNL A   1      39.204  32.023  35.738  1.00  0.00    -0.014 A 
ATOM     73  C   UNL A   1      38.239  31.606  36.669  1.00  0.00     0.009 A 
ATOM     74  C   UNL A   1      39.650  33.353  35.779  1.00  0.00     0.009 A 
ATOM     75  C   UNL A   1      37.699  32.512  37.585  1.00  0.00     0.001 A 
ATOM     76  C   UNL A   1      39.136  34.249  36.718  1.00  0.00     0.001 A 
ATOM     77  C   UNL A   1      38.151  33.832  37.611  1.00  0.00     0.000 A 
ENDBRANCH  59  72
ENDBRANCH  33  34
ENDBRANCH  26  28
ENDBRANCH  25  26
ENDBRANCH  24  25
ENDBRANCH  23  24
ENDBRANCH  22  23
ENDBRANCH  21  22
ENDBRANCH   1  21
TORSDOF 20
ENDMDL
