MODEL 1
REMARK VINA RESULT:      -9.8      0.000      0.000
REMARK SMILES O=C(OCCOCCOCCOC(=O)[C@@H]1CCc2[nH]ncc2C1)c1ccc(-c2c3nc(c(-c4ccccc4)c4ccc([nH]4)c(-c4ccccc4)c4nc(c(-c5ccccc5)c5ccc2[nH]5)C=C4)C=C3)cc1
REMARK SMILES IDX 7 1 6 2 5 3 4 4 3 5 2 6 1 7 24 8 25 9 71 10 26 11 70 12
REMARK SMILES IDX 27 13 28 14 29 15 64 16 30 17 69 18 63 19 65 20 31 21 68 22
REMARK SMILES IDX 62 23 61 24 32 26 54 27 39 28 53 29 40 30 43 31 52 32 66 33
REMARK SMILES IDX 41 34 42 35 51 37 67 38 44 39 33 40 34 41 38 42 35 43 37 44
REMARK SMILES IDX 36 45 55 46 56 47 60 48 57 49 59 50 58 51 45 52 46 53 50 54
REMARK SMILES IDX 47 55 49 56 48 57 8 58 9 59 10 60 11 61 12 62 13 63 14 64
REMARK SMILES IDX 15 65 16 66 23 67 17 68 22 69 18 70 21 71 19 72 20 73
REMARK H PARENT 65 25 43 36 19 74
REMARK Flexibility Score: inf
ROOT
ATOM      1  C   UNL A   1      41.614  19.521  26.154  1.00  0.00     0.188 C 
ENDROOT
BRANCH   1   2
ATOM      2  O   UNL A   1      42.501  19.608  25.030  1.00  0.00    -0.376 OA
BRANCH   2   3
ATOM      3  C   UNL A   1      43.861  19.851  25.411  1.00  0.00     0.202 C 
BRANCH   3   4
ATOM      4  C   UNL A   1      44.503  21.118  24.816  1.00  0.00     0.261 C 
BRANCH   4   5
ATOM      5  O   UNL A   1      43.667  22.285  24.882  1.00  0.00    -0.460 OA
BRANCH   5   6
ATOM      6  C   UNL A   1      44.018  23.592  24.948  1.00  0.00     0.338 C 
ATOM      7  O   UNL A   1      44.916  23.984  24.203  1.00  0.00    -0.246 OA
BRANCH   6   8
ATOM      8  C   UNL A   1      43.416  24.594  25.892  1.00  0.00     0.060 A 
ATOM      9  C   UNL A   1      43.853  25.906  26.078  1.00  0.00     0.016 A 
ATOM     10  C   UNL A   1      42.298  24.176  26.641  1.00  0.00     0.016 A 
ATOM     11  C   UNL A   1      43.261  26.757  27.000  1.00  0.00     0.010 A 
ATOM     12  C   UNL A   1      41.676  25.033  27.557  1.00  0.00     0.010 A 
ATOM     13  C   UNL A   1      42.181  26.323  27.753  1.00  0.00    -0.014 A 
BRANCH  13  14
ATOM     14  C   UNL A   1      41.725  27.188  28.853  1.00  0.00     0.031 A 
ATOM     15  C   UNL A   1      42.501  27.157  30.131  1.00  0.00     0.074 A 
ATOM     16  C   UNL A   1      40.745  28.089  28.661  1.00  0.00     0.049 A 
ATOM     17  N   UNL A   1      42.312  27.852  31.218  1.00  0.00    -0.248 NA
ATOM     18  C   UNL A   1      43.691  26.287  30.160  1.00  0.00     0.031 C 
ATOM     19  C   UNL A   1      40.100  28.377  27.384  1.00  0.00     0.029 A 
ATOM     20  N   UNL A   1      40.104  28.916  29.541  1.00  0.00    -0.354 N 
ATOM     21  C   UNL A   1      43.387  27.546  32.038  1.00  0.00     0.074 A 
ATOM     22  C   UNL A   1      44.189  26.557  31.356  1.00  0.00     0.031 C 
ATOM     23  C   UNL A   1      39.054  29.194  27.583  1.00  0.00     0.029 A 
ATOM     24  C   UNL A   1      38.995  29.522  28.997  1.00  0.00     0.049 A 
ATOM     25  H   UNL A   1      40.402  29.062  30.467  1.00  0.00     0.167 HD
ATOM     26  C   UNL A   1      43.688  28.081  33.242  1.00  0.00     0.031 A 
ATOM     27  C   UNL A   1      38.029  30.243  29.590  1.00  0.00     0.031 A 
ATOM     28  C   UNL A   1      42.842  29.025  33.915  1.00  0.00     0.049 A 
ATOM     29  C   UNL A   1      38.236  30.612  31.028  1.00  0.00     0.074 A 
ATOM     30  C   UNL A   1      42.999  29.594  35.163  1.00  0.00     0.029 A 
ATOM     31  N   UNL A   1      41.655  29.522  33.389  1.00  0.00    -0.354 N 
ATOM     32  N   UNL A   1      39.247  30.311  31.810  1.00  0.00    -0.248 NA
ATOM     33  C   UNL A   1      37.217  31.462  31.647  1.00  0.00     0.031 C 
ATOM     34  C   UNL A   1      41.871  30.379  35.422  1.00  0.00     0.029 A 
ATOM     35  C   UNL A   1      41.045  30.356  34.308  1.00  0.00     0.049 A 
ATOM     36  H   UNL A   1      41.301  29.310  32.495  1.00  0.00     0.167 HD
ATOM     37  C   UNL A   1      39.022  30.992  32.994  1.00  0.00     0.074 A 
ATOM     38  C   UNL A   1      37.771  31.710  32.827  1.00  0.00     0.031 C 
ATOM     39  C   UNL A   1      39.793  31.043  34.108  1.00  0.00     0.031 A 
BRANCH  26  40
ATOM     40  C   UNL A   1      44.946  27.595  33.901  1.00  0.00    -0.014 A 
ATOM     41  C   UNL A   1      45.002  26.342  34.536  1.00  0.00     0.009 A 
ATOM     42  C   UNL A   1      46.080  28.418  33.920  1.00  0.00     0.009 A 
ATOM     43  C   UNL A   1      46.160  25.941  35.205  1.00  0.00     0.001 A 
ATOM     44  C   UNL A   1      47.244  28.005  34.568  1.00  0.00     0.001 A 
ATOM     45  C   UNL A   1      47.281  26.771  35.219  1.00  0.00     0.000 A 
ENDBRANCH  26  40
BRANCH  27  46
ATOM     46  C   UNL A   1      36.813  30.645  28.839  1.00  0.00    -0.014 A 
ATOM     47  C   UNL A   1      36.552  31.988  28.533  1.00  0.00     0.009 A 
ATOM     48  C   UNL A   1      35.886  29.668  28.435  1.00  0.00     0.009 A 
ATOM     49  C   UNL A   1      35.370  32.347  27.878  1.00  0.00     0.001 A 
ATOM     50  C   UNL A   1      34.717  30.027  27.760  1.00  0.00     0.001 A 
ATOM     51  C   UNL A   1      34.454  31.369  27.494  1.00  0.00     0.000 A 
ENDBRANCH  27  46
BRANCH  39  52
ATOM     52  C   UNL A   1      39.313  31.939  35.211  1.00  0.00    -0.014 A 
ATOM     53  C   UNL A   1      38.462  31.464  36.219  1.00  0.00     0.009 A 
ATOM     54  C   UNL A   1      39.744  33.274  35.248  1.00  0.00     0.009 A 
ATOM     55  C   UNL A   1      38.024  32.322  37.227  1.00  0.00     0.001 A 
ATOM     56  C   UNL A   1      39.335  34.118  36.278  1.00  0.00     0.001 A 
ATOM     57  C   UNL A   1      38.466  33.644  37.259  1.00  0.00     0.000 A 
ENDBRANCH  39  52
ENDBRANCH  13  14
ENDBRANCH   6   8
ENDBRANCH   5   6
ENDBRANCH   4   5
ENDBRANCH   3   4
ENDBRANCH   2   3
ENDBRANCH   1   2
BRANCH   1  58
ATOM     58  C   UNL A   1      40.220  20.090  25.885  1.00  0.00     0.188 C 
BRANCH  58  59
ATOM     59  O   UNL A   1      39.232  19.201  25.377  1.00  0.00    -0.376 OA
BRANCH  59  60
ATOM     60  C   UNL A   1      37.987  19.752  24.972  1.00  0.00     0.202 C 
BRANCH  60  61
ATOM     61  C   UNL A   1      37.833  21.279  24.932  1.00  0.00     0.261 C 
BRANCH  61  62
ATOM     62  O   UNL A   1      36.911  21.848  25.875  1.00  0.00    -0.463 OA
BRANCH  62  63
ATOM     63  C   UNL A   1      36.376  23.040  25.493  1.00  0.00     0.309 C 
ATOM     64  O   UNL A   1      36.650  24.118  26.018  1.00  0.00    -0.252 OA
BRANCH  63  65
ATOM     65  C   UNL A   1      35.318  22.902  24.416  1.00  0.00     0.104 C 
ATOM     66  C   UNL A   1      34.612  24.200  23.938  1.00  0.00     0.022 C 
ATOM     67  C   UNL A   1      34.238  21.901  24.906  1.00  0.00     0.054 C 
ATOM     68  C   UNL A   1      33.684  23.935  22.718  1.00  0.00     0.057 C 
ATOM     69  C   UNL A   1      33.276  21.667  23.805  1.00  0.00    -0.006 A 
ATOM     70  C   UNL A   1      33.037  22.609  22.834  1.00  0.00     0.038 A 
ATOM     71  C   UNL A   1      32.511  20.557  23.421  1.00  0.00     0.138 A 
ATOM     72  N   UNL A   1      32.219  22.020  21.918  1.00  0.00    -0.282 N 
ATOM     73  N   UNL A   1      31.867  20.766  22.266  1.00  0.00    -0.184 NA
ATOM     74  H   UNL A   1      31.918  22.461  21.092  1.00  0.00     0.190 HD
ENDBRANCH  63  65
ENDBRANCH  62  63
ENDBRANCH  61  62
ENDBRANCH  60  61
ENDBRANCH  59  60
ENDBRANCH  58  59
ENDBRANCH   1  58
TORSDOF 17
ENDMDL
MODEL 2
REMARK VINA RESULT:      -9.7      3.479      8.518
REMARK SMILES O=C(OCCOCCOCCOC(=O)[C@@H]1CCc2[nH]ncc2C1)c1ccc(-c2c3nc(c(-c4ccccc4)c4ccc([nH]4)c(-c4ccccc4)c4nc(c(-c5ccccc5)c5ccc2[nH]5)C=C4)C=C3)cc1
REMARK SMILES IDX 7 1 6 2 5 3 4 4 3 5 2 6 1 7 24 8 25 9 71 10 26 11 70 12
REMARK SMILES IDX 27 13 28 14 29 15 64 16 30 17 69 18 63 19 65 20 31 21 68 22
REMARK SMILES IDX 62 23 61 24 32 26 54 27 39 28 53 29 40 30 43 31 52 32 66 33
REMARK SMILES IDX 41 34 42 35 51 37 67 38 44 39 33 40 34 41 38 42 35 43 37 44
REMARK SMILES IDX 36 45 55 46 56 47 60 48 57 49 59 50 58 51 45 52 46 53 50 54
REMARK SMILES IDX 47 55 49 56 48 57 8 58 9 59 10 60 11 61 12 62 13 63 14 64
REMARK SMILES IDX 15 65 16 66 23 67 17 68 22 69 18 70 21 71 19 72 20 73
REMARK H PARENT 65 25 43 36 19 74
REMARK Flexibility Score: inf
ROOT
ATOM      1  C   UNL A   1      32.901  28.821  26.145  1.00  0.00     0.188 C 
ENDROOT
BRANCH   1   2
ATOM      2  O   UNL A   1      32.766  30.231  25.925  1.00  0.00    -0.376 OA
BRANCH   2   3
ATOM      3  C   UNL A   1      32.700  30.983  27.144  1.00  0.00     0.202 C 
BRANCH   3   4
ATOM      4  C   UNL A   1      31.651  32.109  27.176  1.00  0.00     0.261 C 
BRANCH   4   5
ATOM      5  O   UNL A   1      32.209  33.431  27.125  1.00  0.00    -0.460 OA
BRANCH   5   6
ATOM      6  C   UNL A   1      32.879  34.121  28.080  1.00  0.00     0.338 C 
ATOM      7  O   UNL A   1      32.407  35.195  28.450  1.00  0.00    -0.246 OA
BRANCH   6   8
ATOM      8  C   UNL A   1      34.180  33.688  28.694  1.00  0.00     0.060 A 
ATOM      9  C   UNL A   1      35.441  33.819  28.112  1.00  0.00     0.016 A 
ATOM     10  C   UNL A   1      34.121  33.119  29.982  1.00  0.00     0.016 A 
ATOM     11  C   UNL A   1      36.593  33.359  28.736  1.00  0.00     0.010 A 
ATOM     12  C   UNL A   1      35.278  32.673  30.632  1.00  0.00     0.010 A 
ATOM     13  C   UNL A   1      36.517  32.772  29.989  1.00  0.00    -0.014 A 
BRANCH  13  14
ATOM     14  C   UNL A   1      37.729  32.120  30.512  1.00  0.00     0.031 A 
ATOM     15  C   UNL A   1      38.445  32.786  31.643  1.00  0.00     0.074 A 
ATOM     16  C   UNL A   1      38.086  30.893  30.094  1.00  0.00     0.049 A 
ATOM     17  N   UNL A   1      39.506  32.385  32.287  1.00  0.00    -0.248 NA
ATOM     18  C   UNL A   1      37.843  34.025  32.169  1.00  0.00     0.031 C 
ATOM     19  C   UNL A   1      37.315  30.052  29.185  1.00  0.00     0.029 A 
ATOM     20  N   UNL A   1      39.199  30.145  30.361  1.00  0.00    -0.354 N 
ATOM     21  C   UNL A   1      39.666  33.289  33.325  1.00  0.00     0.074 A 
ATOM     22  C   UNL A   1      38.639  34.296  33.191  1.00  0.00     0.031 C 
ATOM     23  C   UNL A   1      38.040  28.975  28.845  1.00  0.00     0.029 A 
ATOM     24  C   UNL A   1      39.305  29.034  29.556  1.00  0.00     0.049 A 
ATOM     25  H   UNL A   1      39.856  30.376  31.056  1.00  0.00     0.167 HD
ATOM     26  C   UNL A   1      40.578  33.252  34.322  1.00  0.00     0.031 A 
ATOM     27  C   UNL A   1      40.328  28.178  29.400  1.00  0.00     0.031 A 
ATOM     28  C   UNL A   1      41.618  32.266  34.397  1.00  0.00     0.049 A 
ATOM     29  C   UNL A   1      41.482  28.311  30.347  1.00  0.00     0.074 A 
ATOM     30  C   UNL A   1      42.640  32.154  35.319  1.00  0.00     0.029 A 
ATOM     31  N   UNL A   1      41.775  31.227  33.488  1.00  0.00    -0.354 N 
ATOM     32  N   UNL A   1      41.642  29.176  31.321  1.00  0.00    -0.248 NA
ATOM     33  C   UNL A   1      42.559  27.326  30.222  1.00  0.00     0.031 C 
ATOM     34  C   UNL A   1      43.458  31.089  34.925  1.00  0.00     0.029 A 
ATOM     35  C   UNL A   1      42.906  30.495  33.799  1.00  0.00     0.049 A 
ATOM     36  H   UNL A   1      41.171  31.040  32.733  1.00  0.00     0.167 HD
ATOM     37  C   UNL A   1      42.804  28.799  31.972  1.00  0.00     0.074 A 
ATOM     38  C   UNL A   1      43.312  27.634  31.269  1.00  0.00     0.031 C 
ATOM     39  C   UNL A   1      43.385  29.347  33.068  1.00  0.00     0.031 A 
BRANCH  26  40
ATOM     40  C   UNL A   1      40.501  34.344  35.348  1.00  0.00    -0.014 A 
ATOM     41  C   UNL A   1      41.186  35.559  35.176  1.00  0.00     0.009 A 
ATOM     42  C   UNL A   1      39.763  34.141  36.522  1.00  0.00     0.009 A 
ATOM     43  C   UNL A   1      41.160  36.533  36.177  1.00  0.00     0.001 A 
ATOM     44  C   UNL A   1      39.717  35.125  37.510  1.00  0.00     0.001 A 
ATOM     45  C   UNL A   1      40.424  36.317  37.341  1.00  0.00     0.000 A 
ENDBRANCH  26  40
BRANCH  27  46
ATOM     46  C   UNL A   1      40.301  27.152  28.327  1.00  0.00    -0.014 A 
ATOM     47  C   UNL A   1      39.730  25.888  28.536  1.00  0.00     0.009 A 
ATOM     48  C   UNL A   1      40.873  27.435  27.075  1.00  0.00     0.009 A 
ATOM     49  C   UNL A   1      39.771  24.918  27.531  1.00  0.00     0.001 A 
ATOM     50  C   UNL A   1      40.892  26.471  26.063  1.00  0.00     0.001 A 
ATOM     51  C   UNL A   1      40.352  25.208  26.297  1.00  0.00     0.000 A 
ENDBRANCH  27  46
BRANCH  39  52
ATOM     52  C   UNL A   1      44.612  28.659  33.587  1.00  0.00    -0.014 A 
ATOM     53  C   UNL A   1      45.891  29.006  33.130  1.00  0.00     0.009 A 
ATOM     54  C   UNL A   1      44.479  27.666  34.570  1.00  0.00     0.009 A 
ATOM     55  C   UNL A   1      47.014  28.343  33.623  1.00  0.00     0.001 A 
ATOM     56  C   UNL A   1      45.606  27.033  35.089  1.00  0.00     0.001 A 
ATOM     57  C   UNL A   1      46.870  27.364  34.606  1.00  0.00     0.000 A 
ENDBRANCH  39  52
ENDBRANCH  13  14
ENDBRANCH   6   8
ENDBRANCH   5   6
ENDBRANCH   4   5
ENDBRANCH   3   4
ENDBRANCH   2   3
ENDBRANCH   1   2
BRANCH   1  58
ATOM     58  C   UNL A   1      31.877  27.977  25.386  1.00  0.00     0.188 C 
BRANCH  58  59
ATOM     59  O   UNL A   1      31.069  27.082  26.143  1.00  0.00    -0.376 OA
BRANCH  59  60
ATOM     60  C   UNL A   1      30.388  26.050  25.446  1.00  0.00     0.202 C 
BRANCH  60  61
ATOM     61  C   UNL A   1      30.847  25.691  24.025  1.00  0.00     0.261 C 
BRANCH  61  62
ATOM     62  O   UNL A   1      31.335  24.353  23.835  1.00  0.00    -0.463 OA
BRANCH  62  63
ATOM     63  C   UNL A   1      32.578  24.127  24.344  1.00  0.00     0.309 C 
ATOM     64  O   UNL A   1      33.548  24.854  24.139  1.00  0.00    -0.252 OA
BRANCH  63  65
ATOM     65  C   UNL A   1      32.682  22.823  25.109  1.00  0.00     0.104 C 
ATOM     66  C   UNL A   1      33.772  22.726  26.210  1.00  0.00     0.022 C 
ATOM     67  C   UNL A   1      32.897  21.668  24.094  1.00  0.00     0.054 C 
ATOM     68  C   UNL A   1      33.652  21.408  27.027  1.00  0.00     0.057 C 
ATOM     69  C   UNL A   1      32.869  20.383  24.830  1.00  0.00    -0.006 A 
ATOM     70  C   UNL A   1      33.226  20.292  26.153  1.00  0.00     0.038 A 
ATOM     71  C   UNL A   1      32.446  19.091  24.485  1.00  0.00     0.138 A 
ATOM     72  N   UNL A   1      32.953  19.014  26.540  1.00  0.00    -0.282 N 
ATOM     73  N   UNL A   1      32.490  18.254  25.528  1.00  0.00    -0.184 NA
ATOM     74  H   UNL A   1      33.079  18.684  27.458  1.00  0.00     0.190 HD
ENDBRANCH  63  65
ENDBRANCH  62  63
ENDBRANCH  61  62
ENDBRANCH  60  61
ENDBRANCH  59  60
ENDBRANCH  58  59
ENDBRANCH   1  58
TORSDOF 17
ENDMDL
MODEL 3
REMARK VINA RESULT:      -9.7      3.850      8.766
REMARK SMILES O=C(OCCOCCOCCOC(=O)[C@@H]1CCc2[nH]ncc2C1)c1ccc(-c2c3nc(c(-c4ccccc4)c4ccc([nH]4)c(-c4ccccc4)c4nc(c(-c5ccccc5)c5ccc2[nH]5)C=C4)C=C3)cc1
REMARK SMILES IDX 7 1 6 2 5 3 4 4 3 5 2 6 1 7 24 8 25 9 71 10 26 11 70 12
REMARK SMILES IDX 27 13 28 14 29 15 64 16 30 17 69 18 63 19 65 20 31 21 68 22
REMARK SMILES IDX 62 23 61 24 32 26 54 27 39 28 53 29 40 30 43 31 52 32 66 33
REMARK SMILES IDX 41 34 42 35 51 37 67 38 44 39 33 40 34 41 38 42 35 43 37 44
REMARK SMILES IDX 36 45 55 46 56 47 60 48 57 49 59 50 58 51 45 52 46 53 50 54
REMARK SMILES IDX 47 55 49 56 48 57 8 58 9 59 10 60 11 61 12 62 13 63 14 64
REMARK SMILES IDX 15 65 16 66 23 67 17 68 22 69 18 70 21 71 19 72 20 73
REMARK H PARENT 65 25 43 36 19 74
REMARK Flexibility Score: inf
ROOT
ATOM      1  C   UNL A   1      32.772  29.005  27.063  1.00  0.00     0.188 C 
ENDROOT
BRANCH   1   2
ATOM      2  O   UNL A   1      32.934  30.396  27.372  1.00  0.00    -0.376 OA
BRANCH   2   3
ATOM      3  C   UNL A   1      32.216  31.254  26.475  1.00  0.00     0.202 C 
BRANCH   3   4
ATOM      4  C   UNL A   1      31.427  32.398  27.137  1.00  0.00     0.261 C 
BRANCH   4   5
ATOM      5  O   UNL A   1      32.144  33.640  27.209  1.00  0.00    -0.460 OA
BRANCH   5   6
ATOM      6  C   UNL A   1      32.951  34.114  28.189  1.00  0.00     0.338 C 
ATOM      7  O   UNL A   1      32.689  35.219  28.664  1.00  0.00    -0.246 OA
BRANCH   6   8
ATOM      8  C   UNL A   1      34.167  33.406  28.715  1.00  0.00     0.060 A 
ATOM      9  C   UNL A   1      34.231  32.657  29.890  1.00  0.00     0.016 A 
ATOM     10  C   UNL A   1      35.341  33.490  27.941  1.00  0.00     0.016 A 
ATOM     11  C   UNL A   1      35.408  32.063  30.324  1.00  0.00     0.010 A 
ATOM     12  C   UNL A   1      36.529  32.875  28.354  1.00  0.00     0.010 A 
ATOM     13  C   UNL A   1      36.564  32.180  29.567  1.00  0.00    -0.014 A 
BRANCH  13  14
ATOM     14  C   UNL A   1      37.823  31.710  30.169  1.00  0.00     0.031 A 
ATOM     15  C   UNL A   1      38.370  30.399  29.705  1.00  0.00     0.074 A 
ATOM     16  C   UNL A   1      38.535  32.506  30.987  1.00  0.00     0.049 A 
ATOM     17  N   UNL A   1      39.473  29.802  30.061  1.00  0.00    -0.248 NA
ATOM     18  C   UNL A   1      37.616  29.706  28.644  1.00  0.00     0.031 C 
ATOM     19  C   UNL A   1      38.220  33.896  31.299  1.00  0.00     0.029 A 
ATOM     20  N   UNL A   1      39.660  32.257  31.723  1.00  0.00    -0.354 N 
ATOM     21  C   UNL A   1      39.574  28.696  29.232  1.00  0.00     0.074 A 
ATOM     22  C   UNL A   1      38.393  28.663  28.401  1.00  0.00     0.031 C 
ATOM     23  C   UNL A   1      39.030  34.333  32.276  1.00  0.00     0.029 A 
ATOM     24  C   UNL A   1      39.950  33.262  32.616  1.00  0.00     0.049 A 
ATOM     25  H   UNL A   1      40.205  31.443  31.625  1.00  0.00     0.167 HD
ATOM     26  C   UNL A   1      40.590  27.808  29.156  1.00  0.00     0.031 A 
ATOM     27  C   UNL A   1      40.850  33.295  33.613  1.00  0.00     0.031 A 
ATOM     28  C   UNL A   1      41.726  27.840  30.033  1.00  0.00     0.049 A 
ATOM     29  C   UNL A   1      41.820  32.156  33.697  1.00  0.00     0.074 A 
ATOM     30  C   UNL A   1      42.792  26.963  30.102  1.00  0.00     0.029 A 
ATOM     31  N   UNL A   1      41.926  28.800  31.017  1.00  0.00    -0.354 N 
ATOM     32  N   UNL A   1      41.908  31.100  32.921  1.00  0.00    -0.248 NA
ATOM     33  C   UNL A   1      42.847  32.235  34.738  1.00  0.00     0.031 C 
ATOM     34  C   UNL A   1      43.599  27.354  31.176  1.00  0.00     0.029 A 
ATOM     35  C   UNL A   1      43.075  28.513  31.730  1.00  0.00     0.049 A 
ATOM     36  H   UNL A   1      41.337  29.571  31.182  1.00  0.00     0.167 HD
ATOM     37  C   UNL A   1      43.042  30.422  33.335  1.00  0.00     0.074 A 
ATOM     38  C   UNL A   1      43.598  31.183  34.440  1.00  0.00     0.031 C 
ATOM     39  C   UNL A   1      43.590  29.289  32.832  1.00  0.00     0.031 A 
BRANCH  26  40
ATOM     40  C   UNL A   1      40.461  26.719  28.132  1.00  0.00    -0.014 A 
ATOM     41  C   UNL A   1      39.792  25.517  28.423  1.00  0.00     0.009 A 
ATOM     42  C   UNL A   1      41.046  26.882  26.870  1.00  0.00     0.009 A 
ATOM     43  C   UNL A   1      39.746  24.488  27.480  1.00  0.00     0.001 A 
ATOM     44  C   UNL A   1      40.977  25.862  25.920  1.00  0.00     0.001 A 
ATOM     45  C   UNL A   1      40.336  24.662  26.229  1.00  0.00     0.000 A 
ENDBRANCH  26  40
BRANCH  27  46
ATOM     46  C   UNL A   1      40.864  34.418  34.585  1.00  0.00    -0.014 A 
ATOM     47  C   UNL A   1      40.068  34.398  35.738  1.00  0.00     0.009 A 
ATOM     48  C   UNL A   1      41.677  35.539  34.345  1.00  0.00     0.009 A 
ATOM     49  C   UNL A   1      40.053  35.493  36.607  1.00  0.00     0.001 A 
ATOM     50  C   UNL A   1      41.678  36.623  35.227  1.00  0.00     0.001 A 
ATOM     51  C   UNL A   1      40.855  36.604  36.350  1.00  0.00     0.000 A 
ENDBRANCH  27  46
BRANCH  39  52
ATOM     52  C   UNL A   1      44.877  28.837  33.454  1.00  0.00    -0.014 A 
ATOM     53  C   UNL A   1      44.891  27.939  34.531  1.00  0.00     0.009 A 
ATOM     54  C   UNL A   1      46.094  29.302  32.931  1.00  0.00     0.009 A 
ATOM     55  C   UNL A   1      46.102  27.543  35.097  1.00  0.00     0.001 A 
ATOM     56  C   UNL A   1      47.303  28.874  33.473  1.00  0.00     0.001 A 
ATOM     57  C   UNL A   1      47.305  28.005  34.563  1.00  0.00     0.000 A 
ENDBRANCH  39  52
ENDBRANCH  13  14
ENDBRANCH   6   8
ENDBRANCH   5   6
ENDBRANCH   4   5
ENDBRANCH   3   4
ENDBRANCH   2   3
ENDBRANCH   1   2
BRANCH   1  58
ATOM     58  C   UNL A   1      31.804  28.738  25.911  1.00  0.00     0.188 C 
BRANCH  58  59
ATOM     59  O   UNL A   1      31.624  27.386  25.501  1.00  0.00    -0.376 OA
BRANCH  59  60
ATOM     60  C   UNL A   1      31.674  26.377  26.499  1.00  0.00     0.202 C 
BRANCH  60  61
ATOM     61  C   UNL A   1      30.837  25.104  26.304  1.00  0.00     0.261 C 
BRANCH  61  62
ATOM     62  O   UNL A   1      31.195  23.979  27.123  1.00  0.00    -0.463 OA
BRANCH  62  63
ATOM     63  C   UNL A   1      31.074  22.771  26.508  1.00  0.00     0.309 C 
ATOM     64  O   UNL A   1      30.001  22.207  26.303  1.00  0.00    -0.252 OA
BRANCH  63  65
ATOM     65  C   UNL A   1      32.409  22.128  26.188  1.00  0.00     0.104 C 
ATOM     66  C   UNL A   1      33.543  23.054  25.670  1.00  0.00     0.022 C 
ATOM     67  C   UNL A   1      32.179  20.996  25.151  1.00  0.00     0.054 C 
ATOM     68  C   UNL A   1      34.896  22.298  25.551  1.00  0.00     0.057 C 
ATOM     69  C   UNL A   1      33.460  20.285  24.937  1.00  0.00    -0.006 A 
ATOM     70  C   UNL A   1      34.675  20.901  25.115  1.00  0.00     0.038 A 
ATOM     71  C   UNL A   1      33.777  18.954  24.631  1.00  0.00     0.138 A 
ATOM     72  N   UNL A   1      35.623  19.932  24.972  1.00  0.00    -0.282 N 
ATOM     73  N   UNL A   1      35.096  18.733  24.657  1.00  0.00    -0.184 NA
ATOM     74  H   UNL A   1      36.587  20.092  25.088  1.00  0.00     0.190 HD
ENDBRANCH  63  65
ENDBRANCH  62  63
ENDBRANCH  61  62
ENDBRANCH  60  61
ENDBRANCH  59  60
ENDBRANCH  58  59
ENDBRANCH   1  58
TORSDOF 17
ENDMDL
