MODEL 1
REMARK VINA RESULT:     -10.5      0.000      0.000
REMARK SMILES O=C(OCCOCCOCCOC(=O)[C@@]1(Cl)C=CC=C(c2ccccc2)[C@H]1Cl)c1ccc(-c2c3nc(c(-c4ccccc4)c4ccc([nH]4)c(-c4ccccc4)c4nc(c(-c5ccccc5)c5ccc2[nH]5)C=C4)C=C3)cc1
REMARK SMILES IDX 7 1 6 2 5 3 4 4 3 5 2 6 1 7 29 8 30 9 76 10 31 11 75 12
REMARK SMILES IDX 32 13 33 14 34 15 69 16 35 17 74 18 68 19 70 20 36 21 73 22
REMARK SMILES IDX 67 23 66 24 37 26 59 27 44 28 58 29 45 30 48 31 57 32 71 33
REMARK SMILES IDX 46 34 47 35 56 37 72 38 49 39 38 40 39 41 43 42 40 43 42 44
REMARK SMILES IDX 41 45 60 46 61 47 65 48 62 49 64 50 63 51 50 52 51 53 55 54
REMARK SMILES IDX 52 55 54 56 53 57 8 58 9 59 10 60 11 61 12 62 13 63 14 64
REMARK SMILES IDX 15 65 16 66 17 67 27 68 18 69 20 70 28 71 19 72 21 73 22 74
REMARK SMILES IDX 26 75 23 76 25 77 24 78
REMARK H PARENT 70 25 48 36
REMARK Flexibility Score: inf
ROOT
ATOM      1  C   UNL A   1      40.951  20.797  26.426  1.00  0.00     0.188 C 
ENDROOT
BRANCH   1   2
ATOM      2  O   UNL A   1      41.942  21.162  25.456  1.00  0.00    -0.376 OA
BRANCH   2   3
ATOM      3  C   UNL A   1      43.240  20.622  25.735  1.00  0.00     0.202 C 
BRANCH   3   4
ATOM      4  C   UNL A   1      44.444  21.475  25.290  1.00  0.00     0.261 C 
BRANCH   4   5
ATOM      5  O   UNL A   1      44.096  22.719  24.658  1.00  0.00    -0.460 OA
BRANCH   5   6
ATOM      6  C   UNL A   1      44.540  23.973  24.912  1.00  0.00     0.338 C 
ATOM      7  O   UNL A   1      45.559  24.358  24.341  1.00  0.00    -0.246 OA
BRANCH   6   8
ATOM      8  C   UNL A   1      43.865  24.930  25.841  1.00  0.00     0.060 A 
ATOM      9  C   UNL A   1      44.070  26.309  25.876  1.00  0.00     0.016 A 
ATOM     10  C   UNL A   1      42.911  24.392  26.721  1.00  0.00     0.016 A 
ATOM     11  C   UNL A   1      43.460  27.117  26.828  1.00  0.00     0.010 A 
ATOM     12  C   UNL A   1      42.246  25.205  27.644  1.00  0.00     0.010 A 
ATOM     13  C   UNL A   1      42.562  26.567  27.735  1.00  0.00    -0.014 A 
BRANCH  13  14
ATOM     14  C   UNL A   1      42.061  27.386  28.856  1.00  0.00     0.031 A 
ATOM     15  C   UNL A   1      42.796  27.354  30.148  1.00  0.00     0.074 A 
ATOM     16  C   UNL A   1      41.005  28.203  28.721  1.00  0.00     0.049 A 
ATOM     17  N   UNL A   1      42.503  27.968  31.259  1.00  0.00    -0.248 NA
ATOM     18  C   UNL A   1      44.045  26.578  30.179  1.00  0.00     0.031 C 
ATOM     19  C   UNL A   1      40.341  28.475  27.461  1.00  0.00     0.029 A 
ATOM     20  N   UNL A   1      40.286  28.927  29.638  1.00  0.00    -0.354 N 
ATOM     21  C   UNL A   1      43.543  27.676  32.120  1.00  0.00     0.074 A 
ATOM     22  C   UNL A   1      44.442  26.779  31.425  1.00  0.00     0.031 C 
ATOM     23  C   UNL A   1      39.244  29.203  27.705  1.00  0.00     0.029 A 
ATOM     24  C   UNL A   1      39.131  29.454  29.114  1.00  0.00     0.049 A 
ATOM     25  H   UNL A   1      40.568  29.056  30.573  1.00  0.00     0.167 HD
ATOM     26  C   UNL A   1      43.733  28.142  33.374  1.00  0.00     0.031 A 
ATOM     27  C   UNL A   1      38.070  30.062  29.671  1.00  0.00     0.031 A 
ATOM     28  C   UNL A   1      42.796  28.992  34.055  1.00  0.00     0.049 A 
ATOM     29  C   UNL A   1      38.193  30.405  31.112  1.00  0.00     0.074 A 
ATOM     30  C   UNL A   1      42.861  29.487  35.343  1.00  0.00     0.029 A 
ATOM     31  N   UNL A   1      41.604  29.455  33.508  1.00  0.00    -0.354 N 
ATOM     32  N   UNL A   1      39.192  30.140  31.915  1.00  0.00    -0.248 NA
ATOM     33  C   UNL A   1      37.107  31.185  31.709  1.00  0.00     0.031 C 
ATOM     34  C   UNL A   1      41.675  30.185  35.600  1.00  0.00     0.029 A 
ATOM     35  C   UNL A   1      40.899  30.183  34.451  1.00  0.00     0.049 A 
ATOM     36  H   UNL A   1      41.306  29.289  32.584  1.00  0.00     0.167 HD
ATOM     37  C   UNL A   1      38.889  30.770  33.103  1.00  0.00     0.074 A 
ATOM     38  C   UNL A   1      37.611  31.432  32.909  1.00  0.00     0.031 C 
ATOM     39  C   UNL A   1      39.616  30.807  34.243  1.00  0.00     0.031 A 
BRANCH  26  40
ATOM     40  C   UNL A   1      44.957  27.637  34.073  1.00  0.00    -0.014 A 
ATOM     41  C   UNL A   1      46.194  28.295  33.957  1.00  0.00     0.009 A 
ATOM     42  C   UNL A   1      44.891  26.421  34.766  1.00  0.00     0.009 A 
ATOM     43  C   UNL A   1      47.353  27.709  34.472  1.00  0.00     0.001 A 
ATOM     44  C   UNL A   1      46.046  25.855  35.305  1.00  0.00     0.001 A 
ATOM     45  C   UNL A   1      47.277  26.489  35.143  1.00  0.00     0.000 A 
ENDBRANCH  26  40
BRANCH  27  46
ATOM     46  C   UNL A   1      36.854  30.389  28.870  1.00  0.00    -0.014 A 
ATOM     47  C   UNL A   1      35.935  29.400  28.496  1.00  0.00     0.009 A 
ATOM     48  C   UNL A   1      36.604  31.717  28.475  1.00  0.00     0.009 A 
ATOM     49  C   UNL A   1      34.829  29.719  27.700  1.00  0.00     0.001 A 
ATOM     50  C   UNL A   1      35.476  32.040  27.715  1.00  0.00     0.001 A 
ATOM     51  C   UNL A   1      34.600  31.037  27.311  1.00  0.00     0.000 A 
ENDBRANCH  27  46
BRANCH  39  52
ATOM     52  C   UNL A   1      39.026  31.609  35.359  1.00  0.00    -0.014 A 
ATOM     53  C   UNL A   1      39.340  32.967  35.517  1.00  0.00     0.009 A 
ATOM     54  C   UNL A   1      38.153  30.989  36.263  1.00  0.00     0.009 A 
ATOM     55  C   UNL A   1      38.816  33.683  36.592  1.00  0.00     0.001 A 
ATOM     56  C   UNL A   1      37.602  31.719  37.314  1.00  0.00     0.001 A 
ATOM     57  C   UNL A   1      37.942  33.060  37.483  1.00  0.00     0.000 A 
ENDBRANCH  39  52
ENDBRANCH  13  14
ENDBRANCH   6   8
ENDBRANCH   5   6
ENDBRANCH   4   5
ENDBRANCH   3   4
ENDBRANCH   2   3
ENDBRANCH   1   2
BRANCH   1  58
ATOM     58  C   UNL A   1      39.641  21.570  26.303  1.00  0.00     0.188 C 
BRANCH  58  59
ATOM     59  O   UNL A   1      39.663  22.953  26.636  1.00  0.00    -0.376 OA
BRANCH  59  60
ATOM     60  C   UNL A   1      38.430  23.656  26.633  1.00  0.00     0.202 C 
BRANCH  60  61
ATOM     61  C   UNL A   1      37.590  23.659  25.352  1.00  0.00     0.261 C 
BRANCH  61  62
ATOM     62  O   UNL A   1      36.347  22.952  25.411  1.00  0.00    -0.462 OA
BRANCH  62  63
ATOM     63  C   UNL A   1      35.751  22.774  24.184  1.00  0.00     0.333 C 
ATOM     64  O   UNL A   1      36.281  23.059  23.122  1.00  0.00    -0.250 OA
BRANCH  63  65
ATOM     65  C   UNL A   1      34.294  22.321  24.342  1.00  0.00     0.180 C 
ATOM     66  Cl  UNL A   1      33.548  23.399  25.636  1.00  0.00    -0.100 Cl
ATOM     67  C   UNL A   1      33.411  22.619  23.139  1.00  0.00     0.009 C 
ATOM     68  C   UNL A   1      34.268  20.841  24.854  1.00  0.00     0.148 C 
ATOM     69  C   UNL A   1      32.422  21.795  22.772  1.00  0.00    -0.002 C 
ATOM     70  C   UNL A   1      33.192  19.985  24.208  1.00  0.00    -0.020 C 
ATOM     71  Cl  UNL A   1      35.872  19.982  24.793  1.00  0.00    -0.115 Cl
ATOM     72  C   UNL A   1      32.255  20.510  23.400  1.00  0.00     0.006 C 
BRANCH  70  73
ATOM     73  C   UNL A   1      33.242  18.532  24.461  1.00  0.00    -0.021 A 
ATOM     74  C   UNL A   1      32.895  18.051  25.741  1.00  0.00     0.008 A 
ATOM     75  C   UNL A   1      33.526  17.623  23.448  1.00  0.00     0.008 A 
ATOM     76  C   UNL A   1      32.844  16.683  26.005  1.00  0.00     0.001 A 
ATOM     77  C   UNL A   1      33.440  16.252  23.707  1.00  0.00     0.001 A 
ATOM     78  C   UNL A   1      33.107  15.783  24.980  1.00  0.00     0.000 A 
ENDBRANCH  70  73
ENDBRANCH  63  65
ENDBRANCH  62  63
ENDBRANCH  61  62
ENDBRANCH  60  61
ENDBRANCH  59  60
ENDBRANCH  58  59
ENDBRANCH   1  58
TORSDOF 18
ENDMDL
MODEL 2
REMARK VINA RESULT:     -10.2      3.996      8.584
REMARK SMILES O=C(OCCOCCOCCOC(=O)[C@@]1(Cl)C=CC=C(c2ccccc2)[C@H]1Cl)c1ccc(-c2c3nc(c(-c4ccccc4)c4ccc([nH]4)c(-c4ccccc4)c4nc(c(-c5ccccc5)c5ccc2[nH]5)C=C4)C=C3)cc1
REMARK SMILES IDX 7 1 6 2 5 3 4 4 3 5 2 6 1 7 29 8 30 9 76 10 31 11 75 12
REMARK SMILES IDX 32 13 33 14 34 15 69 16 35 17 74 18 68 19 70 20 36 21 73 22
REMARK SMILES IDX 67 23 66 24 37 26 59 27 44 28 58 29 45 30 48 31 57 32 71 33
REMARK SMILES IDX 46 34 47 35 56 37 72 38 49 39 38 40 39 41 43 42 40 43 42 44
REMARK SMILES IDX 41 45 60 46 61 47 65 48 62 49 64 50 63 51 50 52 51 53 55 54
REMARK SMILES IDX 52 55 54 56 53 57 8 58 9 59 10 60 11 61 12 62 13 63 14 64
REMARK SMILES IDX 15 65 16 66 17 67 27 68 18 69 20 70 28 71 19 72 21 73 22 74
REMARK SMILES IDX 26 75 23 76 25 77 24 78
REMARK H PARENT 70 25 48 36
REMARK Flexibility Score: inf
ROOT
ATOM      1  C   UNL A   1      32.675  29.383  24.985  1.00  0.00     0.188 C 
ENDROOT
BRANCH   1   2
ATOM      2  O   UNL A   1      33.361  30.037  26.061  1.00  0.00    -0.376 OA
BRANCH   2   3
ATOM      3  C   UNL A   1      32.497  30.424  27.137  1.00  0.00     0.202 C 
BRANCH   3   4
ATOM      4  C   UNL A   1      31.755  31.764  26.968  1.00  0.00     0.261 C 
BRANCH   4   5
ATOM      5  O   UNL A   1      32.605  32.923  26.961  1.00  0.00    -0.460 OA
BRANCH   5   6
ATOM      6  C   UNL A   1      33.070  33.662  27.996  1.00  0.00     0.338 C 
ATOM      7  O   UNL A   1      32.390  34.608  28.390  1.00  0.00    -0.246 OA
BRANCH   6   8
ATOM      8  C   UNL A   1      34.362  33.399  28.700  1.00  0.00     0.060 A 
ATOM      9  C   UNL A   1      35.617  33.849  28.289  1.00  0.00     0.016 A 
ATOM     10  C   UNL A   1      34.293  32.676  29.902  1.00  0.00     0.016 A 
ATOM     11  C   UNL A   1      36.780  33.491  28.960  1.00  0.00     0.010 A 
ATOM     12  C   UNL A   1      35.452  32.359  30.618  1.00  0.00     0.010 A 
ATOM     13  C   UNL A   1      36.708  32.723  30.116  1.00  0.00    -0.014 A 
BRANCH  13  14
ATOM     14  C   UNL A   1      37.946  32.190  30.718  1.00  0.00     0.031 A 
ATOM     15  C   UNL A   1      38.516  30.927  30.180  1.00  0.00     0.074 A 
ATOM     16  C   UNL A   1      38.601  32.847  31.688  1.00  0.00     0.049 A 
ATOM     17  N   UNL A   1      39.568  30.277  30.589  1.00  0.00    -0.248 NA
ATOM     18  C   UNL A   1      37.851  30.351  29.003  1.00  0.00     0.031 C 
ATOM     19  C   UNL A   1      38.260  34.180  32.145  1.00  0.00     0.029 A 
ATOM     20  N   UNL A   1      39.660  32.484  32.483  1.00  0.00    -0.354 N 
ATOM     21  C   UNL A   1      39.711  29.226  29.706  1.00  0.00     0.074 A 
ATOM     22  C   UNL A   1      38.603  29.287  28.777  1.00  0.00     0.031 C 
ATOM     23  C   UNL A   1      39.010  34.469  33.215  1.00  0.00     0.029 A 
ATOM     24  C   UNL A   1      39.878  33.365  33.514  1.00  0.00     0.049 A 
ATOM     25  H   UNL A   1      40.205  31.678  32.330  1.00  0.00     0.167 HD
ATOM     26  C   UNL A   1      40.702  28.308  29.669  1.00  0.00     0.031 A 
ATOM     27  C   UNL A   1      40.665  33.321  34.602  1.00  0.00     0.031 A 
ATOM     28  C   UNL A   1      41.762  28.244  30.636  1.00  0.00     0.049 A 
ATOM     29  C   UNL A   1      41.632  32.193  34.665  1.00  0.00     0.074 A 
ATOM     30  C   UNL A   1      42.793  27.328  30.726  1.00  0.00     0.029 A 
ATOM     31  N   UNL A   1      41.913  29.122  31.704  1.00  0.00    -0.354 N 
ATOM     32  N   UNL A   1      41.772  31.211  33.812  1.00  0.00    -0.248 NA
ATOM     33  C   UNL A   1      42.589  32.195  35.773  1.00  0.00     0.031 C 
ATOM     34  C   UNL A   1      43.521  27.607  31.888  1.00  0.00     0.029 A 
ATOM     35  C   UNL A   1      42.987  28.737  32.489  1.00  0.00     0.049 A 
ATOM     36  H   UNL A   1      41.339  29.904  31.877  1.00  0.00     0.167 HD
ATOM     37  C   UNL A   1      42.874  30.502  34.242  1.00  0.00     0.074 A 
ATOM     38  C   UNL A   1      43.363  31.175  35.432  1.00  0.00     0.031 C 
ATOM     39  C   UNL A   1      43.435  29.405  33.685  1.00  0.00     0.031 A 
BRANCH  26  40
ATOM     40  C   UNL A   1      40.584  27.272  28.594  1.00  0.00    -0.014 A 
ATOM     41  C   UNL A   1      41.167  27.456  27.328  1.00  0.00     0.009 A 
ATOM     42  C   UNL A   1      39.780  26.147  28.819  1.00  0.00     0.009 A 
ATOM     43  C   UNL A   1      40.894  26.561  26.291  1.00  0.00     0.001 A 
ATOM     44  C   UNL A   1      39.536  25.238  27.790  1.00  0.00     0.001 A 
ATOM     45  C   UNL A   1      40.078  25.455  26.523  1.00  0.00     0.000 A 
ENDBRANCH  26  40
BRANCH  27  46
ATOM     46  C   UNL A   1      40.579  34.363  35.666  1.00  0.00    -0.014 A 
ATOM     47  C   UNL A   1      41.382  35.511  35.634  1.00  0.00     0.009 A 
ATOM     48  C   UNL A   1      39.673  34.211  36.732  1.00  0.00     0.009 A 
ATOM     49  C   UNL A   1      41.324  36.450  36.671  1.00  0.00     0.001 A 
ATOM     50  C   UNL A   1      39.587  35.171  37.745  1.00  0.00     0.001 A 
ATOM     51  C   UNL A   1      40.427  36.281  37.724  1.00  0.00     0.000 A 
ENDBRANCH  27  46
BRANCH  39  52
ATOM     52  C   UNL A   1      44.654  28.883  34.376  1.00  0.00    -0.014 A 
ATOM     53  C   UNL A   1      45.933  29.355  34.042  1.00  0.00     0.009 A 
ATOM     54  C   UNL A   1      44.516  27.901  35.366  1.00  0.00     0.009 A 
ATOM     55  C   UNL A   1      47.059  28.821  34.665  1.00  0.00     0.001 A 
ATOM     56  C   UNL A   1      45.642  27.397  36.014  1.00  0.00     0.001 A 
ATOM     57  C   UNL A   1      46.911  27.850  35.655  1.00  0.00     0.000 A 
ENDBRANCH  39  52
ENDBRANCH  13  14
ENDBRANCH   6   8
ENDBRANCH   5   6
ENDBRANCH   4   5
ENDBRANCH   3   4
ENDBRANCH   2   3
ENDBRANCH   1   2
BRANCH   1  58
ATOM     58  C   UNL A   1      33.569  29.018  23.803  1.00  0.00     0.188 C 
BRANCH  58  59
ATOM     59  O   UNL A   1      32.930  28.656  22.586  1.00  0.00    -0.376 OA
BRANCH  59  60
ATOM     60  C   UNL A   1      31.511  28.654  22.557  1.00  0.00     0.202 C 
BRANCH  60  61
ATOM     61  C   UNL A   1      30.776  27.316  22.678  1.00  0.00     0.261 C 
BRANCH  61  62
ATOM     62  O   UNL A   1      30.523  26.853  24.009  1.00  0.00    -0.462 OA
BRANCH  62  63
ATOM     63  C   UNL A   1      30.628  25.490  24.152  1.00  0.00     0.333 C 
ATOM     64  O   UNL A   1      30.079  24.683  23.417  1.00  0.00    -0.250 OA
BRANCH  63  65
ATOM     65  C   UNL A   1      31.390  25.128  25.434  1.00  0.00     0.180 C 
ATOM     66  Cl  UNL A   1      31.316  26.612  26.523  1.00  0.00    -0.100 Cl
ATOM     67  C   UNL A   1      30.707  24.075  26.294  1.00  0.00     0.009 C 
ATOM     68  C   UNL A   1      32.890  24.848  25.079  1.00  0.00     0.148 C 
ATOM     69  C   UNL A   1      31.408  23.176  26.994  1.00  0.00    -0.002 C 
ATOM     70  C   UNL A   1      33.493  23.678  25.837  1.00  0.00    -0.020 C 
ATOM     71  Cl  UNL A   1      33.237  24.686  23.300  1.00  0.00    -0.115 Cl
ATOM     72  C   UNL A   1      32.835  23.061  26.834  1.00  0.00     0.006 C 
BRANCH  70  73
ATOM     73  C   UNL A   1      34.820  23.203  25.402  1.00  0.00    -0.021 A 
ATOM     74  C   UNL A   1      35.924  24.074  25.509  1.00  0.00     0.008 A 
ATOM     75  C   UNL A   1      35.027  21.893  24.983  1.00  0.00     0.008 A 
ATOM     76  C   UNL A   1      37.212  23.645  25.191  1.00  0.00     0.001 A 
ATOM     77  C   UNL A   1      36.324  21.456  24.699  1.00  0.00     0.001 A 
ATOM     78  C   UNL A   1      37.411  22.328  24.796  1.00  0.00     0.000 A 
ENDBRANCH  70  73
ENDBRANCH  63  65
ENDBRANCH  62  63
ENDBRANCH  61  62
ENDBRANCH  60  61
ENDBRANCH  59  60
ENDBRANCH  58  59
ENDBRANCH   1  58
TORSDOF 18
ENDMDL
MODEL 3
REMARK VINA RESULT:     -10.1      3.978      8.315
REMARK SMILES O=C(OCCOCCOCCOC(=O)[C@@]1(Cl)C=CC=C(c2ccccc2)[C@H]1Cl)c1ccc(-c2c3nc(c(-c4ccccc4)c4ccc([nH]4)c(-c4ccccc4)c4nc(c(-c5ccccc5)c5ccc2[nH]5)C=C4)C=C3)cc1
REMARK SMILES IDX 7 1 6 2 5 3 4 4 3 5 2 6 1 7 29 8 30 9 76 10 31 11 75 12
REMARK SMILES IDX 32 13 33 14 34 15 69 16 35 17 74 18 68 19 70 20 36 21 73 22
REMARK SMILES IDX 67 23 66 24 37 26 59 27 44 28 58 29 45 30 48 31 57 32 71 33
REMARK SMILES IDX 46 34 47 35 56 37 72 38 49 39 38 40 39 41 43 42 40 43 42 44
REMARK SMILES IDX 41 45 60 46 61 47 65 48 62 49 64 50 63 51 50 52 51 53 55 54
REMARK SMILES IDX 52 55 54 56 53 57 8 58 9 59 10 60 11 61 12 62 13 63 14 64
REMARK SMILES IDX 15 65 16 66 17 67 27 68 18 69 20 70 28 71 19 72 21 73 22 74
REMARK SMILES IDX 26 75 23 76 25 77 24 78
REMARK H PARENT 70 25 48 36
REMARK Flexibility Score: inf
ROOT
ATOM      1  C   UNL A   1      32.910  29.083  25.111  1.00  0.00     0.188 C 
ENDROOT
BRANCH   1   2
ATOM      2  O   UNL A   1      33.034  30.336  25.798  1.00  0.00    -0.376 OA
BRANCH   2   3
ATOM      3  C   UNL A   1      32.085  30.501  26.860  1.00  0.00     0.202 C 
BRANCH   3   4
ATOM      4  C   UNL A   1      31.461  31.902  27.005  1.00  0.00     0.261 C 
BRANCH   4   5
ATOM      5  O   UNL A   1      32.399  32.988  26.917  1.00  0.00    -0.460 OA
BRANCH   5   6
ATOM      6  C   UNL A   1      32.998  33.697  27.904  1.00  0.00     0.338 C 
ATOM      7  O   UNL A   1      32.425  34.696  28.335  1.00  0.00    -0.246 OA
BRANCH   6   8
ATOM      8  C   UNL A   1      34.315  33.339  28.513  1.00  0.00     0.060 A 
ATOM      9  C   UNL A   1      35.563  33.538  27.923  1.00  0.00     0.016 A 
ATOM     10  C   UNL A   1      34.287  32.797  29.809  1.00  0.00     0.016 A 
ATOM     11  C   UNL A   1      36.737  33.101  28.525  1.00  0.00     0.010 A 
ATOM     12  C   UNL A   1      35.467  32.407  30.450  1.00  0.00     0.010 A 
ATOM     13  C   UNL A   1      36.695  32.511  29.782  1.00  0.00    -0.014 A 
BRANCH  13  14
ATOM     14  C   UNL A   1      37.911  31.882  30.335  1.00  0.00     0.031 A 
ATOM     15  C   UNL A   1      38.683  32.611  31.376  1.00  0.00     0.074 A 
ATOM     16  C   UNL A   1      38.298  30.649  29.973  1.00  0.00     0.049 A 
ATOM     17  N   UNL A   1      39.790  32.251  31.960  1.00  0.00    -0.248 NA
ATOM     18  C   UNL A   1      38.111  33.877  31.858  1.00  0.00     0.031 C 
ATOM     19  C   UNL A   1      37.516  29.764  29.131  1.00  0.00     0.029 A 
ATOM     20  N   UNL A   1      39.442  29.937  30.232  1.00  0.00    -0.354 N 
ATOM     21  C   UNL A   1      40.040  33.232  32.899  1.00  0.00     0.074 A 
ATOM     22  C   UNL A   1      39.005  34.235  32.764  1.00  0.00     0.031 C 
ATOM     23  C   UNL A   1      38.256  28.685  28.845  1.00  0.00     0.029 A 
ATOM     24  C   UNL A   1      39.540  28.793  29.478  1.00  0.00     0.049 A 
ATOM     25  H   UNL A   1      40.120  30.216  30.890  1.00  0.00     0.167 HD
ATOM     26  C   UNL A   1      41.039  33.270  33.808  1.00  0.00     0.031 A 
ATOM     27  C   UNL A   1      40.536  27.914  29.278  1.00  0.00     0.031 A 
ATOM     28  C   UNL A   1      42.082  32.284  33.884  1.00  0.00     0.049 A 
ATOM     29  C   UNL A   1      41.732  28.070  30.146  1.00  0.00     0.074 A 
ATOM     30  C   UNL A   1      43.171  32.246  34.732  1.00  0.00     0.029 A 
ATOM     31  N   UNL A   1      42.178  31.170  33.058  1.00  0.00    -0.354 N 
ATOM     32  N   UNL A   1      41.951  28.994  31.047  1.00  0.00    -0.248 NA
ATOM     33  C   UNL A   1      42.774  27.048  30.040  1.00  0.00     0.031 C 
ATOM     34  C   UNL A   1      43.965  31.151  34.369  1.00  0.00     0.029 A 
ATOM     35  C   UNL A   1      43.338  30.467  33.339  1.00  0.00     0.049 A 
ATOM     36  H   UNL A   1      41.517  30.917  32.372  1.00  0.00     0.167 HD
ATOM     37  C   UNL A   1      43.131  28.636  31.664  1.00  0.00     0.074 A 
ATOM     38  C   UNL A   1      43.576  27.407  31.031  1.00  0.00     0.031 C 
ATOM     39  C   UNL A   1      43.773  29.264  32.676  1.00  0.00     0.031 A 
BRANCH  26  40
ATOM     40  C   UNL A   1      41.061  34.476  34.696  1.00  0.00    -0.014 A 
ATOM     41  C   UNL A   1      41.826  35.610  34.378  1.00  0.00     0.009 A 
ATOM     42  C   UNL A   1      40.391  34.425  35.926  1.00  0.00     0.009 A 
ATOM     43  C   UNL A   1      41.969  36.645  35.305  1.00  0.00     0.001 A 
ATOM     44  C   UNL A   1      40.511  35.475  36.837  1.00  0.00     0.001 A 
ATOM     45  C   UNL A   1      41.313  36.574  36.534  1.00  0.00     0.000 A 
ENDBRANCH  26  40
BRANCH  27  46
ATOM     46  C   UNL A   1      40.424  26.833  28.255  1.00  0.00    -0.014 A 
ATOM     47  C   UNL A   1      39.797  25.613  28.543  1.00  0.00     0.009 A 
ATOM     48  C   UNL A   1      40.950  27.025  26.964  1.00  0.00     0.009 A 
ATOM     49  C   UNL A   1      39.751  24.592  27.587  1.00  0.00     0.001 A 
ATOM     50  C   UNL A   1      40.865  26.020  25.996  1.00  0.00     0.001 A 
ATOM     51  C   UNL A   1      40.283  24.796  26.315  1.00  0.00     0.000 A 
ENDBRANCH  27  46
BRANCH  39  52
ATOM     52  C   UNL A   1      45.027  28.604  33.152  1.00  0.00    -0.014 A 
ATOM     53  C   UNL A   1      45.005  27.696  34.222  1.00  0.00     0.009 A 
ATOM     54  C   UNL A   1      46.244  28.904  32.524  1.00  0.00     0.009 A 
ATOM     55  C   UNL A   1      46.192  27.128  34.680  1.00  0.00     0.001 A 
ATOM     56  C   UNL A   1      47.423  28.305  32.961  1.00  0.00     0.001 A 
ATOM     57  C   UNL A   1      47.397  27.427  34.044  1.00  0.00     0.000 A 
ENDBRANCH  39  52
ENDBRANCH  13  14
ENDBRANCH   6   8
ENDBRANCH   5   6
ENDBRANCH   4   5
ENDBRANCH   3   4
ENDBRANCH   2   3
ENDBRANCH   1   2
BRANCH   1  58
ATOM     58  C   UNL A   1      33.621  29.036  23.762  1.00  0.00     0.188 C 
BRANCH  58  59
ATOM     59  O   UNL A   1      32.972  28.342  22.704  1.00  0.00    -0.376 OA
BRANCH  59  60
ATOM     60  C   UNL A   1      31.568  28.500  22.569  1.00  0.00     0.202 C 
BRANCH  60  61
ATOM     61  C   UNL A   1      30.675  27.260  22.681  1.00  0.00     0.261 C 
BRANCH  61  62
ATOM     62  O   UNL A   1      30.455  26.758  24.002  1.00  0.00    -0.462 OA
BRANCH  62  63
ATOM     63  C   UNL A   1      30.604  25.396  24.111  1.00  0.00     0.333 C 
ATOM     64  O   UNL A   1      30.132  24.594  23.320  1.00  0.00    -0.250 OA
BRANCH  63  65
ATOM     65  C   UNL A   1      31.301  25.022  25.426  1.00  0.00     0.180 C 
ATOM     66  Cl  UNL A   1      31.130  26.478  26.541  1.00  0.00    -0.100 Cl
ATOM     67  C   UNL A   1      30.596  23.934  26.222  1.00  0.00     0.009 C 
ATOM     68  C   UNL A   1      32.825  24.784  25.151  1.00  0.00     0.148 C 
ATOM     69  C   UNL A   1      31.278  23.034  26.940  1.00  0.00    -0.002 C 
ATOM     70  C   UNL A   1      33.412  23.610  25.915  1.00  0.00    -0.020 C 
ATOM     71  Cl  UNL A   1      33.275  24.672  23.390  1.00  0.00    -0.115 Cl
ATOM     72  C   UNL A   1      32.714  22.956  26.859  1.00  0.00     0.006 C 
BRANCH  70  73
ATOM     73  C   UNL A   1      34.772  23.176  25.546  1.00  0.00    -0.021 A 
ATOM     74  C   UNL A   1      34.962  21.862  25.068  1.00  0.00     0.008 A 
ATOM     75  C   UNL A   1      35.851  24.053  25.565  1.00  0.00     0.008 A 
ATOM     76  C   UNL A   1      36.212  21.431  24.627  1.00  0.00     0.001 A 
ATOM     77  C   UNL A   1      37.094  23.628  25.088  1.00  0.00     0.001 A 
ATOM     78  C   UNL A   1      37.278  22.322  24.627  1.00  0.00     0.000 A 
ENDBRANCH  70  73
ENDBRANCH  63  65
ENDBRANCH  62  63
ENDBRANCH  61  62
ENDBRANCH  60  61
ENDBRANCH  59  60
ENDBRANCH  58  59
ENDBRANCH   1  58
TORSDOF 18
ENDMDL
