MODEL 1
REMARK VINA RESULT:     -11.8      0.000      0.000
REMARK SMILES COc1cc(-c2ccc(NC(=O)CCC(=O)OCCOCCOCCOC(=O)c3ccc(-c4c5nc(c(-c6ccccc6)c6ccc([nH]6)c(-c6ccccc6)c6nc(c(-c7ccccc7)c7ccc4[nH]7)C=C6)C=C5)cc3)c(OC)c2)ccc1N
REMARK SMILES IDX 20 1 19 2 18 3 17 4 15 5 16 6 14 7 13 8 11 9 10 10 12 12
REMARK SMILES IDX 9 13 6 14 7 15 80 16 8 17 77 18 5 19 3 20 4 21 83 22 82 23
REMARK SMILES IDX 81 24 2 25 1 26 84 27 78 30 79 31 21 32 22 33 23 34 24 35
REMARK SMILES IDX 25 36 26 37 27 38 28 39 29 40 30 41 76 42 31 43 75 44 32 45
REMARK SMILES IDX 33 46 34 47 69 48 35 49 74 50 68 51 70 52 36 53 73 54 67 55
REMARK SMILES IDX 66 56 37 58 59 59 44 60 58 61 45 62 48 63 57 64 71 65 46 66
REMARK SMILES IDX 47 67 56 69 72 70 49 71 38 72 39 73 43 74 40 75 42 76 41 77
REMARK SMILES IDX 60 78 61 79 65 80 62 81 64 82 63 83 50 84 51 85 55 86 52 87
REMARK SMILES IDX 54 88 53 89
REMARK H PARENT 10 11 84 28 84 29 70 57 48 68
REMARK Flexibility Score: inf
ROOT
ATOM      1  O   UNL A   1      35.244  29.311  27.455  1.00  0.00    -0.376 OA
ENDROOT
BRANCH   1   2
ATOM      2  C   UNL A   1      34.084  28.917  26.530  1.00  0.00     0.202 C 
BRANCH   2   3
ATOM      3  C   UNL A   1      32.207  27.854  26.970  1.00  0.00     0.261 C 
BRANCH   3   4
ATOM      4  O   UNL A   1      32.137  26.035  27.077  1.00  0.00    -0.463 OA
BRANCH   4   5
ATOM      5  C   UNL A   1      31.302  24.950  26.597  1.00  0.00     0.306 C 
ATOM      6  O   UNL A   1      31.272  23.909  27.265  1.00  0.00    -0.252 OA
BRANCH   5   7
ATOM      7  C   UNL A   1      30.254  25.009  25.166  1.00  0.00     0.132 C 
BRANCH   7   8
ATOM      8  C   UNL A   1      29.673  26.194  24.004  1.00  0.00     0.112 C 
BRANCH   8   9
ATOM      9  C   UNL A   1      30.262  27.470  22.920  1.00  0.00     0.225 C 
ATOM     10  N   UNL A   1      31.517  27.582  22.222  1.00  0.00    -0.323 N 
ATOM     11  H   UNL A   1      31.634  28.318  21.580  1.00  0.00     0.170 HD
ATOM     12  O   UNL A   1      29.474  28.415  22.741  1.00  0.00    -0.275 OA
BRANCH  10  13
ATOM     13  C   UNL A   1      32.588  26.674  22.422  1.00  0.00     0.083 A 
ATOM     14  C   UNL A   1      33.299  23.260  23.585  1.00  0.00    -0.014 A 
ATOM     15  C   UNL A   1      34.084  24.704  24.342  1.00  0.00     0.011 A 
ATOM     16  C   UNL A   1      32.226  23.578  22.157  1.00  0.00     0.057 A 
ATOM     17  C   UNL A   1      33.683  26.382  23.780  1.00  0.00     0.031 A 
ATOM     18  C   UNL A   1      31.991  25.351  21.589  1.00  0.00     0.142 A 
BRANCH  14  19
ATOM     19  C   UNL A   1      33.224  21.966  24.298  1.00  0.00    -0.014 A 
ATOM     20  C   UNL A   1      32.551  19.625  24.499  1.00  0.00     0.142 A 
ATOM     21  C   UNL A   1      32.693  20.801  23.732  1.00  0.00     0.057 A 
ATOM     22  C   UNL A   1      32.974  19.576  25.840  1.00  0.00     0.074 A 
ATOM     23  C   UNL A   1      33.435  20.757  26.420  1.00  0.00     0.030 A 
ATOM     24  C   UNL A   1      33.585  21.920  25.656  1.00  0.00     0.011 A 
BRANCH  20  25
ATOM     25  O   UNL A   1      32.070  18.520  23.834  1.00  0.00    -0.495 OA
ATOM     26  C   UNL A   1      32.419  18.500  22.448  1.00  0.00     0.278 C 
ENDBRANCH  20  25
BRANCH  22  27
ATOM     27  N   UNL A   1      32.851  18.438  26.635  1.00  0.00    -0.396 N 
ATOM     28  H   UNL A   1      32.101  18.360  27.269  1.00  0.00     0.156 HD
ATOM     29  H   UNL A   1      33.512  17.713  26.563  1.00  0.00     0.156 HD
ENDBRANCH  22  27
ENDBRANCH  14  19
BRANCH  18  30
ATOM     30  O   UNL A   1      32.710  25.893  20.244  1.00  0.00    -0.495 OA
ATOM     31  C   UNL A   1      32.601  25.480  18.875  1.00  0.00     0.278 C 
ENDBRANCH  18  30
ENDBRANCH  10  13
ENDBRANCH   8   9
ENDBRANCH   7   8
ENDBRANCH   5   7
ENDBRANCH   4   5
ENDBRANCH   3   4
ENDBRANCH   2   3
ENDBRANCH   1   2
BRANCH   1  32
ATOM     32  C   UNL A   1      35.253  30.657  27.924  1.00  0.00     0.188 C 
BRANCH  32  33
ATOM     33  C   UNL A   1      33.985  31.528  27.795  1.00  0.00     0.188 C 
BRANCH  33  34
ATOM     34  O   UNL A   1      34.066  32.938  27.872  1.00  0.00    -0.376 OA
BRANCH  34  35
ATOM     35  C   UNL A   1      34.142  33.541  29.154  1.00  0.00     0.202 C 
BRANCH  35  36
ATOM     36  C   UNL A   1      33.417  34.867  29.411  1.00  0.00     0.261 C 
BRANCH  36  37
ATOM     37  O   UNL A   1      32.564  34.858  30.570  1.00  0.00    -0.460 OA
BRANCH  37  38
ATOM     38  C   UNL A   1      32.965  35.636  31.608  1.00  0.00     0.338 C 
ATOM     39  O   UNL A   1      32.428  36.645  32.029  1.00  0.00    -0.246 OA
BRANCH  38  40
ATOM     40  C   UNL A   1      34.057  34.954  32.332  1.00  0.00     0.060 A 
ATOM     41  C   UNL A   1      35.312  35.584  32.421  1.00  0.00     0.016 A 
ATOM     42  C   UNL A   1      33.846  33.705  32.913  1.00  0.00     0.016 A 
ATOM     43  C   UNL A   1      36.368  34.957  33.070  1.00  0.00     0.010 A 
ATOM     44  C   UNL A   1      34.924  33.043  33.503  1.00  0.00     0.010 A 
ATOM     45  C   UNL A   1      36.195  33.650  33.536  1.00  0.00    -0.014 A 
BRANCH  45  46
ATOM     46  C   UNL A   1      37.400  32.810  33.704  1.00  0.00     0.031 A 
ATOM     47  C   UNL A   1      38.204  33.015  34.958  1.00  0.00     0.074 A 
ATOM     48  C   UNL A   1      37.757  31.886  32.801  1.00  0.00     0.049 A 
ATOM     49  N   UNL A   1      39.311  32.439  35.345  1.00  0.00    -0.248 NA
ATOM     50  C   UNL A   1      37.683  34.018  35.903  1.00  0.00     0.031 C 
ATOM     51  C   UNL A   1      37.027  31.564  31.579  1.00  0.00     0.029 A 
ATOM     52  N   UNL A   1      38.846  31.055  32.780  1.00  0.00    -0.354 N 
ATOM     53  C   UNL A   1      39.625  33.022  36.567  1.00  0.00     0.074 A 
ATOM     54  C   UNL A   1      38.611  34.014  36.843  1.00  0.00     0.031 C 
ATOM     55  C   UNL A   1      37.705  30.615  30.909  1.00  0.00     0.029 A 
ATOM     56  C   UNL A   1      38.929  30.292  31.644  1.00  0.00     0.049 A 
ATOM     57  H   UNL A   1      39.506  31.009  33.510  1.00  0.00     0.167 HD
ATOM     58  C   UNL A   1      40.668  32.759  37.388  1.00  0.00     0.031 A 
ATOM     59  C   UNL A   1      39.899  29.451  31.236  1.00  0.00     0.031 A 
ATOM     60  C   UNL A   1      41.698  31.803  37.081  1.00  0.00     0.049 A 
ATOM     61  C   UNL A   1      41.092  29.222  32.127  1.00  0.00     0.074 A 
ATOM     62  C   UNL A   1      42.799  31.447  37.838  1.00  0.00     0.029 A 
ATOM     63  N   UNL A   1      41.763  31.069  35.906  1.00  0.00    -0.354 N 
ATOM     64  N   UNL A   1      41.370  29.751  33.295  1.00  0.00    -0.248 NA
ATOM     65  C   UNL A   1      42.094  28.261  31.648  1.00  0.00     0.031 C 
ATOM     66  C   UNL A   1      43.572  30.556  37.085  1.00  0.00     0.029 A 
ATOM     67  C   UNL A   1      42.906  30.288  35.898  1.00  0.00     0.049 A 
ATOM     68  H   UNL A   1      41.095  31.100  35.183  1.00  0.00     0.167 HD
ATOM     69  C   UNL A   1      42.564  29.169  33.705  1.00  0.00     0.074 A 
ATOM     70  C   UNL A   1      42.942  28.232  32.666  1.00  0.00     0.031 C 
ATOM     71  C   UNL A   1      43.279  29.381  34.840  1.00  0.00     0.031 A 
BRANCH  58  72
ATOM     72  C   UNL A   1      40.772  33.586  38.642  1.00  0.00    -0.014 A 
ATOM     73  C   UNL A   1      40.174  33.183  39.849  1.00  0.00     0.009 A 
ATOM     74  C   UNL A   1      41.447  34.815  38.601  1.00  0.00     0.009 A 
ATOM     75  C   UNL A   1      40.197  34.022  40.966  1.00  0.00     0.001 A 
ATOM     76  C   UNL A   1      41.505  35.634  39.731  1.00  0.00     0.001 A 
ATOM     77  C   UNL A   1      40.864  35.244  40.906  1.00  0.00     0.000 A 
ENDBRANCH  58  72
BRANCH  59  78
ATOM     78  C   UNL A   1      39.784  28.787  29.912  1.00  0.00    -0.014 A 
ATOM     79  C   UNL A   1      40.073  29.477  28.727  1.00  0.00     0.009 A 
ATOM     80  C   UNL A   1      39.404  27.436  29.833  1.00  0.00     0.009 A 
ATOM     81  C   UNL A   1      39.973  28.835  27.490  1.00  0.00     0.001 A 
ATOM     82  C   UNL A   1      39.336  26.788  28.598  1.00  0.00     0.001 A 
ATOM     83  C   UNL A   1      39.614  27.489  27.428  1.00  0.00     0.000 A 
ENDBRANCH  59  78
BRANCH  71  84
ATOM     84  C   UNL A   1      44.524  28.554  35.029  1.00  0.00    -0.014 A 
ATOM     85  C   UNL A   1      45.785  29.004  34.607  1.00  0.00     0.009 A 
ATOM     86  C   UNL A   1      44.431  27.300  35.656  1.00  0.00     0.009 A 
ATOM     87  C   UNL A   1      46.913  28.193  34.753  1.00  0.00     0.001 A 
ATOM     88  C   UNL A   1      45.566  26.509  35.839  1.00  0.00     0.001 A 
ATOM     89  C   UNL A   1      46.802  26.948  35.371  1.00  0.00     0.000 A 
ENDBRANCH  71  84
ENDBRANCH  45  46
ENDBRANCH  38  40
ENDBRANCH  37  38
ENDBRANCH  36  37
ENDBRANCH  35  36
ENDBRANCH  34  35
ENDBRANCH  33  34
ENDBRANCH  32  33
ENDBRANCH   1  32
TORSDOF 24
ENDMDL
MODEL 2
REMARK VINA RESULT:     -11.7      3.187      8.159
REMARK SMILES COc1cc(-c2ccc(NC(=O)CCC(=O)OCCOCCOCCOC(=O)c3ccc(-c4c5nc(c(-c6ccccc6)c6ccc([nH]6)c(-c6ccccc6)c6nc(c(-c7ccccc7)c7ccc4[nH]7)C=C6)C=C5)cc3)c(OC)c2)ccc1N
REMARK SMILES IDX 20 1 19 2 18 3 17 4 15 5 16 6 14 7 13 8 11 9 10 10 12 12
REMARK SMILES IDX 9 13 6 14 7 15 80 16 8 17 77 18 5 19 3 20 4 21 83 22 82 23
REMARK SMILES IDX 81 24 2 25 1 26 84 27 78 30 79 31 21 32 22 33 23 34 24 35
REMARK SMILES IDX 25 36 26 37 27 38 28 39 29 40 30 41 76 42 31 43 75 44 32 45
REMARK SMILES IDX 33 46 34 47 69 48 35 49 74 50 68 51 70 52 36 53 73 54 67 55
REMARK SMILES IDX 66 56 37 58 59 59 44 60 58 61 45 62 48 63 57 64 71 65 46 66
REMARK SMILES IDX 47 67 56 69 72 70 49 71 38 72 39 73 43 74 40 75 42 76 41 77
REMARK SMILES IDX 60 78 61 79 65 80 62 81 64 82 63 83 50 84 51 85 55 86 52 87
REMARK SMILES IDX 54 88 53 89
REMARK H PARENT 10 11 84 28 84 29 70 57 48 68
REMARK Flexibility Score: inf
ROOT
ATOM      1  O   UNL A   1      37.912  22.233  24.977  1.00  0.00    -0.376 OA
ENDROOT
BRANCH   1   2
ATOM      2  C   UNL A   1      36.944  23.346  25.400  1.00  0.00     0.202 C 
BRANCH   2   3
ATOM      3  C   UNL A   1      34.972  23.227  26.370  1.00  0.00     0.261 C 
BRANCH   3   4
ATOM      4  O   UNL A   1      33.730  24.552  26.186  1.00  0.00    -0.463 OA
BRANCH   4   5
ATOM      5  C   UNL A   1      33.689  25.962  25.850  1.00  0.00     0.306 C 
ATOM      6  O   UNL A   1      34.540  26.389  25.060  1.00  0.00    -0.252 OA
BRANCH   5   7
ATOM      7  C   UNL A   1      32.473  27.124  26.416  1.00  0.00     0.132 C 
BRANCH   7   8
ATOM      8  C   UNL A   1      32.289  28.864  26.585  1.00  0.00     0.112 C 
BRANCH   8   9
ATOM      9  C   UNL A   1      31.551  30.260  25.775  1.00  0.00     0.225 C 
ATOM     10  N   UNL A   1      30.966  30.364  24.464  1.00  0.00    -0.323 N 
ATOM     11  H   UNL A   1      30.511  31.200  24.216  1.00  0.00     0.170 HD
ATOM     12  O   UNL A   1      31.542  31.311  26.440  1.00  0.00    -0.275 OA
BRANCH  10  13
ATOM     13  C   UNL A   1      31.019  29.310  23.516  1.00  0.00     0.083 A 
ATOM     14  C   UNL A   1      31.168  25.644  23.283  1.00  0.00    -0.014 A 
ATOM     15  C   UNL A   1      32.425  26.697  22.518  1.00  0.00     0.011 A 
ATOM     16  C   UNL A   1      29.777  26.493  24.080  1.00  0.00     0.057 A 
ATOM     17  C   UNL A   1      32.354  28.502  22.684  1.00  0.00     0.031 A 
ATOM     18  C   UNL A   1      29.752  28.370  24.075  1.00  0.00     0.142 A 
BRANCH  14  19
ATOM     19  C   UNL A   1      31.437  24.220  23.578  1.00  0.00    -0.014 A 
ATOM     20  C   UNL A   1      31.348  22.235  25.001  1.00  0.00     0.142 A 
ATOM     21  C   UNL A   1      30.970  23.566  24.724  1.00  0.00     0.057 A 
ATOM     22  C   UNL A   1      32.172  21.514  24.118  1.00  0.00     0.074 A 
ATOM     23  C   UNL A   1      32.692  22.191  23.015  1.00  0.00     0.030 A 
ATOM     24  C   UNL A   1      32.308  23.507  22.736  1.00  0.00     0.011 A 
BRANCH  20  25
ATOM     25  O   UNL A   1      30.791  21.665  26.124  1.00  0.00    -0.495 OA
ATOM     26  C   UNL A   1      29.906  22.545  26.822  1.00  0.00     0.278 C 
ENDBRANCH  20  25
BRANCH  22  27
ATOM     27  N   UNL A   1      32.573  20.200  24.352  1.00  0.00    -0.396 N 
ATOM     28  H   UNL A   1      32.245  19.475  23.773  1.00  0.00     0.156 HD
ATOM     29  H   UNL A   1      33.185  19.997  25.096  1.00  0.00     0.156 HD
ENDBRANCH  22  27
ENDBRANCH  14  19
BRANCH  18  30
ATOM     30  O   UNL A   1      28.742  29.183  23.105  1.00  0.00    -0.495 OA
ATOM     31  C   UNL A   1      27.351  28.994  22.808  1.00  0.00     0.278 C 
ENDBRANCH  18  30
ENDBRANCH  10  13
ENDBRANCH   8   9
ENDBRANCH   7   8
ENDBRANCH   5   7
ENDBRANCH   4   5
ENDBRANCH   3   4
ENDBRANCH   2   3
ENDBRANCH   1   2
BRANCH   1  32
ATOM     32  C   UNL A   1      38.590  21.549  26.026  1.00  0.00     0.188 C 
BRANCH  32  33
ATOM     33  C   UNL A   1      40.123  21.672  26.165  1.00  0.00     0.188 C 
BRANCH  33  34
ATOM     34  O   UNL A   1      40.942  20.520  26.189  1.00  0.00    -0.376 OA
BRANCH  34  35
ATOM     35  C   UNL A   1      42.313  20.658  25.852  1.00  0.00     0.202 C 
BRANCH  35  36
ATOM     36  C   UNL A   1      43.018  22.000  26.080  1.00  0.00     0.261 C 
BRANCH  36  37
ATOM     37  O   UNL A   1      42.741  22.990  25.073  1.00  0.00    -0.460 OA
BRANCH  37  38
ATOM     38  C   UNL A   1      43.494  24.119  25.128  1.00  0.00     0.338 C 
ATOM     39  O   UNL A   1      44.524  24.353  24.521  1.00  0.00    -0.246 OA
BRANCH  38  40
ATOM     40  C   UNL A   1      42.758  25.157  25.878  1.00  0.00     0.060 A 
ATOM     41  C   UNL A   1      43.327  26.439  26.000  1.00  0.00     0.016 A 
ATOM     42  C   UNL A   1      41.524  24.869  26.457  1.00  0.00     0.016 A 
ATOM     43  C   UNL A   1      42.674  27.430  26.723  1.00  0.00     0.010 A 
ATOM     44  C   UNL A   1      40.902  25.841  27.242  1.00  0.00     0.010 A 
ATOM     45  C   UNL A   1      41.504  27.103  27.414  1.00  0.00    -0.014 A 
BRANCH  45  46
ATOM     46  C   UNL A   1      41.132  27.935  28.579  1.00  0.00     0.031 A 
ATOM     47  C   UNL A   1      41.949  27.760  29.830  1.00  0.00     0.074 A 
ATOM     48  C   UNL A   1      40.132  28.825  28.530  1.00  0.00     0.049 A 
ATOM     49  N   UNL A   1      41.825  28.335  30.996  1.00  0.00    -0.248 NA
ATOM     50  C   UNL A   1      43.058  26.793  29.748  1.00  0.00     0.031 C 
ATOM     51  C   UNL A   1      39.310  29.117  27.359  1.00  0.00     0.029 A 
ATOM     52  N   UNL A   1      39.635  29.642  29.511  1.00  0.00    -0.354 N 
ATOM     53  C   UNL A   1      42.828  27.787  31.788  1.00  0.00     0.074 A 
ATOM     54  C   UNL A   1      43.530  26.816  30.981  1.00  0.00     0.031 C 
ATOM     55  C   UNL A   1      38.388  30.037  27.698  1.00  0.00     0.029 A 
ATOM     56  C   UNL A   1      38.541  30.369  29.115  1.00  0.00     0.049 A 
ATOM     57  H   UNL A   1      40.026  29.703  30.413  1.00  0.00     0.167 HD
ATOM     58  C   UNL A   1      43.135  28.063  33.076  1.00  0.00     0.031 A 
ATOM     59  C   UNL A   1      37.742  31.184  29.829  1.00  0.00     0.031 A 
ATOM     60  C   UNL A   1      42.399  28.997  33.885  1.00  0.00     0.049 A 
ATOM     61  C   UNL A   1      38.053  31.427  31.282  1.00  0.00     0.074 A 
ATOM     62  C   UNL A   1      42.622  29.363  35.200  1.00  0.00     0.029 A 
ATOM     63  N   UNL A   1      41.278  29.692  33.458  1.00  0.00    -0.354 N 
ATOM     64  N   UNL A   1      39.020  30.932  32.019  1.00  0.00    -0.248 NA
ATOM     65  C   UNL A   1      37.172  32.361  31.995  1.00  0.00     0.031 C 
ATOM     66  C   UNL A   1      41.588  30.221  35.591  1.00  0.00     0.029 A 
ATOM     67  C   UNL A   1      40.773  30.460  34.494  1.00  0.00     0.049 A 
ATOM     68  H   UNL A   1      40.897  29.647  32.551  1.00  0.00     0.167 HD
ATOM     69  C   UNL A   1      38.881  31.513  33.275  1.00  0.00     0.074 A 
ATOM     70  C   UNL A   1      37.747  32.412  33.188  1.00  0.00     0.031 C 
ATOM     71  C   UNL A   1      39.626  31.329  34.395  1.00  0.00     0.031 A 
BRANCH  58  72
ATOM     72  C   UNL A   1      44.262  27.275  33.691  1.00  0.00    -0.014 A 
ATOM     73  C   UNL A   1      45.593  27.725  33.647  1.00  0.00     0.009 A 
ATOM     74  C   UNL A   1      43.988  26.035  34.287  1.00  0.00     0.009 A 
ATOM     75  C   UNL A   1      46.629  26.922  34.131  1.00  0.00     0.001 A 
ATOM     76  C   UNL A   1      45.020  25.252  34.808  1.00  0.00     0.001 A 
ATOM     77  C   UNL A   1      46.341  25.688  34.712  1.00  0.00     0.000 A 
ENDBRANCH  58  72
BRANCH  59  78
ATOM     78  C   UNL A   1      36.562  31.808  29.176  1.00  0.00    -0.014 A 
ATOM     79  C   UNL A   1      36.611  33.123  28.692  1.00  0.00     0.009 A 
ATOM     80  C   UNL A   1      35.377  31.070  29.011  1.00  0.00     0.009 A 
ATOM     81  C   UNL A   1      35.497  33.691  28.069  1.00  0.00     0.001 A 
ATOM     82  C   UNL A   1      34.276  31.630  28.359  1.00  0.00     0.001 A 
ATOM     83  C   UNL A   1      34.334  32.941  27.894  1.00  0.00     0.000 A 
ENDBRANCH  59  78
BRANCH  71  84
ATOM     84  C   UNL A   1      39.256  32.147  35.605  1.00  0.00    -0.014 A 
ATOM     85  C   UNL A   1      39.868  33.381  35.881  1.00  0.00     0.009 A 
ATOM     86  C   UNL A   1      38.265  31.675  36.481  1.00  0.00     0.009 A 
ATOM     87  C   UNL A   1      39.538  34.092  37.037  1.00  0.00     0.001 A 
ATOM     88  C   UNL A   1      37.907  32.407  37.614  1.00  0.00     0.001 A 
ATOM     89  C   UNL A   1      38.556  33.606  37.900  1.00  0.00     0.000 A 
ENDBRANCH  71  84
ENDBRANCH  45  46
ENDBRANCH  38  40
ENDBRANCH  37  38
ENDBRANCH  36  37
ENDBRANCH  35  36
ENDBRANCH  34  35
ENDBRANCH  33  34
ENDBRANCH  32  33
ENDBRANCH   1  32
TORSDOF 24
ENDMDL
MODEL 3
REMARK VINA RESULT:     -11.4      4.195      8.989
REMARK SMILES COc1cc(-c2ccc(NC(=O)CCC(=O)OCCOCCOCCOC(=O)c3ccc(-c4c5nc(c(-c6ccccc6)c6ccc([nH]6)c(-c6ccccc6)c6nc(c(-c7ccccc7)c7ccc4[nH]7)C=C6)C=C5)cc3)c(OC)c2)ccc1N
REMARK SMILES IDX 20 1 19 2 18 3 17 4 15 5 16 6 14 7 13 8 11 9 10 10 12 12
REMARK SMILES IDX 9 13 6 14 7 15 80 16 8 17 77 18 5 19 3 20 4 21 83 22 82 23
REMARK SMILES IDX 81 24 2 25 1 26 84 27 78 30 79 31 21 32 22 33 23 34 24 35
REMARK SMILES IDX 25 36 26 37 27 38 28 39 29 40 30 41 76 42 31 43 75 44 32 45
REMARK SMILES IDX 33 46 34 47 69 48 35 49 74 50 68 51 70 52 36 53 73 54 67 55
REMARK SMILES IDX 66 56 37 58 59 59 44 60 58 61 45 62 48 63 57 64 71 65 46 66
REMARK SMILES IDX 47 67 56 69 72 70 49 71 38 72 39 73 43 74 40 75 42 76 41 77
REMARK SMILES IDX 60 78 61 79 65 80 62 81 64 82 63 83 50 84 51 85 55 86 52 87
REMARK SMILES IDX 54 88 53 89
REMARK H PARENT 10 11 84 28 84 29 70 57 48 68
REMARK Flexibility Score: inf
ROOT
ATOM      1  O   UNL A   1      41.851  20.433  26.121  1.00  0.00    -0.376 OA
ENDROOT
BRANCH   1   2
ATOM      2  C   UNL A   1      40.353  20.534  26.439  1.00  0.00     0.202 C 
BRANCH   2   3
ATOM      3  C   UNL A   1      38.611  19.710  25.375  1.00  0.00     0.261 C 
BRANCH   3   4
ATOM      4  O   UNL A   1      37.144  20.729  25.002  1.00  0.00    -0.463 OA
BRANCH   4   5
ATOM      5  C   UNL A   1      36.761  22.128  25.020  1.00  0.00     0.306 C 
ATOM      6  O   UNL A   1      36.956  22.763  26.063  1.00  0.00    -0.252 OA
BRANCH   5   7
ATOM      7  C   UNL A   1      36.101  23.036  23.645  1.00  0.00     0.132 C 
BRANCH   7   8
ATOM      8  C   UNL A   1      34.810  24.184  23.320  1.00  0.00     0.112 C 
BRANCH   8   9
ATOM      9  C   UNL A   1      33.534  25.098  24.148  1.00  0.00     0.225 C 
ATOM     10  N   UNL A   1      32.248  24.662  24.627  1.00  0.00    -0.323 N 
ATOM     11  H   UNL A   1      31.705  25.289  25.156  1.00  0.00     0.170 HD
ATOM     12  O   UNL A   1      33.786  26.301  24.338  1.00  0.00    -0.275 OA
BRANCH  10  13
ATOM     13  C   UNL A   1      31.734  23.364  24.370  1.00  0.00     0.083 A 
ATOM     14  C   UNL A   1      32.608  19.805  24.659  1.00  0.00    -0.014 A 
ATOM     15  C   UNL A   1      32.153  20.546  23.072  1.00  0.00     0.011 A 
ATOM     16  C   UNL A   1      32.509  20.885  26.114  1.00  0.00     0.057 A 
ATOM     17  C   UNL A   1      31.769  22.315  22.947  1.00  0.00     0.031 A 
ATOM     18  C   UNL A   1      31.974  22.667  25.872  1.00  0.00     0.142 A 
BRANCH  14  19
ATOM     19  C   UNL A   1      33.368  18.538  24.724  1.00  0.00    -0.014 A 
ATOM     20  C   UNL A   1      33.615  16.172  25.283  1.00  0.00     0.142 A 
ATOM     21  C   UNL A   1      32.812  17.323  25.141  1.00  0.00     0.057 A 
ATOM     22  C   UNL A   1      34.987  16.200  24.974  1.00  0.00     0.074 A 
ATOM     23  C   UNL A   1      35.551  17.427  24.628  1.00  0.00     0.030 A 
ATOM     24  C   UNL A   1      34.751  18.566  24.477  1.00  0.00     0.011 A 
BRANCH  20  25
ATOM     25  O   UNL A   1      32.962  15.015  25.646  1.00  0.00    -0.495 OA
ATOM     26  C   UNL A   1      31.633  15.244  26.120  1.00  0.00     0.278 C 
ENDBRANCH  20  25
BRANCH  22  27
ATOM     27  N   UNL A   1      35.819  15.089  25.102  1.00  0.00    -0.396 N 
ATOM     28  H   UNL A   1      36.350  14.780  24.332  1.00  0.00     0.156 HD
ATOM     29  H   UNL A   1      35.876  14.613  25.962  1.00  0.00     0.156 HD
ENDBRANCH  22  27
ENDBRANCH  14  19
BRANCH  18  30
ATOM     30  O   UNL A   1      30.496  23.157  26.317  1.00  0.00    -0.495 OA
ATOM     31  C   UNL A   1      29.533  22.582  27.212  1.00  0.00     0.278 C 
ENDBRANCH  18  30
ENDBRANCH  10  13
ENDBRANCH   8   9
ENDBRANCH   7   8
ENDBRANCH   5   7
ENDBRANCH   4   5
ENDBRANCH   3   4
ENDBRANCH   2   3
ENDBRANCH   1   2
BRANCH   1  32
ATOM     32  C   UNL A   1      42.373  19.120  25.936  1.00  0.00     0.188 C 
BRANCH  32  33
ATOM     33  C   UNL A   1      43.890  18.912  25.741  1.00  0.00     0.188 C 
BRANCH  33  34
ATOM     34  O   UNL A   1      44.489  19.107  24.474  1.00  0.00    -0.376 OA
BRANCH  34  35
ATOM     35  C   UNL A   1      44.892  20.418  24.112  1.00  0.00     0.202 C 
BRANCH  35  36
ATOM     36  C   UNL A   1      45.073  21.483  25.200  1.00  0.00     0.261 C 
BRANCH  36  37
ATOM     37  O   UNL A   1      44.175  22.602  25.084  1.00  0.00    -0.460 OA
BRANCH  37  38
ATOM     38  C   UNL A   1      44.749  23.831  25.146  1.00  0.00     0.338 C 
ATOM     39  O   UNL A   1      45.737  24.219  24.548  1.00  0.00    -0.246 OA
BRANCH  38  40
ATOM     40  C   UNL A   1      43.859  24.746  25.889  1.00  0.00     0.060 A 
ATOM     41  C   UNL A   1      44.189  26.112  25.955  1.00  0.00     0.016 A 
ATOM     42  C   UNL A   1      42.714  24.260  26.518  1.00  0.00     0.016 A 
ATOM     43  C   UNL A   1      43.389  26.995  26.670  1.00  0.00     0.010 A 
ATOM     44  C   UNL A   1      41.948  25.132  27.295  1.00  0.00     0.010 A 
ATOM     45  C   UNL A   1      42.317  26.487  27.410  1.00  0.00    -0.014 A 
BRANCH  45  46
ATOM     46  C   UNL A   1      41.833  27.278  28.561  1.00  0.00     0.031 A 
ATOM     47  C   UNL A   1      42.581  27.122  29.857  1.00  0.00     0.074 A 
ATOM     48  C   UNL A   1      40.793  28.118  28.464  1.00  0.00     0.049 A 
ATOM     49  N   UNL A   1      42.357  27.669  31.022  1.00  0.00    -0.248 NA
ATOM     50  C   UNL A   1      43.741  26.213  29.829  1.00  0.00     0.031 C 
ATOM     51  C   UNL A   1      40.029  28.388  27.250  1.00  0.00     0.029 A 
ATOM     52  N   UNL A   1      40.197  28.891  29.425  1.00  0.00    -0.354 N 
ATOM     53  C   UNL A   1      43.337  27.158  31.866  1.00  0.00     0.074 A 
ATOM     54  C   UNL A   1      44.136  26.239  31.089  1.00  0.00     0.031 C 
ATOM     55  C   UNL A   1      39.044  29.254  27.545  1.00  0.00     0.029 A 
ATOM     56  C   UNL A   1      39.093  29.568  28.974  1.00  0.00     0.049 A 
ATOM     57  H   UNL A   1      40.529  28.955  30.351  1.00  0.00     0.167 HD
ATOM     58  C   UNL A   1      43.551  27.426  33.174  1.00  0.00     0.031 A 
ATOM     59  C   UNL A   1      38.212  30.330  29.649  1.00  0.00     0.031 A 
ATOM     60  C   UNL A   1      42.721  28.307  33.951  1.00  0.00     0.049 A 
ATOM     61  C   UNL A   1      38.421  30.563  31.122  1.00  0.00     0.074 A 
ATOM     62  C   UNL A   1      42.845  28.662  35.281  1.00  0.00     0.029 A 
ATOM     63  N   UNL A   1      41.593  28.954  33.466  1.00  0.00    -0.354 N 
ATOM     64  N   UNL A   1      39.366  30.104  31.909  1.00  0.00    -0.248 NA
ATOM     65  C   UNL A   1      37.452  31.438  31.793  1.00  0.00     0.031 C 
ATOM     66  C   UNL A   1      41.746  29.459  35.621  1.00  0.00     0.029 A 
ATOM     67  C   UNL A   1      40.989  29.676  34.479  1.00  0.00     0.049 A 
ATOM     68  H   UNL A   1      41.271  28.905  32.536  1.00  0.00     0.167 HD
ATOM     69  C   UNL A   1      39.122  30.654  33.163  1.00  0.00     0.074 A 
ATOM     70  C   UNL A   1      37.951  31.497  33.020  1.00  0.00     0.031 C 
ATOM     71  C   UNL A   1      39.806  30.488  34.323  1.00  0.00     0.031 A 
BRANCH  58  72
ATOM     72  C   UNL A   1      44.678  26.686  33.845  1.00  0.00    -0.014 A 
ATOM     73  C   UNL A   1      44.556  25.340  34.231  1.00  0.00     0.009 A 
ATOM     74  C   UNL A   1      45.870  27.366  34.136  1.00  0.00     0.009 A 
ATOM     75  C   UNL A   1      45.579  24.713  34.948  1.00  0.00     0.001 A 
ATOM     76  C   UNL A   1      46.908  26.725  34.816  1.00  0.00     0.001 A 
ATOM     77  C   UNL A   1      46.754  25.405  35.237  1.00  0.00     0.000 A 
ENDBRANCH  58  72
BRANCH  59  78
ATOM     78  C   UNL A   1      37.042  30.905  28.934  1.00  0.00    -0.014 A 
ATOM     79  C   UNL A   1      35.949  30.106  28.572  1.00  0.00     0.009 A 
ATOM     80  C   UNL A   1      37.008  32.277  28.631  1.00  0.00     0.009 A 
ATOM     81  C   UNL A   1      34.851  30.664  27.912  1.00  0.00     0.001 A 
ATOM     82  C   UNL A   1      35.896  32.838  28.001  1.00  0.00     0.001 A 
ATOM     83  C   UNL A   1      34.821  32.031  27.636  1.00  0.00     0.000 A 
ENDBRANCH  59  78
BRANCH  71  84
ATOM     84  C   UNL A   1      39.323  31.265  35.521  1.00  0.00    -0.014 A 
ATOM     85  C   UNL A   1      38.232  30.835  36.293  1.00  0.00     0.009 A 
ATOM     86  C   UNL A   1      39.986  32.448  35.889  1.00  0.00     0.009 A 
ATOM     87  C   UNL A   1      37.778  31.603  37.368  1.00  0.00     0.001 A 
ATOM     88  C   UNL A   1      39.557  33.192  36.989  1.00  0.00     0.001 A 
ATOM     89  C   UNL A   1      38.443  32.779  37.716  1.00  0.00     0.000 A 
ENDBRANCH  71  84
ENDBRANCH  45  46
ENDBRANCH  38  40
ENDBRANCH  37  38
ENDBRANCH  36  37
ENDBRANCH  35  36
ENDBRANCH  34  35
ENDBRANCH  33  34
ENDBRANCH  32  33
ENDBRANCH   1  32
TORSDOF 24
ENDMDL
