MODEL 1
REMARK VINA RESULT:      -9.3      0.000      0.000
REMARK SMILES COc1ccc(CSc2ncccc2C(=O)OCCOCCOCCOC(=O)c2ccc(-c3c4nc(c(-c5ccccc5)c5ccc([nH]5)c(-c5ccccc5)c5nc(c(-c6ccccc6)c6ccc3[nH]6)C=C5)C=C4)cc2)cc1
REMARK SMILES IDX 21 1 20 2 19 3 18 4 17 5 15 6 16 7 14 8 9 9 10 10 11 11
REMARK SMILES IDX 13 12 12 13 8 14 7 15 6 16 3 17 4 18 78 19 5 20 77 21 2 22
REMARK SMILES IDX 1 23 22 24 23 25 24 26 25 27 26 28 27 29 28 30 29 31 30 32
REMARK SMILES IDX 76 33 31 34 75 35 32 36 33 37 34 38 69 39 35 40 74 41 68 42
REMARK SMILES IDX 70 43 36 44 73 45 67 46 66 47 37 49 59 50 44 51 58 52 45 53
REMARK SMILES IDX 48 54 57 55 71 56 46 57 47 58 56 60 72 61 49 62 38 63 39 64
REMARK SMILES IDX 43 65 40 66 42 67 41 68 60 69 61 70 65 71 62 72 64 73 63 74
REMARK SMILES IDX 50 75 51 76 55 77 52 78 54 79 53 80
REMARK H PARENT 70 48 48 59
REMARK Flexibility Score: inf
ROOT
ATOM      1  C   UNL A   1      36.177  23.100  26.113  1.00  0.00     0.188 C 
ENDROOT
BRANCH   1   2
ATOM      2  O   UNL A   1      34.825  23.337  26.481  1.00  0.00    -0.376 OA
BRANCH   2   3
ATOM      3  C   UNL A   1      34.277  22.442  27.443  1.00  0.00     0.202 C 
BRANCH   3   4
ATOM      4  C   UNL A   1      32.778  22.648  27.677  1.00  0.00     0.261 C 
BRANCH   4   5
ATOM      5  O   UNL A   1      32.247  23.765  26.940  1.00  0.00    -0.460 OA
BRANCH   5   6
ATOM      6  C   UNL A   1      31.250  23.481  26.066  1.00  0.00     0.340 C 
ATOM      7  O   UNL A   1      30.584  22.472  26.069  1.00  0.00    -0.246 OA
BRANCH   6   8
ATOM      8  C   UNL A   1      31.129  24.603  25.120  1.00  0.00     0.092 A 
ATOM      9  C   UNL A   1      31.911  24.772  23.975  1.00  0.00     0.111 A 
ATOM     10  N   UNL A   1      31.677  25.815  23.125  1.00  0.00    -0.249 NA
ATOM     11  C   UNL A   1      30.666  26.671  23.390  1.00  0.00     0.112 A 
ATOM     12  C   UNL A   1      30.081  25.510  25.365  1.00  0.00     0.020 A 
ATOM     13  C   UNL A   1      29.837  26.553  24.483  1.00  0.00     0.021 A 
BRANCH   9  14
ATOM     14  S   UNL A   1      33.040  23.625  23.203  1.00  0.00    -0.101 SA
BRANCH  14  15
ATOM     15  C   UNL A   1      32.071  22.168  22.726  1.00  0.00     0.112 C 
BRANCH  15  16
ATOM     16  C   UNL A   1      32.503  20.844  23.291  1.00  0.00    -0.037 A 
ATOM     17  C   UNL A   1      33.332  18.403  24.433  1.00  0.00     0.118 A 
ATOM     18  C   UNL A   1      32.515  18.419  23.299  1.00  0.00     0.047 A 
ATOM     19  C   UNL A   1      33.707  19.610  25.014  1.00  0.00     0.047 A 
ATOM     20  C   UNL A   1      32.102  19.628  22.730  1.00  0.00     0.008 A 
ATOM     21  C   UNL A   1      33.274  20.814  24.461  1.00  0.00     0.008 A 
BRANCH  17  22
ATOM     22  O   UNL A   1      33.688  17.162  24.882  1.00  0.00    -0.497 OA
ATOM     23  C   UNL A   1      34.188  16.257  23.903  1.00  0.00     0.278 C 
ENDBRANCH  17  22
ENDBRANCH  15  16
ENDBRANCH  14  15
ENDBRANCH   9  14
ENDBRANCH   6   8
ENDBRANCH   5   6
ENDBRANCH   4   5
ENDBRANCH   3   4
ENDBRANCH   2   3
ENDBRANCH   1   2
BRANCH   1  24
ATOM     24  C   UNL A   1      36.406  22.610  24.667  1.00  0.00     0.188 C 
BRANCH  24  25
ATOM     25  O   UNL A   1      37.481  21.729  24.373  1.00  0.00    -0.376 OA
BRANCH  25  26
ATOM     26  C   UNL A   1      37.449  20.406  24.888  1.00  0.00     0.202 C 
BRANCH  26  27
ATOM     27  C   UNL A   1      38.777  19.650  25.006  1.00  0.00     0.261 C 
BRANCH  27  28
ATOM     28  O   UNL A   1      39.508  19.931  26.211  1.00  0.00    -0.460 OA
BRANCH  28  29
ATOM     29  C   UNL A   1      40.854  19.801  26.112  1.00  0.00     0.338 C 
ATOM     30  O   UNL A   1      41.474  18.894  25.586  1.00  0.00    -0.246 OA
BRANCH  29  31
ATOM     31  C   UNL A   1      41.518  21.025  26.609  1.00  0.00     0.060 A 
ATOM     32  C   UNL A   1      41.487  21.275  27.988  1.00  0.00     0.016 A 
ATOM     33  C   UNL A   1      42.083  21.955  25.734  1.00  0.00     0.016 A 
ATOM     34  C   UNL A   1      41.982  22.475  28.495  1.00  0.00     0.010 A 
ATOM     35  C   UNL A   1      42.556  23.170  26.240  1.00  0.00     0.010 A 
ATOM     36  C   UNL A   1      42.473  23.450  27.617  1.00  0.00    -0.014 A 
BRANCH  36  37
ATOM     37  C   UNL A   1      42.713  24.825  28.115  1.00  0.00     0.031 A 
ATOM     38  C   UNL A   1      44.112  25.214  28.511  1.00  0.00     0.074 A 
ATOM     39  C   UNL A   1      41.718  25.723  28.199  1.00  0.00     0.049 A 
ATOM     40  N   UNL A   1      44.553  26.344  29.000  1.00  0.00    -0.248 NA
ATOM     41  C   UNL A   1      45.152  24.188  28.327  1.00  0.00     0.031 C 
ATOM     42  C   UNL A   1      40.332  25.495  27.798  1.00  0.00     0.029 A 
ATOM     43  N   UNL A   1      41.731  27.015  28.663  1.00  0.00    -0.354 N 
ATOM     44  C   UNL A   1      45.918  26.166  29.185  1.00  0.00     0.074 A 
ATOM     45  C   UNL A   1      46.229  24.812  28.781  1.00  0.00     0.031 C 
ATOM     46  C   UNL A   1      39.620  26.609  28.049  1.00  0.00     0.029 A 
ATOM     47  C   UNL A   1      40.496  27.614  28.650  1.00  0.00     0.049 A 
ATOM     48  H   UNL A   1      42.547  27.469  28.974  1.00  0.00     0.167 HD
ATOM     49  C   UNL A   1      46.836  27.048  29.647  1.00  0.00     0.031 A 
ATOM     50  C   UNL A   1      40.114  28.828  29.092  1.00  0.00     0.031 A 
ATOM     51  C   UNL A   1      46.532  28.387  30.074  1.00  0.00     0.049 A 
ATOM     52  C   UNL A   1      41.134  29.760  29.688  1.00  0.00     0.074 A 
ATOM     53  C   UNL A   1      47.396  29.359  30.549  1.00  0.00     0.029 A 
ATOM     54  N   UNL A   1      45.261  28.938  30.089  1.00  0.00    -0.354 N 
ATOM     55  N   UNL A   1      42.425  29.590  29.837  1.00  0.00    -0.248 NA
ATOM     56  C   UNL A   1      40.640  31.058  30.174  1.00  0.00     0.031 C 
ATOM     57  C   UNL A   1      46.639  30.482  30.901  1.00  0.00     0.029 A 
ATOM     58  C   UNL A   1      45.312  30.226  30.596  1.00  0.00     0.049 A 
ATOM     59  H   UNL A   1      44.443  28.482  29.786  1.00  0.00     0.167 HD
ATOM     60  C   UNL A   1      42.901  30.765  30.407  1.00  0.00     0.074 A 
ATOM     61  C   UNL A   1      41.762  31.644  30.571  1.00  0.00     0.031 C 
ATOM     62  C   UNL A   1      44.170  31.088  30.759  1.00  0.00     0.031 A 
BRANCH  49  63
ATOM     63  C   UNL A   1      48.254  26.566  29.753  1.00  0.00    -0.014 A 
ATOM     64  C   UNL A   1      49.176  26.782  28.715  1.00  0.00     0.009 A 
ATOM     65  C   UNL A   1      48.674  25.891  30.908  1.00  0.00     0.009 A 
ATOM     66  C   UNL A   1      50.482  26.298  28.821  1.00  0.00     0.001 A 
ATOM     67  C   UNL A   1      49.987  25.430  31.021  1.00  0.00     0.001 A 
ATOM     68  C   UNL A   1      50.885  25.625  29.973  1.00  0.00     0.000 A 
ENDBRANCH  49  63
BRANCH  50  69
ATOM     69  C   UNL A   1      38.686  29.228  29.010  1.00  0.00    -0.014 A 
ATOM     70  C   UNL A   1      37.830  29.050  30.107  1.00  0.00     0.009 A 
ATOM     71  C   UNL A   1      38.172  29.779  27.827  1.00  0.00     0.009 A 
ATOM     72  C   UNL A   1      36.480  29.400  30.012  1.00  0.00     0.001 A 
ATOM     73  C   UNL A   1      36.828  30.150  27.743  1.00  0.00     0.001 A 
ATOM     74  C   UNL A   1      35.983  29.954  28.834  1.00  0.00     0.000 A 
ENDBRANCH  50  69
BRANCH  62  75
ATOM     75  C   UNL A   1      44.402  32.458  31.330  1.00  0.00    -0.014 A 
ATOM     76  C   UNL A   1      44.580  33.573  30.498  1.00  0.00     0.009 A 
ATOM     77  C   UNL A   1      44.394  32.642  32.722  1.00  0.00     0.009 A 
ATOM     78  C   UNL A   1      44.773  34.842  31.049  1.00  0.00     0.001 A 
ATOM     79  C   UNL A   1      44.561  33.915  33.270  1.00  0.00     0.001 A 
ATOM     80  C   UNL A   1      44.758  35.012  32.434  1.00  0.00     0.000 A 
ENDBRANCH  62  75
ENDBRANCH  36  37
ENDBRANCH  29  31
ENDBRANCH  28  29
ENDBRANCH  27  28
ENDBRANCH  26  27
ENDBRANCH  25  26
ENDBRANCH  24  25
ENDBRANCH   1  24
TORSDOF 21
ENDMDL
MODEL 2
REMARK VINA RESULT:      -9.2      1.973      5.762
REMARK SMILES COc1ccc(CSc2ncccc2C(=O)OCCOCCOCCOC(=O)c2ccc(-c3c4nc(c(-c5ccccc5)c5ccc([nH]5)c(-c5ccccc5)c5nc(c(-c6ccccc6)c6ccc3[nH]6)C=C5)C=C4)cc2)cc1
REMARK SMILES IDX 21 1 20 2 19 3 18 4 17 5 15 6 16 7 14 8 9 9 10 10 11 11
REMARK SMILES IDX 13 12 12 13 8 14 7 15 6 16 3 17 4 18 78 19 5 20 77 21 2 22
REMARK SMILES IDX 1 23 22 24 23 25 24 26 25 27 26 28 27 29 28 30 29 31 30 32
REMARK SMILES IDX 76 33 31 34 75 35 32 36 33 37 34 38 69 39 35 40 74 41 68 42
REMARK SMILES IDX 70 43 36 44 73 45 67 46 66 47 37 49 59 50 44 51 58 52 45 53
REMARK SMILES IDX 48 54 57 55 71 56 46 57 47 58 56 60 72 61 49 62 38 63 39 64
REMARK SMILES IDX 43 65 40 66 42 67 41 68 60 69 61 70 65 71 62 72 64 73 63 74
REMARK SMILES IDX 50 75 51 76 55 77 52 78 54 79 53 80
REMARK H PARENT 70 48 48 59
REMARK Flexibility Score: inf
ROOT
ATOM      1  C   UNL A   1      36.203  22.923  26.144  1.00  0.00     0.188 C 
ENDROOT
BRANCH   1   2
ATOM      2  O   UNL A   1      34.898  23.314  26.551  1.00  0.00    -0.376 OA
BRANCH   2   3
ATOM      3  C   UNL A   1      34.281  22.489  27.533  1.00  0.00     0.202 C 
BRANCH   3   4
ATOM      4  C   UNL A   1      32.752  22.575  27.522  1.00  0.00     0.261 C 
BRANCH   4   5
ATOM      5  O   UNL A   1      32.263  23.710  26.784  1.00  0.00    -0.460 OA
BRANCH   5   6
ATOM      6  C   UNL A   1      31.211  23.476  25.962  1.00  0.00     0.340 C 
ATOM      7  O   UNL A   1      30.456  22.536  26.043  1.00  0.00    -0.246 OA
BRANCH   6   8
ATOM      8  C   UNL A   1      31.156  24.554  24.960  1.00  0.00     0.092 A 
ATOM      9  C   UNL A   1      31.942  24.616  23.807  1.00  0.00     0.111 A 
ATOM     10  N   UNL A   1      31.770  25.628  22.906  1.00  0.00    -0.249 NA
ATOM     11  C   UNL A   1      30.816  26.558  23.128  1.00  0.00     0.112 A 
ATOM     12  C   UNL A   1      30.168  25.537  25.161  1.00  0.00     0.020 A 
ATOM     13  C   UNL A   1      29.986  26.548  24.227  1.00  0.00     0.021 A 
BRANCH   9  14
ATOM     14  S   UNL A   1      32.993  23.362  23.093  1.00  0.00    -0.101 SA
BRANCH  14  15
ATOM     15  C   UNL A   1      31.956  21.903  22.805  1.00  0.00     0.112 C 
BRANCH  15  16
ATOM     16  C   UNL A   1      32.451  20.594  23.353  1.00  0.00    -0.037 A 
ATOM     17  C   UNL A   1      33.364  18.098  24.297  1.00  0.00     0.118 A 
ATOM     18  C   UNL A   1      33.711  19.281  24.956  1.00  0.00     0.047 A 
ATOM     19  C   UNL A   1      32.586  18.169  23.145  1.00  0.00     0.047 A 
ATOM     20  C   UNL A   1      33.260  20.521  24.491  1.00  0.00     0.008 A 
ATOM     21  C   UNL A   1      32.158  19.407  22.668  1.00  0.00     0.008 A 
BRANCH  17  22
ATOM     22  O   UNL A   1      33.845  16.950  24.859  1.00  0.00    -0.497 OA
ATOM     23  C   UNL A   1      32.878  16.074  25.429  1.00  0.00     0.278 C 
ENDBRANCH  17  22
ENDBRANCH  15  16
ENDBRANCH  14  15
ENDBRANCH   9  14
ENDBRANCH   6   8
ENDBRANCH   5   6
ENDBRANCH   4   5
ENDBRANCH   3   4
ENDBRANCH   2   3
ENDBRANCH   1   2
BRANCH   1  24
ATOM     24  C   UNL A   1      36.356  22.526  24.661  1.00  0.00     0.188 C 
BRANCH  24  25
ATOM     25  O   UNL A   1      37.370  21.610  24.267  1.00  0.00    -0.376 OA
BRANCH  25  26
ATOM     26  C   UNL A   1      37.214  20.234  24.580  1.00  0.00     0.202 C 
BRANCH  26  27
ATOM     27  C   UNL A   1      38.454  19.459  25.038  1.00  0.00     0.261 C 
BRANCH  27  28
ATOM     28  O   UNL A   1      38.989  19.897  26.298  1.00  0.00    -0.460 OA
BRANCH  28  29
ATOM     29  C   UNL A   1      40.329  20.105  26.315  1.00  0.00     0.338 C 
ATOM     30  O   UNL A   1      41.198  19.374  25.872  1.00  0.00    -0.246 OA
BRANCH  29  31
ATOM     31  C   UNL A   1      40.623  21.460  26.825  1.00  0.00     0.060 A 
ATOM     32  C   UNL A   1      40.076  22.553  26.138  1.00  0.00     0.016 A 
ATOM     33  C   UNL A   1      41.489  21.663  27.901  1.00  0.00     0.016 A 
ATOM     34  C   UNL A   1      40.426  23.854  26.497  1.00  0.00     0.010 A 
ATOM     35  C   UNL A   1      41.860  22.968  28.244  1.00  0.00     0.010 A 
ATOM     36  C   UNL A   1      41.359  24.065  27.519  1.00  0.00    -0.014 A 
BRANCH  36  37
ATOM     37  C   UNL A   1      41.955  25.410  27.696  1.00  0.00     0.031 A 
ATOM     38  C   UNL A   1      41.173  26.451  28.452  1.00  0.00     0.074 A 
ATOM     39  C   UNL A   1      43.174  25.705  27.215  1.00  0.00     0.049 A 
ATOM     40  N   UNL A   1      41.478  27.699  28.703  1.00  0.00    -0.248 NA
ATOM     41  C   UNL A   1      39.875  26.024  28.998  1.00  0.00     0.031 C 
ATOM     42  C   UNL A   1      44.058  24.777  26.513  1.00  0.00     0.029 A 
ATOM     43  N   UNL A   1      43.873  26.887  27.242  1.00  0.00    -0.354 N 
ATOM     44  C   UNL A   1      40.410  28.206  29.433  1.00  0.00     0.074 A 
ATOM     45  C   UNL A   1      39.440  27.140  29.562  1.00  0.00     0.031 C 
ATOM     46  C   UNL A   1      45.180  25.430  26.161  1.00  0.00     0.029 A 
ATOM     47  C   UNL A   1      45.079  26.825  26.589  1.00  0.00     0.049 A 
ATOM     48  H   UNL A   1      43.542  27.699  27.687  1.00  0.00     0.167 HD
ATOM     49  C   UNL A   1      40.249  29.445  29.954  1.00  0.00     0.031 A 
ATOM     50  C   UNL A   1      45.987  27.790  26.349  1.00  0.00     0.031 A 
ATOM     51  C   UNL A   1      41.197  30.516  29.809  1.00  0.00     0.049 A 
ATOM     52  C   UNL A   1      45.746  29.186  26.858  1.00  0.00     0.074 A 
ATOM     53  C   UNL A   1      41.126  31.805  30.309  1.00  0.00     0.029 A 
ATOM     54  N   UNL A   1      42.384  30.425  29.100  1.00  0.00    -0.354 N 
ATOM     55  N   UNL A   1      44.744  29.648  27.566  1.00  0.00    -0.248 NA
ATOM     56  C   UNL A   1      46.767  30.194  26.534  1.00  0.00     0.031 C 
ATOM     57  C   UNL A   1      42.248  32.511  29.858  1.00  0.00     0.029 A 
ATOM     58  C   UNL A   1      43.040  31.645  29.122  1.00  0.00     0.049 A 
ATOM     59  H   UNL A   1      42.712  29.615  28.648  1.00  0.00     0.167 HD
ATOM     60  C   UNL A   1      45.027  30.990  27.796  1.00  0.00     0.074 A 
ATOM     61  C   UNL A   1      46.297  31.266  27.157  1.00  0.00     0.031 C 
ATOM     62  C   UNL A   1      44.301  31.908  28.478  1.00  0.00     0.031 A 
BRANCH  49  63
ATOM     63  C   UNL A   1      38.970  29.714  30.694  1.00  0.00    -0.014 A 
ATOM     64  C   UNL A   1      37.823  30.167  30.022  1.00  0.00     0.009 A 
ATOM     65  C   UNL A   1      38.913  29.508  32.080  1.00  0.00     0.009 A 
ATOM     66  C   UNL A   1      36.653  30.442  30.734  1.00  0.00     0.001 A 
ATOM     67  C   UNL A   1      37.734  29.760  32.784  1.00  0.00     0.001 A 
ATOM     68  C   UNL A   1      36.610  30.237  32.112  1.00  0.00     0.000 A 
ENDBRANCH  49  63
BRANCH  50  69
ATOM     69  C   UNL A   1      47.208  27.476  25.564  1.00  0.00    -0.014 A 
ATOM     70  C   UNL A   1      48.384  27.060  26.205  1.00  0.00     0.009 A 
ATOM     71  C   UNL A   1      47.203  27.604  24.166  1.00  0.00     0.009 A 
ATOM     72  C   UNL A   1      49.537  26.796  25.461  1.00  0.00     0.001 A 
ATOM     73  C   UNL A   1      48.350  27.317  23.424  1.00  0.00     0.001 A 
ATOM     74  C   UNL A   1      49.518  26.920  24.073  1.00  0.00     0.000 A 
ENDBRANCH  50  69
BRANCH  62  75
ATOM     75  C   UNL A   1      44.873  33.293  28.596  1.00  0.00    -0.014 A 
ATOM     76  C   UNL A   1      45.712  33.645  29.664  1.00  0.00     0.009 A 
ATOM     77  C   UNL A   1      44.605  34.244  27.599  1.00  0.00     0.009 A 
ATOM     78  C   UNL A   1      46.251  34.931  29.744  1.00  0.00     0.001 A 
ATOM     79  C   UNL A   1      45.165  35.521  27.668  1.00  0.00     0.001 A 
ATOM     80  C   UNL A   1      45.981  35.865  28.744  1.00  0.00     0.000 A 
ENDBRANCH  62  75
ENDBRANCH  36  37
ENDBRANCH  29  31
ENDBRANCH  28  29
ENDBRANCH  27  28
ENDBRANCH  26  27
ENDBRANCH  25  26
ENDBRANCH  24  25
ENDBRANCH   1  24
TORSDOF 21
ENDMDL
MODEL 3
REMARK VINA RESULT:      -9.1      3.001      4.355
REMARK SMILES COc1ccc(CSc2ncccc2C(=O)OCCOCCOCCOC(=O)c2ccc(-c3c4nc(c(-c5ccccc5)c5ccc([nH]5)c(-c5ccccc5)c5nc(c(-c6ccccc6)c6ccc3[nH]6)C=C5)C=C4)cc2)cc1
REMARK SMILES IDX 21 1 20 2 19 3 18 4 17 5 15 6 16 7 14 8 9 9 10 10 11 11
REMARK SMILES IDX 13 12 12 13 8 14 7 15 6 16 3 17 4 18 78 19 5 20 77 21 2 22
REMARK SMILES IDX 1 23 22 24 23 25 24 26 25 27 26 28 27 29 28 30 29 31 30 32
REMARK SMILES IDX 76 33 31 34 75 35 32 36 33 37 34 38 69 39 35 40 74 41 68 42
REMARK SMILES IDX 70 43 36 44 73 45 67 46 66 47 37 49 59 50 44 51 58 52 45 53
REMARK SMILES IDX 48 54 57 55 71 56 46 57 47 58 56 60 72 61 49 62 38 63 39 64
REMARK SMILES IDX 43 65 40 66 42 67 41 68 60 69 61 70 65 71 62 72 64 73 63 74
REMARK SMILES IDX 50 75 51 76 55 77 52 78 54 79 53 80
REMARK H PARENT 70 48 48 59
REMARK Flexibility Score: inf
ROOT
ATOM      1  C   UNL A   1      37.647  21.181  25.546  1.00  0.00     0.188 C 
ENDROOT
BRANCH   1   2
ATOM      2  O   UNL A   1      36.378  21.689  25.937  1.00  0.00    -0.376 OA
BRANCH   2   3
ATOM      3  C   UNL A   1      36.219  23.100  25.842  1.00  0.00     0.202 C 
BRANCH   3   4
ATOM      4  C   UNL A   1      34.775  23.529  25.569  1.00  0.00     0.261 C 
BRANCH   4   5
ATOM      5  O   UNL A   1      34.688  24.700  24.738  1.00  0.00    -0.460 OA
BRANCH   5   6
ATOM      6  C   UNL A   1      34.433  24.481  23.425  1.00  0.00     0.340 C 
ATOM      7  O   UNL A   1      35.083  23.770  22.695  1.00  0.00    -0.246 OA
BRANCH   6   8
ATOM      8  C   UNL A   1      33.241  25.259  23.046  1.00  0.00     0.092 A 
ATOM      9  C   UNL A   1      31.933  24.770  23.045  1.00  0.00     0.111 A 
ATOM     10  N   UNL A   1      30.887  25.593  22.738  1.00  0.00    -0.249 NA
ATOM     11  C   UNL A   1      31.126  26.892  22.456  1.00  0.00     0.112 A 
ATOM     12  C   UNL A   1      33.457  26.619  22.752  1.00  0.00     0.020 A 
ATOM     13  C   UNL A   1      32.384  27.452  22.464  1.00  0.00     0.021 A 
BRANCH   9  14
ATOM     14  S   UNL A   1      31.303  23.239  23.713  1.00  0.00    -0.101 SA
BRANCH  14  15
ATOM     15  C   UNL A   1      32.167  21.893  22.860  1.00  0.00     0.112 C 
BRANCH  15  16
ATOM     16  C   UNL A   1      32.402  20.629  23.638  1.00  0.00    -0.037 A 
ATOM     17  C   UNL A   1      32.830  18.306  25.178  1.00  0.00     0.118 A 
ATOM     18  C   UNL A   1      32.483  18.213  23.828  1.00  0.00     0.047 A 
ATOM     19  C   UNL A   1      32.931  19.563  25.765  1.00  0.00     0.047 A 
ATOM     20  C   UNL A   1      32.270  19.363  23.060  1.00  0.00     0.008 A 
ATOM     21  C   UNL A   1      32.694  20.708  25.006  1.00  0.00     0.008 A 
BRANCH  17  22
ATOM     22  O   UNL A   1      33.034  17.114  25.815  1.00  0.00    -0.497 OA
ATOM     23  C   UNL A   1      32.660  15.944  25.097  1.00  0.00     0.278 C 
ENDBRANCH  17  22
ENDBRANCH  15  16
ENDBRANCH  14  15
ENDBRANCH   9  14
ENDBRANCH   6   8
ENDBRANCH   5   6
ENDBRANCH   4   5
ENDBRANCH   3   4
ENDBRANCH   2   3
ENDBRANCH   1   2
BRANCH   1  24
ATOM     24  C   UNL A   1      38.873  21.991  26.019  1.00  0.00     0.188 C 
BRANCH  24  25
ATOM     25  O   UNL A   1      39.779  21.432  26.961  1.00  0.00    -0.376 OA
BRANCH  25  26
ATOM     26  C   UNL A   1      40.809  20.572  26.499  1.00  0.00     0.202 C 
BRANCH  26  27
ATOM     27  C   UNL A   1      42.174  21.194  26.183  1.00  0.00     0.261 C 
BRANCH  27  28
ATOM     28  O   UNL A   1      42.424  22.437  26.862  1.00  0.00    -0.460 OA
BRANCH  28  29
ATOM     29  C   UNL A   1      42.442  23.535  26.066  1.00  0.00     0.338 C 
ATOM     30  O   UNL A   1      42.726  23.587  24.882  1.00  0.00    -0.246 OA
BRANCH  29  31
ATOM     31  C   UNL A   1      41.903  24.699  26.800  1.00  0.00     0.060 A 
ATOM     32  C   UNL A   1      42.420  25.965  26.494  1.00  0.00     0.016 A 
ATOM     33  C   UNL A   1      40.972  24.545  27.830  1.00  0.00     0.016 A 
ATOM     34  C   UNL A   1      42.042  27.077  27.244  1.00  0.00     0.010 A 
ATOM     35  C   UNL A   1      40.613  25.657  28.599  1.00  0.00     0.010 A 
ATOM     36  C   UNL A   1      41.175  26.919  28.332  1.00  0.00    -0.014 A 
BRANCH  36  37
ATOM     37  C   UNL A   1      41.014  28.028  29.303  1.00  0.00     0.031 A 
ATOM     38  C   UNL A   1      41.988  28.133  30.446  1.00  0.00     0.074 A 
ATOM     39  C   UNL A   1      40.036  28.938  29.170  1.00  0.00     0.049 A 
ATOM     40  N   UNL A   1      42.025  28.995  31.429  1.00  0.00    -0.248 NA
ATOM     41  C   UNL A   1      43.066  27.130  30.479  1.00  0.00     0.031 C 
ATOM     42  C   UNL A   1      39.060  28.984  28.083  1.00  0.00     0.029 A 
ATOM     43  N   UNL A   1      39.702  30.001  29.974  1.00  0.00    -0.354 N 
ATOM     44  C   UNL A   1      43.126  28.639  32.199  1.00  0.00     0.074 A 
ATOM     45  C   UNL A   1      43.713  27.468  31.584  1.00  0.00     0.031 C 
ATOM     46  C   UNL A   1      38.224  30.017  28.296  1.00  0.00     0.029 A 
ATOM     47  C   UNL A   1      38.592  30.684  29.545  1.00  0.00     0.049 A 
ATOM     48  H   UNL A   1      40.210  30.249  30.778  1.00  0.00     0.167 HD
ATOM     49  C   UNL A   1      43.609  29.231  33.316  1.00  0.00     0.031 A 
ATOM     50  C   UNL A   1      37.936  31.717  30.107  1.00  0.00     0.031 A 
ATOM     51  C   UNL A   1      43.017  30.379  33.947  1.00  0.00     0.049 A 
ATOM     52  C   UNL A   1      38.436  32.303  31.400  1.00  0.00     0.074 A 
ATOM     53  C   UNL A   1      43.440  31.057  35.078  1.00  0.00     0.029 A 
ATOM     54  N   UNL A   1      41.865  31.012  33.507  1.00  0.00    -0.354 N 
ATOM     55  N   UNL A   1      39.489  31.973  32.107  1.00  0.00    -0.248 NA
ATOM     56  C   UNL A   1      37.654  33.411  31.971  1.00  0.00     0.031 C 
ATOM     57  C   UNL A   1      42.513  32.069  35.352  1.00  0.00     0.029 A 
ATOM     58  C   UNL A   1      41.544  32.052  34.362  1.00  0.00     0.049 A 
ATOM     59  H   UNL A   1      41.352  30.759  32.707  1.00  0.00     0.167 HD
ATOM     60  C   UNL A   1      39.513  32.847  33.188  1.00  0.00     0.074 A 
ATOM     61  C   UNL A   1      38.372  33.727  33.040  1.00  0.00     0.031 C 
ATOM     62  C   UNL A   1      40.402  32.917  34.208  1.00  0.00     0.031 A 
BRANCH  49  63
ATOM     63  C   UNL A   1      44.821  28.610  33.950  1.00  0.00    -0.014 A 
ATOM     64  C   UNL A   1      44.726  27.418  34.687  1.00  0.00     0.009 A 
ATOM     65  C   UNL A   1      46.073  29.224  33.803  1.00  0.00     0.009 A 
ATOM     66  C   UNL A   1      45.860  26.874  35.294  1.00  0.00     0.001 A 
ATOM     67  C   UNL A   1      47.208  28.664  34.392  1.00  0.00     0.001 A 
ATOM     68  C   UNL A   1      47.099  27.496  35.145  1.00  0.00     0.000 A 
ENDBRANCH  49  63
BRANCH  50  69
ATOM     69  C   UNL A   1      36.710  32.253  29.462  1.00  0.00    -0.014 A 
ATOM     70  C   UNL A   1      35.439  31.865  29.908  1.00  0.00     0.009 A 
ATOM     71  C   UNL A   1      36.811  33.150  28.387  1.00  0.00     0.009 A 
ATOM     72  C   UNL A   1      34.291  32.350  29.276  1.00  0.00     0.001 A 
ATOM     73  C   UNL A   1      35.662  33.652  27.773  1.00  0.00     0.001 A 
ATOM     74  C   UNL A   1      34.403  33.246  28.214  1.00  0.00     0.000 A 
ENDBRANCH  50  69
BRANCH  62  75
ATOM     75  C   UNL A   1      40.197  33.997  35.232  1.00  0.00    -0.014 A 
ATOM     76  C   UNL A   1      39.471  33.757  36.408  1.00  0.00     0.009 A 
ATOM     77  C   UNL A   1      40.780  35.260  35.037  1.00  0.00     0.009 A 
ATOM     78  C   UNL A   1      39.311  34.770  37.358  1.00  0.00     0.001 A 
ATOM     79  C   UNL A   1      40.639  36.262  35.998  1.00  0.00     0.001 A 
ATOM     80  C   UNL A   1      39.899  36.018  37.154  1.00  0.00     0.000 A 
ENDBRANCH  62  75
ENDBRANCH  36  37
ENDBRANCH  29  31
ENDBRANCH  28  29
ENDBRANCH  27  28
ENDBRANCH  26  27
ENDBRANCH  25  26
ENDBRANCH  24  25
ENDBRANCH   1  24
TORSDOF 21
ENDMDL
