MODEL 1
REMARK VINA RESULT:     -10.1      0.000      0.000
REMARK SMILES C[C@H](Oc1ccc(/C=C2\SC(=S)N(N)C2=O)cc1)C(=O)OCCOCCOCCOC(=O)c1ccc(-c2c3nc(c(-c4ccccc4)c4ccc([nH]4)c(-c4ccccc4)c4nc(c(-c5ccccc5)c5ccc2[nH]5)C=C4)C=C3)cc1
REMARK SMILES IDX 25 1 24 2 23 3 22 4 21 5 19 6 20 7 2 8 1 9 3 10 4 11 5 12
REMARK SMILES IDX 18 13 6 14 17 15 7 16 8 17 9 18 10 19 15 20 11 21 13 22
REMARK SMILES IDX 16 23 12 24 14 25 26 28 27 29 28 30 29 31 30 32 31 33 32 34
REMARK SMILES IDX 33 35 34 36 80 37 35 38 79 39 36 40 37 41 38 42 73 43 39 44
REMARK SMILES IDX 78 45 72 46 74 47 40 48 77 49 71 50 70 51 41 53 63 54 48 55
REMARK SMILES IDX 62 56 49 57 52 58 61 59 75 60 50 61 51 62 60 64 76 65 53 66
REMARK SMILES IDX 42 67 43 68 47 69 44 70 46 71 45 72 64 73 65 74 69 75 66 76
REMARK SMILES IDX 68 77 67 78 54 79 55 80 59 81 56 82 58 83 57 84
REMARK H PARENT 14 26 14 27 74 52 52 63
REMARK Flexibility Score: inf
ROOT
ATOM      1  C   UNL A   1      33.417  28.805  26.653  1.00  0.00     0.188 C 
ENDROOT
BRANCH   1   2
ATOM      2  O   UNL A   1      34.104  28.725  25.411  1.00  0.00    -0.376 OA
BRANCH   2   3
ATOM      3  C   UNL A   1      33.466  28.113  24.293  1.00  0.00     0.202 C 
BRANCH   3   4
ATOM      4  C   UNL A   1      32.579  28.951  23.355  1.00  0.00     0.261 C 
BRANCH   4   5
ATOM      5  O   UNL A   1      31.209  29.105  23.778  1.00  0.00    -0.461 OA
BRANCH   5   6
ATOM      6  C   UNL A   1      30.276  28.581  22.946  1.00  0.00     0.347 C 
ATOM      7  O   UNL A   1      30.039  29.004  21.817  1.00  0.00    -0.248 OA
BRANCH   6   8
ATOM      8  C   UNL A   1      29.527  27.359  23.510  1.00  0.00     0.279 C 
ATOM      9  C   UNL A   1      28.036  27.697  23.400  1.00  0.00     0.066 C 
BRANCH   8  10
ATOM     10  O   UNL A   1      29.840  26.851  24.811  1.00  0.00    -0.479 OA
BRANCH  10  11
ATOM     11  C   UNL A   1      30.562  25.677  24.861  1.00  0.00     0.120 A 
ATOM     12  C   UNL A   1      31.043  25.091  26.029  1.00  0.00     0.047 A 
ATOM     13  C   UNL A   1      30.889  25.071  23.646  1.00  0.00     0.047 A 
ATOM     14  C   UNL A   1      31.963  24.045  25.979  1.00  0.00     0.012 A 
ATOM     15  C   UNL A   1      31.849  24.040  23.597  1.00  0.00     0.012 A 
ATOM     16  C   UNL A   1      32.485  23.598  24.767  1.00  0.00    -0.024 A 
BRANCH  16  17
ATOM     17  C   UNL A   1      33.699  22.746  24.697  1.00  0.00     0.029 C 
ATOM     18  C   UNL A   1      33.751  21.405  24.559  1.00  0.00     0.082 C 
ATOM     19  S   UNL A   1      32.431  20.298  24.369  1.00  0.00    -0.053 SA
ATOM     20  C   UNL A   1      35.028  20.629  24.667  1.00  0.00     0.280 C 
ATOM     21  C   UNL A   1      33.421  18.873  24.561  1.00  0.00     0.162 C 
ATOM     22  N   UNL A   1      34.739  19.263  24.699  1.00  0.00    -0.226 N 
ATOM     23  O   UNL A   1      36.142  21.135  24.712  1.00  0.00    -0.267 OA
ATOM     24  S   UNL A   1      32.802  17.324  24.555  1.00  0.00    -0.050 S 
BRANCH  22  25
ATOM     25  N   UNL A   1      35.781  18.319  24.920  1.00  0.00    -0.239 NA
ATOM     26  H   UNL A   1      35.377  17.395  25.067  1.00  0.00     0.144 HD
ATOM     27  H   UNL A   1      36.318  18.593  25.743  1.00  0.00     0.144 HD
ENDBRANCH  22  25
ENDBRANCH  16  17
ENDBRANCH  10  11
ENDBRANCH   8  10
ENDBRANCH   6   8
ENDBRANCH   5   6
ENDBRANCH   4   5
ENDBRANCH   3   4
ENDBRANCH   2   3
ENDBRANCH   1   2
BRANCH   1  28
ATOM     28  C   UNL A   1      32.933  30.174  27.167  1.00  0.00     0.188 C 
BRANCH  28  29
ATOM     29  O   UNL A   1      31.719  30.605  26.601  1.00  0.00    -0.376 OA
BRANCH  29  30
ATOM     30  C   UNL A   1      31.375  31.975  26.710  1.00  0.00     0.202 C 
BRANCH  30  31
ATOM     31  C   UNL A   1      32.431  33.062  27.009  1.00  0.00     0.261 C 
BRANCH  31  32
ATOM     32  O   UNL A   1      32.263  33.854  28.197  1.00  0.00    -0.460 OA
BRANCH  32  33
ATOM     33  C   UNL A   1      33.289  34.658  28.551  1.00  0.00     0.338 C 
ATOM     34  O   UNL A   1      33.241  35.861  28.770  1.00  0.00    -0.246 OA
BRANCH  33  35
ATOM     35  C   UNL A   1      34.468  33.815  28.845  1.00  0.00     0.060 A 
ATOM     36  C   UNL A   1      34.270  32.566  29.451  1.00  0.00     0.016 A 
ATOM     37  C   UNL A   1      35.761  34.257  28.556  1.00  0.00     0.016 A 
ATOM     38  C   UNL A   1      35.364  31.774  29.801  1.00  0.00     0.010 A 
ATOM     39  C   UNL A   1      36.859  33.470  28.929  1.00  0.00     0.010 A 
ATOM     40  C   UNL A   1      36.667  32.241  29.585  1.00  0.00    -0.014 A 
BRANCH  40  41
ATOM     41  C   UNL A   1      37.809  31.521  30.206  1.00  0.00     0.031 A 
ATOM     42  C   UNL A   1      38.142  31.798  31.649  1.00  0.00     0.074 A 
ATOM     43  C   UNL A   1      38.504  30.592  29.527  1.00  0.00     0.049 A 
ATOM     44  N   UNL A   1      39.080  31.279  32.401  1.00  0.00    -0.248 NA
ATOM     45  C   UNL A   1      37.303  32.795  32.337  1.00  0.00     0.031 C 
ATOM     46  C   UNL A   1      38.263  30.198  28.140  1.00  0.00     0.029 A 
ATOM     47  N   UNL A   1      39.561  29.808  29.922  1.00  0.00    -0.354 N 
ATOM     48  C   UNL A   1      38.940  31.879  33.647  1.00  0.00     0.074 A 
ATOM     49  C   UNL A   1      37.858  32.834  33.538  1.00  0.00     0.031 C 
ATOM     50  C   UNL A   1      39.152  29.248  27.797  1.00  0.00     0.029 A 
ATOM     51  C   UNL A   1      40.042  28.991  28.928  1.00  0.00     0.049 A 
ATOM     52  H   UNL A   1      39.940  29.831  30.830  1.00  0.00     0.167 HD
ATOM     53  C   UNL A   1      39.636  31.649  34.786  1.00  0.00     0.031 A 
ATOM     54  C   UNL A   1      41.090  28.143  28.925  1.00  0.00     0.031 A 
ATOM     55  C   UNL A   1      40.731  30.721  34.895  1.00  0.00     0.049 A 
ATOM     56  C   UNL A   1      41.905  27.968  30.182  1.00  0.00     0.074 A 
ATOM     57  C   UNL A   1      41.503  30.424  36.004  1.00  0.00     0.029 A 
ATOM     58  N   UNL A   1      41.212  29.942  33.854  1.00  0.00    -0.354 N 
ATOM     59  N   UNL A   1      41.746  28.523  31.358  1.00  0.00    -0.248 NA
ATOM     60  C   UNL A   1      43.037  27.032  30.109  1.00  0.00     0.031 C 
ATOM     61  C   UNL A   1      42.490  29.510  35.620  1.00  0.00     0.029 A 
ATOM     62  C   UNL A   1      42.286  29.183  34.290  1.00  0.00     0.049 A 
ATOM     63  H   UNL A   1      40.846  29.932  32.940  1.00  0.00     0.167 HD
ATOM     64  C   UNL A   1      42.737  27.983  32.171  1.00  0.00     0.074 A 
ATOM     65  C   UNL A   1      43.472  27.036  31.360  1.00  0.00     0.031 C 
ATOM     66  C   UNL A   1      43.015  28.246  33.473  1.00  0.00     0.031 A 
BRANCH  53  67
ATOM     67  C   UNL A   1      39.246  32.438  36.006  1.00  0.00    -0.014 A 
ATOM     68  C   UNL A   1      39.848  33.673  36.295  1.00  0.00     0.009 A 
ATOM     69  C   UNL A   1      38.240  31.958  36.858  1.00  0.00     0.009 A 
ATOM     70  C   UNL A   1      39.471  34.395  37.430  1.00  0.00     0.001 A 
ATOM     71  C   UNL A   1      37.843  32.697  37.975  1.00  0.00     0.001 A 
ATOM     72  C   UNL A   1      38.465  33.910  38.265  1.00  0.00     0.000 A 
ENDBRANCH  53  67
BRANCH  54  73
ATOM     73  C   UNL A   1      41.460  27.410  27.683  1.00  0.00    -0.014 A 
ATOM     74  C   UNL A   1      42.367  27.956  26.761  1.00  0.00     0.009 A 
ATOM     75  C   UNL A   1      40.865  26.171  27.392  1.00  0.00     0.009 A 
ATOM     76  C   UNL A   1      42.641  27.296  25.560  1.00  0.00     0.001 A 
ATOM     77  C   UNL A   1      41.169  25.496  26.209  1.00  0.00     0.001 A 
ATOM     78  C   UNL A   1      42.046  26.065  25.287  1.00  0.00     0.000 A 
ENDBRANCH  54  73
BRANCH  66  79
ATOM     79  C   UNL A   1      44.135  27.468  34.109  1.00  0.00    -0.014 A 
ATOM     80  C   UNL A   1      45.451  27.957  34.134  1.00  0.00     0.009 A 
ATOM     81  C   UNL A   1      43.865  26.227  34.709  1.00  0.00     0.009 A 
ATOM     82  C   UNL A   1      46.479  27.198  34.697  1.00  0.00     0.001 A 
ATOM     83  C   UNL A   1      44.888  25.486  35.304  1.00  0.00     0.001 A 
ATOM     84  C   UNL A   1      46.196  25.965  35.284  1.00  0.00     0.000 A 
ENDBRANCH  66  79
ENDBRANCH  40  41
ENDBRANCH  33  35
ENDBRANCH  32  33
ENDBRANCH  31  32
ENDBRANCH  30  31
ENDBRANCH  29  30
ENDBRANCH  28  29
ENDBRANCH   1  28
TORSDOF 21
ENDMDL
MODEL 2
REMARK VINA RESULT:     -10.0      2.021      3.225
REMARK SMILES C[C@H](Oc1ccc(/C=C2\SC(=S)N(N)C2=O)cc1)C(=O)OCCOCCOCCOC(=O)c1ccc(-c2c3nc(c(-c4ccccc4)c4ccc([nH]4)c(-c4ccccc4)c4nc(c(-c5ccccc5)c5ccc2[nH]5)C=C4)C=C3)cc1
REMARK SMILES IDX 25 1 24 2 23 3 22 4 21 5 19 6 20 7 2 8 1 9 3 10 4 11 5 12
REMARK SMILES IDX 18 13 6 14 17 15 7 16 8 17 9 18 10 19 15 20 11 21 13 22
REMARK SMILES IDX 16 23 12 24 14 25 26 28 27 29 28 30 29 31 30 32 31 33 32 34
REMARK SMILES IDX 33 35 34 36 80 37 35 38 79 39 36 40 37 41 38 42 73 43 39 44
REMARK SMILES IDX 78 45 72 46 74 47 40 48 77 49 71 50 70 51 41 53 63 54 48 55
REMARK SMILES IDX 62 56 49 57 52 58 61 59 75 60 50 61 51 62 60 64 76 65 53 66
REMARK SMILES IDX 42 67 43 68 47 69 44 70 46 71 45 72 64 73 65 74 69 75 66 76
REMARK SMILES IDX 68 77 67 78 54 79 55 80 59 81 56 82 58 83 57 84
REMARK H PARENT 14 26 14 27 74 52 52 63
REMARK Flexibility Score: inf
ROOT
ATOM      1  C   UNL A   1      34.707  32.016  28.650  1.00  0.00     0.188 C 
ENDROOT
BRANCH   1   2
ATOM      2  O   UNL A   1      33.815  31.662  27.601  1.00  0.00    -0.376 OA
BRANCH   2   3
ATOM      3  C   UNL A   1      33.859  30.347  27.053  1.00  0.00     0.202 C 
BRANCH   3   4
ATOM      4  C   UNL A   1      32.585  29.708  26.470  1.00  0.00     0.261 C 
BRANCH   4   5
ATOM      5  O   UNL A   1      32.559  29.590  25.034  1.00  0.00    -0.461 OA
BRANCH   5   6
ATOM      6  C   UNL A   1      32.593  28.325  24.548  1.00  0.00     0.347 C 
ATOM      7  O   UNL A   1      33.480  27.512  24.798  1.00  0.00    -0.248 OA
BRANCH   6   8
ATOM      8  C   UNL A   1      31.393  27.946  23.659  1.00  0.00     0.279 C 
ATOM      9  C   UNL A   1      31.035  29.216  22.880  1.00  0.00     0.066 C 
BRANCH   8  10
ATOM     10  O   UNL A   1      30.224  27.351  24.231  1.00  0.00    -0.479 OA
BRANCH  10  11
ATOM     11  C   UNL A   1      30.314  26.019  24.580  1.00  0.00     0.120 A 
ATOM     12  C   UNL A   1      30.469  25.549  25.881  1.00  0.00     0.047 A 
ATOM     13  C   UNL A   1      30.314  25.082  23.544  1.00  0.00     0.047 A 
ATOM     14  C   UNL A   1      30.794  24.216  26.126  1.00  0.00     0.012 A 
ATOM     15  C   UNL A   1      30.681  23.743  23.792  1.00  0.00     0.012 A 
ATOM     16  C   UNL A   1      31.041  23.327  25.082  1.00  0.00    -0.024 A 
BRANCH  16  17
ATOM     17  C   UNL A   1      31.715  22.023  25.300  1.00  0.00     0.029 C 
ATOM     18  C   UNL A   1      33.041  21.773  25.280  1.00  0.00     0.082 C 
ATOM     19  S   UNL A   1      34.337  22.900  25.053  1.00  0.00    -0.053 SA
ATOM     20  C   UNL A   1      33.604  20.386  25.347  1.00  0.00     0.280 C 
ATOM     21  C   UNL A   1      35.563  21.667  24.898  1.00  0.00     0.162 C 
ATOM     22  N   UNL A   1      34.976  20.431  25.089  1.00  0.00    -0.226 N 
ATOM     23  O   UNL A   1      32.947  19.384  25.598  1.00  0.00    -0.267 OA
ATOM     24  S   UNL A   1      37.166  22.007  24.585  1.00  0.00    -0.050 S 
BRANCH  22  25
ATOM     25  N   UNL A   1      35.719  19.222  24.976  1.00  0.00    -0.239 NA
ATOM     26  H   UNL A   1      35.465  18.746  24.111  1.00  0.00     0.144 HD
ATOM     27  H   UNL A   1      35.510  18.620  25.772  1.00  0.00     0.144 HD
ENDBRANCH  22  25
ENDBRANCH  16  17
ENDBRANCH  10  11
ENDBRANCH   8  10
ENDBRANCH   6   8
ENDBRANCH   5   6
ENDBRANCH   4   5
ENDBRANCH   3   4
ENDBRANCH   2   3
ENDBRANCH   1   2
BRANCH   1  28
ATOM     28  C   UNL A   1      34.508  33.345  29.401  1.00  0.00     0.188 C 
BRANCH  28  29
ATOM     29  O   UNL A   1      34.927  34.480  28.683  1.00  0.00    -0.376 OA
BRANCH  29  30
ATOM     30  C   UNL A   1      34.137  35.654  28.759  1.00  0.00     0.202 C 
BRANCH  30  31
ATOM     31  C   UNL A   1      32.917  35.758  29.700  1.00  0.00     0.261 C 
BRANCH  31  32
ATOM     32  O   UNL A   1      33.119  36.339  31.000  1.00  0.00    -0.460 OA
BRANCH  32  33
ATOM     33  C   UNL A   1      32.752  35.598  32.069  1.00  0.00     0.338 C 
ATOM     34  O   UNL A   1      31.611  35.373  32.452  1.00  0.00    -0.246 OA
BRANCH  33  35
ATOM     35  C   UNL A   1      33.949  34.909  32.598  1.00  0.00     0.060 A 
ATOM     36  C   UNL A   1      35.180  35.579  32.571  1.00  0.00     0.016 A 
ATOM     37  C   UNL A   1      33.870  33.604  33.090  1.00  0.00     0.016 A 
ATOM     38  C   UNL A   1      36.340  34.935  33.002  1.00  0.00     0.010 A 
ATOM     39  C   UNL A   1      35.040  32.951  33.501  1.00  0.00     0.010 A 
ATOM     40  C   UNL A   1      36.285  33.601  33.426  1.00  0.00    -0.014 A 
BRANCH  40  41
ATOM     41  C   UNL A   1      37.551  32.847  33.617  1.00  0.00     0.031 A 
ATOM     42  C   UNL A   1      38.345  33.069  34.877  1.00  0.00     0.074 A 
ATOM     43  C   UNL A   1      37.965  31.935  32.719  1.00  0.00     0.049 A 
ATOM     44  N   UNL A   1      39.466  32.513  35.264  1.00  0.00    -0.248 NA
ATOM     45  C   UNL A   1      37.800  34.049  35.832  1.00  0.00     0.031 C 
ATOM     46  C   UNL A   1      37.275  31.592  31.477  1.00  0.00     0.029 A 
ATOM     47  N   UNL A   1      39.076  31.126  32.721  1.00  0.00    -0.354 N 
ATOM     48  C   UNL A   1      39.755  33.069  36.505  1.00  0.00     0.074 A 
ATOM     49  C   UNL A   1      38.719  34.040  36.785  1.00  0.00     0.031 C 
ATOM     50  C   UNL A   1      37.981  30.646  30.833  1.00  0.00     0.029 A 
ATOM     51  C   UNL A   1      39.186  30.339  31.601  1.00  0.00     0.049 A 
ATOM     52  H   UNL A   1      39.731  31.113  33.455  1.00  0.00     0.167 HD
ATOM     53  C   UNL A   1      40.781  32.792  37.344  1.00  0.00     0.031 A 
ATOM     54  C   UNL A   1      40.156  29.481  31.229  1.00  0.00     0.031 A 
ATOM     55  C   UNL A   1      41.830  31.848  37.060  1.00  0.00     0.049 A 
ATOM     56  C   UNL A   1      41.335  29.252  32.143  1.00  0.00     0.074 A 
ATOM     57  C   UNL A   1      42.917  31.504  37.846  1.00  0.00     0.029 A 
ATOM     58  N   UNL A   1      41.927  31.101  35.896  1.00  0.00    -0.354 N 
ATOM     59  N   UNL A   1      41.582  29.767  33.322  1.00  0.00    -0.248 NA
ATOM     60  C   UNL A   1      42.359  28.307  31.674  1.00  0.00     0.031 C 
ATOM     61  C   UNL A   1      43.702  30.593  37.132  1.00  0.00     0.029 A 
ATOM     62  C   UNL A   1      43.067  30.315  35.933  1.00  0.00     0.049 A 
ATOM     63  H   UNL A   1      41.281  31.128  35.153  1.00  0.00     0.167 HD
ATOM     64  C   UNL A   1      42.772  29.187  33.748  1.00  0.00     0.074 A 
ATOM     65  C   UNL A   1      43.180  28.261  32.713  1.00  0.00     0.031 C 
ATOM     66  C   UNL A   1      43.467  29.401  34.894  1.00  0.00     0.031 A 
BRANCH  53  67
ATOM     67  C   UNL A   1      40.830  33.541  38.648  1.00  0.00    -0.014 A 
ATOM     68  C   UNL A   1      40.223  33.026  39.805  1.00  0.00     0.009 A 
ATOM     69  C   UNL A   1      41.520  34.760  38.730  1.00  0.00     0.009 A 
ATOM     70  C   UNL A   1      40.282  33.733  41.009  1.00  0.00     0.001 A 
ATOM     71  C   UNL A   1      41.604  35.449  39.942  1.00  0.00     0.001 A 
ATOM     72  C   UNL A   1      40.977  34.940  41.077  1.00  0.00     0.000 A 
ENDBRANCH  53  67
BRANCH  54  73
ATOM     73  C   UNL A   1      40.083  28.788  29.913  1.00  0.00    -0.014 A 
ATOM     74  C   UNL A   1      40.520  29.417  28.737  1.00  0.00     0.009 A 
ATOM     75  C   UNL A   1      39.526  27.501  29.824  1.00  0.00     0.009 A 
ATOM     76  C   UNL A   1      40.368  28.788  27.498  1.00  0.00     0.001 A 
ATOM     77  C   UNL A   1      39.409  26.860  28.589  1.00  0.00     0.001 A 
ATOM     78  C   UNL A   1      39.817  27.509  27.426  1.00  0.00     0.000 A 
ENDBRANCH  54  73
BRANCH  66  79
ATOM     79  C   UNL A   1      44.717  28.588  35.104  1.00  0.00    -0.014 A 
ATOM     80  C   UNL A   1      45.950  28.978  34.557  1.00  0.00     0.009 A 
ATOM     81  C   UNL A   1      44.661  27.417  35.877  1.00  0.00     0.009 A 
ATOM     82  C   UNL A   1      47.086  28.186  34.735  1.00  0.00     0.001 A 
ATOM     83  C   UNL A   1      45.806  26.646  36.084  1.00  0.00     0.001 A 
ATOM     84  C   UNL A   1      47.013  27.023  35.500  1.00  0.00     0.000 A 
ENDBRANCH  66  79
ENDBRANCH  40  41
ENDBRANCH  33  35
ENDBRANCH  32  33
ENDBRANCH  31  32
ENDBRANCH  30  31
ENDBRANCH  29  30
ENDBRANCH  28  29
ENDBRANCH   1  28
TORSDOF 21
ENDMDL
MODEL 3
REMARK VINA RESULT:      -9.5      3.066      4.423
REMARK SMILES C[C@H](Oc1ccc(/C=C2\SC(=S)N(N)C2=O)cc1)C(=O)OCCOCCOCCOC(=O)c1ccc(-c2c3nc(c(-c4ccccc4)c4ccc([nH]4)c(-c4ccccc4)c4nc(c(-c5ccccc5)c5ccc2[nH]5)C=C4)C=C3)cc1
REMARK SMILES IDX 25 1 24 2 23 3 22 4 21 5 19 6 20 7 2 8 1 9 3 10 4 11 5 12
REMARK SMILES IDX 18 13 6 14 17 15 7 16 8 17 9 18 10 19 15 20 11 21 13 22
REMARK SMILES IDX 16 23 12 24 14 25 26 28 27 29 28 30 29 31 30 32 31 33 32 34
REMARK SMILES IDX 33 35 34 36 80 37 35 38 79 39 36 40 37 41 38 42 73 43 39 44
REMARK SMILES IDX 78 45 72 46 74 47 40 48 77 49 71 50 70 51 41 53 63 54 48 55
REMARK SMILES IDX 62 56 49 57 52 58 61 59 75 60 50 61 51 62 60 64 76 65 53 66
REMARK SMILES IDX 42 67 43 68 47 69 44 70 46 71 45 72 64 73 65 74 69 75 66 76
REMARK SMILES IDX 68 77 67 78 54 79 55 80 59 81 56 82 58 83 57 84
REMARK H PARENT 14 26 14 27 74 52 52 63
REMARK Flexibility Score: inf
ROOT
ATOM      1  C   UNL A   1      30.109  25.754  25.712  1.00  0.00     0.188 C 
ENDROOT
BRANCH   1   2
ATOM      2  O   UNL A   1      29.792  26.287  24.433  1.00  0.00    -0.376 OA
BRANCH   2   3
ATOM      3  C   UNL A   1      28.469  26.749  24.172  1.00  0.00     0.202 C 
BRANCH   3   4
ATOM      4  C   UNL A   1      28.210  27.750  23.032  1.00  0.00     0.261 C 
BRANCH   4   5
ATOM      5  O   UNL A   1      28.752  29.070  23.238  1.00  0.00    -0.461 OA
BRANCH   5   6
ATOM      6  C   UNL A   1      29.963  29.301  22.674  1.00  0.00     0.347 C 
ATOM      7  O   UNL A   1      30.130  29.637  21.503  1.00  0.00    -0.248 OA
BRANCH   6   8
ATOM      8  C   UNL A   1      31.158  29.146  23.634  1.00  0.00     0.279 C 
ATOM      9  C   UNL A   1      31.073  30.332  24.600  1.00  0.00     0.066 C 
BRANCH   8  10
ATOM     10  O   UNL A   1      32.487  28.999  23.123  1.00  0.00    -0.479 OA
BRANCH  10  11
ATOM     11  C   UNL A   1      33.007  27.721  23.106  1.00  0.00     0.120 A 
ATOM     12  C   UNL A   1      32.768  26.780  22.108  1.00  0.00     0.047 A 
ATOM     13  C   UNL A   1      33.774  27.325  24.204  1.00  0.00     0.047 A 
ATOM     14  C   UNL A   1      33.127  25.445  22.282  1.00  0.00     0.012 A 
ATOM     15  C   UNL A   1      34.101  25.967  24.396  1.00  0.00     0.012 A 
ATOM     16  C   UNL A   1      33.671  24.992  23.483  1.00  0.00    -0.024 A 
BRANCH  16  17
ATOM     17  C   UNL A   1      33.738  23.549  23.824  1.00  0.00     0.029 C 
ATOM     18  C   UNL A   1      34.765  22.892  24.401  1.00  0.00     0.082 C 
ATOM     19  S   UNL A   1      36.270  23.542  24.962  1.00  0.00    -0.053 SA
ATOM     20  C   UNL A   1      34.791  21.401  24.549  1.00  0.00     0.280 C 
ATOM     21  C   UNL A   1      36.994  21.980  25.249  1.00  0.00     0.162 C 
ATOM     22  N   UNL A   1      36.058  21.000  24.978  1.00  0.00    -0.226 N 
ATOM     23  O   UNL A   1      33.836  20.667  24.328  1.00  0.00    -0.267 OA
ATOM     24  S   UNL A   1      38.564  21.784  25.779  1.00  0.00    -0.050 S 
BRANCH  22  25
ATOM     25  N   UNL A   1      36.371  19.615  25.077  1.00  0.00    -0.239 NA
ATOM     26  H   UNL A   1      35.806  19.090  24.410  1.00  0.00     0.144 HD
ATOM     27  H   UNL A   1      36.174  19.289  26.023  1.00  0.00     0.144 HD
ENDBRANCH  22  25
ENDBRANCH  16  17
ENDBRANCH  10  11
ENDBRANCH   8  10
ENDBRANCH   6   8
ENDBRANCH   5   6
ENDBRANCH   4   5
ENDBRANCH   3   4
ENDBRANCH   2   3
ENDBRANCH   1   2
BRANCH   1  28
ATOM     28  C   UNL A   1      31.260  26.372  26.529  1.00  0.00     0.188 C 
BRANCH  28  29
ATOM     29  O   UNL A   1      31.209  27.774  26.624  1.00  0.00    -0.376 OA
BRANCH  29  30
ATOM     30  C   UNL A   1      31.988  28.409  27.623  1.00  0.00     0.202 C 
BRANCH  30  31
ATOM     31  C   UNL A   1      33.443  28.857  27.364  1.00  0.00     0.261 C 
BRANCH  31  32
ATOM     32  O   UNL A   1      33.686  30.257  27.146  1.00  0.00    -0.460 OA
BRANCH  32  33
ATOM     33  C   UNL A   1      34.427  30.904  28.072  1.00  0.00     0.338 C 
ATOM     34  O   UNL A   1      34.062  31.818  28.800  1.00  0.00    -0.246 OA
BRANCH  33  35
ATOM     35  C   UNL A   1      35.714  30.191  28.228  1.00  0.00     0.060 A 
ATOM     36  C   UNL A   1      36.038  29.653  29.482  1.00  0.00     0.016 A 
ATOM     37  C   UNL A   1      36.607  30.076  27.161  1.00  0.00     0.016 A 
ATOM     38  C   UNL A   1      37.271  29.031  29.680  1.00  0.00     0.010 A 
ATOM     39  C   UNL A   1      37.854  29.471  27.369  1.00  0.00     0.010 A 
ATOM     40  C   UNL A   1      38.206  28.977  28.638  1.00  0.00    -0.014 A 
BRANCH  40  41
ATOM     41  C   UNL A   1      39.603  28.566  28.936  1.00  0.00     0.031 A 
ATOM     42  C   UNL A   1      40.497  29.522  29.681  1.00  0.00     0.074 A 
ATOM     43  C   UNL A   1      40.058  27.344  28.608  1.00  0.00     0.049 A 
ATOM     44  N   UNL A   1      41.741  29.372  30.064  1.00  0.00    -0.248 NA
ATOM     45  C   UNL A   1      39.909  30.822  30.046  1.00  0.00     0.031 C 
ATOM     46  C   UNL A   1      39.289  26.308  27.921  1.00  0.00     0.029 A 
ATOM     47  N   UNL A   1      41.289  26.769  28.814  1.00  0.00    -0.354 N 
ATOM     48  C   UNL A   1      42.079  30.551  30.717  1.00  0.00     0.074 A 
ATOM     49  C   UNL A   1      40.928  31.424  30.639  1.00  0.00     0.031 C 
ATOM     50  C   UNL A   1      40.068  25.224  27.758  1.00  0.00     0.029 A 
ATOM     51  C   UNL A   1      41.397  25.500  28.300  1.00  0.00     0.049 A 
ATOM     52  H   UNL A   1      42.024  27.223  29.284  1.00  0.00     0.167 HD
ATOM     53  C   UNL A   1      43.237  30.878  31.339  1.00  0.00     0.031 A 
ATOM     54  C   UNL A   1      42.452  24.662  28.256  1.00  0.00     0.031 A 
ATOM     55  C   UNL A   1      44.396  30.026  31.397  1.00  0.00     0.049 A 
ATOM     56  C   UNL A   1      43.759  25.083  28.881  1.00  0.00     0.074 A 
ATOM     57  C   UNL A   1      45.618  30.272  31.998  1.00  0.00     0.029 A 
ATOM     58  N   UNL A   1      44.478  28.764  30.828  1.00  0.00    -0.354 N 
ATOM     59  N   UNL A   1      44.057  26.190  29.516  1.00  0.00    -0.248 NA
ATOM     60  C   UNL A   1      44.871  24.124  28.794  1.00  0.00     0.031 C 
ATOM     61  C   UNL A   1      46.460  29.185  31.741  1.00  0.00     0.029 A 
ATOM     62  C   UNL A   1      45.738  28.230  31.044  1.00  0.00     0.049 A 
ATOM     63  H   UNL A   1      43.749  28.316  30.341  1.00  0.00     0.167 HD
ATOM     64  C   UNL A   1      45.377  26.049  29.928  1.00  0.00     0.074 A 
ATOM     65  C   UNL A   1      45.812  24.737  29.496  1.00  0.00     0.031 C 
ATOM     66  C   UNL A   1      46.162  26.925  30.605  1.00  0.00     0.031 A 
BRANCH  53  67
ATOM     67  C   UNL A   1      43.314  32.231  31.990  1.00  0.00    -0.014 A 
ATOM     68  C   UNL A   1      42.966  32.410  33.339  1.00  0.00     0.009 A 
ATOM     69  C   UNL A   1      43.774  33.337  31.257  1.00  0.00     0.009 A 
ATOM     70  C   UNL A   1      43.048  33.674  33.929  1.00  0.00     0.001 A 
ATOM     71  C   UNL A   1      43.884  34.592  31.859  1.00  0.00     0.001 A 
ATOM     72  C   UNL A   1      43.512  34.761  33.191  1.00  0.00     0.000 A 
ENDBRANCH  53  67
BRANCH  54  73
ATOM     73  C   UNL A   1      42.339  23.346  27.570  1.00  0.00    -0.014 A 
ATOM     74  C   UNL A   1      41.829  22.222  28.238  1.00  0.00     0.009 A 
ATOM     75  C   UNL A   1      42.788  23.199  26.247  1.00  0.00     0.009 A 
ATOM     76  C   UNL A   1      41.806  20.974  27.609  1.00  0.00     0.001 A 
ATOM     77  C   UNL A   1      42.729  21.959  25.609  1.00  0.00     0.001 A 
ATOM     78  C   UNL A   1      42.251  20.844  26.295  1.00  0.00     0.000 A 
ENDBRANCH  54  73
BRANCH  66  79
ATOM     79  C   UNL A   1      47.556  26.475  30.954  1.00  0.00    -0.014 A 
ATOM     80  C   UNL A   1      48.612  26.568  30.033  1.00  0.00     0.009 A 
ATOM     81  C   UNL A   1      47.819  25.962  32.234  1.00  0.00     0.009 A 
ATOM     82  C   UNL A   1      49.887  26.108  30.369  1.00  0.00     0.001 A 
ATOM     83  C   UNL A   1      49.103  25.536  32.581  1.00  0.00     0.001 A 
ATOM     84  C   UNL A   1      50.131  25.596  31.643  1.00  0.00     0.000 A 
ENDBRANCH  66  79
ENDBRANCH  40  41
ENDBRANCH  33  35
ENDBRANCH  32  33
ENDBRANCH  31  32
ENDBRANCH  30  31
ENDBRANCH  29  30
ENDBRANCH  28  29
ENDBRANCH   1  28
TORSDOF 21
ENDMDL
