MODEL 1
REMARK VINA RESULT:      -9.1      0.000      0.000
REMARK SMILES CC(C)(C[NH2+]CCc1cccnc1)C(=O)OCCOCCOCCOC(=O)c1ccc(-c2c3nc(c(-c4ccccc4)c4ccc([nH]4)c(-c4ccccc4)c4nc(c(-c5ccccc5)c5ccc2[nH]5)C=C4)C=C3)cc1
REMARK SMILES IDX 19 1 18 2 17 3 16 4 14 5 15 6 2 7 1 8 3 9 4 10 5 11 6 14
REMARK SMILES IDX 7 15 8 16 9 17 13 18 10 19 12 20 11 21 20 22 21 23 22 24
REMARK SMILES IDX 23 25 24 26 25 27 26 28 27 29 28 30 29 31 75 32 30 33 74 34
REMARK SMILES IDX 31 35 32 36 33 37 68 38 34 39 73 40 67 41 69 42 35 43 72 44
REMARK SMILES IDX 66 45 65 46 36 48 58 49 43 50 57 51 44 52 47 53 56 54 70 55
REMARK SMILES IDX 45 56 46 57 55 59 71 60 48 61 37 62 38 63 42 64 39 65 41 66
REMARK SMILES IDX 40 67 59 68 60 69 64 70 61 71 63 72 62 73 49 74 50 75 54 76
REMARK SMILES IDX 51 77 53 78 52 79
REMARK H PARENT 5 12 5 13 69 47 47 58
REMARK Flexibility Score: inf
ROOT
ATOM      1  O   UNL A   1      38.067  21.803  25.979  1.00  0.00    -0.376 OA
ENDROOT
BRANCH   1   2
ATOM      2  C   UNL A   1      37.554  22.749  25.044  1.00  0.00     0.202 C 
BRANCH   2   3
ATOM      3  C   UNL A   1      36.537  22.237  24.006  1.00  0.00     0.261 C 
BRANCH   3   4
ATOM      4  O   UNL A   1      35.167  22.108  24.461  1.00  0.00    -0.463 OA
BRANCH   4   5
ATOM      5  C   UNL A   1      34.456  23.268  24.523  1.00  0.00     0.317 C 
ATOM      6  O   UNL A   1      34.615  24.197  23.732  1.00  0.00    -0.251 OA
BRANCH   5   7
ATOM      7  C   UNL A   1      33.405  23.350  25.651  1.00  0.00     0.111 C 
ATOM      8  C   UNL A   1      34.084  22.888  26.961  1.00  0.00     0.029 C 
ATOM      9  C   UNL A   1      32.362  22.276  25.260  1.00  0.00     0.029 C 
BRANCH   7  10
ATOM     10  C   UNL A   1      32.642  24.706  25.830  1.00  0.00     0.278 C 
BRANCH  10  11
ATOM     11  N   UNL A   1      31.495  24.676  26.756  1.00  0.00    -0.345 N 
ATOM     12  H   UNL A   1      31.815  24.971  27.678  1.00  0.00     0.346 HD
ATOM     13  H   UNL A   1      31.135  23.721  26.761  1.00  0.00     0.346 HD
BRANCH  11  14
ATOM     14  C   UNL A   1      30.387  25.556  26.340  1.00  0.00     0.265 C 
BRANCH  14  15
ATOM     15  C   UNL A   1      30.124  25.635  24.814  1.00  0.00     0.098 C 
BRANCH  15  16
ATOM     16  C   UNL A   1      30.062  27.019  24.213  1.00  0.00    -0.024 A 
ATOM     17  C   UNL A   1      28.971  27.424  23.438  1.00  0.00     0.007 A 
ATOM     18  C   UNL A   1      31.094  27.939  24.362  1.00  0.00     0.114 A 
ATOM     19  C   UNL A   1      28.913  28.727  22.943  1.00  0.00     0.020 A 
ATOM     20  N   UNL A   1      31.053  29.219  23.925  1.00  0.00    -0.264 NA
ATOM     21  C   UNL A   1      29.954  29.590  23.236  1.00  0.00     0.111 A 
ENDBRANCH  15  16
ENDBRANCH  14  15
ENDBRANCH  11  14
ENDBRANCH  10  11
ENDBRANCH   7  10
ENDBRANCH   5   7
ENDBRANCH   4   5
ENDBRANCH   3   4
ENDBRANCH   2   3
ENDBRANCH   1   2
BRANCH   1  22
ATOM     22  C   UNL A   1      39.452  21.907  26.273  1.00  0.00     0.188 C 
BRANCH  22  23
ATOM     23  C   UNL A   1      40.264  20.617  26.206  1.00  0.00     0.188 C 
BRANCH  23  24
ATOM     24  O   UNL A   1      41.488  20.573  26.922  1.00  0.00    -0.376 OA
BRANCH  24  25
ATOM     25  C   UNL A   1      42.625  20.120  26.181  1.00  0.00     0.202 C 
BRANCH  25  26
ATOM     26  C   UNL A   1      43.473  21.181  25.440  1.00  0.00     0.261 C 
BRANCH  26  27
ATOM     27  O   UNL A   1      42.849  22.461  25.193  1.00  0.00    -0.460 OA
BRANCH  27  28
ATOM     28  C   UNL A   1      43.623  23.570  25.215  1.00  0.00     0.338 C 
ATOM     29  O   UNL A   1      44.568  23.805  24.479  1.00  0.00    -0.246 OA
BRANCH  28  30
ATOM     30  C   UNL A   1      42.991  24.572  26.120  1.00  0.00     0.060 A 
ATOM     31  C   UNL A   1      43.279  25.931  25.925  1.00  0.00     0.016 A 
ATOM     32  C   UNL A   1      42.100  24.204  27.127  1.00  0.00     0.016 A 
ATOM     33  C   UNL A   1      42.757  26.912  26.772  1.00  0.00     0.010 A 
ATOM     34  C   UNL A   1      41.570  25.187  27.976  1.00  0.00     0.010 A 
ATOM     35  C   UNL A   1      41.927  26.543  27.830  1.00  0.00    -0.014 A 
BRANCH  35  36
ATOM     36  C   UNL A   1      41.566  27.520  28.890  1.00  0.00     0.031 A 
ATOM     37  C   UNL A   1      42.352  27.501  30.172  1.00  0.00     0.074 A 
ATOM     38  C   UNL A   1      40.565  28.407  28.742  1.00  0.00     0.049 A 
ATOM     39  N   UNL A   1      42.105  28.095  31.312  1.00  0.00    -0.248 NA
ATOM     40  C   UNL A   1      43.581  26.691  30.167  1.00  0.00     0.031 C 
ATOM     41  C   UNL A   1      39.784  28.617  27.525  1.00  0.00     0.029 A 
ATOM     42  N   UNL A   1      40.020  29.289  29.648  1.00  0.00    -0.354 N 
ATOM     43  C   UNL A   1      43.123  27.696  32.171  1.00  0.00     0.074 A 
ATOM     44  C   UNL A   1      43.982  26.803  31.423  1.00  0.00     0.031 C 
ATOM     45  C   UNL A   1      38.844  29.550  27.767  1.00  0.00     0.029 A 
ATOM     46  C   UNL A   1      38.919  29.956  29.170  1.00  0.00     0.049 A 
ATOM     47  H   UNL A   1      40.386  29.428  30.551  1.00  0.00     0.167 HD
ATOM     48  C   UNL A   1      43.322  28.040  33.465  1.00  0.00     0.031 A 
ATOM     49  C   UNL A   1      38.042  30.762  29.802  1.00  0.00     0.031 A 
ATOM     50  C   UNL A   1      42.472  28.935  34.205  1.00  0.00     0.049 A 
ATOM     51  C   UNL A   1      38.216  31.044  31.274  1.00  0.00     0.074 A 
ATOM     52  C   UNL A   1      42.594  29.349  35.520  1.00  0.00     0.029 A 
ATOM     53  N   UNL A   1      41.342  29.554  33.693  1.00  0.00    -0.354 N 
ATOM     54  N   UNL A   1      39.163  30.646  32.088  1.00  0.00    -0.248 NA
ATOM     55  C   UNL A   1      37.193  31.886  31.916  1.00  0.00     0.031 C 
ATOM     56  C   UNL A   1      41.502  30.165  35.824  1.00  0.00     0.029 A 
ATOM     57  C   UNL A   1      40.742  30.322  34.676  1.00  0.00     0.049 A 
ATOM     58  H   UNL A   1      41.017  29.461  32.769  1.00  0.00     0.167 HD
ATOM     59  C   UNL A   1      38.872  31.217  33.323  1.00  0.00     0.074 A 
ATOM     60  C   UNL A   1      37.665  31.996  33.151  1.00  0.00     0.031 C 
ATOM     61  C   UNL A   1      39.548  31.107  34.492  1.00  0.00     0.031 A 
BRANCH  48  62
ATOM     62  C   UNL A   1      44.476  27.399  34.184  1.00  0.00    -0.014 A 
ATOM     63  C   UNL A   1      44.342  26.168  34.844  1.00  0.00     0.009 A 
ATOM     64  C   UNL A   1      45.731  28.029  34.172  1.00  0.00     0.009 A 
ATOM     65  C   UNL A   1      45.433  25.601  35.510  1.00  0.00     0.001 A 
ATOM     66  C   UNL A   1      46.827  27.445  34.808  1.00  0.00     0.001 A 
ATOM     67  C   UNL A   1      46.674  26.237  35.486  1.00  0.00     0.000 A 
ENDBRANCH  48  62
BRANCH  49  68
ATOM     68  C   UNL A   1      36.875  31.327  29.067  1.00  0.00    -0.014 A 
ATOM     69  C   UNL A   1      36.841  32.682  28.707  1.00  0.00     0.009 A 
ATOM     70  C   UNL A   1      35.771  30.517  28.753  1.00  0.00     0.009 A 
ATOM     71  C   UNL A   1      35.718  33.221  28.073  1.00  0.00     0.001 A 
ATOM     72  C   UNL A   1      34.664  31.051  28.089  1.00  0.00     0.001 A 
ATOM     73  C   UNL A   1      34.633  32.403  27.759  1.00  0.00     0.000 A 
ENDBRANCH  49  68
BRANCH  61  74
ATOM     74  C   UNL A   1      39.044  31.894  35.672  1.00  0.00    -0.014 A 
ATOM     75  C   UNL A   1      38.137  31.344  36.590  1.00  0.00     0.009 A 
ATOM     76  C   UNL A   1      39.547  33.184  35.906  1.00  0.00     0.009 A 
ATOM     77  C   UNL A   1      37.727  32.082  37.705  1.00  0.00     0.001 A 
ATOM     78  C   UNL A   1      39.162  33.906  37.036  1.00  0.00     0.001 A 
ATOM     79  C   UNL A   1      38.245  33.357  37.931  1.00  0.00     0.000 A 
ENDBRANCH  61  74
ENDBRANCH  35  36
ENDBRANCH  28  30
ENDBRANCH  27  28
ENDBRANCH  26  27
ENDBRANCH  25  26
ENDBRANCH  24  25
ENDBRANCH  23  24
ENDBRANCH  22  23
ENDBRANCH   1  22
TORSDOF 22
ENDMDL
MODEL 2
REMARK VINA RESULT:      -8.8      2.501      7.296
REMARK SMILES CC(C)(C[NH2+]CCc1cccnc1)C(=O)OCCOCCOCCOC(=O)c1ccc(-c2c3nc(c(-c4ccccc4)c4ccc([nH]4)c(-c4ccccc4)c4nc(c(-c5ccccc5)c5ccc2[nH]5)C=C4)C=C3)cc1
REMARK SMILES IDX 19 1 18 2 17 3 16 4 14 5 15 6 2 7 1 8 3 9 4 10 5 11 6 14
REMARK SMILES IDX 7 15 8 16 9 17 13 18 10 19 12 20 11 21 20 22 21 23 22 24
REMARK SMILES IDX 23 25 24 26 25 27 26 28 27 29 28 30 29 31 75 32 30 33 74 34
REMARK SMILES IDX 31 35 32 36 33 37 68 38 34 39 73 40 67 41 69 42 35 43 72 44
REMARK SMILES IDX 66 45 65 46 36 48 58 49 43 50 57 51 44 52 47 53 56 54 70 55
REMARK SMILES IDX 45 56 46 57 55 59 71 60 48 61 37 62 38 63 42 64 39 65 41 66
REMARK SMILES IDX 40 67 59 68 60 69 64 70 61 71 63 72 62 73 49 74 50 75 54 76
REMARK SMILES IDX 51 77 53 78 52 79
REMARK H PARENT 5 12 5 13 69 47 47 58
REMARK Flexibility Score: inf
ROOT
ATOM      1  O   UNL A   1      40.008  21.657  26.640  1.00  0.00    -0.376 OA
ENDROOT
BRANCH   1   2
ATOM      2  C   UNL A   1      38.834  21.729  25.835  1.00  0.00     0.202 C 
BRANCH   2   3
ATOM      3  C   UNL A   1      37.990  23.014  25.928  1.00  0.00     0.261 C 
BRANCH   3   4
ATOM      4  O   UNL A   1      36.571  22.833  26.159  1.00  0.00    -0.463 OA
BRANCH   4   5
ATOM      5  C   UNL A   1      35.773  22.986  25.066  1.00  0.00     0.317 C 
ATOM      6  O   UNL A   1      36.102  22.625  23.937  1.00  0.00    -0.251 OA
BRANCH   5   7
ATOM      7  C   UNL A   1      34.396  23.634  25.328  1.00  0.00     0.111 C 
ATOM      8  C   UNL A   1      34.598  25.166  25.370  1.00  0.00     0.029 C 
ATOM      9  C   UNL A   1      34.038  23.168  26.759  1.00  0.00     0.029 C 
BRANCH   7  10
ATOM     10  C   UNL A   1      33.214  23.221  24.387  1.00  0.00     0.278 C 
BRANCH  10  11
ATOM     11  N   UNL A   1      33.339  21.898  23.747  1.00  0.00    -0.345 N 
ATOM     12  H   UNL A   1      34.268  21.527  23.949  1.00  0.00     0.346 HD
ATOM     13  H   UNL A   1      33.187  22.030  22.747  1.00  0.00     0.346 HD
BRANCH  11  14
ATOM     14  C   UNL A   1      32.334  20.926  24.216  1.00  0.00     0.265 C 
BRANCH  14  15
ATOM     15  C   UNL A   1      32.746  20.065  25.438  1.00  0.00     0.098 C 
BRANCH  15  16
ATOM     16  C   UNL A   1      33.164  18.643  25.149  1.00  0.00    -0.024 A 
ATOM     17  C   UNL A   1      34.147  18.356  24.197  1.00  0.00     0.007 A 
ATOM     18  C   UNL A   1      32.572  17.554  25.779  1.00  0.00     0.114 A 
ATOM     19  C   UNL A   1      34.555  17.038  23.993  1.00  0.00     0.020 A 
ATOM     20  N   UNL A   1      32.969  16.268  25.628  1.00  0.00    -0.264 NA
ATOM     21  C   UNL A   1      33.964  16.041  24.747  1.00  0.00     0.111 A 
ENDBRANCH  15  16
ENDBRANCH  14  15
ENDBRANCH  11  14
ENDBRANCH  10  11
ENDBRANCH   7  10
ENDBRANCH   5   7
ENDBRANCH   4   5
ENDBRANCH   3   4
ENDBRANCH   2   3
ENDBRANCH   1   2
BRANCH   1  22
ATOM     22  C   UNL A   1      40.962  20.676  26.263  1.00  0.00     0.188 C 
BRANCH  22  23
ATOM     23  C   UNL A   1      42.418  21.130  26.188  1.00  0.00     0.188 C 
BRANCH  23  24
ATOM     24  O   UNL A   1      42.726  22.205  25.316  1.00  0.00    -0.376 OA
BRANCH  24  25
ATOM     25  C   UNL A   1      43.284  23.367  25.935  1.00  0.00     0.202 C 
BRANCH  25  26
ATOM     26  C   UNL A   1      43.286  24.687  25.126  1.00  0.00     0.261 C 
BRANCH  26  27
ATOM     27  O   UNL A   1      42.216  25.620  25.396  1.00  0.00    -0.460 OA
BRANCH  27  28
ATOM     28  C   UNL A   1      42.496  26.943  25.377  1.00  0.00     0.338 C 
ATOM     29  O   UNL A   1      42.657  27.633  24.383  1.00  0.00    -0.246 OA
BRANCH  28  30
ATOM     30  C   UNL A   1      42.337  27.482  26.759  1.00  0.00     0.060 A 
ATOM     31  C   UNL A   1      41.510  26.795  27.659  1.00  0.00     0.016 A 
ATOM     32  C   UNL A   1      43.010  28.624  27.190  1.00  0.00     0.016 A 
ATOM     33  C   UNL A   1      41.282  27.278  28.949  1.00  0.00     0.010 A 
ATOM     34  C   UNL A   1      42.787  29.110  28.488  1.00  0.00     0.010 A 
ATOM     35  C   UNL A   1      41.891  28.463  29.362  1.00  0.00    -0.014 A 
BRANCH  35  36
ATOM     36  C   UNL A   1      41.474  29.133  30.622  1.00  0.00     0.031 A 
ATOM     37  C   UNL A   1      40.236  29.987  30.597  1.00  0.00     0.074 A 
ATOM     38  C   UNL A   1      42.167  29.006  31.769  1.00  0.00     0.049 A 
ATOM     39  N   UNL A   1      39.787  30.832  31.490  1.00  0.00    -0.248 NA
ATOM     40  C   UNL A   1      39.396  29.875  29.394  1.00  0.00     0.031 C 
ATOM     41  C   UNL A   1      43.322  28.136  31.976  1.00  0.00     0.029 A 
ATOM     42  N   UNL A   1      42.001  29.640  32.979  1.00  0.00    -0.354 N 
ATOM     43  C   UNL A   1      38.637  31.384  30.938  1.00  0.00     0.074 A 
ATOM     44  C   UNL A   1      38.465  30.786  29.631  1.00  0.00     0.031 C 
ATOM     45  C   UNL A   1      43.776  28.309  33.231  1.00  0.00     0.029 A 
ATOM     46  C   UNL A   1      42.983  29.344  33.892  1.00  0.00     0.049 A 
ATOM     47  H   UNL A   1      41.250  30.247  33.171  1.00  0.00     0.167 HD
ATOM     48  C   UNL A   1      37.802  32.307  31.469  1.00  0.00     0.031 A 
ATOM     49  C   UNL A   1      43.244  29.881  35.101  1.00  0.00     0.031 A 
ATOM     50  C   UNL A   1      37.967  32.895  32.772  1.00  0.00     0.049 A 
ATOM     51  C   UNL A   1      42.367  30.989  35.630  1.00  0.00     0.074 A 
ATOM     52  C   UNL A   1      37.171  33.836  33.401  1.00  0.00     0.029 A 
ATOM     53  N   UNL A   1      39.002  32.597  33.645  1.00  0.00    -0.354 N 
ATOM     54  N   UNL A   1      41.298  31.527  35.095  1.00  0.00    -0.248 NA
ATOM     55  C   UNL A   1      42.739  31.570  36.931  1.00  0.00     0.031 C 
ATOM     56  C   UNL A   1      37.759  34.157  34.627  1.00  0.00     0.029 A 
ATOM     57  C   UNL A   1      38.880  33.359  34.795  1.00  0.00     0.049 A 
ATOM     58  H   UNL A   1      39.716  31.941  33.474  1.00  0.00     0.167 HD
ATOM     59  C   UNL A   1      40.850  32.477  36.007  1.00  0.00     0.074 A 
ATOM     60  C   UNL A   1      41.758  32.439  37.133  1.00  0.00     0.031 C 
ATOM     61  C   UNL A   1      39.780  33.304  35.918  1.00  0.00     0.031 A 
BRANCH  48  62
ATOM     62  C   UNL A   1      36.660  32.785  30.615  1.00  0.00    -0.014 A 
ATOM     63  C   UNL A   1      35.386  32.201  30.690  1.00  0.00     0.009 A 
ATOM     64  C   UNL A   1      36.860  33.864  29.738  1.00  0.00     0.009 A 
ATOM     65  C   UNL A   1      34.348  32.663  29.877  1.00  0.00     0.001 A 
ATOM     66  C   UNL A   1      35.813  34.346  28.952  1.00  0.00     0.001 A 
ATOM     67  C   UNL A   1      34.561  33.738  29.014  1.00  0.00     0.000 A 
ENDBRANCH  48  62
BRANCH  49  68
ATOM     68  C   UNL A   1      44.423  29.423  35.889  1.00  0.00    -0.014 A 
ATOM     69  C   UNL A   1      44.276  28.488  36.925  1.00  0.00     0.009 A 
ATOM     70  C   UNL A   1      45.700  29.948  35.630  1.00  0.00     0.009 A 
ATOM     71  C   UNL A   1      45.375  28.109  37.701  1.00  0.00     0.001 A 
ATOM     72  C   UNL A   1      46.803  29.541  36.386  1.00  0.00     0.001 A 
ATOM     73  C   UNL A   1      46.638  28.631  37.427  1.00  0.00     0.000 A 
ENDBRANCH  49  68
BRANCH  61  74
ATOM     74  C   UNL A   1      39.482  34.197  37.092  1.00  0.00    -0.014 A 
ATOM     75  C   UNL A   1      38.805  33.723  38.226  1.00  0.00     0.009 A 
ATOM     76  C   UNL A   1      39.957  35.519  37.090  1.00  0.00     0.009 A 
ATOM     77  C   UNL A   1      38.589  34.564  39.322  1.00  0.00     0.001 A 
ATOM     78  C   UNL A   1      39.769  36.347  38.198  1.00  0.00     0.001 A 
ATOM     79  C   UNL A   1      39.077  35.870  39.310  1.00  0.00     0.000 A 
ENDBRANCH  61  74
ENDBRANCH  35  36
ENDBRANCH  28  30
ENDBRANCH  27  28
ENDBRANCH  26  27
ENDBRANCH  25  26
ENDBRANCH  24  25
ENDBRANCH  23  24
ENDBRANCH  22  23
ENDBRANCH   1  22
TORSDOF 22
ENDMDL
MODEL 3
REMARK VINA RESULT:      -8.8      4.438      6.643
REMARK SMILES CC(C)(C[NH2+]CCc1cccnc1)C(=O)OCCOCCOCCOC(=O)c1ccc(-c2c3nc(c(-c4ccccc4)c4ccc([nH]4)c(-c4ccccc4)c4nc(c(-c5ccccc5)c5ccc2[nH]5)C=C4)C=C3)cc1
REMARK SMILES IDX 19 1 18 2 17 3 16 4 14 5 15 6 2 7 1 8 3 9 4 10 5 11 6 14
REMARK SMILES IDX 7 15 8 16 9 17 13 18 10 19 12 20 11 21 20 22 21 23 22 24
REMARK SMILES IDX 23 25 24 26 25 27 26 28 27 29 28 30 29 31 75 32 30 33 74 34
REMARK SMILES IDX 31 35 32 36 33 37 68 38 34 39 73 40 67 41 69 42 35 43 72 44
REMARK SMILES IDX 66 45 65 46 36 48 58 49 43 50 57 51 44 52 47 53 56 54 70 55
REMARK SMILES IDX 45 56 46 57 55 59 71 60 48 61 37 62 38 63 42 64 39 65 41 66
REMARK SMILES IDX 40 67 59 68 60 69 64 70 61 71 63 72 62 73 49 74 50 75 54 76
REMARK SMILES IDX 51 77 53 78 52 79
REMARK H PARENT 5 12 5 13 69 47 47 58
REMARK Flexibility Score: inf
ROOT
ATOM      1  O   UNL A   1      37.718  22.652  26.061  1.00  0.00    -0.376 OA
ENDROOT
BRANCH   1   2
ATOM      2  C   UNL A   1      37.217  23.547  25.072  1.00  0.00     0.202 C 
BRANCH   2   3
ATOM      3  C   UNL A   1      36.491  22.929  23.861  1.00  0.00     0.261 C 
BRANCH   3   4
ATOM      4  O   UNL A   1      35.072  23.205  23.755  1.00  0.00    -0.463 OA
BRANCH   4   5
ATOM      5  C   UNL A   1      34.265  22.450  24.551  1.00  0.00     0.317 C 
ATOM      6  O   UNL A   1      34.051  21.255  24.352  1.00  0.00    -0.251 OA
BRANCH   5   7
ATOM      7  C   UNL A   1      33.633  23.185  25.754  1.00  0.00     0.111 C 
ATOM      8  C   UNL A   1      34.186  22.537  27.043  1.00  0.00     0.029 C 
ATOM      9  C   UNL A   1      32.132  22.827  25.654  1.00  0.00     0.029 C 
BRANCH   7  10
ATOM     10  C   UNL A   1      33.746  24.747  25.784  1.00  0.00     0.278 C 
BRANCH  10  11
ATOM     11  N   UNL A   1      33.041  25.459  24.702  1.00  0.00    -0.345 N 
ATOM     12  H   UNL A   1      32.060  25.560  24.965  1.00  0.00     0.346 HD
ATOM     13  H   UNL A   1      33.157  24.908  23.851  1.00  0.00     0.346 HD
BRANCH  11  14
ATOM     14  C   UNL A   1      33.592  26.799  24.431  1.00  0.00     0.265 C 
BRANCH  14  15
ATOM     15  C   UNL A   1      32.752  27.994  24.952  1.00  0.00     0.098 C 
BRANCH  15  16
ATOM     16  C   UNL A   1      31.631  28.470  24.059  1.00  0.00    -0.024 A 
ATOM     17  C   UNL A   1      30.772  29.497  24.460  1.00  0.00     0.007 A 
ATOM     18  C   UNL A   1      31.373  27.891  22.822  1.00  0.00     0.114 A 
ATOM     19  C   UNL A   1      29.782  29.957  23.592  1.00  0.00     0.020 A 
ATOM     20  N   UNL A   1      30.444  28.336  21.943  1.00  0.00    -0.264 NA
ATOM     21  C   UNL A   1      29.677  29.370  22.344  1.00  0.00     0.111 A 
ENDBRANCH  15  16
ENDBRANCH  14  15
ENDBRANCH  11  14
ENDBRANCH  10  11
ENDBRANCH   7  10
ENDBRANCH   5   7
ENDBRANCH   4   5
ENDBRANCH   3   4
ENDBRANCH   2   3
ENDBRANCH   1   2
BRANCH   1  22
ATOM     22  C   UNL A   1      39.131  22.583  26.178  1.00  0.00     0.188 C 
BRANCH  22  23
ATOM     23  C   UNL A   1      39.756  21.192  26.100  1.00  0.00     0.188 C 
BRANCH  23  24
ATOM     24  O   UNL A   1      41.172  21.109  26.071  1.00  0.00    -0.376 OA
BRANCH  24  25
ATOM     25  C   UNL A   1      41.747  20.038  26.824  1.00  0.00     0.202 C 
BRANCH  25  26
ATOM     26  C   UNL A   1      42.535  18.953  26.052  1.00  0.00     0.261 C 
BRANCH  26  27
ATOM     27  O   UNL A   1      43.040  19.316  24.747  1.00  0.00    -0.460 OA
BRANCH  27  28
ATOM     28  C   UNL A   1      44.373  19.494  24.600  1.00  0.00     0.338 C 
ATOM     29  O   UNL A   1      45.166  18.677  24.159  1.00  0.00    -0.246 OA
BRANCH  28  30
ATOM     30  C   UNL A   1      44.688  20.932  24.833  1.00  0.00     0.060 A 
ATOM     31  C   UNL A   1      45.348  21.295  26.016  1.00  0.00     0.016 A 
ATOM     32  C   UNL A   1      44.379  21.919  23.897  1.00  0.00     0.016 A 
ATOM     33  C   UNL A   1      45.625  22.632  26.313  1.00  0.00     0.010 A 
ATOM     34  C   UNL A   1      44.661  23.262  24.190  1.00  0.00     0.010 A 
ATOM     35  C   UNL A   1      45.249  23.632  25.416  1.00  0.00    -0.014 A 
BRANCH  35  36
ATOM     36  C   UNL A   1      45.296  25.064  25.811  1.00  0.00     0.031 A 
ATOM     37  C   UNL A   1      46.617  25.779  25.733  1.00  0.00     0.074 A 
ATOM     38  C   UNL A   1      44.208  25.730  26.237  1.00  0.00     0.049 A 
ATOM     39  N   UNL A   1      46.964  26.947  26.212  1.00  0.00    -0.248 NA
ATOM     40  C   UNL A   1      47.696  25.073  25.024  1.00  0.00     0.031 C 
ATOM     41  C   UNL A   1      42.844  25.207  26.269  1.00  0.00     0.029 A 
ATOM     42  N   UNL A   1      44.092  27.002  26.751  1.00  0.00    -0.354 N 
ATOM     43  C   UNL A   1      48.310  27.095  25.901  1.00  0.00     0.074 A 
ATOM     44  C   UNL A   1      48.718  25.895  25.202  1.00  0.00     0.031 C 
ATOM     45  C   UNL A   1      42.032  26.140  26.798  1.00  0.00     0.029 A 
ATOM     46  C   UNL A   1      42.828  27.300  27.197  1.00  0.00     0.049 A 
ATOM     47  H   UNL A   1      44.843  27.637  26.793  1.00  0.00     0.167 HD
ATOM     48  C   UNL A   1      49.133  28.135  26.174  1.00  0.00     0.031 A 
ATOM     49  C   UNL A   1      42.373  28.362  27.893  1.00  0.00     0.031 A 
ATOM     50  C   UNL A   1      48.725  29.331  26.860  1.00  0.00     0.049 A 
ATOM     51  C   UNL A   1      43.330  29.460  28.287  1.00  0.00     0.074 A 
ATOM     52  C   UNL A   1      49.485  30.443  27.181  1.00  0.00     0.029 A 
ATOM     53  N   UNL A   1      47.444  29.572  27.333  1.00  0.00    -0.354 N 
ATOM     54  N   UNL A   1      44.606  29.585  28.014  1.00  0.00    -0.248 NA
ATOM     55  C   UNL A   1      42.783  30.564  29.092  1.00  0.00     0.031 C 
ATOM     56  C   UNL A   1      48.682  31.328  27.905  1.00  0.00     0.029 A 
ATOM     57  C   UNL A   1      47.402  30.801  27.969  1.00  0.00     0.049 A 
ATOM     58  H   UNL A   1      46.680  28.960  27.232  1.00  0.00     0.167 HD
ATOM     59  C   UNL A   1      45.002  30.793  28.579  1.00  0.00     0.074 A 
ATOM     60  C   UNL A   1      43.831  31.368  29.204  1.00  0.00     0.031 C 
ATOM     61  C   UNL A   1      46.227  31.373  28.575  1.00  0.00     0.031 A 
BRANCH  48  62
ATOM     62  C   UNL A   1      50.578  27.999  25.780  1.00  0.00    -0.014 A 
ATOM     63  C   UNL A   1      51.040  28.398  24.516  1.00  0.00     0.009 A 
ATOM     64  C   UNL A   1      51.500  27.489  26.709  1.00  0.00     0.009 A 
ATOM     65  C   UNL A   1      52.388  28.252  24.178  1.00  0.00     0.001 A 
ATOM     66  C   UNL A   1      52.852  27.376  26.381  1.00  0.00     0.001 A 
ATOM     67  C   UNL A   1      53.292  27.747  25.112  1.00  0.00     0.000 A 
ENDBRANCH  48  62
BRANCH  49  68
ATOM     68  C   UNL A   1      40.947  28.428  28.318  1.00  0.00    -0.014 A 
ATOM     69  C   UNL A   1      40.534  27.864  29.535  1.00  0.00     0.009 A 
ATOM     70  C   UNL A   1      39.983  29.025  27.489  1.00  0.00     0.009 A 
ATOM     71  C   UNL A   1      39.184  27.873  29.900  1.00  0.00     0.001 A 
ATOM     72  C   UNL A   1      38.640  29.063  27.873  1.00  0.00     0.001 A 
ATOM     73  C   UNL A   1      38.240  28.478  29.072  1.00  0.00     0.000 A 
ENDBRANCH  49  68
BRANCH  61  74
ATOM     74  C   UNL A   1      46.363  32.731  29.211  1.00  0.00    -0.014 A 
ATOM     75  C   UNL A   1      46.845  32.887  30.519  1.00  0.00     0.009 A 
ATOM     76  C   UNL A   1      46.073  33.878  28.454  1.00  0.00     0.009 A 
ATOM     77  C   UNL A   1      47.009  34.164  31.064  1.00  0.00     0.001 A 
ATOM     78  C   UNL A   1      46.268  35.153  28.988  1.00  0.00     0.001 A 
ATOM     79  C   UNL A   1      46.729  35.295  30.296  1.00  0.00     0.000 A 
ENDBRANCH  61  74
ENDBRANCH  35  36
ENDBRANCH  28  30
ENDBRANCH  27  28
ENDBRANCH  26  27
ENDBRANCH  25  26
ENDBRANCH  24  25
ENDBRANCH  23  24
ENDBRANCH  22  23
ENDBRANCH   1  22
TORSDOF 22
ENDMDL
