MODEL 1
REMARK VINA RESULT:     -12.2      0.000      0.000
REMARK SMILES COc1ccc(O)c([C@@H]2[C@H](C(=O)OCCOCCOCCOC(=O)c3ccc(-c4c5nc(c(-c6ccccc6)c6ccc([nH]6)c(-c6ccccc6)c6nc(c(-c7ccccc7)c7ccc4[nH]7)C=C6)C=C5)cc3)c3ccccc3C(=O)N2C)c1
REMARK SMILES IDX 17 1 16 2 15 3 14 4 13 5 11 6 12 7 10 8 9 9 81 10 73 11
REMARK SMILES IDX 79 12 82 13 74 14 78 15 80 16 75 17 77 18 76 19 8 20 3 21
REMARK SMILES IDX 4 22 83 23 5 24 6 25 2 26 1 27 7 28 18 30 19 31 20 32 21 33
REMARK SMILES IDX 22 34 23 35 24 36 25 37 26 38 72 39 27 40 71 41 28 42 29 43
REMARK SMILES IDX 30 44 65 45 31 46 70 47 64 48 66 49 32 50 69 51 63 52 62 53
REMARK SMILES IDX 33 55 55 56 40 57 54 58 41 59 44 60 53 61 67 62 42 63 43 64
REMARK SMILES IDX 52 66 68 67 45 68 34 69 35 70 39 71 36 72 38 73 37 74 56 75
REMARK SMILES IDX 57 76 61 77 58 78 60 79 59 80 46 81 47 82 51 83 48 84 50 85
REMARK SMILES IDX 49 86
REMARK H PARENT 7 29 66 54 44 65
REMARK Flexibility Score: inf
ROOT
ATOM      1  C   UNL A   1      33.304  30.015  26.657  1.00  0.00     0.188 C 
ENDROOT
BRANCH   1   2
ATOM      2  O   UNL A   1      33.500  29.037  25.442  1.00  0.00    -0.376 OA
BRANCH   2   3
ATOM      3  C   UNL A   1      33.313  27.610  25.501  1.00  0.00     0.202 C 
BRANCH   3   4
ATOM      4  C   UNL A   1      34.040  26.543  24.641  1.00  0.00     0.261 C 
BRANCH   4   5
ATOM      5  O   UNL A   1      33.720  25.166  24.846  1.00  0.00    -0.463 OA
BRANCH   5   6
ATOM      6  C   UNL A   1      33.517  24.455  23.720  1.00  0.00     0.316 C 
ATOM      7  O   UNL A   1      34.394  24.203  22.899  1.00  0.00    -0.251 OA
BRANCH   6   8
ATOM      8  C   UNL A   1      32.062  23.938  23.596  1.00  0.00     0.157 C 
ATOM      9  C   UNL A   1      31.392  23.008  24.672  1.00  0.00     0.138 C 
ATOM     10  N   UNL A   1      30.730  23.653  25.786  1.00  0.00    -0.333 N 
ATOM     11  C   UNL A   1      31.232  25.154  23.356  1.00  0.00    -0.019 A 
ATOM     12  C   UNL A   1      30.292  24.970  25.703  1.00  0.00     0.254 C 
ATOM     13  C   UNL A   1      30.197  22.794  26.855  1.00  0.00     0.147 C 
ATOM     14  C   UNL A   1      31.398  25.845  22.144  1.00  0.00     0.005 A 
ATOM     15  C   UNL A   1      30.496  25.701  24.411  1.00  0.00     0.044 A 
ATOM     16  O   UNL A   1      29.728  25.526  26.640  1.00  0.00    -0.269 OA
ATOM     17  C   UNL A   1      30.872  27.116  22.001  1.00  0.00     0.000 A 
ATOM     18  C   UNL A   1      29.959  26.976  24.247  1.00  0.00     0.014 A 
ATOM     19  C   UNL A   1      30.160  27.684  23.056  1.00  0.00     0.001 A 
BRANCH   9  20
ATOM     20  C   UNL A   1      32.304  21.893  25.155  1.00  0.00     0.021 A 
ATOM     21  C   UNL A   1      33.661  19.328  24.098  1.00  0.00     0.119 A 
ATOM     22  C   UNL A   1      35.170  19.809  25.021  1.00  0.00     0.050 A 
ATOM     23  C   UNL A   1      32.260  20.412  24.157  1.00  0.00     0.056 A 
ATOM     24  C   UNL A   1      35.200  21.283  26.061  1.00  0.00     0.050 A 
ATOM     25  C   UNL A   1      33.745  22.295  26.131  1.00  0.00     0.121 A 
BRANCH  21  26
ATOM     26  O   UNL A   1      33.550  18.106  23.504  1.00  0.00    -0.497 OA
ATOM     27  C   UNL A   1      33.115  17.023  24.325  1.00  0.00     0.278 C 
ENDBRANCH  21  26
BRANCH  25  28
ATOM     28  O   UNL A   1      33.815  23.411  26.905  1.00  0.00    -0.508 OA
ATOM     29  H   UNL A   1      33.050  23.722  27.350  1.00  0.00     0.293 HD
ENDBRANCH  25  28
ENDBRANCH   9  20
ENDBRANCH   6   8
ENDBRANCH   5   6
ENDBRANCH   4   5
ENDBRANCH   3   4
ENDBRANCH   2   3
ENDBRANCH   1   2
BRANCH   1  30
ATOM     30  C   UNL A   1      34.653  31.345  27.754  1.00  0.00     0.188 C 
BRANCH  30  31
ATOM     31  O   UNL A   1      34.420  32.528  28.724  1.00  0.00    -0.376 OA
BRANCH  31  32
ATOM     32  C   UNL A   1      34.408  33.914  28.306  1.00  0.00     0.202 C 
BRANCH  32  33
ATOM     33  C   UNL A   1      33.450  35.075  28.789  1.00  0.00     0.261 C 
BRANCH  33  34
ATOM     34  O   UNL A   1      32.642  34.982  30.012  1.00  0.00    -0.460 OA
BRANCH  34  35
ATOM     35  C   UNL A   1      32.891  35.846  31.050  1.00  0.00     0.338 C 
ATOM     36  O   UNL A   1      32.437  36.985  31.082  1.00  0.00    -0.246 OA
BRANCH  35  37
ATOM     37  C   UNL A   1      33.733  35.349  32.251  1.00  0.00     0.060 A 
ATOM     38  C   UNL A   1      35.041  35.735  32.542  1.00  0.00     0.016 A 
ATOM     39  C   UNL A   1      33.348  34.156  32.858  1.00  0.00     0.016 A 
ATOM     40  C   UNL A   1      36.005  34.812  32.915  1.00  0.00     0.010 A 
ATOM     41  C   UNL A   1      34.286  33.351  33.553  1.00  0.00     0.010 A 
ATOM     42  C   UNL A   1      35.665  33.616  33.479  1.00  0.00    -0.014 A 
BRANCH  42  43
ATOM     43  C   UNL A   1      36.752  32.664  33.842  1.00  0.00     0.031 A 
ATOM     44  C   UNL A   1      37.348  32.806  35.208  1.00  0.00     0.074 A 
ATOM     45  C   UNL A   1      37.165  31.643  33.051  1.00  0.00     0.049 A 
ATOM     46  N   UNL A   1      38.553  32.524  35.612  1.00  0.00    -0.248 NA
ATOM     47  C   UNL A   1      36.480  33.391  36.246  1.00  0.00     0.031 C 
ATOM     48  C   UNL A   1      36.540  31.174  31.803  1.00  0.00     0.029 A 
ATOM     49  N   UNL A   1      38.247  30.798  33.182  1.00  0.00    -0.354 N 
ATOM     50  C   UNL A   1      38.637  33.045  36.897  1.00  0.00     0.074 A 
ATOM     51  C   UNL A   1      37.348  33.609  37.223  1.00  0.00     0.031 C 
ATOM     52  C   UNL A   1      37.218  30.129  31.314  1.00  0.00     0.029 A 
ATOM     53  C   UNL A   1      38.437  29.988  32.082  1.00  0.00     0.049 A 
ATOM     54  H   UNL A   1      38.825  30.776  33.978  1.00  0.00     0.167 HD
ATOM     55  C   UNL A   1      39.734  33.087  37.683  1.00  0.00     0.031 A 
ATOM     56  C   UNL A   1      39.524  29.322  31.650  1.00  0.00     0.031 A 
ATOM     57  C   UNL A   1      40.970  32.455  37.304  1.00  0.00     0.049 A 
ATOM     58  C   UNL A   1      40.774  29.468  32.468  1.00  0.00     0.074 A 
ATOM     59  C   UNL A   1      42.177  32.433  37.972  1.00  0.00     0.029 A 
ATOM     60  N   UNL A   1      41.137  31.711  36.141  1.00  0.00    -0.354 N 
ATOM     61  N   UNL A   1      40.944  30.111  33.599  1.00  0.00    -0.248 NA
ATOM     62  C   UNL A   1      41.985  28.833  31.940  1.00  0.00     0.031 C 
ATOM     63  C   UNL A   1      43.092  31.734  37.179  1.00  0.00     0.029 A 
ATOM     64  C   UNL A   1      42.433  31.245  36.060  1.00  0.00     0.049 A 
ATOM     65  H   UNL A   1      40.433  31.542  35.474  1.00  0.00     0.167 HD
ATOM     66  C   UNL A   1      42.276  29.938  33.936  1.00  0.00     0.074 A 
ATOM     67  C   UNL A   1      42.860  29.111  32.894  1.00  0.00     0.031 C 
ATOM     68  C   UNL A   1      42.961  30.417  35.003  1.00  0.00     0.031 A 
BRANCH  55  69
ATOM     69  C   UNL A   1      39.674  33.932  38.924  1.00  0.00    -0.014 A 
ATOM     70  C   UNL A   1      39.535  33.388  40.210  1.00  0.00     0.009 A 
ATOM     71  C   UNL A   1      39.743  35.329  38.787  1.00  0.00     0.009 A 
ATOM     72  C   UNL A   1      39.427  34.227  41.323  1.00  0.00     0.001 A 
ATOM     73  C   UNL A   1      39.672  36.163  39.904  1.00  0.00     0.001 A 
ATOM     74  C   UNL A   1      39.503  35.611  41.171  1.00  0.00     0.000 A 
ENDBRANCH  55  69
BRANCH  56  75
ATOM     75  C   UNL A   1      39.522  28.613  30.334  1.00  0.00    -0.014 A 
ATOM     76  C   UNL A   1      39.210  27.248  30.252  1.00  0.00     0.009 A 
ATOM     77  C   UNL A   1      39.835  29.296  29.143  1.00  0.00     0.009 A 
ATOM     78  C   UNL A   1      39.226  26.586  29.018  1.00  0.00     0.001 A 
ATOM     79  C   UNL A   1      39.808  28.644  27.908  1.00  0.00     0.001 A 
ATOM     80  C   UNL A   1      39.514  27.285  27.847  1.00  0.00     0.000 A 
ENDBRANCH  56  75
BRANCH  68  81
ATOM     81  C   UNL A   1      44.392  29.991  35.124  1.00  0.00    -0.014 A 
ATOM     82  C   UNL A   1      45.437  30.760  34.592  1.00  0.00     0.009 A 
ATOM     83  C   UNL A   1      44.692  28.812  35.825  1.00  0.00     0.009 A 
ATOM     84  C   UNL A   1      46.758  30.334  34.730  1.00  0.00     0.001 A 
ATOM     85  C   UNL A   1      46.014  28.412  35.999  1.00  0.00     0.001 A 
ATOM     86  C   UNL A   1      47.044  29.167  35.440  1.00  0.00     0.000 A 
ENDBRANCH  68  81
ENDBRANCH  42  43
ENDBRANCH  35  37
ENDBRANCH  34  35
ENDBRANCH  33  34
ENDBRANCH  32  33
ENDBRANCH  31  32
ENDBRANCH  30  31
ENDBRANCH   1  30
TORSDOF 20
ENDMDL
MODEL 2
REMARK VINA RESULT:     -11.7      4.810      7.787
REMARK SMILES COc1ccc(O)c([C@@H]2[C@H](C(=O)OCCOCCOCCOC(=O)c3ccc(-c4c5nc(c(-c6ccccc6)c6ccc([nH]6)c(-c6ccccc6)c6nc(c(-c7ccccc7)c7ccc4[nH]7)C=C6)C=C5)cc3)c3ccccc3C(=O)N2C)c1
REMARK SMILES IDX 17 1 16 2 15 3 14 4 13 5 11 6 12 7 10 8 9 9 81 10 73 11
REMARK SMILES IDX 79 12 82 13 74 14 78 15 80 16 75 17 77 18 76 19 8 20 3 21
REMARK SMILES IDX 4 22 83 23 5 24 6 25 2 26 1 27 7 28 18 30 19 31 20 32 21 33
REMARK SMILES IDX 22 34 23 35 24 36 25 37 26 38 72 39 27 40 71 41 28 42 29 43
REMARK SMILES IDX 30 44 65 45 31 46 70 47 64 48 66 49 32 50 69 51 63 52 62 53
REMARK SMILES IDX 33 55 55 56 40 57 54 58 41 59 44 60 53 61 67 62 42 63 43 64
REMARK SMILES IDX 52 66 68 67 45 68 34 69 35 70 39 71 36 72 38 73 37 74 56 75
REMARK SMILES IDX 57 76 61 77 58 78 60 79 59 80 46 81 47 82 51 83 48 84 50 85
REMARK SMILES IDX 49 86
REMARK H PARENT 7 29 66 54 44 65
REMARK Flexibility Score: inf
ROOT
ATOM      1  C   UNL A   1      33.200  31.225  27.300  1.00  0.00     0.188 C 
ENDROOT
BRANCH   1   2
ATOM      2  O   UNL A   1      32.565  29.817  27.594  1.00  0.00    -0.376 OA
BRANCH   2   3
ATOM      3  C   UNL A   1      32.291  28.818  26.593  1.00  0.00     0.202 C 
BRANCH   3   4
ATOM      4  C   UNL A   1      31.351  27.593  26.739  1.00  0.00     0.261 C 
BRANCH   4   5
ATOM      5  O   UNL A   1      31.930  26.314  27.003  1.00  0.00    -0.463 OA
BRANCH   5   6
ATOM      6  C   UNL A   1      32.758  25.855  26.044  1.00  0.00     0.316 C 
ATOM      7  O   UNL A   1      33.871  26.319  25.817  1.00  0.00    -0.251 OA
BRANCH   6   8
ATOM      8  C   UNL A   1      32.174  24.636  25.287  1.00  0.00     0.157 C 
ATOM      9  C   UNL A   1      32.018  24.596  23.723  1.00  0.00     0.138 C 
ATOM     10  N   UNL A   1      33.152  24.125  22.956  1.00  0.00    -0.333 N 
ATOM     11  C   UNL A   1      32.954  23.461  25.772  1.00  0.00    -0.019 A 
ATOM     12  C   UNL A   1      34.133  23.325  23.532  1.00  0.00     0.254 C 
ATOM     13  C   UNL A   1      33.059  24.189  21.489  1.00  0.00     0.147 C 
ATOM     14  C   UNL A   1      32.803  23.069  27.113  1.00  0.00     0.005 A 
ATOM     15  C   UNL A   1      33.969  22.933  24.970  1.00  0.00     0.044 A 
ATOM     16  O   UNL A   1      35.096  22.918  22.891  1.00  0.00    -0.269 OA
ATOM     17  C   UNL A   1      33.705  22.184  27.675  1.00  0.00     0.000 A 
ATOM     18  C   UNL A   1      34.861  22.031  25.545  1.00  0.00     0.014 A 
ATOM     19  C   UNL A   1      34.738  21.673  26.893  1.00  0.00     0.001 A 
BRANCH   9  20
ATOM     20  C   UNL A   1      31.469  25.887  23.140  1.00  0.00     0.021 A 
ATOM     21  C   UNL A   1      29.007  27.735  23.399  1.00  0.00     0.119 A 
ATOM     22  C   UNL A   1      30.142  29.171  23.305  1.00  0.00     0.050 A 
ATOM     23  C   UNL A   1      29.708  26.107  23.351  1.00  0.00     0.056 A 
ATOM     24  C   UNL A   1      31.914  28.949  23.050  1.00  0.00     0.050 A 
ATOM     25  C   UNL A   1      32.549  27.296  22.946  1.00  0.00     0.121 A 
BRANCH  21  26
ATOM     26  O   UNL A   1      27.654  27.893  23.354  1.00  0.00    -0.497 OA
ATOM     27  C   UNL A   1      27.163  29.191  23.022  1.00  0.00     0.278 C 
ENDBRANCH  21  26
BRANCH  25  28
ATOM     28  O   UNL A   1      33.893  27.168  22.779  1.00  0.00    -0.508 OA
ATOM     29  H   UNL A   1      34.305  26.337  22.910  1.00  0.00     0.293 HD
ENDBRANCH  25  28
ENDBRANCH   9  20
ENDBRANCH   6   8
ENDBRANCH   5   6
ENDBRANCH   4   5
ENDBRANCH   3   4
ENDBRANCH   2   3
ENDBRANCH   1   2
BRANCH   1  30
ATOM     30  C   UNL A   1      32.397  33.261  27.259  1.00  0.00     0.188 C 
BRANCH  30  31
ATOM     31  O   UNL A   1      32.452  34.444  28.255  1.00  0.00    -0.376 OA
BRANCH  31  32
ATOM     32  C   UNL A   1      33.650  34.834  28.968  1.00  0.00     0.202 C 
BRANCH  32  33
ATOM     33  C   UNL A   1      35.107  34.235  28.839  1.00  0.00     0.261 C 
BRANCH  33  34
ATOM     34  O   UNL A   1      35.823  33.638  29.974  1.00  0.00    -0.460 OA
BRANCH  34  35
ATOM     35  C   UNL A   1      35.398  32.434  30.479  1.00  0.00     0.338 C 
ATOM     36  O   UNL A   1      34.423  32.337  31.218  1.00  0.00    -0.246 OA
BRANCH  35  37
ATOM     37  C   UNL A   1      36.144  31.143  30.063  1.00  0.00     0.060 A 
ATOM     38  C   UNL A   1      36.730  30.225  30.933  1.00  0.00     0.016 A 
ATOM     39  C   UNL A   1      36.627  31.071  28.758  1.00  0.00     0.016 A 
ATOM     40  C   UNL A   1      37.990  29.699  30.695  1.00  0.00     0.010 A 
ATOM     41  C   UNL A   1      37.735  30.249  28.430  1.00  0.00     0.010 A 
ATOM     42  C   UNL A   1      38.512  29.645  29.435  1.00  0.00    -0.014 A 
BRANCH  42  43
ATOM     43  C   UNL A   1      39.879  29.081  29.254  1.00  0.00     0.031 A 
ATOM     44  C   UNL A   1      41.028  30.031  29.395  1.00  0.00     0.074 A 
ATOM     45  C   UNL A   1      40.139  27.765  29.055  1.00  0.00     0.049 A 
ATOM     46  N   UNL A   1      42.199  29.995  28.829  1.00  0.00    -0.248 NA
ATOM     47  C   UNL A   1      40.805  31.208  30.256  1.00  0.00     0.031 C 
ATOM     48  C   UNL A   1      39.188  26.646  29.146  1.00  0.00     0.029 A 
ATOM     49  N   UNL A   1      41.318  27.134  28.715  1.00  0.00    -0.354 N 
ATOM     50  C   UNL A   1      42.788  31.215  29.132  1.00  0.00     0.074 A 
ATOM     51  C   UNL A   1      41.870  31.945  29.975  1.00  0.00     0.031 C 
ATOM     52  C   UNL A   1      39.816  25.488  28.905  1.00  0.00     0.029 A 
ATOM     53  C   UNL A   1      41.150  25.793  28.435  1.00  0.00     0.049 A 
ATOM     54  H   UNL A   1      42.188  27.591  28.677  1.00  0.00     0.167 HD
ATOM     55  C   UNL A   1      43.970  31.680  28.673  1.00  0.00     0.031 A 
ATOM     56  C   UNL A   1      41.917  24.933  27.739  1.00  0.00     0.031 A 
ATOM     57  C   UNL A   1      44.852  30.869  27.875  1.00  0.00     0.049 A 
ATOM     58  C   UNL A   1      43.173  25.486  27.133  1.00  0.00     0.074 A 
ATOM     59  C   UNL A   1      46.066  31.201  27.310  1.00  0.00     0.029 A 
ATOM     60  N   UNL A   1      44.602  29.540  27.551  1.00  0.00    -0.354 N 
ATOM     61  N   UNL A   1      43.674  26.694  27.241  1.00  0.00    -0.248 NA
ATOM     62  C   UNL A   1      43.951  24.578  26.285  1.00  0.00     0.031 C 
ATOM     63  C   UNL A   1      46.517  30.093  26.586  1.00  0.00     0.029 A 
ATOM     64  C   UNL A   1      45.628  29.043  26.772  1.00  0.00     0.049 A 
ATOM     65  H   UNL A   1      43.811  29.029  27.835  1.00  0.00     0.167 HD
ATOM     66  C   UNL A   1      44.841  26.688  26.496  1.00  0.00     0.074 A 
ATOM     67  C   UNL A   1      44.980  25.345  25.959  1.00  0.00     0.031 C 
ATOM     68  C   UNL A   1      45.721  27.694  26.270  1.00  0.00     0.031 A 
BRANCH  55  69
ATOM     69  C   UNL A   1      44.292  33.128  28.908  1.00  0.00    -0.014 A 
ATOM     70  C   UNL A   1      43.842  34.155  28.064  1.00  0.00     0.009 A 
ATOM     71  C   UNL A   1      45.095  33.467  30.010  1.00  0.00     0.009 A 
ATOM     72  C   UNL A   1      44.221  35.480  28.299  1.00  0.00     0.001 A 
ATOM     73  C   UNL A   1      45.441  34.794  30.265  1.00  0.00     0.001 A 
ATOM     74  C   UNL A   1      45.013  35.800  29.402  1.00  0.00     0.000 A 
ENDBRANCH  55  69
BRANCH  56  75
ATOM     75  C   UNL A   1      41.449  23.543  27.450  1.00  0.00    -0.014 A 
ATOM     76  C   UNL A   1      41.852  22.465  28.251  1.00  0.00     0.009 A 
ATOM     77  C   UNL A   1      40.591  23.280  26.364  1.00  0.00     0.009 A 
ATOM     78  C   UNL A   1      41.422  21.163  27.965  1.00  0.00     0.001 A 
ATOM     79  C   UNL A   1      40.128  21.987  26.106  1.00  0.00     0.001 A 
ATOM     80  C   UNL A   1      40.554  20.926  26.901  1.00  0.00     0.000 A 
ENDBRANCH  56  75
BRANCH  68  81
ATOM     81  C   UNL A   1      46.939  27.349  25.469  1.00  0.00    -0.014 A 
ATOM     82  C   UNL A   1      48.016  26.650  26.031  1.00  0.00     0.009 A 
ATOM     83  C   UNL A   1      46.979  27.700  24.110  1.00  0.00     0.009 A 
ATOM     84  C   UNL A   1      49.131  26.341  25.252  1.00  0.00     0.001 A 
ATOM     85  C   UNL A   1      48.074  27.352  23.324  1.00  0.00     0.001 A 
ATOM     86  C   UNL A   1      49.154  26.684  23.899  1.00  0.00     0.000 A 
ENDBRANCH  68  81
ENDBRANCH  42  43
ENDBRANCH  35  37
ENDBRANCH  34  35
ENDBRANCH  33  34
ENDBRANCH  32  33
ENDBRANCH  31  32
ENDBRANCH  30  31
ENDBRANCH   1  30
TORSDOF 20
ENDMDL
MODEL 3
REMARK VINA RESULT:     -11.3      2.697      8.331
REMARK SMILES COc1ccc(O)c([C@@H]2[C@H](C(=O)OCCOCCOCCOC(=O)c3ccc(-c4c5nc(c(-c6ccccc6)c6ccc([nH]6)c(-c6ccccc6)c6nc(c(-c7ccccc7)c7ccc4[nH]7)C=C6)C=C5)cc3)c3ccccc3C(=O)N2C)c1
REMARK SMILES IDX 17 1 16 2 15 3 14 4 13 5 11 6 12 7 10 8 9 9 81 10 73 11
REMARK SMILES IDX 79 12 82 13 74 14 78 15 80 16 75 17 77 18 76 19 8 20 3 21
REMARK SMILES IDX 4 22 83 23 5 24 6 25 2 26 1 27 7 28 18 30 19 31 20 32 21 33
REMARK SMILES IDX 22 34 23 35 24 36 25 37 26 38 72 39 27 40 71 41 28 42 29 43
REMARK SMILES IDX 30 44 65 45 31 46 70 47 64 48 66 49 32 50 69 51 63 52 62 53
REMARK SMILES IDX 33 55 55 56 40 57 54 58 41 59 44 60 53 61 67 62 42 63 43 64
REMARK SMILES IDX 52 66 68 67 45 68 34 69 35 70 39 71 36 72 38 73 37 74 56 75
REMARK SMILES IDX 57 76 61 77 58 78 60 79 59 80 46 81 47 82 51 83 48 84 50 85
REMARK SMILES IDX 49 86
REMARK H PARENT 7 29 66 54 44 65
REMARK Flexibility Score: inf
ROOT
ATOM      1  C   UNL A   1      39.342  22.212  26.137  1.00  0.00     0.188 C 
ENDROOT
BRANCH   1   2
ATOM      2  O   UNL A   1      38.245  23.285  25.794  1.00  0.00    -0.376 OA
BRANCH   2   3
ATOM      3  C   UNL A   1      36.876  22.979  25.468  1.00  0.00     0.202 C 
BRANCH   3   4
ATOM      4  C   UNL A   1      36.240  21.567  25.368  1.00  0.00     0.261 C 
BRANCH   4   5
ATOM      5  O   UNL A   1      34.839  21.465  25.109  1.00  0.00    -0.463 OA
BRANCH   5   6
ATOM      6  C   UNL A   1      34.065  21.336  26.204  1.00  0.00     0.316 C 
ATOM      7  O   UNL A   1      34.479  21.447  27.355  1.00  0.00    -0.251 OA
BRANCH   6   8
ATOM      8  C   UNL A   1      32.577  21.084  25.856  1.00  0.00     0.157 C 
ATOM      9  C   UNL A   1      31.686  22.139  25.105  1.00  0.00     0.138 C 
ATOM     10  N   UNL A   1      31.699  22.108  23.658  1.00  0.00    -0.333 N 
ATOM     11  C   UNL A   1      32.555  19.772  25.147  1.00  0.00    -0.019 A 
ATOM     12  C   UNL A   1      32.077  20.965  22.962  1.00  0.00     0.254 C 
ATOM     13  C   UNL A   1      30.958  23.160  22.945  1.00  0.00     0.147 C 
ATOM     14  C   UNL A   1      32.882  18.616  25.876  1.00  0.00     0.005 A 
ATOM     15  C   UNL A   1      32.444  19.746  23.755  1.00  0.00     0.044 A 
ATOM     16  O   UNL A   1      32.090  20.926  21.737  1.00  0.00    -0.269 OA
ATOM     17  C   UNL A   1      33.153  17.436  25.207  1.00  0.00     0.000 A 
ATOM     18  C   UNL A   1      32.705  18.548  23.095  1.00  0.00     0.014 A 
ATOM     19  C   UNL A   1      33.073  17.405  23.816  1.00  0.00     0.001 A 
BRANCH   9  20
ATOM     20  C   UNL A   1      31.871  23.557  25.618  1.00  0.00     0.021 A 
ATOM     21  C   UNL A   1      33.007  26.275  24.688  1.00  0.00     0.119 A 
ATOM     22  C   UNL A   1      31.561  27.086  25.469  1.00  0.00     0.050 A 
ATOM     23  C   UNL A   1      33.110  24.506  24.749  1.00  0.00     0.056 A 
ATOM     24  C   UNL A   1      30.332  26.132  26.382  1.00  0.00     0.050 A 
ATOM     25  C   UNL A   1      30.523  24.370  26.463  1.00  0.00     0.121 A 
BRANCH  21  26
ATOM     26  O   UNL A   1      34.055  27.000  24.205  1.00  0.00    -0.497 OA
ATOM     27  C   UNL A   1      34.050  28.402  24.469  1.00  0.00     0.278 C 
ENDBRANCH  21  26
BRANCH  25  28
ATOM     28  O   UNL A   1      29.563  23.683  27.138  1.00  0.00    -0.508 OA
ATOM     29  H   UNL A   1      29.524  23.728  28.073  1.00  0.00     0.293 HD
ENDBRANCH  25  28
ENDBRANCH   9  20
ENDBRANCH   6   8
ENDBRANCH   5   6
ENDBRANCH   4   5
ENDBRANCH   3   4
ENDBRANCH   2   3
ENDBRANCH   1   2
BRANCH   1  30
ATOM     30  C   UNL A   1      41.513  22.310  26.405  1.00  0.00     0.188 C 
BRANCH  30  31
ATOM     31  O   UNL A   1      42.710  22.083  25.452  1.00  0.00    -0.376 OA
BRANCH  31  32
ATOM     32  C   UNL A   1      43.366  23.149  24.723  1.00  0.00     0.202 C 
BRANCH  32  33
ATOM     33  C   UNL A   1      43.395  24.693  25.060  1.00  0.00     0.261 C 
BRANCH  33  34
ATOM     34  O   UNL A   1      42.184  25.457  25.391  1.00  0.00    -0.460 OA
BRANCH  34  35
ATOM     35  C   UNL A   1      42.231  26.829  25.384  1.00  0.00     0.338 C 
ATOM     36  O   UNL A   1      43.061  27.455  24.732  1.00  0.00    -0.246 OA
BRANCH  35  37
ATOM     37  C   UNL A   1      41.168  27.618  26.186  1.00  0.00     0.060 A 
ATOM     38  C   UNL A   1      41.254  28.961  26.549  1.00  0.00     0.016 A 
ATOM     39  C   UNL A   1      40.261  26.884  26.948  1.00  0.00     0.016 A 
ATOM     40  C   UNL A   1      40.920  29.393  27.823  1.00  0.00     0.010 A 
ATOM     41  C   UNL A   1      39.638  27.449  28.090  1.00  0.00     0.010 A 
ATOM     42  C   UNL A   1      40.064  28.683  28.614  1.00  0.00    -0.014 A 
BRANCH  42  43
ATOM     43  C   UNL A   1      39.761  29.198  29.978  1.00  0.00     0.031 A 
ATOM     44  C   UNL A   1      38.589  30.121  30.109  1.00  0.00     0.074 A 
ATOM     45  C   UNL A   1      40.421  28.817  31.099  1.00  0.00     0.049 A 
ATOM     46  N   UNL A   1      38.390  31.079  30.967  1.00  0.00    -0.248 NA
ATOM     47  C   UNL A   1      37.521  29.974  29.103  1.00  0.00     0.031 C 
ATOM     48  C   UNL A   1      41.414  27.737  31.225  1.00  0.00     0.029 A 
ATOM     49  N   UNL A   1      40.359  29.320  32.382  1.00  0.00    -0.354 N 
ATOM     50  C   UNL A   1      37.263  31.749  30.509  1.00  0.00     0.074 A 
ATOM     51  C   UNL A   1      36.792  31.056  29.332  1.00  0.00     0.031 C 
ATOM     52  C   UNL A   1      41.833  27.642  32.493  1.00  0.00     0.029 A 
ATOM     53  C   UNL A   1      41.311  28.779  33.221  1.00  0.00     0.049 A 
ATOM     54  H   UNL A   1      39.704  29.995  32.669  1.00  0.00     0.167 HD
ATOM     55  C   UNL A   1      36.733  32.883  31.018  1.00  0.00     0.031 A 
ATOM     56  C   UNL A   1      41.824  29.227  34.383  1.00  0.00     0.031 A 
ATOM     57  C   UNL A   1      37.232  33.484  32.226  1.00  0.00     0.049 A 
ATOM     58  C   UNL A   1      41.313  30.546  34.882  1.00  0.00     0.074 A 
ATOM     59  C   UNL A   1      36.824  34.644  32.852  1.00  0.00     0.029 A 
ATOM     60  N   UNL A   1      38.251  32.941  32.999  1.00  0.00    -0.354 N 
ATOM     61  N   UNL A   1      40.373  31.308  34.374  1.00  0.00    -0.248 NA
ATOM     62  C   UNL A   1      41.950  31.086  36.087  1.00  0.00     0.031 C 
ATOM     63  C   UNL A   1      37.645  34.838  33.967  1.00  0.00     0.029 A 
ATOM     64  C   UNL A   1      38.505  33.754  34.085  1.00  0.00     0.049 A 
ATOM     65  H   UNL A   1      38.722  32.099  32.802  1.00  0.00     0.167 HD
ATOM     66  C   UNL A   1      40.284  32.408  35.210  1.00  0.00     0.074 A 
ATOM     67  C   UNL A   1      41.255  32.199  36.270  1.00  0.00     0.031 C 
ATOM     68  C   UNL A   1      39.479  33.494  35.117  1.00  0.00     0.031 A 
BRANCH  55  69
ATOM     69  C   UNL A   1      35.678  33.585  30.211  1.00  0.00    -0.014 A 
ATOM     70  C   UNL A   1      35.846  33.913  28.857  1.00  0.00     0.009 A 
ATOM     71  C   UNL A   1      34.477  33.945  30.846  1.00  0.00     0.009 A 
ATOM     72  C   UNL A   1      34.853  34.618  28.172  1.00  0.00     0.001 A 
ATOM     73  C   UNL A   1      33.471  34.616  30.150  1.00  0.00     0.001 A 
ATOM     74  C   UNL A   1      33.664  34.963  28.815  1.00  0.00     0.000 A 
ENDBRANCH  55  69
BRANCH  56  75
ATOM     75  C   UNL A   1      42.964  28.522  35.045  1.00  0.00    -0.014 A 
ATOM     76  C   UNL A   1      42.737  27.459  35.931  1.00  0.00     0.009 A 
ATOM     77  C   UNL A   1      44.296  28.908  34.798  1.00  0.00     0.009 A 
ATOM     78  C   UNL A   1      43.807  26.813  36.561  1.00  0.00     0.001 A 
ATOM     79  C   UNL A   1      45.365  28.234  35.393  1.00  0.00     0.001 A 
ATOM     80  C   UNL A   1      45.120  27.194  36.284  1.00  0.00     0.000 A 
ENDBRANCH  56  75
BRANCH  68  81
ATOM     81  C   UNL A   1      39.572  34.492  36.231  1.00  0.00    -0.014 A 
ATOM     82  C   UNL A   1      38.919  34.292  37.455  1.00  0.00     0.009 A 
ATOM     83  C   UNL A   1      40.369  35.634  36.054  1.00  0.00     0.009 A 
ATOM     84  C   UNL A   1      39.034  35.240  38.471  1.00  0.00     0.001 A 
ATOM     85  C   UNL A   1      40.517  36.557  37.085  1.00  0.00     0.001 A 
ATOM     86  C   UNL A   1      39.839  36.366  38.288  1.00  0.00     0.000 A 
ENDBRANCH  68  81
ENDBRANCH  42  43
ENDBRANCH  35  37
ENDBRANCH  34  35
ENDBRANCH  33  34
ENDBRANCH  32  33
ENDBRANCH  31  32
ENDBRANCH  30  31
ENDBRANCH   1  30
TORSDOF 20
ENDMDL
