MODEL 1
REMARK VINA RESULT:     -10.5      0.000      0.000
REMARK SMILES NS(=O)(=O)c1ccc(/N=N/c2ccc(O)c(C(=O)OCCOCCOCCOC(=O)c3ccc(-c4c5nc(c(-c6ccccc6)c6ccc([nH]6)c(-c6ccccc6)c6nc(c(-c7ccccc7)c7ccc4[nH]7)C=C6)C=C5)cc3)c2)cc1
REMARK SMILES IDX 23 1 22 2 21 3 20 4 19 5 17 6 18 7 16 8 11 9 12 10 79 11
REMARK SMILES IDX 13 12 14 13 10 14 9 15 8 16 5 17 6 18 81 19 7 20 80 21 2 22
REMARK SMILES IDX 3 23 4 24 1 25 15 28 24 30 25 31 26 32 27 33 28 34 29 35
REMARK SMILES IDX 30 36 31 37 32 38 78 39 33 40 77 41 34 42 35 43 36 44 71 45
REMARK SMILES IDX 37 46 76 47 70 48 72 49 38 50 75 51 69 52 68 53 39 55 61 56
REMARK SMILES IDX 46 57 60 58 47 59 50 60 59 61 73 62 48 63 49 64 58 66 74 67
REMARK SMILES IDX 51 68 40 69 41 70 45 71 42 72 44 73 43 74 62 75 63 76 67 77
REMARK SMILES IDX 64 78 66 79 65 80 52 81 53 82 57 83 54 84 56 85 55 86
REMARK H PARENT 1 26 1 27 15 29 72 54 50 65
REMARK Flexibility Score: inf
ROOT
ATOM      1  C   UNL A   1      40.250  20.960  26.260  1.00  0.00     0.188 C 
ENDROOT
BRANCH   1   2
ATOM      2  O   UNL A   1      39.817  22.302  26.424  1.00  0.00    -0.376 OA
BRANCH   2   3
ATOM      3  C   UNL A   1      38.490  22.677  26.080  1.00  0.00     0.202 C 
BRANCH   3   4
ATOM      4  C   UNL A   1      37.602  21.768  25.210  1.00  0.00     0.261 C 
BRANCH   4   5
ATOM      5  O   UNL A   1      36.323  22.305  24.839  1.00  0.00    -0.460 OA
BRANCH   5   6
ATOM      6  C   UNL A   1      35.267  21.473  25.007  1.00  0.00     0.342 C 
ATOM      7  O   UNL A   1      35.270  20.253  24.912  1.00  0.00    -0.246 OA
BRANCH   6   8
ATOM      8  C   UNL A   1      34.123  22.191  25.604  1.00  0.00     0.104 A 
ATOM      9  C   UNL A   1      32.376  23.880  25.507  1.00  0.00     0.087 A 
ATOM     10  C   UNL A   1      32.094  23.633  26.859  1.00  0.00     0.034 A 
ATOM     11  C   UNL A   1      33.407  23.157  24.886  1.00  0.00     0.049 A 
ATOM     12  C   UNL A   1      32.812  22.680  27.583  1.00  0.00     0.049 A 
ATOM     13  C   UNL A   1      33.819  21.958  26.954  1.00  0.00     0.130 A 
BRANCH   9  14
ATOM     14  N   UNL A   1      31.655  24.903  24.861  1.00  0.00    -0.151 NA
ATOM     15  N   UNL A   1      31.947  26.034  25.301  1.00  0.00    -0.151 NA
BRANCH  15  16
ATOM     16  C   UNL A   1      31.254  27.079  24.648  1.00  0.00     0.086 A 
ATOM     17  C   UNL A   1      29.729  29.038  23.325  1.00  0.00     0.082 A 
ATOM     18  C   UNL A   1      29.514  27.686  23.046  1.00  0.00     0.024 A 
ATOM     19  C   UNL A   1      30.693  29.425  24.257  1.00  0.00     0.024 A 
ATOM     20  C   UNL A   1      30.280  26.719  23.706  1.00  0.00     0.031 A 
ATOM     21  C   UNL A   1      31.447  28.447  24.913  1.00  0.00     0.031 A 
BRANCH  17  22
ATOM     22  S   UNL A   1      28.731  30.258  22.525  1.00  0.00     0.238 S 
ATOM     23  O   UNL A   1      28.797  30.067  21.092  1.00  0.00    -0.207 OA
ATOM     24  O   UNL A   1      28.968  31.535  23.150  1.00  0.00    -0.207 OA
BRANCH  22  25
ATOM     25  N   UNL A   1      27.178  29.797  22.965  1.00  0.00    -0.225 NA
ATOM     26  H   UNL A   1      27.130  28.781  23.028  1.00  0.00     0.137 HD
ATOM     27  H   UNL A   1      26.515  30.125  22.262  1.00  0.00     0.137 HD
ENDBRANCH  22  25
ENDBRANCH  17  22
ENDBRANCH  15  16
ENDBRANCH   9  14
BRANCH  13  28
ATOM     28  O   UNL A   1      34.508  21.070  27.736  1.00  0.00    -0.507 OA
ATOM     29  H   UNL A   1      34.046  20.524  28.342  1.00  0.00     0.293 HD
ENDBRANCH  13  28
ENDBRANCH   6   8
ENDBRANCH   5   6
ENDBRANCH   4   5
ENDBRANCH   3   4
ENDBRANCH   2   3
ENDBRANCH   1   2
BRANCH   1  30
ATOM     30  C   UNL A   1      41.023  20.246  27.389  1.00  0.00     0.188 C 
BRANCH  30  31
ATOM     31  O   UNL A   1      42.408  20.149  27.171  1.00  0.00    -0.376 OA
BRANCH  31  32
ATOM     32  C   UNL A   1      42.910  20.180  25.846  1.00  0.00     0.202 C 
BRANCH  32  33
ATOM     33  C   UNL A   1      43.734  21.335  25.236  1.00  0.00     0.261 C 
BRANCH  33  34
ATOM     34  O   UNL A   1      43.123  22.623  25.102  1.00  0.00    -0.460 OA
BRANCH  34  35
ATOM     35  C   UNL A   1      43.957  23.689  25.107  1.00  0.00     0.338 C 
ATOM     36  O   UNL A   1      44.718  24.034  24.221  1.00  0.00    -0.246 OA
BRANCH  35  37
ATOM     37  C   UNL A   1      43.684  24.502  26.310  1.00  0.00     0.060 A 
ATOM     38  C   UNL A   1      42.875  23.958  27.316  1.00  0.00     0.016 A 
ATOM     39  C   UNL A   1      44.173  25.805  26.423  1.00  0.00     0.016 A 
ATOM     40  C   UNL A   1      42.516  24.732  28.419  1.00  0.00     0.010 A 
ATOM     41  C   UNL A   1      43.800  26.585  27.524  1.00  0.00     0.010 A 
ATOM     42  C   UNL A   1      42.937  26.066  28.507  1.00  0.00    -0.014 A 
BRANCH  42  43
ATOM     43  C   UNL A   1      42.333  26.954  29.533  1.00  0.00     0.031 A 
ATOM     44  C   UNL A   1      43.015  27.091  30.870  1.00  0.00     0.074 A 
ATOM     45  C   UNL A   1      41.225  27.670  29.272  1.00  0.00     0.049 A 
ATOM     46  N   UNL A   1      42.680  27.822  31.903  1.00  0.00    -0.248 NA
ATOM     47  C   UNL A   1      44.240  26.298  31.064  1.00  0.00     0.031 C 
ATOM     48  C   UNL A   1      40.493  27.667  28.007  1.00  0.00     0.029 A 
ATOM     49  N   UNL A   1      40.526  28.547  30.065  1.00  0.00    -0.354 N 
ATOM     50  C   UNL A   1      43.649  27.574  32.869  1.00  0.00     0.074 A 
ATOM     51  C   UNL A   1      44.560  26.598  32.314  1.00  0.00     0.031 C 
ATOM     52  C   UNL A   1      39.447  28.505  28.109  1.00  0.00     0.029 A 
ATOM     53  C   UNL A   1      39.418  29.079  29.453  1.00  0.00     0.049 A 
ATOM     54  H   UNL A   1      40.795  28.774  30.984  1.00  0.00     0.167 HD
ATOM     55  C   UNL A   1      43.775  28.114  34.105  1.00  0.00     0.031 A 
ATOM     56  C   UNL A   1      38.480  29.922  29.927  1.00  0.00     0.031 A 
ATOM     57  C   UNL A   1      42.860  29.072  34.670  1.00  0.00     0.049 A 
ATOM     58  C   UNL A   1      38.599  30.447  31.334  1.00  0.00     0.074 A 
ATOM     59  C   UNL A   1      42.912  29.687  35.909  1.00  0.00     0.029 A 
ATOM     60  N   UNL A   1      41.722  29.546  34.036  1.00  0.00    -0.354 N 
ATOM     61  N   UNL A   1      39.535  30.230  32.226  1.00  0.00    -0.248 NA
ATOM     62  C   UNL A   1      37.532  31.351  31.793  1.00  0.00     0.031 C 
ATOM     63  C   UNL A   1      41.770  30.482  36.050  1.00  0.00     0.029 A 
ATOM     64  C   UNL A   1      41.047  30.422  34.870  1.00  0.00     0.049 A 
ATOM     65  H   UNL A   1      41.436  29.296  33.127  1.00  0.00     0.167 HD
ATOM     66  C   UNL A   1      39.190  30.995  33.335  1.00  0.00     0.074 A 
ATOM     67  C   UNL A   1      37.969  31.696  32.995  1.00  0.00     0.031 C 
ATOM     68  C   UNL A   1      39.829  31.111  34.525  1.00  0.00     0.031 A 
BRANCH  55  69
ATOM     69  C   UNL A   1      44.932  27.650  34.948  1.00  0.00    -0.014 A 
ATOM     70  C   UNL A   1      46.160  28.333  34.949  1.00  0.00     0.009 A 
ATOM     71  C   UNL A   1      44.780  26.529  35.779  1.00  0.00     0.009 A 
ATOM     72  C   UNL A   1      47.221  27.880  35.735  1.00  0.00     0.001 A 
ATOM     73  C   UNL A   1      45.832  26.097  36.588  1.00  0.00     0.001 A 
ATOM     74  C   UNL A   1      47.055  26.766  36.559  1.00  0.00     0.000 A 
ENDBRANCH  55  69
BRANCH  56  75
ATOM     75  C   UNL A   1      37.332  30.323  29.069  1.00  0.00    -0.014 A 
ATOM     76  C   UNL A   1      37.077  31.675  28.793  1.00  0.00     0.009 A 
ATOM     77  C   UNL A   1      36.462  29.351  28.548  1.00  0.00     0.009 A 
ATOM     78  C   UNL A   1      35.960  32.046  28.040  1.00  0.00     0.001 A 
ATOM     79  C   UNL A   1      35.366  29.723  27.768  1.00  0.00     0.001 A 
ATOM     80  C   UNL A   1      35.109  31.071  27.524  1.00  0.00     0.000 A 
ENDBRANCH  56  75
BRANCH  68  81
ATOM     81  C   UNL A   1      39.246  32.067  35.533  1.00  0.00    -0.014 A 
ATOM     82  C   UNL A   1      38.283  31.656  36.469  1.00  0.00     0.009 A 
ATOM     83  C   UNL A   1      39.688  33.400  35.557  1.00  0.00     0.009 A 
ATOM     84  C   UNL A   1      37.741  32.572  37.373  1.00  0.00     0.001 A 
ATOM     85  C   UNL A   1      39.170  34.304  36.486  1.00  0.00     0.001 A 
ATOM     86  C   UNL A   1      38.187  33.893  37.384  1.00  0.00     0.000 A 
ENDBRANCH  68  81
ENDBRANCH  42  43
ENDBRANCH  35  37
ENDBRANCH  34  35
ENDBRANCH  33  34
ENDBRANCH  32  33
ENDBRANCH  31  32
ENDBRANCH  30  31
ENDBRANCH   1  30
TORSDOF 22
ENDMDL
MODEL 2
REMARK VINA RESULT:     -10.4      4.089      7.816
REMARK SMILES NS(=O)(=O)c1ccc(/N=N/c2ccc(O)c(C(=O)OCCOCCOCCOC(=O)c3ccc(-c4c5nc(c(-c6ccccc6)c6ccc([nH]6)c(-c6ccccc6)c6nc(c(-c7ccccc7)c7ccc4[nH]7)C=C6)C=C5)cc3)c2)cc1
REMARK SMILES IDX 23 1 22 2 21 3 20 4 19 5 17 6 18 7 16 8 11 9 12 10 79 11
REMARK SMILES IDX 13 12 14 13 10 14 9 15 8 16 5 17 6 18 81 19 7 20 80 21 2 22
REMARK SMILES IDX 3 23 4 24 1 25 15 28 24 30 25 31 26 32 27 33 28 34 29 35
REMARK SMILES IDX 30 36 31 37 32 38 78 39 33 40 77 41 34 42 35 43 36 44 71 45
REMARK SMILES IDX 37 46 76 47 70 48 72 49 38 50 75 51 69 52 68 53 39 55 61 56
REMARK SMILES IDX 46 57 60 58 47 59 50 60 59 61 73 62 48 63 49 64 58 66 74 67
REMARK SMILES IDX 51 68 40 69 41 70 45 71 42 72 44 73 43 74 62 75 63 76 67 77
REMARK SMILES IDX 64 78 66 79 65 80 52 81 53 82 57 83 54 84 56 85 55 86
REMARK H PARENT 1 26 1 27 15 29 72 54 50 65
REMARK Flexibility Score: inf
ROOT
ATOM      1  C   UNL A   1      35.782  21.933  25.760  1.00  0.00     0.188 C 
ENDROOT
BRANCH   1   2
ATOM      2  O   UNL A   1      35.326  22.807  26.782  1.00  0.00    -0.376 OA
BRANCH   2   3
ATOM      3  C   UNL A   1      33.935  22.968  27.023  1.00  0.00     0.202 C 
BRANCH   3   4
ATOM      4  C   UNL A   1      32.897  22.034  26.376  1.00  0.00     0.261 C 
BRANCH   4   5
ATOM      5  O   UNL A   1      31.927  22.664  25.523  1.00  0.00    -0.460 OA
BRANCH   5   6
ATOM      6  C   UNL A   1      31.065  23.506  26.140  1.00  0.00     0.342 C 
ATOM      7  O   UNL A   1      30.544  23.353  27.236  1.00  0.00    -0.246 OA
BRANCH   6   8
ATOM      8  C   UNL A   1      31.021  24.811  25.447  1.00  0.00     0.104 A 
ATOM      9  C   UNL A   1      31.139  27.239  25.459  1.00  0.00     0.087 A 
ATOM     10  C   UNL A   1      30.742  27.242  24.113  1.00  0.00     0.034 A 
ATOM     11  C   UNL A   1      31.266  26.011  26.126  1.00  0.00     0.049 A 
ATOM     12  C   UNL A   1      30.485  26.050  23.435  1.00  0.00     0.049 A 
ATOM     13  C   UNL A   1      30.631  24.839  24.100  1.00  0.00     0.130 A 
BRANCH   9  14
ATOM     14  N   UNL A   1      31.315  28.484  26.096  1.00  0.00    -0.151 NA
ATOM     15  N   UNL A   1      32.485  28.904  25.994  1.00  0.00    -0.151 NA
BRANCH  15  16
ATOM     16  C   UNL A   1      32.678  30.165  26.605  1.00  0.00     0.086 A 
ATOM     17  C   UNL A   1      33.248  32.655  27.781  1.00  0.00     0.082 A 
ATOM     18  C   UNL A   1      34.232  31.665  27.743  1.00  0.00     0.024 A 
ATOM     19  C   UNL A   1      31.984  32.420  27.239  1.00  0.00     0.024 A 
ATOM     20  C   UNL A   1      33.939  30.428  27.159  1.00  0.00     0.031 A 
ATOM     21  C   UNL A   1      31.706  31.179  26.654  1.00  0.00     0.031 A 
BRANCH  17  22
ATOM     22  S   UNL A   1      33.632  34.234  28.478  1.00  0.00     0.238 S 
ATOM     23  O   UNL A   1      34.340  34.047  29.725  1.00  0.00    -0.207 OA
ATOM     24  O   UNL A   1      32.476  35.087  28.361  1.00  0.00    -0.207 OA
BRANCH  22  25
ATOM     25  N   UNL A   1      34.773  34.833  27.403  1.00  0.00    -0.225 NA
ATOM     26  H   UNL A   1      35.314  34.060  27.015  1.00  0.00     0.137 HD
ATOM     27  H   UNL A   1      35.399  35.473  27.894  1.00  0.00     0.137 HD
ENDBRANCH  22  25
ENDBRANCH  17  22
ENDBRANCH  15  16
ENDBRANCH   9  14
BRANCH  13  28
ATOM     28  O   UNL A   1      30.323  23.713  23.384  1.00  0.00    -0.507 OA
ATOM     29  H   UNL A   1      29.732  23.079  23.740  1.00  0.00     0.293 HD
ENDBRANCH  13  28
ENDBRANCH   6   8
ENDBRANCH   5   6
ENDBRANCH   4   5
ENDBRANCH   3   4
ENDBRANCH   2   3
ENDBRANCH   1   2
BRANCH   1  30
ATOM     30  C   UNL A   1      37.284  21.844  25.422  1.00  0.00     0.188 C 
BRANCH  30  31
ATOM     31  O   UNL A   1      37.622  20.788  24.557  1.00  0.00    -0.376 OA
BRANCH  31  32
ATOM     32  C   UNL A   1      38.164  19.594  25.092  1.00  0.00     0.202 C 
BRANCH  32  33
ATOM     33  C   UNL A   1      39.412  19.514  25.999  1.00  0.00     0.261 C 
BRANCH  33  34
ATOM     34  O   UNL A   1      40.627  18.985  25.455  1.00  0.00    -0.460 OA
BRANCH  34  35
ATOM     35  C   UNL A   1      41.733  19.098  26.228  1.00  0.00     0.338 C 
ATOM     36  O   UNL A   1      42.553  18.233  26.472  1.00  0.00    -0.246 OA
BRANCH  35  37
ATOM     37  C   UNL A   1      41.902  20.515  26.612  1.00  0.00     0.060 A 
ATOM     38  C   UNL A   1      42.042  21.471  25.598  1.00  0.00     0.016 A 
ATOM     39  C   UNL A   1      41.978  20.890  27.955  1.00  0.00     0.016 A 
ATOM     40  C   UNL A   1      42.302  22.802  25.925  1.00  0.00     0.010 A 
ATOM     41  C   UNL A   1      42.254  22.224  28.280  1.00  0.00     0.010 A 
ATOM     42  C   UNL A   1      42.457  23.179  27.265  1.00  0.00    -0.014 A 
BRANCH  42  43
ATOM     43  C   UNL A   1      42.998  24.524  27.586  1.00  0.00     0.031 A 
ATOM     44  C   UNL A   1      42.046  25.603  28.035  1.00  0.00     0.074 A 
ATOM     45  C   UNL A   1      44.318  24.778  27.531  1.00  0.00     0.049 A 
ATOM     46  N   UNL A   1      42.297  26.840  28.385  1.00  0.00    -0.248 NA
ATOM     47  C   UNL A   1      40.623  25.235  28.099  1.00  0.00     0.031 C 
ATOM     48  C   UNL A   1      45.351  23.813  27.158  1.00  0.00     0.029 A 
ATOM     49  N   UNL A   1      45.012  25.931  27.798  1.00  0.00    -0.354 N 
ATOM     50  C   UNL A   1      41.064  27.397  28.705  1.00  0.00     0.074 A 
ATOM     51  C   UNL A   1      40.065  26.378  28.472  1.00  0.00     0.031 C 
ATOM     52  C   UNL A   1      46.550  24.416  27.222  1.00  0.00     0.029 A 
ATOM     53  C   UNL A   1      46.367  25.813  27.609  1.00  0.00     0.049 A 
ATOM     54  H   UNL A   1      44.580  26.764  28.097  1.00  0.00     0.167 HD
ATOM     55  C   UNL A   1      40.786  28.642  29.162  1.00  0.00     0.031 A 
ATOM     56  C   UNL A   1      47.347  26.732  27.724  1.00  0.00     0.031 A 
ATOM     57  C   UNL A   1      41.774  29.666  29.377  1.00  0.00     0.049 A 
ATOM     58  C   UNL A   1      47.003  28.134  28.155  1.00  0.00     0.074 A 
ATOM     59  C   UNL A   1      41.592  30.955  29.850  1.00  0.00     0.029 A 
ATOM     60  N   UNL A   1      43.130  29.522  29.126  1.00  0.00    -0.354 N 
ATOM     61  N   UNL A   1      45.839  28.639  28.485  1.00  0.00    -0.248 NA
ATOM     62  C   UNL A   1      48.118  29.089  28.244  1.00  0.00     0.031 C 
ATOM     63  C   UNL A   1      42.828  31.610  29.821  1.00  0.00     0.029 A 
ATOM     64  C   UNL A   1      43.791  30.707  29.404  1.00  0.00     0.049 A 
ATOM     65  H   UNL A   1      43.559  28.698  28.797  1.00  0.00     0.167 HD
ATOM     66  C   UNL A   1      46.087  29.957  28.854  1.00  0.00     0.074 A 
ATOM     67  C   UNL A   1      47.514  30.166  28.724  1.00  0.00     0.031 C 
ATOM     68  C   UNL A   1      45.212  30.907  29.267  1.00  0.00     0.031 A 
BRANCH  55  69
ATOM     69  C   UNL A   1      39.343  28.977  29.422  1.00  0.00    -0.014 A 
ATOM     70  C   UNL A   1      38.770  28.815  30.695  1.00  0.00     0.009 A 
ATOM     71  C   UNL A   1      38.551  29.493  28.384  1.00  0.00     0.009 A 
ATOM     72  C   UNL A   1      37.427  29.128  30.911  1.00  0.00     0.001 A 
ATOM     73  C   UNL A   1      37.216  29.834  28.612  1.00  0.00     0.001 A 
ATOM     74  C   UNL A   1      36.653  29.642  29.872  1.00  0.00     0.000 A 
ENDBRANCH  55  69
BRANCH  56  75
ATOM     75  C   UNL A   1      48.757  26.364  27.417  1.00  0.00    -0.014 A 
ATOM     76  C   UNL A   1      49.282  26.541  26.127  1.00  0.00     0.009 A 
ATOM     77  C   UNL A   1      49.575  25.802  28.410  1.00  0.00     0.009 A 
ATOM     78  C   UNL A   1      50.586  26.134  25.832  1.00  0.00     0.001 A 
ATOM     79  C   UNL A   1      50.888  25.428  28.120  1.00  0.00     0.001 A 
ATOM     80  C   UNL A   1      51.389  25.583  26.829  1.00  0.00     0.000 A 
ENDBRANCH  56  75
BRANCH  68  81
ATOM     81  C   UNL A   1      45.779  32.247  29.656  1.00  0.00    -0.014 A 
ATOM     82  C   UNL A   1      46.262  32.497  30.951  1.00  0.00     0.009 A 
ATOM     83  C   UNL A   1      45.851  33.271  28.698  1.00  0.00     0.009 A 
ATOM     84  C   UNL A   1      46.758  33.758  31.289  1.00  0.00     0.001 A 
ATOM     85  C   UNL A   1      46.381  34.520  29.030  1.00  0.00     0.001 A 
ATOM     86  C   UNL A   1      46.821  34.766  30.329  1.00  0.00     0.000 A 
ENDBRANCH  68  81
ENDBRANCH  42  43
ENDBRANCH  35  37
ENDBRANCH  34  35
ENDBRANCH  33  34
ENDBRANCH  32  33
ENDBRANCH  31  32
ENDBRANCH  30  31
ENDBRANCH   1  30
TORSDOF 22
ENDMDL
MODEL 3
REMARK VINA RESULT:     -10.2      5.604     12.171
REMARK SMILES NS(=O)(=O)c1ccc(/N=N/c2ccc(O)c(C(=O)OCCOCCOCCOC(=O)c3ccc(-c4c5nc(c(-c6ccccc6)c6ccc([nH]6)c(-c6ccccc6)c6nc(c(-c7ccccc7)c7ccc4[nH]7)C=C6)C=C5)cc3)c2)cc1
REMARK SMILES IDX 23 1 22 2 21 3 20 4 19 5 17 6 18 7 16 8 11 9 12 10 79 11
REMARK SMILES IDX 13 12 14 13 10 14 9 15 8 16 5 17 6 18 81 19 7 20 80 21 2 22
REMARK SMILES IDX 3 23 4 24 1 25 15 28 24 30 25 31 26 32 27 33 28 34 29 35
REMARK SMILES IDX 30 36 31 37 32 38 78 39 33 40 77 41 34 42 35 43 36 44 71 45
REMARK SMILES IDX 37 46 76 47 70 48 72 49 38 50 75 51 69 52 68 53 39 55 61 56
REMARK SMILES IDX 46 57 60 58 47 59 50 60 59 61 73 62 48 63 49 64 58 66 74 67
REMARK SMILES IDX 51 68 40 69 41 70 45 71 42 72 44 73 43 74 62 75 63 76 67 77
REMARK SMILES IDX 64 78 66 79 65 80 52 81 53 82 57 83 54 84 56 85 55 86
REMARK H PARENT 1 26 1 27 15 29 72 54 50 65
REMARK Flexibility Score: inf
ROOT
ATOM      1  C   UNL A   1      34.390  35.948  32.578  1.00  0.00     0.188 C 
ENDROOT
BRANCH   1   2
ATOM      2  O   UNL A   1      35.471  35.663  33.452  1.00  0.00    -0.376 OA
BRANCH   2   3
ATOM      3  C   UNL A   1      36.199  34.448  33.323  1.00  0.00     0.202 C 
BRANCH   3   4
ATOM      4  C   UNL A   1      37.732  34.415  33.461  1.00  0.00     0.261 C 
BRANCH   4   5
ATOM      5  O   UNL A   1      38.363  33.156  33.180  1.00  0.00    -0.460 OA
BRANCH   5   6
ATOM      6  C   UNL A   1      38.582  32.359  34.253  1.00  0.00     0.342 C 
ATOM      7  O   UNL A   1      38.537  32.683  35.431  1.00  0.00    -0.246 OA
BRANCH   6   8
ATOM      8  C   UNL A   1      38.619  30.938  33.851  1.00  0.00     0.104 A 
ATOM      9  C   UNL A   1      39.800  28.833  33.550  1.00  0.00     0.087 A 
ATOM     10  C   UNL A   1      38.668  28.317  32.902  1.00  0.00     0.034 A 
ATOM     11  C   UNL A   1      39.771  30.158  34.015  1.00  0.00     0.049 A 
ATOM     12  C   UNL A   1      37.522  29.093  32.725  1.00  0.00     0.049 A 
ATOM     13  C   UNL A   1      37.497  30.397  33.205  1.00  0.00     0.130 A 
BRANCH   9  14
ATOM     14  N   UNL A   1      40.943  28.014  33.631  1.00  0.00    -0.151 NA
ATOM     15  N   UNL A   1      40.967  27.341  34.681  1.00  0.00    -0.151 NA
BRANCH  15  16
ATOM     16  C   UNL A   1      42.094  26.492  34.772  1.00  0.00     0.086 A 
ATOM     17  C   UNL A   1      44.216  24.657  34.980  1.00  0.00     0.082 A 
ATOM     18  C   UNL A   1      43.009  24.400  35.636  1.00  0.00     0.024 A 
ATOM     19  C   UNL A   1      44.377  25.817  34.221  1.00  0.00     0.024 A 
ATOM     20  C   UNL A   1      41.960  25.320  35.530  1.00  0.00     0.031 A 
ATOM     21  C   UNL A   1      43.318  26.726  34.119  1.00  0.00     0.031 A 
BRANCH  17  22
ATOM     22  S   UNL A   1      45.525  23.473  35.078  1.00  0.00     0.238 S 
ATOM     23  O   UNL A   1      46.697  24.101  35.648  1.00  0.00    -0.207 OA
ATOM     24  O   UNL A   1      45.566  22.725  33.846  1.00  0.00    -0.207 OA
BRANCH  22  25
ATOM     25  N   UNL A   1      44.967  22.416  36.256  1.00  0.00    -0.225 NA
ATOM     26  H   UNL A   1      44.719  21.526  35.824  1.00  0.00     0.137 HD
ATOM     27  H   UNL A   1      44.143  22.816  36.707  1.00  0.00     0.137 HD
ENDBRANCH  22  25
ENDBRANCH  17  22
ENDBRANCH  15  16
ENDBRANCH   9  14
BRANCH  13  28
ATOM     28  O   UNL A   1      36.355  31.111  32.960  1.00  0.00    -0.507 OA
ATOM     29  H   UNL A   1      35.944  31.590  33.653  1.00  0.00     0.293 HD
ENDBRANCH  13  28
ENDBRANCH   6   8
ENDBRANCH   5   6
ENDBRANCH   4   5
ENDBRANCH   3   4
ENDBRANCH   2   3
ENDBRANCH   1   2
BRANCH   1  30
ATOM     30  C   UNL A   1      33.892  34.883  31.579  1.00  0.00     0.188 C 
BRANCH  30  31
ATOM     31  O   UNL A   1      34.201  35.158  30.235  1.00  0.00    -0.376 OA
BRANCH  31  32
ATOM     32  C   UNL A   1      33.583  34.402  29.209  1.00  0.00     0.202 C 
BRANCH  32  33
ATOM     33  C   UNL A   1      34.282  33.313  28.366  1.00  0.00     0.261 C 
BRANCH  33  34
ATOM     34  O   UNL A   1      34.324  31.973  28.869  1.00  0.00    -0.460 OA
BRANCH  34  35
ATOM     35  C   UNL A   1      34.468  30.989  27.950  1.00  0.00     0.338 C 
ATOM     36  O   UNL A   1      33.751  30.764  26.992  1.00  0.00    -0.246 OA
BRANCH  35  37
ATOM     37  C   UNL A   1      35.756  30.304  28.183  1.00  0.00     0.060 A 
ATOM     38  C   UNL A   1      35.942  29.621  29.391  1.00  0.00     0.016 A 
ATOM     39  C   UNL A   1      36.789  30.380  27.246  1.00  0.00     0.016 A 
ATOM     40  C   UNL A   1      37.179  29.048  29.686  1.00  0.00     0.010 A 
ATOM     41  C   UNL A   1      38.034  29.816  27.551  1.00  0.00     0.010 A 
ATOM     42  C   UNL A   1      38.247  29.182  28.789  1.00  0.00    -0.014 A 
BRANCH  42  43
ATOM     43  C   UNL A   1      39.617  28.811  29.227  1.00  0.00     0.031 A 
ATOM     44  C   UNL A   1      40.176  27.474  28.813  1.00  0.00     0.074 A 
ATOM     45  C   UNL A   1      40.378  29.662  29.937  1.00  0.00     0.049 A 
ATOM     46  N   UNL A   1      41.350  26.951  29.061  1.00  0.00    -0.248 NA
ATOM     47  C   UNL A   1      39.291  26.614  28.010  1.00  0.00     0.031 C 
ATOM     48  C   UNL A   1      39.978  31.002  30.363  1.00  0.00     0.029 A 
ATOM     49  N   UNL A   1      41.655  29.521  30.420  1.00  0.00    -0.354 N 
ATOM     50  C   UNL A   1      41.343  25.703  28.449  1.00  0.00     0.074 A 
ATOM     51  C   UNL A   1      40.037  25.531  27.853  1.00  0.00     0.031 C 
ATOM     52  C   UNL A   1      40.993  31.562  31.043  1.00  0.00     0.029 A 
ATOM     53  C   UNL A   1      42.099  30.611  31.127  1.00  0.00     0.049 A 
ATOM     54  H   UNL A   1      42.201  28.715  30.271  1.00  0.00     0.167 HD
ATOM     55  C   UNL A   1      42.335  24.783  28.382  1.00  0.00     0.031 A 
ATOM     56  C   UNL A   1      43.262  30.813  31.779  1.00  0.00     0.031 A 
ATOM     57  C   UNL A   1      43.630  24.940  28.990  1.00  0.00     0.049 A 
ATOM     58  C   UNL A   1      44.320  29.740  31.757  1.00  0.00     0.074 A 
ATOM     59  C   UNL A   1      44.707  24.070  28.965  1.00  0.00     0.029 A 
ATOM     60  N   UNL A   1      44.022  26.038  29.741  1.00  0.00    -0.354 N 
ATOM     61  N   UNL A   1      44.313  28.578  31.151  1.00  0.00    -0.248 NA
ATOM     62  C   UNL A   1      45.557  30.020  32.503  1.00  0.00     0.031 C 
ATOM     63  C   UNL A   1      45.725  24.611  29.757  1.00  0.00     0.029 A 
ATOM     64  C   UNL A   1      45.312  25.853  30.210  1.00  0.00     0.049 A 
ATOM     65  H   UNL A   1      43.465  26.831  29.916  1.00  0.00     0.167 HD
ATOM     66  C   UNL A   1      45.553  28.006  31.410  1.00  0.00     0.074 A 
ATOM     67  C   UNL A   1      46.293  28.957  32.215  1.00  0.00     0.031 C 
ATOM     68  C   UNL A   1      46.038  26.803  31.014  1.00  0.00     0.031 A 
BRANCH  55  69
ATOM     69  C   UNL A   1      42.042  23.501  27.651  1.00  0.00    -0.014 A 
ATOM     70  C   UNL A   1      42.500  23.281  26.341  1.00  0.00     0.009 A 
ATOM     71  C   UNL A   1      41.321  22.483  28.295  1.00  0.00     0.009 A 
ATOM     72  C   UNL A   1      42.210  22.086  25.681  1.00  0.00     0.001 A 
ATOM     73  C   UNL A   1      41.060  21.276  27.644  1.00  0.00     0.001 A 
ATOM     74  C   UNL A   1      41.496  21.082  26.334  1.00  0.00     0.000 A 
ENDBRANCH  55  69
BRANCH  56  75
ATOM     75  C   UNL A   1      43.492  32.081  32.522  1.00  0.00    -0.014 A 
ATOM     76  C   UNL A   1      43.046  32.232  33.845  1.00  0.00     0.009 A 
ATOM     77  C   UNL A   1      44.132  33.163  31.897  1.00  0.00     0.009 A 
ATOM     78  C   UNL A   1      43.210  33.448  34.513  1.00  0.00     0.001 A 
ATOM     79  C   UNL A   1      44.324  34.366  32.579  1.00  0.00     0.001 A 
ATOM     80  C   UNL A   1      43.853  34.512  33.882  1.00  0.00     0.000 A 
ENDBRANCH  56  75
BRANCH  68  81
ATOM     81  C   UNL A   1      47.453  26.465  31.405  1.00  0.00    -0.014 A 
ATOM     82  C   UNL A   1      48.534  26.695  30.538  1.00  0.00     0.009 A 
ATOM     83  C   UNL A   1      47.710  25.927  32.677  1.00  0.00     0.009 A 
ATOM     84  C   UNL A   1      49.832  26.348  30.917  1.00  0.00     0.001 A 
ATOM     85  C   UNL A   1      49.013  25.614  33.067  1.00  0.00     0.001 A 
ATOM     86  C   UNL A   1      50.071  25.811  32.182  1.00  0.00     0.000 A 
ENDBRANCH  68  81
ENDBRANCH  42  43
ENDBRANCH  35  37
ENDBRANCH  34  35
ENDBRANCH  33  34
ENDBRANCH  32  33
ENDBRANCH  31  32
ENDBRANCH  30  31
ENDBRANCH   1  30
TORSDOF 22
ENDMDL
