MODEL 1
REMARK VINA RESULT:      -9.7      0.000      0.000
REMARK SMILES O=C(OCCOCCOCCOC(=O)c1cccnc1NC[C@H](c1ccccc1)[NH+]1CCOCC1)c1ccc(-c2c3nc(c(-c4ccccc4)c4ccc([nH]4)c(-c4ccccc4)c4nc(c(-c5ccccc5)c5ccc2[nH]5)C=C4)C=C3)cc1
REMARK SMILES IDX 8 1 7 2 6 3 5 4 4 5 3 6 2 7 1 8 36 9 37 10 83 11 38 12 82 13
REMARK SMILES IDX 39 14 40 15 41 16 76 17 42 18 81 19 75 20 77 21 43 22 80 23
REMARK SMILES IDX 74 24 73 25 44 27 66 28 51 29 65 30 52 31 55 32 64 33 78 34
REMARK SMILES IDX 53 35 54 36 63 38 79 39 56 40 45 41 46 42 50 43 47 44 49 45
REMARK SMILES IDX 48 46 67 47 68 48 72 49 69 50 71 51 70 52 57 53 58 54 62 55
REMARK SMILES IDX 59 56 61 57 60 58 9 59 10 60 11 61 12 62 13 63 14 64 15 65
REMARK SMILES IDX 16 66 20 67 17 68 19 69 18 70 21 71 22 73 23 74 30 75 31 76
REMARK SMILES IDX 35 77 32 79 34 80 33 81 24 82 25 83 29 84 26 85 28 86 27 87
REMARK H PARENT 77 26 55 37 21 72 30 78
REMARK Flexibility Score: inf
ROOT
ATOM      1  C   UNL A   1      33.274  34.345  28.536  1.00  0.00     0.188 C 
ENDROOT
BRANCH   1   2
ATOM      2  C   UNL A   1      33.561  35.236  29.743  1.00  0.00     0.188 C 
BRANCH   2   3
ATOM      3  O   UNL A   1      33.364  34.587  30.999  1.00  0.00    -0.376 OA
BRANCH   3   4
ATOM      4  C   UNL A   1      34.587  34.115  31.569  1.00  0.00     0.202 C 
BRANCH   4   5
ATOM      5  C   UNL A   1      34.395  33.087  32.701  1.00  0.00     0.261 C 
BRANCH   5   6
ATOM      6  O   UNL A   1      35.539  33.012  33.563  1.00  0.00    -0.460 OA
BRANCH   6   7
ATOM      7  C   UNL A   1      36.745  33.548  33.222  1.00  0.00     0.338 C 
ATOM      8  O   UNL A   1      36.960  34.735  33.405  1.00  0.00    -0.246 OA
BRANCH   7   9
ATOM      9  C   UNL A   1      37.722  32.721  32.445  1.00  0.00     0.060 A 
ATOM     10  C   UNL A   1      38.677  31.877  33.009  1.00  0.00     0.016 A 
ATOM     11  C   UNL A   1      37.665  32.800  31.042  1.00  0.00     0.016 A 
ATOM     12  C   UNL A   1      39.607  31.200  32.226  1.00  0.00     0.010 A 
ATOM     13  C   UNL A   1      38.568  32.086  30.241  1.00  0.00     0.010 A 
ATOM     14  C   UNL A   1      39.571  31.312  30.839  1.00  0.00    -0.014 A 
BRANCH  14  15
ATOM     15  C   UNL A   1      40.672  30.718  30.052  1.00  0.00     0.031 A 
ATOM     16  C   UNL A   1      41.900  31.534  29.793  1.00  0.00     0.074 A 
ATOM     17  C   UNL A   1      40.637  29.423  29.690  1.00  0.00     0.049 A 
ATOM     18  N   UNL A   1      42.977  31.210  29.128  1.00  0.00    -0.248 NA
ATOM     19  C   UNL A   1      41.944  32.876  30.400  1.00  0.00     0.031 C 
ATOM     20  C   UNL A   1      39.577  28.482  30.040  1.00  0.00     0.029 A 
ATOM     21  N   UNL A   1      41.521  28.672  28.958  1.00  0.00    -0.354 N 
ATOM     22  C   UNL A   1      43.830  32.297  29.248  1.00  0.00     0.074 A 
ATOM     23  C   UNL A   1      43.139  33.303  30.022  1.00  0.00     0.031 C 
ATOM     24  C   UNL A   1      39.853  27.289  29.489  1.00  0.00     0.029 A 
ATOM     25  C   UNL A   1      41.060  27.405  28.691  1.00  0.00     0.049 A 
ATOM     26  H   UNL A   1      42.396  29.005  28.655  1.00  0.00     0.167 HD
ATOM     27  C   UNL A   1      45.084  32.432  28.761  1.00  0.00     0.031 A 
ATOM     28  C   UNL A   1      41.521  26.464  27.848  1.00  0.00     0.031 A 
ATOM     29  C   UNL A   1      45.750  31.434  27.974  1.00  0.00     0.049 A 
ATOM     30  C   UNL A   1      42.807  26.729  27.128  1.00  0.00     0.074 A 
ATOM     31  C   UNL A   1      47.019  31.471  27.426  1.00  0.00     0.029 A 
ATOM     32  N   UNL A   1      45.187  30.221  27.606  1.00  0.00    -0.354 N 
ATOM     33  N   UNL A   1      43.608  27.759  27.242  1.00  0.00    -0.248 NA
ATOM     34  C   UNL A   1      43.264  25.703  26.183  1.00  0.00     0.031 C 
ATOM     35  C   UNL A   1      47.196  30.309  26.667  1.00  0.00     0.029 A 
ATOM     36  C   UNL A   1      46.059  29.526  26.788  1.00  0.00     0.049 A 
ATOM     37  H   UNL A   1      44.299  29.902  27.886  1.00  0.00     0.167 HD
ATOM     38  C   UNL A   1      44.681  27.496  26.408  1.00  0.00     0.074 A 
ATOM     39  C   UNL A   1      44.428  26.206  25.796  1.00  0.00     0.031 C 
ATOM     40  C   UNL A   1      45.783  28.250  26.181  1.00  0.00     0.031 A 
BRANCH  27  41
ATOM     41  C   UNL A   1      45.778  33.736  29.018  1.00  0.00    -0.014 A 
ATOM     42  C   UNL A   1      46.707  33.880  30.059  1.00  0.00     0.009 A 
ATOM     43  C   UNL A   1      45.496  34.837  28.195  1.00  0.00     0.009 A 
ATOM     44  C   UNL A   1      47.325  35.112  30.286  1.00  0.00     0.001 A 
ATOM     45  C   UNL A   1      46.129  36.062  28.412  1.00  0.00     0.001 A 
ATOM     46  C   UNL A   1      47.038  36.200  29.461  1.00  0.00     0.000 A 
ENDBRANCH  27  41
BRANCH  28  47
ATOM     47  C   UNL A   1      40.707  25.255  27.555  1.00  0.00    -0.014 A 
ATOM     48  C   UNL A   1      41.098  23.981  27.983  1.00  0.00     0.009 A 
ATOM     49  C   UNL A   1      39.531  25.384  26.793  1.00  0.00     0.009 A 
ATOM     50  C   UNL A   1      40.342  22.857  27.635  1.00  0.00     0.001 A 
ATOM     51  C   UNL A   1      38.767  24.263  26.464  1.00  0.00     0.001 A 
ATOM     52  C   UNL A   1      39.177  22.998  26.879  1.00  0.00     0.000 A 
ENDBRANCH  28  47
BRANCH  40  53
ATOM     53  C   UNL A   1      46.806  27.683  25.247  1.00  0.00    -0.014 A 
ATOM     54  C   UNL A   1      46.825  28.043  23.892  1.00  0.00     0.009 A 
ATOM     55  C   UNL A   1      47.785  26.807  25.741  1.00  0.00     0.009 A 
ATOM     56  C   UNL A   1      47.797  27.517  23.041  1.00  0.00     0.001 A 
ATOM     57  C   UNL A   1      48.771  26.305  24.894  1.00  0.00     0.001 A 
ATOM     58  C   UNL A   1      48.773  26.655  23.544  1.00  0.00     0.000 A 
ENDBRANCH  40  53
ENDBRANCH  14  15
ENDBRANCH   7   9
ENDBRANCH   6   7
ENDBRANCH   5   6
ENDBRANCH   4   5
ENDBRANCH   3   4
ENDBRANCH   2   3
ENDBRANCH   1   2
BRANCH   1  59
ATOM     59  O   UNL A   1      34.343  34.130  27.633  1.00  0.00    -0.376 OA
BRANCH  59  60
ATOM     60  C   UNL A   1      35.476  33.441  28.164  1.00  0.00     0.202 C 
BRANCH  60  61
ATOM     61  C   UNL A   1      35.556  31.912  27.978  1.00  0.00     0.261 C 
BRANCH  61  62
ATOM     62  O   UNL A   1      34.340  31.145  28.204  1.00  0.00    -0.460 OA
BRANCH  62  63
ATOM     63  C   UNL A   1      34.321  29.908  27.630  1.00  0.00     0.341 C 
ATOM     64  O   UNL A   1      35.279  29.157  27.509  1.00  0.00    -0.246 OA
BRANCH  63  65
ATOM     65  C   UNL A   1      33.094  29.677  26.854  1.00  0.00     0.102 A 
ATOM     66  C   UNL A   1      32.369  30.853  26.592  1.00  0.00     0.021 A 
ATOM     67  C   UNL A   1      32.762  28.492  26.177  1.00  0.00     0.140 A 
ATOM     68  C   UNL A   1      31.334  30.836  25.671  1.00  0.00     0.021 A 
ATOM     69  N   UNL A   1      31.719  28.488  25.311  1.00  0.00    -0.239 NA
ATOM     70  C   UNL A   1      31.039  29.632  25.071  1.00  0.00     0.113 A 
BRANCH  67  71
ATOM     71  N   UNL A   1      33.490  27.310  26.286  1.00  0.00    -0.363 N 
ATOM     72  H   UNL A   1      33.410  26.756  27.097  1.00  0.00     0.162 HD
BRANCH  71  73
ATOM     73  C   UNL A   1      34.382  26.885  25.185  1.00  0.00     0.184 C 
BRANCH  73  74
ATOM     74  C   UNL A   1      34.010  25.563  24.342  1.00  0.00     0.234 C 
BRANCH  74  75
ATOM     75  N   UNL A   1      33.727  25.530  22.865  1.00  0.00    -0.323 N 
ATOM     76  C   UNL A   1      33.429  26.811  22.174  1.00  0.00     0.291 C 
ATOM     77  C   UNL A   1      32.695  24.602  22.414  1.00  0.00     0.291 C 
ATOM     78  H   UNL A   1      34.658  25.210  22.598  1.00  0.00     0.348 HD
ATOM     79  C   UNL A   1      31.974  27.325  22.316  1.00  0.00     0.221 C 
ATOM     80  C   UNL A   1      31.318  25.116  22.815  1.00  0.00     0.221 C 
ATOM     81  O   UNL A   1      30.992  26.305  22.090  1.00  0.00    -0.370 OA
ENDBRANCH  74  75
BRANCH  74  82
ATOM     82  C   UNL A   1      34.779  24.332  24.871  1.00  0.00     0.011 A 
ATOM     83  C   UNL A   1      35.678  23.610  24.073  1.00  0.00     0.010 A 
ATOM     84  C   UNL A   1      34.487  23.831  26.157  1.00  0.00     0.010 A 
ATOM     85  C   UNL A   1      36.200  22.388  24.512  1.00  0.00     0.001 A 
ATOM     86  C   UNL A   1      34.991  22.601  26.584  1.00  0.00     0.001 A 
ATOM     87  C   UNL A   1      35.836  21.873  25.754  1.00  0.00     0.000 A 
ENDBRANCH  74  82
ENDBRANCH  73  74
ENDBRANCH  71  73
ENDBRANCH  67  71
ENDBRANCH  63  65
ENDBRANCH  62  63
ENDBRANCH  61  62
ENDBRANCH  60  61
ENDBRANCH  59  60
ENDBRANCH   1  59
TORSDOF 22
ENDMDL
MODEL 2
REMARK VINA RESULT:      -9.4      3.916      8.060
REMARK SMILES O=C(OCCOCCOCCOC(=O)c1cccnc1NC[C@H](c1ccccc1)[NH+]1CCOCC1)c1ccc(-c2c3nc(c(-c4ccccc4)c4ccc([nH]4)c(-c4ccccc4)c4nc(c(-c5ccccc5)c5ccc2[nH]5)C=C4)C=C3)cc1
REMARK SMILES IDX 8 1 7 2 6 3 5 4 4 5 3 6 2 7 1 8 36 9 37 10 83 11 38 12 82 13
REMARK SMILES IDX 39 14 40 15 41 16 76 17 42 18 81 19 75 20 77 21 43 22 80 23
REMARK SMILES IDX 74 24 73 25 44 27 66 28 51 29 65 30 52 31 55 32 64 33 78 34
REMARK SMILES IDX 53 35 54 36 63 38 79 39 56 40 45 41 46 42 50 43 47 44 49 45
REMARK SMILES IDX 48 46 67 47 68 48 72 49 69 50 71 51 70 52 57 53 58 54 62 55
REMARK SMILES IDX 59 56 61 57 60 58 9 59 10 60 11 61 12 62 13 63 14 64 15 65
REMARK SMILES IDX 16 66 20 67 17 68 19 69 18 70 21 71 22 73 23 74 30 75 31 76
REMARK SMILES IDX 35 77 32 79 34 80 33 81 24 82 25 83 29 84 26 85 28 86 27 87
REMARK H PARENT 77 26 55 37 21 72 30 78
REMARK Flexibility Score: inf
ROOT
ATOM      1  C   UNL A   1      34.163  28.916  25.962  1.00  0.00     0.188 C 
ENDROOT
BRANCH   1   2
ATOM      2  C   UNL A   1      33.255  29.419  27.084  1.00  0.00     0.188 C 
BRANCH   2   3
ATOM      3  O   UNL A   1      33.108  30.838  27.114  1.00  0.00    -0.376 OA
BRANCH   3   4
ATOM      4  C   UNL A   1      31.769  31.255  26.836  1.00  0.00     0.202 C 
BRANCH   4   5
ATOM      5  C   UNL A   1      31.568  32.783  26.876  1.00  0.00     0.261 C 
BRANCH   5   6
ATOM      6  O   UNL A   1      32.807  33.486  27.041  1.00  0.00    -0.460 OA
BRANCH   6   7
ATOM      7  C   UNL A   1      33.112  34.167  28.182  1.00  0.00     0.338 C 
ATOM      8  O   UNL A   1      32.528  35.204  28.449  1.00  0.00    -0.246 OA
BRANCH   7   9
ATOM      9  C   UNL A   1      34.296  33.742  28.996  1.00  0.00     0.060 A 
ATOM     10  C   UNL A   1      35.599  34.197  28.805  1.00  0.00     0.016 A 
ATOM     11  C   UNL A   1      34.070  32.820  30.034  1.00  0.00     0.016 A 
ATOM     12  C   UNL A   1      36.664  33.696  29.548  1.00  0.00     0.010 A 
ATOM     13  C   UNL A   1      35.129  32.343  30.819  1.00  0.00     0.010 A 
ATOM     14  C   UNL A   1      36.440  32.754  30.548  1.00  0.00    -0.014 A 
BRANCH  14  15
ATOM     15  C   UNL A   1      37.607  32.122  31.198  1.00  0.00     0.031 A 
ATOM     16  C   UNL A   1      38.331  31.027  30.479  1.00  0.00     0.074 A 
ATOM     17  C   UNL A   1      38.099  32.609  32.352  1.00  0.00     0.049 A 
ATOM     18  N   UNL A   1      39.373  30.339  30.867  1.00  0.00    -0.248 NA
ATOM     19  C   UNL A   1      37.852  30.690  29.128  1.00  0.00     0.031 C 
ATOM     20  C   UNL A   1      37.587  33.783  33.052  1.00  0.00     0.029 A 
ATOM     21  N   UNL A   1      39.143  32.185  33.132  1.00  0.00    -0.354 N 
ATOM     22  C   UNL A   1      39.681  29.501  29.806  1.00  0.00     0.074 A 
ATOM     23  C   UNL A   1      38.703  29.741  28.768  1.00  0.00     0.031 C 
ATOM     24  C   UNL A   1      38.295  33.962  34.179  1.00  0.00     0.029 A 
ATOM     25  C   UNL A   1      39.250  32.877  34.314  1.00  0.00     0.049 A 
ATOM     26  H   UNL A   1      39.755  31.459  32.873  1.00  0.00     0.167 HD
ATOM     27  C   UNL A   1      40.700  28.618  29.707  1.00  0.00     0.031 A 
ATOM     28  C   UNL A   1      39.986  32.630  35.411  1.00  0.00     0.031 A 
ATOM     29  C   UNL A   1      41.651  28.372  30.754  1.00  0.00     0.049 A 
ATOM     30  C   UNL A   1      40.956  31.490  35.370  1.00  0.00     0.074 A 
ATOM     31  C   UNL A   1      42.720  27.494  30.761  1.00  0.00     0.029 A 
ATOM     32  N   UNL A   1      41.633  28.995  31.993  1.00  0.00    -0.354 N 
ATOM     33  N   UNL A   1      41.242  30.699  34.366  1.00  0.00    -0.248 NA
ATOM     34  C   UNL A   1      41.715  31.217  36.596  1.00  0.00     0.031 C 
ATOM     35  C   UNL A   1      43.306  27.536  32.031  1.00  0.00     0.029 A 
ATOM     36  C   UNL A   1      42.635  28.479  32.794  1.00  0.00     0.049 A 
ATOM     37  H   UNL A   1      41.001  29.700  32.261  1.00  0.00     0.167 HD
ATOM     38  C   UNL A   1      42.236  29.852  34.825  1.00  0.00     0.074 A 
ATOM     39  C   UNL A   1      42.506  30.229  36.199  1.00  0.00     0.031 C 
ATOM     40  C   UNL A   1      42.877  28.860  34.161  1.00  0.00     0.031 A 
BRANCH  27  41
ATOM     41  C   UNL A   1      40.786  27.813  28.445  1.00  0.00    -0.014 A 
ATOM     42  C   UNL A   1      41.479  28.285  27.320  1.00  0.00     0.009 A 
ATOM     43  C   UNL A   1      40.164  26.557  28.388  1.00  0.00     0.009 A 
ATOM     44  C   UNL A   1      41.527  27.521  26.152  1.00  0.00     0.001 A 
ATOM     45  C   UNL A   1      40.229  25.788  27.226  1.00  0.00     0.001 A 
ATOM     46  C   UNL A   1      40.905  26.273  26.107  1.00  0.00     0.000 A 
ENDBRANCH  27  41
BRANCH  28  47
ATOM     47  C   UNL A   1      39.748  33.396  36.663  1.00  0.00    -0.014 A 
ATOM     48  C   UNL A   1      40.482  34.547  36.974  1.00  0.00     0.009 A 
ATOM     49  C   UNL A   1      38.789  32.934  37.583  1.00  0.00     0.009 A 
ATOM     50  C   UNL A   1      40.277  35.206  38.191  1.00  0.00     0.001 A 
ATOM     51  C   UNL A   1      38.571  33.606  38.786  1.00  0.00     0.001 A 
ATOM     52  C   UNL A   1      39.322  34.738  39.094  1.00  0.00     0.000 A 
ENDBRANCH  28  47
BRANCH  40  53
ATOM     53  C   UNL A   1      43.948  28.132  34.911  1.00  0.00    -0.014 A 
ATOM     54  C   UNL A   1      43.662  26.957  35.621  1.00  0.00     0.009 A 
ATOM     55  C   UNL A   1      45.267  28.609  34.874  1.00  0.00     0.009 A 
ATOM     56  C   UNL A   1      44.677  26.283  36.300  1.00  0.00     0.001 A 
ATOM     57  C   UNL A   1      46.284  27.918  35.530  1.00  0.00     0.001 A 
ATOM     58  C   UNL A   1      45.987  26.760  36.247  1.00  0.00     0.000 A 
ENDBRANCH  40  53
ENDBRANCH  14  15
ENDBRANCH   7   9
ENDBRANCH   6   7
ENDBRANCH   5   6
ENDBRANCH   4   5
ENDBRANCH   3   4
ENDBRANCH   2   3
ENDBRANCH   1   2
BRANCH   1  59
ATOM     59  O   UNL A   1      33.565  28.095  24.976  1.00  0.00    -0.376 OA
BRANCH  59  60
ATOM     60  C   UNL A   1      32.378  28.613  24.373  1.00  0.00     0.202 C 
BRANCH  60  61
ATOM     61  C   UNL A   1      31.017  28.059  24.843  1.00  0.00     0.261 C 
BRANCH  61  62
ATOM     62  O   UNL A   1      30.455  26.943  24.097  1.00  0.00    -0.460 OA
BRANCH  62  63
ATOM     63  C   UNL A   1      31.317  25.911  23.865  1.00  0.00     0.341 C 
ATOM     64  O   UNL A   1      31.659  25.492  22.768  1.00  0.00    -0.246 OA
BRANCH  63  65
ATOM     65  C   UNL A   1      31.557  25.108  25.073  1.00  0.00     0.102 A 
ATOM     66  C   UNL A   1      30.412  24.431  25.530  1.00  0.00     0.021 A 
ATOM     67  C   UNL A   1      32.815  24.781  25.605  1.00  0.00     0.140 A 
ATOM     68  C   UNL A   1      30.531  23.449  26.500  1.00  0.00     0.021 A 
ATOM     69  N   UNL A   1      32.903  23.846  26.583  1.00  0.00    -0.239 NA
ATOM     70  C   UNL A   1      31.790  23.204  27.003  1.00  0.00     0.113 A 
BRANCH  67  71
ATOM     71  N   UNL A   1      34.013  25.314  25.139  1.00  0.00    -0.363 N 
ATOM     72  H   UNL A   1      34.324  26.189  25.469  1.00  0.00     0.162 HD
BRANCH  71  73
ATOM     73  C   UNL A   1      34.821  24.568  24.149  1.00  0.00     0.184 C 
BRANCH  73  74
ATOM     74  C   UNL A   1      35.096  22.998  24.388  1.00  0.00     0.234 C 
BRANCH  74  75
ATOM     75  N   UNL A   1      35.667  22.402  25.645  1.00  0.00    -0.323 N 
ATOM     76  C   UNL A   1      36.538  23.251  26.498  1.00  0.00     0.291 C 
ATOM     77  C   UNL A   1      36.381  21.136  25.508  1.00  0.00     0.291 C 
ATOM     78  H   UNL A   1      34.766  22.272  26.106  1.00  0.00     0.348 HD
ATOM     79  C   UNL A   1      38.011  23.374  26.035  1.00  0.00     0.221 C 
ATOM     80  C   UNL A   1      37.726  21.366  24.832  1.00  0.00     0.221 C 
ATOM     81  O   UNL A   1      38.598  22.114  25.684  1.00  0.00    -0.370 OA
ENDBRANCH  74  75
BRANCH  74  82
ATOM     82  C   UNL A   1      34.010  22.134  23.709  1.00  0.00     0.011 A 
ATOM     83  C   UNL A   1      33.287  22.578  22.592  1.00  0.00     0.010 A 
ATOM     84  C   UNL A   1      33.636  20.905  24.292  1.00  0.00     0.010 A 
ATOM     85  C   UNL A   1      32.178  21.863  22.128  1.00  0.00     0.001 A 
ATOM     86  C   UNL A   1      32.516  20.204  23.842  1.00  0.00     0.001 A 
ATOM     87  C   UNL A   1      31.778  20.692  22.768  1.00  0.00     0.000 A 
ENDBRANCH  74  82
ENDBRANCH  73  74
ENDBRANCH  71  73
ENDBRANCH  67  71
ENDBRANCH  63  65
ENDBRANCH  62  63
ENDBRANCH  61  62
ENDBRANCH  60  61
ENDBRANCH  59  60
ENDBRANCH   1  59
TORSDOF 22
ENDMDL
MODEL 3
REMARK VINA RESULT:      -9.2      3.834      6.739
REMARK SMILES O=C(OCCOCCOCCOC(=O)c1cccnc1NC[C@H](c1ccccc1)[NH+]1CCOCC1)c1ccc(-c2c3nc(c(-c4ccccc4)c4ccc([nH]4)c(-c4ccccc4)c4nc(c(-c5ccccc5)c5ccc2[nH]5)C=C4)C=C3)cc1
REMARK SMILES IDX 8 1 7 2 6 3 5 4 4 5 3 6 2 7 1 8 36 9 37 10 83 11 38 12 82 13
REMARK SMILES IDX 39 14 40 15 41 16 76 17 42 18 81 19 75 20 77 21 43 22 80 23
REMARK SMILES IDX 74 24 73 25 44 27 66 28 51 29 65 30 52 31 55 32 64 33 78 34
REMARK SMILES IDX 53 35 54 36 63 38 79 39 56 40 45 41 46 42 50 43 47 44 49 45
REMARK SMILES IDX 48 46 67 47 68 48 72 49 69 50 71 51 70 52 57 53 58 54 62 55
REMARK SMILES IDX 59 56 61 57 60 58 9 59 10 60 11 61 12 62 13 63 14 64 15 65
REMARK SMILES IDX 16 66 20 67 17 68 19 69 18 70 21 71 22 73 23 74 30 75 31 76
REMARK SMILES IDX 35 77 32 79 34 80 33 81 24 82 25 83 29 84 26 85 28 86 27 87
REMARK H PARENT 77 26 55 37 21 72 30 78
REMARK Flexibility Score: inf
ROOT
ATOM      1  C   UNL A   1      33.791  28.991  24.936  1.00  0.00     0.188 C 
ENDROOT
BRANCH   1   2
ATOM      2  C   UNL A   1      33.331  29.332  26.353  1.00  0.00     0.188 C 
BRANCH   2   3
ATOM      3  O   UNL A   1      33.142  30.729  26.577  1.00  0.00    -0.376 OA
BRANCH   3   4
ATOM      4  C   UNL A   1      31.764  31.077  26.728  1.00  0.00     0.202 C 
BRANCH   4   5
ATOM      5  C   UNL A   1      31.510  32.593  26.849  1.00  0.00     0.261 C 
BRANCH   5   6
ATOM      6  O   UNL A   1      32.731  33.336  26.979  1.00  0.00    -0.460 OA
BRANCH   6   7
ATOM      7  C   UNL A   1      33.088  33.954  28.140  1.00  0.00     0.338 C 
ATOM      8  O   UNL A   1      32.528  34.982  28.482  1.00  0.00    -0.246 OA
BRANCH   7   9
ATOM      9  C   UNL A   1      34.296  33.474  28.884  1.00  0.00     0.060 A 
ATOM     10  C   UNL A   1      35.600  33.906  28.650  1.00  0.00     0.016 A 
ATOM     11  C   UNL A   1      34.095  32.521  29.899  1.00  0.00     0.016 A 
ATOM     12  C   UNL A   1      36.685  33.356  29.326  1.00  0.00     0.010 A 
ATOM     13  C   UNL A   1      35.176  31.994  30.619  1.00  0.00     0.010 A 
ATOM     14  C   UNL A   1      36.483  32.385  30.303  1.00  0.00    -0.014 A 
BRANCH  14  15
ATOM     15  C   UNL A   1      37.663  31.705  30.878  1.00  0.00     0.031 A 
ATOM     16  C   UNL A   1      38.149  32.121  32.232  1.00  0.00     0.074 A 
ATOM     17  C   UNL A   1      38.211  30.641  30.265  1.00  0.00     0.049 A 
ATOM     18  N   UNL A   1      39.162  31.661  32.917  1.00  0.00    -0.248 NA
ATOM     19  C   UNL A   1      37.368  33.158  32.927  1.00  0.00     0.031 C 
ATOM     20  C   UNL A   1      37.713  30.034  29.033  1.00  0.00     0.029 A 
ATOM     21  N   UNL A   1      39.299  29.875  30.598  1.00  0.00    -0.354 N 
ATOM     22  C   UNL A   1      39.131  32.340  34.127  1.00  0.00     0.074 A 
ATOM     23  C   UNL A   1      38.021  33.264  34.074  1.00  0.00     0.031 C 
ATOM     24  C   UNL A   1      38.517  29.014  28.694  1.00  0.00     0.029 A 
ATOM     25  C   UNL A   1      39.620  28.947  29.637  1.00  0.00     0.049 A 
ATOM     26  H   UNL A   1      39.799  29.978  31.439  1.00  0.00     0.167 HD
ATOM     27  C   UNL A   1      39.955  32.192  35.189  1.00  0.00     0.031 A 
ATOM     28  C   UNL A   1      40.712  28.176  29.493  1.00  0.00     0.031 A 
ATOM     29  C   UNL A   1      41.068  31.286  35.219  1.00  0.00     0.049 A 
ATOM     30  C   UNL A   1      41.741  28.198  30.580  1.00  0.00     0.074 A 
ATOM     31  C   UNL A   1      41.970  31.061  36.243  1.00  0.00     0.029 A 
ATOM     32  N   UNL A   1      41.443  30.468  34.164  1.00  0.00    -0.354 N 
ATOM     33  N   UNL A   1      41.709  28.843  31.720  1.00  0.00    -0.248 NA
ATOM     34  C   UNL A   1      42.941  27.378  30.377  1.00  0.00     0.031 C 
ATOM     35  C   UNL A   1      42.933  30.157  35.780  1.00  0.00     0.029 A 
ATOM     36  C   UNL A   1      42.598  29.780  34.489  1.00  0.00     0.049 A 
ATOM     37  H   UNL A   1      40.959  30.389  33.311  1.00  0.00     0.167 HD
ATOM     38  C   UNL A   1      42.868  28.486  32.387  1.00  0.00     0.074 A 
ATOM     39  C   UNL A   1      43.581  27.564  31.524  1.00  0.00     0.031 C 
ATOM     40  C   UNL A   1      43.295  28.877  33.611  1.00  0.00     0.031 A 
BRANCH  27  41
ATOM     41  C   UNL A   1      39.710  33.081  36.371  1.00  0.00    -0.014 A 
ATOM     42  C   UNL A   1      40.393  34.296  36.529  1.00  0.00     0.009 A 
ATOM     43  C   UNL A   1      38.773  32.691  37.340  1.00  0.00     0.009 A 
ATOM     44  C   UNL A   1      40.156  35.095  37.650  1.00  0.00     0.001 A 
ATOM     45  C   UNL A   1      38.525  33.501  38.449  1.00  0.00     0.001 A 
ATOM     46  C   UNL A   1      39.221  34.699  38.606  1.00  0.00     0.000 A 
ENDBRANCH  27  41
BRANCH  28  47
ATOM     47  C   UNL A   1      40.937  27.422  28.232  1.00  0.00    -0.014 A 
ATOM     48  C   UNL A   1      41.434  28.043  27.080  1.00  0.00     0.009 A 
ATOM     49  C   UNL A   1      40.606  26.055  28.176  1.00  0.00     0.009 A 
ATOM     50  C   UNL A   1      41.573  27.318  25.892  1.00  0.00     0.001 A 
ATOM     51  C   UNL A   1      40.766  25.329  26.995  1.00  0.00     0.001 A 
ATOM     52  C   UNL A   1      41.242  25.963  25.850  1.00  0.00     0.000 A 
ENDBRANCH  28  47
BRANCH  40  53
ATOM     53  C   UNL A   1      44.584  28.288  34.094  1.00  0.00    -0.014 A 
ATOM     54  C   UNL A   1      45.805  28.943  33.875  1.00  0.00     0.009 A 
ATOM     55  C   UNL A   1      44.570  27.081  34.809  1.00  0.00     0.009 A 
ATOM     56  C   UNL A   1      46.994  28.387  34.348  1.00  0.00     0.001 A 
ATOM     57  C   UNL A   1      45.756  26.542  35.304  1.00  0.00     0.001 A 
ATOM     58  C   UNL A   1      46.966  27.191  35.067  1.00  0.00     0.000 A 
ENDBRANCH  40  53
ENDBRANCH  14  15
ENDBRANCH   7   9
ENDBRANCH   6   7
ENDBRANCH   5   6
ENDBRANCH   4   5
ENDBRANCH   3   4
ENDBRANCH   2   3
ENDBRANCH   1   2
BRANCH   1  59
ATOM     59  O   UNL A   1      33.011  28.051  24.221  1.00  0.00    -0.376 OA
BRANCH  59  60
ATOM     60  C   UNL A   1      31.649  28.419  23.994  1.00  0.00     0.202 C 
BRANCH  60  61
ATOM     61  C   UNL A   1      30.547  27.651  24.751  1.00  0.00     0.261 C 
BRANCH  61  62
ATOM     62  O   UNL A   1      30.022  26.445  24.127  1.00  0.00    -0.460 OA
BRANCH  62  63
ATOM     63  C   UNL A   1      30.939  25.459  23.911  1.00  0.00     0.341 C 
ATOM     64  O   UNL A   1      31.253  24.993  22.825  1.00  0.00    -0.246 OA
BRANCH  63  65
ATOM     65  C   UNL A   1      31.295  24.755  25.152  1.00  0.00     0.102 A 
ATOM     66  C   UNL A   1      30.261  23.942  25.650  1.00  0.00     0.021 A 
ATOM     67  C   UNL A   1      32.589  24.635  25.685  1.00  0.00     0.140 A 
ATOM     68  C   UNL A   1      30.522  23.032  26.661  1.00  0.00     0.021 A 
ATOM     69  N   UNL A   1      32.814  23.767  26.703  1.00  0.00    -0.239 NA
ATOM     70  C   UNL A   1      31.805  22.993  27.162  1.00  0.00     0.113 A 
BRANCH  67  71
ATOM     71  N   UNL A   1      33.697  25.313  25.185  1.00  0.00    -0.363 N 
ATOM     72  H   UNL A   1      33.869  26.244  25.456  1.00  0.00     0.162 HD
BRANCH  71  73
ATOM     73  C   UNL A   1      34.618  24.634  24.246  1.00  0.00     0.184 C 
BRANCH  73  74
ATOM     74  C   UNL A   1      34.999  23.090  24.503  1.00  0.00     0.234 C 
BRANCH  74  75
ATOM     75  N   UNL A   1      35.623  22.551  25.761  1.00  0.00    -0.323 N 
ATOM     76  C   UNL A   1      36.434  23.471  26.598  1.00  0.00     0.291 C 
ATOM     77  C   UNL A   1      36.428  21.341  25.629  1.00  0.00     0.291 C 
ATOM     78  H   UNL A   1      34.737  22.358  26.230  1.00  0.00     0.348 HD
ATOM     79  C   UNL A   1      37.890  23.699  26.122  1.00  0.00     0.221 C 
ATOM     80  C   UNL A   1      37.748  21.664  24.940  1.00  0.00     0.221 C 
ATOM     81  O   UNL A   1      38.568  22.484  25.778  1.00  0.00    -0.370 OA
ENDBRANCH  74  75
BRANCH  74  82
ATOM     82  C   UNL A   1      33.966  22.146  23.848  1.00  0.00     0.011 A 
ATOM     83  C   UNL A   1      33.265  22.493  22.684  1.00  0.00     0.010 A 
ATOM     84  C   UNL A   1      33.615  20.944  24.498  1.00  0.00     0.010 A 
ATOM     85  C   UNL A   1      32.196  21.710  22.234  1.00  0.00     0.001 A 
ATOM     86  C   UNL A   1      32.534  20.176  24.060  1.00  0.00     0.001 A 
ATOM     87  C   UNL A   1      31.815  20.569  22.936  1.00  0.00     0.000 A 
ENDBRANCH  74  82
ENDBRANCH  73  74
ENDBRANCH  71  73
ENDBRANCH  67  71
ENDBRANCH  63  65
ENDBRANCH  62  63
ENDBRANCH  61  62
ENDBRANCH  60  61
ENDBRANCH  59  60
ENDBRANCH   1  59
TORSDOF 22
ENDMDL
