MODEL 1
REMARK VINA RESULT:      -9.4      0.000      0.000
REMARK SMILES Cc1ccc(C(=O)OCCOCCOCCOC(=O)c2ccc(-c3c4nc(c(-c5ccccc5)c5ccc([nH]5)c(-c5ccccc5)c5nc(c(-c6ccccc6)c6ccc3[nH]6)C=C5)C=C4)cc2)c(Cl)c1
REMARK SMILES IDX 13 1 12 2 11 3 10 4 9 5 8 6 6 7 7 8 5 9 1 10 2 11 3 12 70 13
REMARK SMILES IDX 4 14 68 15 69 16 14 17 15 18 16 19 17 20 18 21 19 22 20 23
REMARK SMILES IDX 21 24 67 25 22 26 66 27 23 28 24 29 25 30 60 31 26 32 65 33
REMARK SMILES IDX 59 34 61 35 27 36 64 37 58 38 57 39 28 41 50 42 35 43 49 44
REMARK SMILES IDX 36 45 39 46 48 47 62 48 37 49 38 50 47 52 63 53 40 54 29 55
REMARK SMILES IDX 30 56 34 57 31 58 33 59 32 60 51 61 52 62 56 63 53 64 55 65
REMARK SMILES IDX 54 66 41 67 42 68 46 69 43 70 45 71 44 72
REMARK H PARENT 61 40 39 51
REMARK Flexibility Score: inf
ROOT
ATOM      1  C   UNL A   1      34.033  34.156  29.782  1.00  0.00     0.188 C 
ENDROOT
BRANCH   1   2
ATOM      2  C   UNL A   1      34.509  32.769  29.299  1.00  0.00     0.188 C 
BRANCH   2   3
ATOM      3  O   UNL A   1      33.911  32.266  28.129  1.00  0.00    -0.376 OA
BRANCH   3   4
ATOM      4  C   UNL A   1      34.351  31.045  27.557  1.00  0.00     0.202 C 
BRANCH   4   5
ATOM      5  C   UNL A   1      33.457  29.847  27.177  1.00  0.00     0.261 C 
BRANCH   5   6
ATOM      6  O   UNL A   1      33.675  29.245  25.901  1.00  0.00    -0.460 OA
BRANCH   6   7
ATOM      7  C   UNL A   1      32.659  28.475  25.423  1.00  0.00     0.339 C 
ATOM      8  O   UNL A   1      31.494  28.784  25.327  1.00  0.00    -0.246 OA
BRANCH   7   9
ATOM      9  C   UNL A   1      33.226  27.194  24.941  1.00  0.00     0.078 A 
ATOM     10  C   UNL A   1      34.741  23.393  23.585  1.00  0.00     0.044 C 
ATOM     11  C   UNL A   1      34.245  24.723  24.073  1.00  0.00    -0.050 A 
ATOM     12  C   UNL A   1      34.107  24.988  25.439  1.00  0.00     0.004 A 
ATOM     13  C   UNL A   1      33.913  25.721  23.147  1.00  0.00     0.024 A 
ATOM     14  C   UNL A   1      33.598  26.215  25.874  1.00  0.00     0.017 A 
ATOM     15  C   UNL A   1      33.404  26.953  23.574  1.00  0.00     0.055 A 
ATOM     16  Cl  UNL A   1      33.096  28.140  22.356  1.00  0.00    -0.083 Cl
ENDBRANCH   7   9
ENDBRANCH   6   7
ENDBRANCH   5   6
ENDBRANCH   4   5
ENDBRANCH   3   4
ENDBRANCH   2   3
ENDBRANCH   1   2
BRANCH   1  17
ATOM     17  O   UNL A   1      34.609  34.759  30.926  1.00  0.00    -0.376 OA
BRANCH  17  18
ATOM     18  C   UNL A   1      33.910  34.732  32.161  1.00  0.00     0.202 C 
BRANCH  18  19
ATOM     19  C   UNL A   1      34.240  33.723  33.277  1.00  0.00     0.261 C 
BRANCH  19  20
ATOM     20  O   UNL A   1      35.007  32.573  32.893  1.00  0.00    -0.460 OA
BRANCH  20  21
ATOM     21  C   UNL A   1      36.197  32.431  33.527  1.00  0.00     0.338 C 
ATOM     22  O   UNL A   1      36.465  32.719  34.680  1.00  0.00    -0.246 OA
BRANCH  21  23
ATOM     23  C   UNL A   1      37.128  31.693  32.654  1.00  0.00     0.060 A 
ATOM     24  C   UNL A   1      38.100  30.874  33.248  1.00  0.00     0.016 A 
ATOM     25  C   UNL A   1      37.083  31.851  31.269  1.00  0.00     0.016 A 
ATOM     26  C   UNL A   1      39.041  30.220  32.455  1.00  0.00     0.010 A 
ATOM     27  C   UNL A   1      38.046  31.215  30.478  1.00  0.00     0.010 A 
ATOM     28  C   UNL A   1      39.044  30.419  31.070  1.00  0.00    -0.014 A 
BRANCH  28  29
ATOM     29  C   UNL A   1      40.186  29.933  30.258  1.00  0.00     0.031 A 
ATOM     30  C   UNL A   1      41.338  30.866  30.002  1.00  0.00     0.074 A 
ATOM     31  C   UNL A   1      40.211  28.681  29.770  1.00  0.00     0.049 A 
ATOM     32  N   UNL A   1      42.412  30.680  29.278  1.00  0.00    -0.248 NA
ATOM     33  C   UNL A   1      41.269  32.186  30.651  1.00  0.00     0.031 C 
ATOM     34  C   UNL A   1      39.187  27.661  29.992  1.00  0.00     0.029 A 
ATOM     35  N   UNL A   1      41.140  28.060  28.972  1.00  0.00    -0.354 N 
ATOM     36  C   UNL A   1      43.141  31.859  29.376  1.00  0.00     0.074 A 
ATOM     37  C   UNL A   1      42.376  32.763  30.207  1.00  0.00     0.031 C 
ATOM     38  C   UNL A   1      39.538  26.543  29.333  1.00  0.00     0.029 A 
ATOM     39  C   UNL A   1      40.789  26.782  28.614  1.00  0.00     0.049 A 
ATOM     40  H   UNL A   1      41.978  28.489  28.685  1.00  0.00     0.167 HD
ATOM     41  C   UNL A   1      44.341  32.161  28.828  1.00  0.00     0.031 A 
ATOM     42  C   UNL A   1      41.395  25.914  27.779  1.00  0.00     0.031 A 
ATOM     43  C   UNL A   1      45.094  31.271  27.985  1.00  0.00     0.049 A 
ATOM     44  C   UNL A   1      42.682  26.313  27.101  1.00  0.00     0.074 A 
ATOM     45  C   UNL A   1      46.325  31.486  27.389  1.00  0.00     0.029 A 
ATOM     46  N   UNL A   1      44.683  30.002  27.610  1.00  0.00    -0.354 N 
ATOM     47  N   UNL A   1      43.375  27.419  27.222  1.00  0.00    -0.248 NA
ATOM     48  C   UNL A   1      43.272  25.335  26.175  1.00  0.00     0.031 C 
ATOM     49  C   UNL A   1      46.630  30.370  26.604  1.00  0.00     0.029 A 
ATOM     50  C   UNL A   1      45.622  29.433  26.766  1.00  0.00     0.049 A 
ATOM     51  H   UNL A   1      43.848  29.569  27.901  1.00  0.00     0.167 HD
ATOM     52  C   UNL A   1      44.496  27.256  26.416  1.00  0.00     0.074 A 
ATOM     53  C   UNL A   1      44.399  25.939  25.825  1.00  0.00     0.031 C 
ATOM     54  C   UNL A   1      45.517  28.119  26.188  1.00  0.00     0.031 A 
BRANCH  41  55
ATOM     55  C   UNL A   1      44.898  33.532  29.093  1.00  0.00    -0.014 A 
ATOM     56  C   UNL A   1      44.585  34.620  28.264  1.00  0.00     0.009 A 
ATOM     57  C   UNL A   1      45.714  33.745  30.214  1.00  0.00     0.009 A 
ATOM     58  C   UNL A   1      45.102  35.888  28.536  1.00  0.00     0.001 A 
ATOM     59  C   UNL A   1      46.207  35.019  30.501  1.00  0.00     0.001 A 
ATOM     60  C   UNL A   1      45.907  36.088  29.656  1.00  0.00     0.000 A 
ENDBRANCH  41  55
BRANCH  42  61
ATOM     61  C   UNL A   1      40.784  24.587  27.501  1.00  0.00    -0.014 A 
ATOM     62  C   UNL A   1      41.333  23.415  28.046  1.00  0.00     0.009 A 
ATOM     63  C   UNL A   1      39.672  24.480  26.651  1.00  0.00     0.009 A 
ATOM     64  C   UNL A   1      40.804  22.165  27.717  1.00  0.00     0.001 A 
ATOM     65  C   UNL A   1      39.124  23.231  26.351  1.00  0.00     0.001 A 
ATOM     66  C   UNL A   1      39.698  22.075  26.874  1.00  0.00     0.000 A 
ENDBRANCH  42  61
BRANCH  54  67
ATOM     67  C   UNL A   1      46.635  27.652  25.297  1.00  0.00    -0.014 A 
ATOM     68  C   UNL A   1      47.617  26.760  25.756  1.00  0.00     0.009 A 
ATOM     69  C   UNL A   1      46.679  28.077  23.959  1.00  0.00     0.009 A 
ATOM     70  C   UNL A   1      48.639  26.334  24.905  1.00  0.00     0.001 A 
ATOM     71  C   UNL A   1      47.683  27.624  23.101  1.00  0.00     0.001 A 
ATOM     72  C   UNL A   1      48.668  26.761  23.578  1.00  0.00     0.000 A 
ENDBRANCH  54  67
ENDBRANCH  28  29
ENDBRANCH  21  23
ENDBRANCH  20  21
ENDBRANCH  19  20
ENDBRANCH  18  19
ENDBRANCH  17  18
ENDBRANCH   1  17
TORSDOF 17
ENDMDL
MODEL 2
REMARK VINA RESULT:      -9.2      3.970      9.124
REMARK SMILES Cc1ccc(C(=O)OCCOCCOCCOC(=O)c2ccc(-c3c4nc(c(-c5ccccc5)c5ccc([nH]5)c(-c5ccccc5)c5nc(c(-c6ccccc6)c6ccc3[nH]6)C=C5)C=C4)cc2)c(Cl)c1
REMARK SMILES IDX 13 1 12 2 11 3 10 4 9 5 8 6 6 7 7 8 5 9 1 10 2 11 3 12 70 13
REMARK SMILES IDX 4 14 68 15 69 16 14 17 15 18 16 19 17 20 18 21 19 22 20 23
REMARK SMILES IDX 21 24 67 25 22 26 66 27 23 28 24 29 25 30 60 31 26 32 65 33
REMARK SMILES IDX 59 34 61 35 27 36 64 37 58 38 57 39 28 41 50 42 35 43 49 44
REMARK SMILES IDX 36 45 39 46 48 47 62 48 37 49 38 50 47 52 63 53 40 54 29 55
REMARK SMILES IDX 30 56 34 57 31 58 33 59 32 60 51 61 52 62 56 63 53 64 55 65
REMARK SMILES IDX 54 66 41 67 42 68 46 69 43 70 45 71 44 72
REMARK H PARENT 61 40 39 51
REMARK Flexibility Score: inf
ROOT
ATOM      1  C   UNL A   1      36.526  21.959  24.564  1.00  0.00     0.188 C 
ENDROOT
BRANCH   1   2
ATOM      2  C   UNL A   1      36.487  22.952  25.745  1.00  0.00     0.188 C 
BRANCH   2   3
ATOM      3  O   UNL A   1      35.855  24.189  25.514  1.00  0.00    -0.376 OA
BRANCH   3   4
ATOM      4  C   UNL A   1      34.443  24.304  25.579  1.00  0.00     0.202 C 
BRANCH   4   5
ATOM      5  C   UNL A   1      33.477  24.300  24.377  1.00  0.00     0.261 C 
BRANCH   5   6
ATOM      6  O   UNL A   1      33.225  23.045  23.742  1.00  0.00    -0.460 OA
BRANCH   6   7
ATOM      7  C   UNL A   1      32.204  22.310  24.261  1.00  0.00     0.339 C 
ATOM      8  O   UNL A   1      31.163  22.726  24.715  1.00  0.00    -0.246 OA
BRANCH   7   9
ATOM      9  C   UNL A   1      32.530  20.873  24.102  1.00  0.00     0.078 A 
ATOM     10  C   UNL A   1      33.584  16.733  23.524  1.00  0.00     0.044 C 
ATOM     11  C   UNL A   1      33.182  18.166  23.725  1.00  0.00    -0.050 A 
ATOM     12  C   UNL A   1      32.453  18.857  22.753  1.00  0.00     0.004 A 
ATOM     13  C   UNL A   1      33.541  18.827  24.908  1.00  0.00     0.024 A 
ATOM     14  C   UNL A   1      32.129  20.205  22.936  1.00  0.00     0.017 A 
ATOM     15  C   UNL A   1      33.220  20.176  25.100  1.00  0.00     0.055 A 
ATOM     16  Cl  UNL A   1      33.644  20.875  26.623  1.00  0.00    -0.083 Cl
ENDBRANCH   7   9
ENDBRANCH   6   7
ENDBRANCH   5   6
ENDBRANCH   4   5
ENDBRANCH   3   4
ENDBRANCH   2   3
ENDBRANCH   1   2
BRANCH   1  17
ATOM     17  O   UNL A   1      37.351  20.810  24.613  1.00  0.00    -0.376 OA
BRANCH  17  18
ATOM     18  C   UNL A   1      38.523  20.821  25.414  1.00  0.00     0.202 C 
BRANCH  18  19
ATOM     19  C   UNL A   1      39.306  19.538  25.751  1.00  0.00     0.261 C 
BRANCH  19  20
ATOM     20  O   UNL A   1      40.636  19.443  25.223  1.00  0.00    -0.460 OA
BRANCH  20  21
ATOM     21  C   UNL A   1      41.630  19.491  26.144  1.00  0.00     0.338 C 
ATOM     22  O   UNL A   1      42.406  18.602  26.447  1.00  0.00    -0.246 OA
BRANCH  21  23
ATOM     23  C   UNL A   1      41.772  20.873  26.636  1.00  0.00     0.060 A 
ATOM     24  C   UNL A   1      42.142  21.876  25.728  1.00  0.00     0.016 A 
ATOM     25  C   UNL A   1      41.600  21.169  27.988  1.00  0.00     0.016 A 
ATOM     26  C   UNL A   1      42.355  23.178  26.174  1.00  0.00     0.010 A 
ATOM     27  C   UNL A   1      41.841  22.471  28.438  1.00  0.00     0.010 A 
ATOM     28  C   UNL A   1      42.245  23.474  27.538  1.00  0.00    -0.014 A 
BRANCH  28  29
ATOM     29  C   UNL A   1      42.712  24.786  28.047  1.00  0.00     0.031 A 
ATOM     30  C   UNL A   1      41.697  25.868  28.294  1.00  0.00     0.074 A 
ATOM     31  C   UNL A   1      44.012  25.012  28.303  1.00  0.00     0.049 A 
ATOM     32  N   UNL A   1      41.878  27.104  28.681  1.00  0.00    -0.248 NA
ATOM     33  C   UNL A   1      40.286  25.505  28.075  1.00  0.00     0.031 C 
ATOM     34  C   UNL A   1      45.089  24.032  28.160  1.00  0.00     0.029 A 
ATOM     35  N   UNL A   1      44.646  26.152  28.730  1.00  0.00    -0.354 N 
ATOM     36  C   UNL A   1      40.610  27.669  28.744  1.00  0.00     0.074 A 
ATOM     37  C   UNL A   1      39.670  26.650  28.329  1.00  0.00     0.031 C 
ATOM     38  C   UNL A   1      46.255  24.620  28.482  1.00  0.00     0.029 A 
ATOM     39  C   UNL A   1      46.011  26.023  28.815  1.00  0.00     0.049 A 
ATOM     40  H   UNL A   1      44.169  26.983  28.955  1.00  0.00     0.167 HD
ATOM     41  C   UNL A   1      40.257  28.922  29.117  1.00  0.00     0.031 A 
ATOM     42  C   UNL A   1      46.956  26.940  29.103  1.00  0.00     0.031 A 
ATOM     43  C   UNL A   1      41.191  29.943  29.510  1.00  0.00     0.049 A 
ATOM     44  C   UNL A   1      46.544  28.356  29.417  1.00  0.00     0.074 A 
ATOM     45  C   UNL A   1      40.928  31.241  29.912  1.00  0.00     0.029 A 
ATOM     46  N   UNL A   1      42.567  29.785  29.540  1.00  0.00    -0.354 N 
ATOM     47  N   UNL A   1      45.341  28.871  29.499  1.00  0.00    -0.248 NA
ATOM     48  C   UNL A   1      47.626  29.315  29.686  1.00  0.00     0.031 C 
ATOM     49  C   UNL A   1      42.149  31.887  30.127  1.00  0.00     0.029 A 
ATOM     50  C   UNL A   1      43.169  30.972  29.925  1.00  0.00     0.049 A 
ATOM     51  H   UNL A   1      43.045  28.954  29.321  1.00  0.00     0.167 HD
ATOM     52  C   UNL A   1      45.521  30.202  29.861  1.00  0.00     0.074 A 
ATOM     53  C   UNL A   1      46.946  30.409  29.998  1.00  0.00     0.031 C 
ATOM     54  C   UNL A   1      44.588  31.165  30.063  1.00  0.00     0.031 A 
BRANCH  41  55
ATOM     55  C   UNL A   1      38.795  29.270  29.079  1.00  0.00    -0.014 A 
ATOM     56  C   UNL A   1      38.186  29.736  27.904  1.00  0.00     0.009 A 
ATOM     57  C   UNL A   1      38.008  29.088  30.226  1.00  0.00     0.009 A 
ATOM     58  C   UNL A   1      36.824  30.042  27.887  1.00  0.00     0.001 A 
ATOM     59  C   UNL A   1      36.641  29.366  30.199  1.00  0.00     0.001 A 
ATOM     60  C   UNL A   1      36.051  29.851  29.032  1.00  0.00     0.000 A 
ENDBRANCH  41  55
BRANCH  42  61
ATOM     61  C   UNL A   1      48.396  26.568  29.077  1.00  0.00    -0.014 A 
ATOM     62  C   UNL A   1      49.013  26.010  30.207  1.00  0.00     0.009 A 
ATOM     63  C   UNL A   1      49.173  26.812  27.934  1.00  0.00     0.009 A 
ATOM     64  C   UNL A   1      50.383  25.738  30.205  1.00  0.00     0.001 A 
ATOM     65  C   UNL A   1      50.536  26.508  27.923  1.00  0.00     0.001 A 
ATOM     66  C   UNL A   1      51.142  25.983  29.061  1.00  0.00     0.000 A 
ENDBRANCH  42  61
BRANCH  54  67
ATOM     67  C   UNL A   1      45.074  32.520  30.501  1.00  0.00    -0.014 A 
ATOM     68  C   UNL A   1      45.364  33.532  29.572  1.00  0.00     0.009 A 
ATOM     69  C   UNL A   1      45.200  32.802  31.871  1.00  0.00     0.009 A 
ATOM     70  C   UNL A   1      45.804  34.785  30.006  1.00  0.00     0.001 A 
ATOM     71  C   UNL A   1      45.608  34.065  32.303  1.00  0.00     0.001 A 
ATOM     72  C   UNL A   1      45.919  35.052  31.369  1.00  0.00     0.000 A 
ENDBRANCH  54  67
ENDBRANCH  28  29
ENDBRANCH  21  23
ENDBRANCH  20  21
ENDBRANCH  19  20
ENDBRANCH  18  19
ENDBRANCH  17  18
ENDBRANCH   1  17
TORSDOF 17
ENDMDL
MODEL 3
REMARK VINA RESULT:      -9.2      4.707     10.085
REMARK SMILES Cc1ccc(C(=O)OCCOCCOCCOC(=O)c2ccc(-c3c4nc(c(-c5ccccc5)c5ccc([nH]5)c(-c5ccccc5)c5nc(c(-c6ccccc6)c6ccc3[nH]6)C=C5)C=C4)cc2)c(Cl)c1
REMARK SMILES IDX 13 1 12 2 11 3 10 4 9 5 8 6 6 7 7 8 5 9 1 10 2 11 3 12 70 13
REMARK SMILES IDX 4 14 68 15 69 16 14 17 15 18 16 19 17 20 18 21 19 22 20 23
REMARK SMILES IDX 21 24 67 25 22 26 66 27 23 28 24 29 25 30 60 31 26 32 65 33
REMARK SMILES IDX 59 34 61 35 27 36 64 37 58 38 57 39 28 41 50 42 35 43 49 44
REMARK SMILES IDX 36 45 39 46 48 47 62 48 37 49 38 50 47 52 63 53 40 54 29 55
REMARK SMILES IDX 30 56 34 57 31 58 33 59 32 60 51 61 52 62 56 63 53 64 55 65
REMARK SMILES IDX 54 66 41 67 42 68 46 69 43 70 45 71 44 72
REMARK H PARENT 61 40 39 51
REMARK Flexibility Score: inf
ROOT
ATOM      1  C   UNL A   1      41.406  20.012  26.387  1.00  0.00     0.188 C 
ENDROOT
BRANCH   1   2
ATOM      2  C   UNL A   1      40.359  21.135  26.222  1.00  0.00     0.188 C 
BRANCH   2   3
ATOM      3  O   UNL A   1      39.098  20.758  25.722  1.00  0.00    -0.376 OA
BRANCH   3   4
ATOM      4  C   UNL A   1      38.106  21.733  25.447  1.00  0.00     0.202 C 
BRANCH   4   5
ATOM      5  C   UNL A   1      36.604  21.617  25.778  1.00  0.00     0.261 C 
BRANCH   5   6
ATOM      6  O   UNL A   1      35.945  22.791  26.256  1.00  0.00    -0.460 OA
BRANCH   6   7
ATOM      7  C   UNL A   1      34.617  22.662  26.524  1.00  0.00     0.339 C 
ATOM      8  O   UNL A   1      34.058  22.901  27.570  1.00  0.00    -0.246 OA
BRANCH   7   9
ATOM      9  C   UNL A   1      33.923  22.257  25.280  1.00  0.00     0.078 A 
ATOM     10  C   UNL A   1      31.767  21.071  21.740  1.00  0.00     0.044 C 
ATOM     11  C   UNL A   1      32.543  21.461  22.964  1.00  0.00    -0.050 A 
ATOM     12  C   UNL A   1      32.769  20.548  24.000  1.00  0.00     0.004 A 
ATOM     13  C   UNL A   1      33.055  22.761  23.077  1.00  0.00     0.024 A 
ATOM     14  C   UNL A   1      33.452  20.942  25.154  1.00  0.00     0.017 A 
ATOM     15  C   UNL A   1      33.741  23.163  24.228  1.00  0.00     0.055 A 
ATOM     16  Cl  UNL A   1      34.394  24.763  24.234  1.00  0.00    -0.083 Cl
ENDBRANCH   7   9
ENDBRANCH   6   7
ENDBRANCH   5   6
ENDBRANCH   4   5
ENDBRANCH   3   4
ENDBRANCH   2   3
ENDBRANCH   1   2
BRANCH   1  17
ATOM     17  O   UNL A   1      42.239  19.639  25.306  1.00  0.00    -0.376 OA
BRANCH  17  18
ATOM     18  C   UNL A   1      43.632  19.905  25.368  1.00  0.00     0.202 C 
BRANCH  18  19
ATOM     19  C   UNL A   1      44.195  21.326  25.554  1.00  0.00     0.261 C 
BRANCH  19  20
ATOM     20  O   UNL A   1      43.561  22.370  24.803  1.00  0.00    -0.460 OA
BRANCH  20  21
ATOM     21  C   UNL A   1      44.194  23.568  24.824  1.00  0.00     0.338 C 
ATOM     22  O   UNL A   1      45.108  23.940  24.110  1.00  0.00    -0.246 OA
BRANCH  21  23
ATOM     23  C   UNL A   1      43.493  24.472  25.754  1.00  0.00     0.060 A 
ATOM     24  C   UNL A   1      43.808  25.839  25.729  1.00  0.00     0.016 A 
ATOM     25  C   UNL A   1      42.579  23.972  26.682  1.00  0.00     0.016 A 
ATOM     26  C   UNL A   1      43.218  26.709  26.644  1.00  0.00     0.010 A 
ATOM     27  C   UNL A   1      42.009  24.842  27.616  1.00  0.00     0.010 A 
ATOM     28  C   UNL A   1      42.346  26.209  27.618  1.00  0.00    -0.014 A 
BRANCH  28  29
ATOM     29  C   UNL A   1      41.917  27.079  28.739  1.00  0.00     0.031 A 
ATOM     30  C   UNL A   1      42.688  27.025  30.030  1.00  0.00     0.074 A 
ATOM     31  C   UNL A   1      40.873  27.916  28.612  1.00  0.00     0.049 A 
ATOM     32  N   UNL A   1      42.464  27.649  31.158  1.00  0.00    -0.248 NA
ATOM     33  C   UNL A   1      43.872  26.149  30.050  1.00  0.00     0.031 C 
ATOM     34  C   UNL A   1      40.079  28.106  27.399  1.00  0.00     0.029 A 
ATOM     35  N   UNL A   1      40.298  28.760  29.530  1.00  0.00    -0.354 N 
ATOM     36  C   UNL A   1      43.469  27.237  32.023  1.00  0.00     0.074 A 
ATOM     37  C   UNL A   1      44.289  26.289  31.300  1.00  0.00     0.031 C 
ATOM     38  C   UNL A   1      39.108  29.001  27.653  1.00  0.00     0.029 A 
ATOM     39  C   UNL A   1      39.191  29.417  29.052  1.00  0.00     0.049 A 
ATOM     40  H   UNL A   1      40.646  28.884  30.442  1.00  0.00     0.167 HD
ATOM     41  C   UNL A   1      43.694  27.615  33.303  1.00  0.00     0.031 A 
ATOM     42  C   UNL A   1      38.327  30.239  29.682  1.00  0.00     0.031 A 
ATOM     43  C   UNL A   1      42.869  28.542  34.031  1.00  0.00     0.049 A 
ATOM     44  C   UNL A   1      38.543  30.567  31.137  1.00  0.00     0.074 A 
ATOM     45  C   UNL A   1      43.021  28.993  35.330  1.00  0.00     0.029 A 
ATOM     46  N   UNL A   1      41.732  29.151  33.526  1.00  0.00    -0.354 N 
ATOM     47  N   UNL A   1      39.512  30.191  31.938  1.00  0.00    -0.248 NA
ATOM     48  C   UNL A   1      37.545  31.439  31.774  1.00  0.00     0.031 C 
ATOM     49  C   UNL A   1      41.941  29.828  35.632  1.00  0.00     0.029 A 
ATOM     50  C   UNL A   1      41.154  29.951  34.498  1.00  0.00     0.049 A 
ATOM     51  H   UNL A   1      41.385  29.033  32.612  1.00  0.00     0.167 HD
ATOM     52  C   UNL A   1      39.257  30.808  33.158  1.00  0.00     0.074 A 
ATOM     53  C   UNL A   1      38.054  31.594  32.988  1.00  0.00     0.031 C 
ATOM     54  C   UNL A   1      39.960  30.732  34.315  1.00  0.00     0.031 A 
BRANCH  41  55
ATOM     55  C   UNL A   1      44.863  26.993  34.014  1.00  0.00    -0.014 A 
ATOM     56  C   UNL A   1      46.127  27.602  34.012  1.00  0.00     0.009 A 
ATOM     57  C   UNL A   1      44.685  25.801  34.733  1.00  0.00     0.009 A 
ATOM     58  C   UNL A   1      47.197  27.013  34.690  1.00  0.00     0.001 A 
ATOM     59  C   UNL A   1      45.747  25.229  35.434  1.00  0.00     0.001 A 
ATOM     60  C   UNL A   1      47.005  25.832  35.405  1.00  0.00     0.000 A 
ENDBRANCH  41  55
BRANCH  42  61
ATOM     61  C   UNL A   1      37.152  30.792  28.957  1.00  0.00    -0.014 A 
ATOM     62  C   UNL A   1      37.120  32.139  28.563  1.00  0.00     0.009 A 
ATOM     63  C   UNL A   1      36.034  29.985  28.695  1.00  0.00     0.009 A 
ATOM     64  C   UNL A   1      35.982  32.673  27.955  1.00  0.00     0.001 A 
ATOM     65  C   UNL A   1      34.910  30.513  28.056  1.00  0.00     0.001 A 
ATOM     66  C   UNL A   1      34.880  31.858  27.698  1.00  0.00     0.000 A 
ENDBRANCH  42  61
BRANCH  54  67
ATOM     67  C   UNL A   1      39.473  31.555  35.478  1.00  0.00    -0.014 A 
ATOM     68  C   UNL A   1      38.386  31.145  36.265  1.00  0.00     0.009 A 
ATOM     69  C   UNL A   1      40.146  32.740  35.817  1.00  0.00     0.009 A 
ATOM     70  C   UNL A   1      37.961  31.922  37.344  1.00  0.00     0.001 A 
ATOM     71  C   UNL A   1      39.740  33.499  36.916  1.00  0.00     0.001 A 
ATOM     72  C   UNL A   1      38.641  33.094  37.672  1.00  0.00     0.000 A 
ENDBRANCH  54  67
ENDBRANCH  28  29
ENDBRANCH  21  23
ENDBRANCH  20  21
ENDBRANCH  19  20
ENDBRANCH  18  19
ENDBRANCH  17  18
ENDBRANCH   1  17
TORSDOF 17
ENDMDL
