MODEL 1
REMARK VINA RESULT:     -10.3      0.000      0.000
REMARK SMILES NC(=O)C1CC[NH+](Cc2ccc(C(=O)OCCOCCOCCOC(=O)c3ccc(-c4c5nc(c(-c6ccccc6)c6ccc([nH]6)c(-c6ccccc6)c6nc(c(-c7ccccc7)c7ccc4[nH]7)C=C6)C=C5)cc3)cc2)CC1
REMARK SMILES IDX 19 1 18 2 17 3 16 4 15 5 13 6 14 7 12 8 9 9 10 10 76 11
REMARK SMILES IDX 11 12 75 13 8 14 7 15 4 16 5 17 78 18 6 19 77 20 2 22 1 23
REMARK SMILES IDX 3 26 20 27 21 28 22 29 23 30 24 31 25 32 26 33 27 34 28 35
REMARK SMILES IDX 74 36 29 37 73 38 30 39 31 40 32 41 67 42 33 43 72 44 66 45
REMARK SMILES IDX 68 46 34 47 71 48 65 49 64 50 35 52 57 53 42 54 56 55 43 56
REMARK SMILES IDX 46 57 55 58 69 59 44 60 45 61 54 63 70 64 47 65 36 66 37 67
REMARK SMILES IDX 41 68 38 69 40 70 39 71 58 72 59 73 63 74 60 75 62 76 61 77
REMARK SMILES IDX 48 78 49 79 53 80 50 81 52 82 51 83
REMARK H PARENT 7 21 1 24 1 25 68 51 46 62
REMARK Flexibility Score: inf
ROOT
ATOM      1  C   UNL A   1      40.116  20.553  26.404  1.00  0.00     0.188 C 
ENDROOT
BRANCH   1   2
ATOM      2  O   UNL A   1      39.553  21.733  25.867  1.00  0.00    -0.376 OA
BRANCH   2   3
ATOM      3  C   UNL A   1      38.172  21.811  25.555  1.00  0.00     0.202 C 
BRANCH   3   4
ATOM      4  C   UNL A   1      37.229  20.597  25.499  1.00  0.00     0.261 C 
BRANCH   4   5
ATOM      5  O   UNL A   1      36.100  20.723  24.634  1.00  0.00    -0.460 OA
BRANCH   5   6
ATOM      6  C   UNL A   1      35.008  21.296  25.200  1.00  0.00     0.338 C 
ATOM      7  O   UNL A   1      34.623  21.150  26.347  1.00  0.00    -0.246 OA
BRANCH   6   8
ATOM      8  C   UNL A   1      34.437  22.308  24.281  1.00  0.00     0.060 A 
ATOM      9  C   UNL A   1      33.340  24.343  22.707  1.00  0.00     0.006 A 
ATOM     10  C   UNL A   1      34.469  24.595  23.500  1.00  0.00     0.010 A 
ATOM     11  C   UNL A   1      32.877  23.023  22.585  1.00  0.00     0.010 A 
ATOM     12  C   UNL A   1      35.010  23.583  24.289  1.00  0.00     0.016 A 
ATOM     13  C   UNL A   1      33.396  22.014  23.396  1.00  0.00     0.016 A 
BRANCH   9  14
ATOM     14  C   UNL A   1      32.515  25.517  22.195  1.00  0.00     0.299 C 
BRANCH  14  15
ATOM     15  N   UNL A   1      32.232  26.561  23.219  1.00  0.00    -0.331 N 
ATOM     16  C   UNL A   1      30.881  29.087  23.927  1.00  0.00     0.089 C 
ATOM     17  C   UNL A   1      32.398  29.010  23.761  1.00  0.00     0.075 C 
ATOM     18  C   UNL A   1      30.433  27.751  24.532  1.00  0.00     0.075 C 
ATOM     19  C   UNL A   1      32.800  27.858  22.844  1.00  0.00     0.263 C 
ATOM     20  C   UNL A   1      30.809  26.593  23.605  1.00  0.00     0.263 C 
ATOM     21  H   UNL A   1      32.718  26.300  24.076  1.00  0.00     0.348 HD
BRANCH  16  22
ATOM     22  C   UNL A   1      30.076  29.387  22.655  1.00  0.00     0.220 C 
ATOM     23  N   UNL A   1      30.712  29.996  21.619  1.00  0.00    -0.369 N 
ATOM     24  H   UNL A   1      30.221  30.200  20.791  1.00  0.00     0.159 HD
ATOM     25  H   UNL A   1      31.665  30.233  21.696  1.00  0.00     0.159 HD
ATOM     26  O   UNL A   1      28.872  29.163  22.558  1.00  0.00    -0.275 OA
ENDBRANCH  16  22
ENDBRANCH  14  15
ENDBRANCH   9  14
ENDBRANCH   6   8
ENDBRANCH   5   6
ENDBRANCH   4   5
ENDBRANCH   3   4
ENDBRANCH   2   3
ENDBRANCH   1   2
BRANCH   1  27
ATOM     27  C   UNL A   1      41.301  20.633  27.386  1.00  0.00     0.188 C 
BRANCH  27  28
ATOM     28  O   UNL A   1      42.503  19.976  27.068  1.00  0.00    -0.376 OA
BRANCH  28  29
ATOM     29  C   UNL A   1      43.043  20.064  25.760  1.00  0.00     0.202 C 
BRANCH  29  30
ATOM     30  C   UNL A   1      43.772  21.286  25.167  1.00  0.00     0.261 C 
BRANCH  30  31
ATOM     31  O   UNL A   1      43.028  22.490  24.966  1.00  0.00    -0.460 OA
BRANCH  31  32
ATOM     32  C   UNL A   1      43.750  23.635  24.983  1.00  0.00     0.338 C 
ATOM     33  O   UNL A   1      44.691  23.933  24.257  1.00  0.00    -0.246 OA
BRANCH  32  34
ATOM     34  C   UNL A   1      43.122  24.585  25.914  1.00  0.00     0.060 A 
ATOM     35  C   UNL A   1      43.611  25.898  25.976  1.00  0.00     0.016 A 
ATOM     36  C   UNL A   1      42.083  24.174  26.750  1.00  0.00     0.016 A 
ATOM     37  C   UNL A   1      43.066  26.804  26.885  1.00  0.00     0.010 A 
ATOM     38  C   UNL A   1      41.556  25.077  27.677  1.00  0.00     0.010 A 
ATOM     39  C   UNL A   1      42.060  26.388  27.765  1.00  0.00    -0.014 A 
BRANCH  39  40
ATOM     40  C   UNL A   1      41.641  27.266  28.884  1.00  0.00     0.031 A 
ATOM     41  C   UNL A   1      42.400  27.195  30.181  1.00  0.00     0.074 A 
ATOM     42  C   UNL A   1      40.606  28.114  28.756  1.00  0.00     0.049 A 
ATOM     43  N   UNL A   1      42.170  27.808  31.313  1.00  0.00    -0.248 NA
ATOM     44  C   UNL A   1      43.577  26.310  30.202  1.00  0.00     0.031 C 
ATOM     45  C   UNL A   1      39.821  28.317  27.540  1.00  0.00     0.029 A 
ATOM     46  N   UNL A   1      40.031  28.957  29.675  1.00  0.00    -0.354 N 
ATOM     47  C   UNL A   1      43.161  27.375  32.183  1.00  0.00     0.074 A 
ATOM     48  C   UNL A   1      43.981  26.430  31.458  1.00  0.00     0.031 C 
ATOM     49  C   UNL A   1      38.854  29.217  27.792  1.00  0.00     0.029 A 
ATOM     50  C   UNL A   1      38.929  29.622  29.195  1.00  0.00     0.049 A 
ATOM     51  H   UNL A   1      40.376  29.074  30.588  1.00  0.00     0.167 HD
ATOM     52  C   UNL A   1      43.371  27.732  33.473  1.00  0.00     0.031 A 
ATOM     53  C   UNL A   1      38.063  30.438  29.826  1.00  0.00     0.031 A 
ATOM     54  C   UNL A   1      42.545  28.657  34.203  1.00  0.00     0.049 A 
ATOM     55  C   UNL A   1      38.264  30.748  31.286  1.00  0.00     0.074 A 
ATOM     56  C   UNL A   1      42.687  29.092  35.509  1.00  0.00     0.029 A 
ATOM     57  N   UNL A   1      41.416  29.279  33.693  1.00  0.00    -0.354 N 
ATOM     58  N   UNL A   1      39.220  30.354  32.094  1.00  0.00    -0.248 NA
ATOM     59  C   UNL A   1      37.265  31.621  31.922  1.00  0.00     0.031 C 
ATOM     60  C   UNL A   1      41.606  29.928  35.810  1.00  0.00     0.029 A 
ATOM     61  C   UNL A   1      40.833  30.069  34.669  1.00  0.00     0.049 A 
ATOM     62  H   UNL A   1      41.079  29.175  32.774  1.00  0.00     0.167 HD
ATOM     63  C   UNL A   1      38.956  30.957  33.319  1.00  0.00     0.074 A 
ATOM     64  C   UNL A   1      37.760  31.754  33.145  1.00  0.00     0.031 C 
ATOM     65  C   UNL A   1      39.644  30.859  34.484  1.00  0.00     0.031 A 
BRANCH  52  66
ATOM     66  C   UNL A   1      44.522  27.084  34.192  1.00  0.00    -0.014 A 
ATOM     67  C   UNL A   1      45.794  27.673  34.219  1.00  0.00     0.009 A 
ATOM     68  C   UNL A   1      44.315  25.881  34.886  1.00  0.00     0.009 A 
ATOM     69  C   UNL A   1      46.846  27.054  34.898  1.00  0.00     0.001 A 
ATOM     70  C   UNL A   1      45.361  25.280  35.589  1.00  0.00     0.001 A 
ATOM     71  C   UNL A   1      46.627  25.861  35.587  1.00  0.00     0.000 A 
ENDBRANCH  52  66
BRANCH  53  72
ATOM     72  C   UNL A   1      36.897  31.003  29.093  1.00  0.00    -0.014 A 
ATOM     73  C   UNL A   1      35.814  30.186  28.731  1.00  0.00     0.009 A 
ATOM     74  C   UNL A   1      36.879  32.356  28.720  1.00  0.00     0.009 A 
ATOM     75  C   UNL A   1      34.753  30.707  27.985  1.00  0.00     0.001 A 
ATOM     76  C   UNL A   1      35.801  32.881  28.003  1.00  0.00     0.001 A 
ATOM     77  C   UNL A   1      34.745  32.054  27.626  1.00  0.00     0.000 A 
ENDBRANCH  53  72
BRANCH  65  78
ATOM     78  C   UNL A   1      39.148  31.669  35.652  1.00  0.00    -0.014 A 
ATOM     79  C   UNL A   1      38.205  31.156  36.555  1.00  0.00     0.009 A 
ATOM     80  C   UNL A   1      39.671  32.954  35.875  1.00  0.00     0.009 A 
ATOM     81  C   UNL A   1      37.769  31.926  37.636  1.00  0.00     0.001 A 
ATOM     82  C   UNL A   1      39.257  33.708  36.974  1.00  0.00     0.001 A 
ATOM     83  C   UNL A   1      38.300  33.198  37.847  1.00  0.00     0.000 A 
ENDBRANCH  65  78
ENDBRANCH  39  40
ENDBRANCH  32  34
ENDBRANCH  31  32
ENDBRANCH  30  31
ENDBRANCH  29  30
ENDBRANCH  28  29
ENDBRANCH  27  28
ENDBRANCH   1  27
TORSDOF 20
ENDMDL
MODEL 2
REMARK VINA RESULT:      -9.9      1.140      5.928
REMARK SMILES NC(=O)C1CC[NH+](Cc2ccc(C(=O)OCCOCCOCCOC(=O)c3ccc(-c4c5nc(c(-c6ccccc6)c6ccc([nH]6)c(-c6ccccc6)c6nc(c(-c7ccccc7)c7ccc4[nH]7)C=C6)C=C5)cc3)cc2)CC1
REMARK SMILES IDX 19 1 18 2 17 3 16 4 15 5 13 6 14 7 12 8 9 9 10 10 76 11
REMARK SMILES IDX 11 12 75 13 8 14 7 15 4 16 5 17 78 18 6 19 77 20 2 22 1 23
REMARK SMILES IDX 3 26 20 27 21 28 22 29 23 30 24 31 25 32 26 33 27 34 28 35
REMARK SMILES IDX 74 36 29 37 73 38 30 39 31 40 32 41 67 42 33 43 72 44 66 45
REMARK SMILES IDX 68 46 34 47 71 48 65 49 64 50 35 52 57 53 42 54 56 55 43 56
REMARK SMILES IDX 46 57 55 58 69 59 44 60 45 61 54 63 70 64 47 65 36 66 37 67
REMARK SMILES IDX 41 68 38 69 40 70 39 71 58 72 59 73 63 74 60 75 62 76 61 77
REMARK SMILES IDX 48 78 49 79 53 80 50 81 52 82 51 83
REMARK H PARENT 7 21 1 24 1 25 68 51 46 62
REMARK Flexibility Score: inf
ROOT
ATOM      1  C   UNL A   1      41.651  20.211  27.327  1.00  0.00     0.188 C 
ENDROOT
BRANCH   1   2
ATOM      2  O   UNL A   1      40.732  21.245  27.043  1.00  0.00    -0.376 OA
BRANCH   2   3
ATOM      3  C   UNL A   1      39.743  21.094  26.037  1.00  0.00     0.202 C 
BRANCH   3   4
ATOM      4  C   UNL A   1      38.496  21.985  25.912  1.00  0.00     0.261 C 
BRANCH   4   5
ATOM      5  O   UNL A   1      37.752  21.851  24.701  1.00  0.00    -0.460 OA
BRANCH   5   6
ATOM      6  C   UNL A   1      36.510  21.323  24.848  1.00  0.00     0.338 C 
ATOM      7  O   UNL A   1      36.237  20.150  25.036  1.00  0.00    -0.246 OA
BRANCH   6   8
ATOM      8  C   UNL A   1      35.511  22.411  24.953  1.00  0.00     0.060 A 
ATOM      9  C   UNL A   1      33.738  24.573  25.020  1.00  0.00     0.006 A 
ATOM     10  C   UNL A   1      34.077  23.976  23.796  1.00  0.00     0.010 A 
ATOM     11  C   UNL A   1      34.163  23.966  26.213  1.00  0.00     0.010 A 
ATOM     12  C   UNL A   1      34.966  22.905  23.764  1.00  0.00     0.016 A 
ATOM     13  C   UNL A   1      35.077  22.913  26.183  1.00  0.00     0.016 A 
BRANCH   9  14
ATOM     14  C   UNL A   1      33.126  25.969  25.021  1.00  0.00     0.299 C 
BRANCH  14  15
ATOM     15  N   UNL A   1      31.925  26.112  24.152  1.00  0.00    -0.331 N 
ATOM     16  C   UNL A   1      30.021  27.893  22.769  1.00  0.00     0.089 C 
ATOM     17  C   UNL A   1      29.606  27.071  23.988  1.00  0.00     0.075 C 
ATOM     18  C   UNL A   1      31.028  27.044  21.983  1.00  0.00     0.075 C 
ATOM     19  C   UNL A   1      30.808  26.733  24.868  1.00  0.00     0.263 C 
ATOM     20  C   UNL A   1      32.248  26.724  22.850  1.00  0.00     0.263 C 
ATOM     21  H   UNL A   1      31.595  25.177  23.914  1.00  0.00     0.348 HD
BRANCH  16  22
ATOM     22  C   UNL A   1      30.612  29.280  23.059  1.00  0.00     0.220 C 
ATOM     23  N   UNL A   1      30.944  30.072  22.004  1.00  0.00    -0.369 N 
ATOM     24  H   UNL A   1      31.323  30.966  22.160  1.00  0.00     0.159 HD
ATOM     25  H   UNL A   1      30.803  29.750  21.084  1.00  0.00     0.159 HD
ATOM     26  O   UNL A   1      30.858  29.678  24.195  1.00  0.00    -0.275 OA
ENDBRANCH  16  22
ENDBRANCH  14  15
ENDBRANCH   9  14
ENDBRANCH   6   8
ENDBRANCH   5   6
ENDBRANCH   4   5
ENDBRANCH   3   4
ENDBRANCH   2   3
ENDBRANCH   1   2
BRANCH   1  27
ATOM     27  C   UNL A   1      42.601  19.690  26.230  1.00  0.00     0.188 C 
BRANCH  27  28
ATOM     28  O   UNL A   1      43.114  20.591  25.279  1.00  0.00    -0.376 OA
BRANCH  28  29
ATOM     29  C   UNL A   1      44.503  20.622  25.000  1.00  0.00     0.202 C 
BRANCH  29  30
ATOM     30  C   UNL A   1      45.476  21.750  25.397  1.00  0.00     0.261 C 
BRANCH  30  31
ATOM     31  O   UNL A   1      44.999  22.787  26.258  1.00  0.00    -0.460 OA
BRANCH  31  32
ATOM     32  C   UNL A   1      44.611  23.928  25.642  1.00  0.00     0.338 C 
ATOM     33  O   UNL A   1      44.714  24.204  24.453  1.00  0.00    -0.246 OA
BRANCH  32  34
ATOM     34  C   UNL A   1      43.862  24.759  26.597  1.00  0.00     0.060 A 
ATOM     35  C   UNL A   1      44.200  26.114  26.728  1.00  0.00     0.016 A 
ATOM     36  C   UNL A   1      42.857  24.198  27.387  1.00  0.00     0.016 A 
ATOM     37  C   UNL A   1      43.538  26.911  27.662  1.00  0.00     0.010 A 
ATOM     38  C   UNL A   1      42.214  24.993  28.338  1.00  0.00     0.010 A 
ATOM     39  C   UNL A   1      42.567  26.347  28.497  1.00  0.00    -0.014 A 
BRANCH  39  40
ATOM     40  C   UNL A   1      42.030  27.120  29.642  1.00  0.00     0.031 A 
ATOM     41  C   UNL A   1      40.746  27.882  29.459  1.00  0.00     0.074 A 
ATOM     42  C   UNL A   1      42.666  27.148  30.826  1.00  0.00     0.049 A 
ATOM     43  N   UNL A   1      40.130  28.683  30.290  1.00  0.00    -0.248 NA
ATOM     44  C   UNL A   1      40.067  27.718  28.162  1.00  0.00     0.031 C 
ATOM     45  C   UNL A   1      43.888  26.415  31.149  1.00  0.00     0.029 A 
ATOM     46  N   UNL A   1      42.371  27.838  31.976  1.00  0.00    -0.354 N 
ATOM     47  C   UNL A   1      39.002  29.130  29.614  1.00  0.00     0.074 A 
ATOM     48  C   UNL A   1      39.029  28.530  28.298  1.00  0.00     0.031 C 
ATOM     49  C   UNL A   1      44.248  26.706  32.412  1.00  0.00     0.029 A 
ATOM     50  C   UNL A   1      43.305  27.675  32.969  1.00  0.00     0.049 A 
ATOM     51  H   UNL A   1      41.567  28.396  32.078  1.00  0.00     0.167 HD
ATOM     52  C   UNL A   1      38.028  29.964  30.050  1.00  0.00     0.031 A 
ATOM     53  C   UNL A   1      43.403  28.264  34.176  1.00  0.00     0.031 A 
ATOM     54  C   UNL A   1      38.010  30.578  31.352  1.00  0.00     0.049 A 
ATOM     55  C   UNL A   1      42.357  29.261  34.602  1.00  0.00     0.074 A 
ATOM     56  C   UNL A   1      37.058  31.427  31.890  1.00  0.00     0.029 A 
ATOM     57  N   UNL A   1      38.993  30.417  32.314  1.00  0.00    -0.354 N 
ATOM     58  N   UNL A   1      41.280  29.657  33.967  1.00  0.00    -0.248 NA
ATOM     59  C   UNL A   1      42.540  29.892  35.920  1.00  0.00     0.031 C 
ATOM     60  C   UNL A   1      37.499  31.831  33.154  1.00  0.00     0.029 A 
ATOM     61  C   UNL A   1      38.689  31.177  33.430  1.00  0.00     0.049 A 
ATOM     62  H   UNL A   1      39.791  29.848  32.219  1.00  0.00     0.167 HD
ATOM     63  C   UNL A   1      40.643  30.552  34.818  1.00  0.00     0.074 A 
ATOM     64  C   UNL A   1      41.445  30.632  36.020  1.00  0.00     0.031 C 
ATOM     65  C   UNL A   1      39.494  31.247  34.622  1.00  0.00     0.031 A 
BRANCH  52  66
ATOM     66  C   UNL A   1      36.920  30.297  29.090  1.00  0.00    -0.014 A 
ATOM     67  C   UNL A   1      35.960  29.343  28.720  1.00  0.00     0.009 A 
ATOM     68  C   UNL A   1      36.817  31.600  28.577  1.00  0.00     0.009 A 
ATOM     69  C   UNL A   1      34.938  29.678  27.829  1.00  0.00     0.001 A 
ATOM     70  C   UNL A   1      35.776  31.940  27.711  1.00  0.00     0.001 A 
ATOM     71  C   UNL A   1      34.842  30.977  27.331  1.00  0.00     0.000 A 
ENDBRANCH  52  66
BRANCH  53  72
ATOM     72  C   UNL A   1      44.555  27.958  35.068  1.00  0.00    -0.014 A 
ATOM     73  C   UNL A   1      44.430  27.018  36.103  1.00  0.00     0.009 A 
ATOM     74  C   UNL A   1      45.775  28.634  34.911  1.00  0.00     0.009 A 
ATOM     75  C   UNL A   1      45.494  26.784  36.979  1.00  0.00     0.001 A 
ATOM     76  C   UNL A   1      46.848  28.373  35.768  1.00  0.00     0.001 A 
ATOM     77  C   UNL A   1      46.702  27.457  36.808  1.00  0.00     0.000 A 
ENDBRANCH  53  72
BRANCH  65  78
ATOM     78  C   UNL A   1      39.010  32.119  35.749  1.00  0.00    -0.014 A 
ATOM     79  C   UNL A   1      38.159  31.624  36.749  1.00  0.00     0.009 A 
ATOM     80  C   UNL A   1      39.450  33.451  35.832  1.00  0.00     0.009 A 
ATOM     81  C   UNL A   1      37.731  32.454  37.788  1.00  0.00     0.001 A 
ATOM     82  C   UNL A   1      39.046  34.268  36.889  1.00  0.00     0.001 A 
ATOM     83  C   UNL A   1      38.180  33.772  37.860  1.00  0.00     0.000 A 
ENDBRANCH  65  78
ENDBRANCH  39  40
ENDBRANCH  32  34
ENDBRANCH  31  32
ENDBRANCH  30  31
ENDBRANCH  29  30
ENDBRANCH  28  29
ENDBRANCH  27  28
ENDBRANCH   1  27
TORSDOF 20
ENDMDL
MODEL 3
REMARK VINA RESULT:      -9.7      1.350      1.982
REMARK SMILES NC(=O)C1CC[NH+](Cc2ccc(C(=O)OCCOCCOCCOC(=O)c3ccc(-c4c5nc(c(-c6ccccc6)c6ccc([nH]6)c(-c6ccccc6)c6nc(c(-c7ccccc7)c7ccc4[nH]7)C=C6)C=C5)cc3)cc2)CC1
REMARK SMILES IDX 19 1 18 2 17 3 16 4 15 5 13 6 14 7 12 8 9 9 10 10 76 11
REMARK SMILES IDX 11 12 75 13 8 14 7 15 4 16 5 17 78 18 6 19 77 20 2 22 1 23
REMARK SMILES IDX 3 26 20 27 21 28 22 29 23 30 24 31 25 32 26 33 27 34 28 35
REMARK SMILES IDX 74 36 29 37 73 38 30 39 31 40 32 41 67 42 33 43 72 44 66 45
REMARK SMILES IDX 68 46 34 47 71 48 65 49 64 50 35 52 57 53 42 54 56 55 43 56
REMARK SMILES IDX 46 57 55 58 69 59 44 60 45 61 54 63 70 64 47 65 36 66 37 67
REMARK SMILES IDX 41 68 38 69 40 70 39 71 58 72 59 73 63 74 60 75 62 76 61 77
REMARK SMILES IDX 48 78 49 79 53 80 50 81 52 82 51 83
REMARK H PARENT 7 21 1 24 1 25 68 51 46 62
REMARK Flexibility Score: inf
ROOT
ATOM      1  C   UNL A   1      39.767  21.357  25.927  1.00  0.00     0.188 C 
ENDROOT
BRANCH   1   2
ATOM      2  O   UNL A   1      38.361  21.471  25.987  1.00  0.00    -0.376 OA
BRANCH   2   3
ATOM      3  C   UNL A   1      37.546  21.099  24.887  1.00  0.00     0.202 C 
BRANCH   3   4
ATOM      4  C   UNL A   1      36.295  20.212  25.001  1.00  0.00     0.261 C 
BRANCH   4   5
ATOM      5  O   UNL A   1      35.104  20.866  25.439  1.00  0.00    -0.460 OA
BRANCH   5   6
ATOM      6  C   UNL A   1      34.113  20.929  24.514  1.00  0.00     0.338 C 
ATOM      7  O   UNL A   1      33.305  20.053  24.253  1.00  0.00    -0.246 OA
BRANCH   6   8
ATOM      8  C   UNL A   1      34.004  22.308  23.985  1.00  0.00     0.060 A 
ATOM      9  C   UNL A   1      33.730  24.970  23.172  1.00  0.00     0.006 A 
ATOM     10  C   UNL A   1      34.512  24.651  24.292  1.00  0.00     0.010 A 
ATOM     11  C   UNL A   1      33.233  23.929  22.372  1.00  0.00     0.010 A 
ATOM     12  C   UNL A   1      34.641  23.326  24.701  1.00  0.00     0.016 A 
ATOM     13  C   UNL A   1      33.334  22.603  22.794  1.00  0.00     0.016 A 
BRANCH   9  14
ATOM     14  C   UNL A   1      33.252  26.404  22.985  1.00  0.00     0.299 C 
BRANCH  14  15
ATOM     15  N   UNL A   1      32.072  26.770  23.816  1.00  0.00    -0.331 N 
ATOM     16  C   UNL A   1      30.040  25.951  25.795  1.00  0.00     0.089 C 
ATOM     17  C   UNL A   1      29.673  26.225  24.337  1.00  0.00     0.075 C 
ATOM     18  C   UNL A   1      31.155  26.938  26.164  1.00  0.00     0.075 C 
ATOM     19  C   UNL A   1      30.873  26.030  23.414  1.00  0.00     0.263 C 
ATOM     20  C   UNL A   1      32.372  26.730  25.260  1.00  0.00     0.263 C 
ATOM     21  H   UNL A   1      31.848  27.748  23.634  1.00  0.00     0.348 HD
BRANCH  16  22
ATOM     22  C   UNL A   1      30.474  24.516  26.125  1.00  0.00     0.220 C 
ATOM     23  N   UNL A   1      30.403  23.579  25.142  1.00  0.00    -0.369 N 
ATOM     24  H   UNL A   1      30.675  22.651  25.326  1.00  0.00     0.159 HD
ATOM     25  H   UNL A   1      30.079  23.829  24.246  1.00  0.00     0.159 HD
ATOM     26  O   UNL A   1      30.819  24.165  27.250  1.00  0.00    -0.275 OA
ENDBRANCH  16  22
ENDBRANCH  14  15
ENDBRANCH   9  14
ENDBRANCH   6   8
ENDBRANCH   5   6
ENDBRANCH   4   5
ENDBRANCH   3   4
ENDBRANCH   2   3
ENDBRANCH   1   2
BRANCH   1  27
ATOM     27  C   UNL A   1      40.449  19.994  26.158  1.00  0.00     0.188 C 
BRANCH  27  28
ATOM     28  O   UNL A   1      41.611  19.674  25.434  1.00  0.00    -0.376 OA
BRANCH  28  29
ATOM     29  C   UNL A   1      42.881  20.104  25.893  1.00  0.00     0.202 C 
BRANCH  29  30
ATOM     30  C   UNL A   1      43.146  21.324  26.798  1.00  0.00     0.261 C 
BRANCH  30  31
ATOM     31  O   UNL A   1      43.943  22.392  26.281  1.00  0.00    -0.460 OA
BRANCH  31  32
ATOM     32  C   UNL A   1      43.290  23.285  25.500  1.00  0.00     0.338 C 
ATOM     33  O   UNL A   1      43.031  23.180  24.307  1.00  0.00    -0.246 OA
BRANCH  32  34
ATOM     34  C   UNL A   1      42.762  24.367  26.344  1.00  0.00     0.060 A 
ATOM     35  C   UNL A   1      43.480  25.569  26.434  1.00  0.00     0.016 A 
ATOM     36  C   UNL A   1      41.586  24.186  27.073  1.00  0.00     0.016 A 
ATOM     37  C   UNL A   1      43.025  26.592  27.267  1.00  0.00     0.010 A 
ATOM     38  C   UNL A   1      41.147  25.203  27.924  1.00  0.00     0.010 A 
ATOM     39  C   UNL A   1      41.877  26.401  28.043  1.00  0.00    -0.014 A 
BRANCH  39  40
ATOM     40  C   UNL A   1      41.520  27.381  29.097  1.00  0.00     0.031 A 
ATOM     41  C   UNL A   1      42.304  27.377  30.381  1.00  0.00     0.074 A 
ATOM     42  C   UNL A   1      40.519  28.261  28.922  1.00  0.00     0.049 A 
ATOM     43  N   UNL A   1      42.124  28.086  31.466  1.00  0.00    -0.248 NA
ATOM     44  C   UNL A   1      43.442  26.445  30.450  1.00  0.00     0.031 C 
ATOM     45  C   UNL A   1      39.717  28.403  27.708  1.00  0.00     0.029 A 
ATOM     46  N   UNL A   1      40.001  29.198  29.782  1.00  0.00    -0.354 N 
ATOM     47  C   UNL A   1      43.115  27.679  32.349  1.00  0.00     0.074 A 
ATOM     48  C   UNL A   1      43.878  26.645  31.685  1.00  0.00     0.031 C 
ATOM     49  C   UNL A   1      38.796  29.362  27.907  1.00  0.00     0.029 A 
ATOM     50  C   UNL A   1      38.918  29.871  29.272  1.00  0.00     0.049 A 
ATOM     51  H   UNL A   1      40.370  29.370  30.677  1.00  0.00     0.167 HD
ATOM     52  C   UNL A   1      43.368  28.125  33.603  1.00  0.00     0.031 A 
ATOM     53  C   UNL A   1      38.102  30.772  29.852  1.00  0.00     0.031 A 
ATOM     54  C   UNL A   1      42.598  29.140  34.273  1.00  0.00     0.049 A 
ATOM     55  C   UNL A   1      38.348  31.184  31.280  1.00  0.00     0.074 A 
ATOM     56  C   UNL A   1      42.787  29.668  35.538  1.00  0.00     0.029 A 
ATOM     57  N   UNL A   1      41.486  29.770  33.737  1.00  0.00    -0.354 N 
ATOM     58  N   UNL A   1      39.303  30.812  32.099  1.00  0.00    -0.248 NA
ATOM     59  C   UNL A   1      37.401  32.148  31.864  1.00  0.00     0.031 C 
ATOM     60  C   UNL A   1      41.750  30.572  35.792  1.00  0.00     0.029 A 
ATOM     61  C   UNL A   1      40.958  30.657  34.658  1.00  0.00     0.049 A 
ATOM     62  H   UNL A   1      41.125  29.609  32.835  1.00  0.00     0.167 HD
ATOM     63  C   UNL A   1      39.092  31.520  33.277  1.00  0.00     0.074 A 
ATOM     64  C   UNL A   1      37.928  32.353  33.063  1.00  0.00     0.031 C 
ATOM     65  C   UNL A   1      39.800  31.483  34.433  1.00  0.00     0.031 A 
BRANCH  52  66
ATOM     66  C   UNL A   1      44.505  27.485  34.349  1.00  0.00    -0.014 A 
ATOM     67  C   UNL A   1      44.315  26.331  35.125  1.00  0.00     0.009 A 
ATOM     68  C   UNL A   1      45.796  28.026  34.241  1.00  0.00     0.009 A 
ATOM     69  C   UNL A   1      45.388  25.752  35.805  1.00  0.00     0.001 A 
ATOM     70  C   UNL A   1      46.873  27.427  34.898  1.00  0.00     0.001 A 
ATOM     71  C   UNL A   1      46.667  26.296  35.686  1.00  0.00     0.000 A 
ENDBRANCH  52  66
BRANCH  53  72
ATOM     72  C   UNL A   1      36.945  31.329  29.099  1.00  0.00    -0.014 A 
ATOM     73  C   UNL A   1      36.958  32.658  28.645  1.00  0.00     0.009 A 
ATOM     74  C   UNL A   1      35.805  30.545  28.863  1.00  0.00     0.009 A 
ATOM     75  C   UNL A   1      35.842  33.196  27.998  1.00  0.00     0.001 A 
ATOM     76  C   UNL A   1      34.704  31.076  28.187  1.00  0.00     0.001 A 
ATOM     77  C   UNL A   1      34.720  32.403  27.765  1.00  0.00     0.000 A 
ENDBRANCH  53  72
BRANCH  65  78
ATOM     78  C   UNL A   1      39.365  32.402  35.543  1.00  0.00    -0.014 A 
ATOM     79  C   UNL A   1      39.868  33.708  35.656  1.00  0.00     0.009 A 
ATOM     80  C   UNL A   1      38.402  31.965  36.466  1.00  0.00     0.009 A 
ATOM     81  C   UNL A   1      39.440  34.543  36.691  1.00  0.00     0.001 A 
ATOM     82  C   UNL A   1      37.953  32.812  37.480  1.00  0.00     0.001 A 
ATOM     83  C   UNL A   1      38.479  34.096  37.598  1.00  0.00     0.000 A 
ENDBRANCH  65  78
ENDBRANCH  39  40
ENDBRANCH  32  34
ENDBRANCH  31  32
ENDBRANCH  30  31
ENDBRANCH  29  30
ENDBRANCH  28  29
ENDBRANCH  27  28
ENDBRANCH   1  27
TORSDOF 20
ENDMDL
