MODEL 1
REMARK VINA RESULT:     -10.0      0.000      0.000
REMARK SMILES COc1ccc(Cc2ncc(C(=O)OCCOCCOCCOC(=O)c3ccc(-c4c5nc(c(-c6ccccc6)c6ccc([nH]6)c(-c6ccccc6)c6nc(c(-c7ccccc7)c7ccc4[nH]7)C=C6)C=C5)cc3)c(C)n2)cn1
REMARK SMILES IDX 18 1 17 2 16 3 15 4 14 5 12 6 13 7 11 8 8 9 9 10 76 11 10 12
REMARK SMILES IDX 74 13 75 14 7 15 6 16 3 17 4 18 78 19 5 20 77 21 2 22 1 23
REMARK SMILES IDX 19 24 20 25 21 26 22 27 23 28 24 29 25 30 26 31 27 32 73 33
REMARK SMILES IDX 28 34 72 35 29 36 30 37 31 38 66 39 32 40 71 41 65 42 67 43
REMARK SMILES IDX 33 44 70 45 64 46 63 47 34 49 56 50 41 51 55 52 42 53 45 54
REMARK SMILES IDX 54 55 68 56 43 57 44 58 53 60 69 61 46 62 35 63 36 64 40 65
REMARK SMILES IDX 37 66 39 67 38 68 57 69 58 70 62 71 59 72 61 73 60 74 47 75
REMARK SMILES IDX 48 76 52 77 49 78 51 79 50 80
REMARK H PARENT 67 48 45 59
REMARK Flexibility Score: inf
ROOT
ATOM      1  C   UNL A   1      33.379  37.404  31.792  1.00  0.00     0.188 C 
ENDROOT
BRANCH   1   2
ATOM      2  O   UNL A   1      33.046  37.195  30.423  1.00  0.00    -0.376 OA
BRANCH   2   3
ATOM      3  C   UNL A   1      32.958  35.863  29.921  1.00  0.00     0.202 C 
BRANCH   3   4
ATOM      4  C   UNL A   1      34.239  35.020  29.850  1.00  0.00     0.261 C 
BRANCH   4   5
ATOM      5  O   UNL A   1      34.011  33.668  29.407  1.00  0.00    -0.460 OA
BRANCH   5   6
ATOM      6  C   UNL A   1      34.592  33.317  28.236  1.00  0.00     0.341 C 
ATOM      7  O   UNL A   1      35.513  33.894  27.682  1.00  0.00    -0.246 OA
BRANCH   6   8
ATOM      8  C   UNL A   1      34.126  31.995  27.786  1.00  0.00     0.099 A 
ATOM      9  C   UNL A   1      33.569  29.456  26.961  1.00  0.00     0.133 A 
ATOM     10  N   UNL A   1      34.769  29.678  27.524  1.00  0.00    -0.240 NA
ATOM     11  N   UNL A   1      32.613  30.402  26.831  1.00  0.00    -0.237 NA
ATOM     12  C   UNL A   1      35.020  30.947  27.915  1.00  0.00     0.130 A 
ATOM     13  C   UNL A   1      32.891  31.668  27.256  1.00  0.00     0.056 A 
ATOM     14  C   UNL A   1      31.797  32.666  27.021  1.00  0.00     0.068 C 
BRANCH   9  15
ATOM     15  C   UNL A   1      33.347  28.122  26.286  1.00  0.00     0.114 C 
BRANCH  15  16
ATOM     16  C   UNL A   1      32.370  28.104  25.138  1.00  0.00    -0.022 A 
ATOM     17  C   UNL A   1      30.550  28.248  23.085  1.00  0.00     0.212 A 
ATOM     18  C   UNL A   1      30.259  27.438  24.172  1.00  0.00     0.069 A 
ATOM     19  N   UNL A   1      31.694  28.949  22.965  1.00  0.00    -0.222 NA
ATOM     20  C   UNL A   1      31.181  27.372  25.213  1.00  0.00     0.011 A 
ATOM     21  C   UNL A   1      32.573  28.868  23.993  1.00  0.00     0.119 A 
BRANCH  17  22
ATOM     22  O   UNL A   1      29.700  28.324  22.012  1.00  0.00    -0.481 OA
ATOM     23  C   UNL A   1      28.829  29.446  22.119  1.00  0.00     0.280 C 
ENDBRANCH  17  22
ENDBRANCH  15  16
ENDBRANCH   9  15
ENDBRANCH   6   8
ENDBRANCH   5   6
ENDBRANCH   4   5
ENDBRANCH   3   4
ENDBRANCH   2   3
ENDBRANCH   1   2
BRANCH   1  24
ATOM     24  C   UNL A   1      33.445  36.196  32.752  1.00  0.00     0.188 C 
BRANCH  24  25
ATOM     25  O   UNL A   1      34.679  36.081  33.425  1.00  0.00    -0.376 OA
BRANCH  25  26
ATOM     26  C   UNL A   1      34.884  34.955  34.261  1.00  0.00     0.202 C 
BRANCH  26  27
ATOM     27  C   UNL A   1      36.135  34.062  34.137  1.00  0.00     0.261 C 
BRANCH  27  28
ATOM     28  O   UNL A   1      35.935  32.655  33.948  1.00  0.00    -0.460 OA
BRANCH  28  29
ATOM     29  C   UNL A   1      35.639  32.235  32.695  1.00  0.00     0.338 C 
ATOM     30  O   UNL A   1      34.558  32.275  32.142  1.00  0.00    -0.246 OA
BRANCH  29  31
ATOM     31  C   UNL A   1      36.909  31.867  32.032  1.00  0.00     0.060 A 
ATOM     32  C   UNL A   1      37.101  32.209  30.686  1.00  0.00     0.016 A 
ATOM     33  C   UNL A   1      37.902  31.181  32.736  1.00  0.00     0.016 A 
ATOM     34  C   UNL A   1      38.281  31.843  30.034  1.00  0.00     0.010 A 
ATOM     35  C   UNL A   1      39.074  30.799  32.076  1.00  0.00     0.010 A 
ATOM     36  C   UNL A   1      39.259  31.104  30.714  1.00  0.00    -0.014 A 
BRANCH  36  37
ATOM     37  C   UNL A   1      40.390  30.497  29.970  1.00  0.00     0.031 A 
ATOM     38  C   UNL A   1      41.640  31.309  29.775  1.00  0.00     0.074 A 
ATOM     39  C   UNL A   1      40.315  29.249  29.474  1.00  0.00     0.049 A 
ATOM     40  N   UNL A   1      42.732  31.012  29.116  1.00  0.00    -0.248 NA
ATOM     41  C   UNL A   1      41.656  32.640  30.404  1.00  0.00     0.031 C 
ATOM     42  C   UNL A   1      39.184  28.337  29.631  1.00  0.00     0.029 A 
ATOM     43  N   UNL A   1      41.222  28.537  28.728  1.00  0.00    -0.354 N 
ATOM     44  C   UNL A   1      43.563  32.118  29.251  1.00  0.00     0.074 A 
ATOM     45  C   UNL A   1      42.835  33.105  30.018  1.00  0.00     0.031 C 
ATOM     46  C   UNL A   1      39.465  27.184  29.000  1.00  0.00     0.029 A 
ATOM     47  C   UNL A   1      40.779  27.290  28.366  1.00  0.00     0.049 A 
ATOM     48  H   UNL A   1      42.108  28.888  28.477  1.00  0.00     0.167 HD
ATOM     49  C   UNL A   1      44.822  32.296  28.786  1.00  0.00     0.031 A 
ATOM     50  C   UNL A   1      41.359  26.349  27.595  1.00  0.00     0.031 A 
ATOM     51  C   UNL A   1      45.541  31.326  28.004  1.00  0.00     0.049 A 
ATOM     52  C   UNL A   1      42.719  26.611  27.001  1.00  0.00     0.074 A 
ATOM     53  C   UNL A   1      46.824  31.412  27.490  1.00  0.00     0.029 A 
ATOM     54  N   UNL A   1      45.035  30.096  27.614  1.00  0.00    -0.354 N 
ATOM     55  N   UNL A   1      43.505  27.650  27.151  1.00  0.00    -0.248 NA
ATOM     56  C   UNL A   1      43.274  25.561  26.132  1.00  0.00     0.031 C 
ATOM     57  C   UNL A   1      47.071  30.258  26.738  1.00  0.00     0.029 A 
ATOM     58  C   UNL A   1      45.967  29.427  26.838  1.00  0.00     0.049 A 
ATOM     59  H   UNL A   1      44.145  29.751  27.853  1.00  0.00     0.167 HD
ATOM     60  C   UNL A   1      44.658  27.364  26.428  1.00  0.00     0.074 A 
ATOM     61  C   UNL A   1      44.473  26.051  25.847  1.00  0.00     0.031 C 
ATOM     62  C   UNL A   1      45.772  28.120  26.266  1.00  0.00     0.031 A 
BRANCH  49  63
ATOM     63  C   UNL A   1      45.481  33.614  29.082  1.00  0.00    -0.014 A 
ATOM     64  C   UNL A   1      45.442  34.674  28.162  1.00  0.00     0.009 A 
ATOM     65  C   UNL A   1      46.146  33.801  30.305  1.00  0.00     0.009 A 
ATOM     66  C   UNL A   1      46.093  35.879  28.442  1.00  0.00     0.001 A 
ATOM     67  C   UNL A   1      46.768  35.017  30.595  1.00  0.00     0.001 A 
ATOM     68  C   UNL A   1      46.750  36.049  29.659  1.00  0.00     0.000 A 
ENDBRANCH  49  63
BRANCH  50  69
ATOM     69  C   UNL A   1      40.658  25.066  27.325  1.00  0.00    -0.014 A 
ATOM     70  C   UNL A   1      39.477  25.045  26.567  1.00  0.00     0.009 A 
ATOM     71  C   UNL A   1      41.147  23.859  27.848  1.00  0.00     0.009 A 
ATOM     72  C   UNL A   1      38.788  23.848  26.361  1.00  0.00     0.001 A 
ATOM     73  C   UNL A   1      40.472  22.659  27.615  1.00  0.00     0.001 A 
ATOM     74  C   UNL A   1      39.287  22.656  26.881  1.00  0.00     0.000 A 
ENDBRANCH  50  69
BRANCH  62  75
ATOM     75  C   UNL A   1      46.899  27.528  25.463  1.00  0.00    -0.014 A 
ATOM     76  C   UNL A   1      47.019  27.760  24.084  1.00  0.00     0.009 A 
ATOM     77  C   UNL A   1      47.880  26.758  26.110  1.00  0.00     0.009 A 
ATOM     78  C   UNL A   1      48.080  27.204  23.365  1.00  0.00     0.001 A 
ATOM     79  C   UNL A   1      48.955  26.231  25.394  1.00  0.00     0.001 A 
ATOM     80  C   UNL A   1      49.050  26.445  24.021  1.00  0.00     0.000 A 
ENDBRANCH  62  75
ENDBRANCH  36  37
ENDBRANCH  29  31
ENDBRANCH  28  29
ENDBRANCH  27  28
ENDBRANCH  26  27
ENDBRANCH  25  26
ENDBRANCH  24  25
ENDBRANCH   1  24
TORSDOF 20
ENDMDL
MODEL 2
REMARK VINA RESULT:      -9.9      3.717      6.428
REMARK SMILES COc1ccc(Cc2ncc(C(=O)OCCOCCOCCOC(=O)c3ccc(-c4c5nc(c(-c6ccccc6)c6ccc([nH]6)c(-c6ccccc6)c6nc(c(-c7ccccc7)c7ccc4[nH]7)C=C6)C=C5)cc3)c(C)n2)cn1
REMARK SMILES IDX 18 1 17 2 16 3 15 4 14 5 12 6 13 7 11 8 8 9 9 10 76 11 10 12
REMARK SMILES IDX 74 13 75 14 7 15 6 16 3 17 4 18 78 19 5 20 77 21 2 22 1 23
REMARK SMILES IDX 19 24 20 25 21 26 22 27 23 28 24 29 25 30 26 31 27 32 73 33
REMARK SMILES IDX 28 34 72 35 29 36 30 37 31 38 66 39 32 40 71 41 65 42 67 43
REMARK SMILES IDX 33 44 70 45 64 46 63 47 34 49 56 50 41 51 55 52 42 53 45 54
REMARK SMILES IDX 54 55 68 56 43 57 44 58 53 60 69 61 46 62 35 63 36 64 40 65
REMARK SMILES IDX 37 66 39 67 38 68 57 69 58 70 62 71 59 72 61 73 60 74 47 75
REMARK SMILES IDX 48 76 52 77 49 78 51 79 50 80
REMARK H PARENT 67 48 45 59
REMARK Flexibility Score: inf
ROOT
ATOM      1  C   UNL A   1      31.628  24.026  26.498  1.00  0.00     0.188 C 
ENDROOT
BRANCH   1   2
ATOM      2  O   UNL A   1      31.886  23.203  27.632  1.00  0.00    -0.376 OA
BRANCH   2   3
ATOM      3  C   UNL A   1      33.210  22.726  27.862  1.00  0.00     0.202 C 
BRANCH   3   4
ATOM      4  C   UNL A   1      33.617  21.374  27.259  1.00  0.00     0.261 C 
BRANCH   4   5
ATOM      5  O   UNL A   1      34.859  21.423  26.530  1.00  0.00    -0.460 OA
BRANCH   5   6
ATOM      6  C   UNL A   1      34.787  21.138  25.209  1.00  0.00     0.341 C 
ATOM      7  O   UNL A   1      34.869  20.032  24.700  1.00  0.00    -0.246 OA
BRANCH   6   8
ATOM      8  C   UNL A   1      34.368  22.316  24.432  1.00  0.00     0.099 A 
ATOM      9  C   UNL A   1      33.399  24.302  22.833  1.00  0.00     0.133 A 
ATOM     10  N   UNL A   1      32.709  23.149  22.881  1.00  0.00    -0.240 NA
ATOM     11  N   UNL A   1      34.508  24.545  23.566  1.00  0.00    -0.237 NA
ATOM     12  C   UNL A   1      33.217  22.182  23.675  1.00  0.00     0.130 A 
ATOM     13  C   UNL A   1      34.981  23.554  24.375  1.00  0.00     0.056 A 
ATOM     14  C   UNL A   1      36.246  23.890  25.108  1.00  0.00     0.068 C 
BRANCH   9  15
ATOM     15  C   UNL A   1      33.011  25.309  21.774  1.00  0.00     0.114 C 
BRANCH  15  16
ATOM     16  C   UNL A   1      32.264  26.528  22.248  1.00  0.00    -0.022 A 
ATOM     17  C   UNL A   1      30.989  28.735  23.274  1.00  0.00     0.212 A 
ATOM     18  C   UNL A   1      30.237  27.600  23.009  1.00  0.00     0.069 A 
ATOM     19  N   UNL A   1      32.310  28.826  23.028  1.00  0.00    -0.222 NA
ATOM     20  C   UNL A   1      30.889  26.482  22.494  1.00  0.00     0.011 A 
ATOM     21  C   UNL A   1      32.918  27.724  22.529  1.00  0.00     0.119 A 
BRANCH  17  22
ATOM     22  O   UNL A   1      30.398  29.880  23.744  1.00  0.00    -0.481 OA
ATOM     23  C   UNL A   1      29.093  30.049  23.200  1.00  0.00     0.280 C 
ENDBRANCH  17  22
ENDBRANCH  15  16
ENDBRANCH   9  15
ENDBRANCH   6   8
ENDBRANCH   5   6
ENDBRANCH   4   5
ENDBRANCH   3   4
ENDBRANCH   2   3
ENDBRANCH   1   2
BRANCH   1  24
ATOM     24  C   UNL A   1      32.361  25.378  26.357  1.00  0.00     0.188 C 
BRANCH  24  25
ATOM     25  O   UNL A   1      31.691  26.448  26.986  1.00  0.00    -0.376 OA
BRANCH  25  26
ATOM     26  C   UNL A   1      31.851  27.749  26.446  1.00  0.00     0.202 C 
BRANCH  26  27
ATOM     27  C   UNL A   1      32.420  28.915  27.281  1.00  0.00     0.261 C 
BRANCH  27  28
ATOM     28  O   UNL A   1      33.825  28.906  27.569  1.00  0.00    -0.460 OA
BRANCH  28  29
ATOM     29  C   UNL A   1      34.409  30.099  27.832  1.00  0.00     0.338 C 
ATOM     30  O   UNL A   1      33.868  31.186  27.893  1.00  0.00    -0.246 OA
BRANCH  29  31
ATOM     31  C   UNL A   1      35.815  29.838  28.209  1.00  0.00     0.060 A 
ATOM     32  C   UNL A   1      36.826  30.044  27.259  1.00  0.00     0.016 A 
ATOM     33  C   UNL A   1      36.133  29.386  29.492  1.00  0.00     0.016 A 
ATOM     34  C   UNL A   1      38.157  29.774  27.586  1.00  0.00     0.010 A 
ATOM     35  C   UNL A   1      37.463  29.098  29.810  1.00  0.00     0.010 A 
ATOM     36  C   UNL A   1      38.480  29.264  28.851  1.00  0.00    -0.014 A 
BRANCH  36  37
ATOM     37  C   UNL A   1      39.841  28.739  29.120  1.00  0.00     0.031 A 
ATOM     38  C   UNL A   1      40.828  29.629  29.822  1.00  0.00     0.074 A 
ATOM     39  C   UNL A   1      40.200  27.497  28.753  1.00  0.00     0.049 A 
ATOM     40  N   UNL A   1      42.085  29.410  30.116  1.00  0.00    -0.248 NA
ATOM     41  C   UNL A   1      40.330  30.950  30.242  1.00  0.00     0.031 C 
ATOM     42  C   UNL A   1      39.330  26.515  28.109  1.00  0.00     0.029 A 
ATOM     43  N   UNL A   1      41.408  26.852  28.869  1.00  0.00    -0.354 N 
ATOM     44  C   UNL A   1      42.527  30.563  30.755  1.00  0.00     0.074 A 
ATOM     45  C   UNL A   1      41.418  31.492  30.769  1.00  0.00     0.031 C 
ATOM     46  C   UNL A   1      40.033  25.390  27.888  1.00  0.00     0.029 A 
ATOM     47  C   UNL A   1      41.410  25.586  28.340  1.00  0.00     0.049 A 
ATOM     48  H   UNL A   1      42.198  27.261  29.292  1.00  0.00     0.167 HD
ATOM     49  C   UNL A   1      43.743  30.826  31.289  1.00  0.00     0.031 A 
ATOM     50  C   UNL A   1      42.413  24.694  28.220  1.00  0.00     0.031 A 
ATOM     51  C   UNL A   1      44.855  29.914  31.257  1.00  0.00     0.049 A 
ATOM     52  C   UNL A   1      43.787  25.049  28.729  1.00  0.00     0.074 A 
ATOM     53  C   UNL A   1      46.127  30.086  31.776  1.00  0.00     0.029 A 
ATOM     54  N   UNL A   1      44.831  28.660  30.665  1.00  0.00    -0.354 N 
ATOM     55  N   UNL A   1      44.189  26.131  29.349  1.00  0.00    -0.248 NA
ATOM     56  C   UNL A   1      44.846  24.048  28.522  1.00  0.00     0.031 C 
ATOM     57  C   UNL A   1      46.890  28.960  31.444  1.00  0.00     0.029 A 
ATOM     58  C   UNL A   1      46.074  28.062  30.776  1.00  0.00     0.049 A 
ATOM     59  H   UNL A   1      44.045  28.257  30.230  1.00  0.00     0.167 HD
ATOM     60  C   UNL A   1      45.533  25.928  29.639  1.00  0.00     0.074 A 
ATOM     61  C   UNL A   1      45.876  24.615  29.135  1.00  0.00     0.031 C 
ATOM     62  C   UNL A   1      46.403  26.753  30.271  1.00  0.00     0.031 A 
BRANCH  49  63
ATOM     63  C   UNL A   1      43.938  32.177  31.917  1.00  0.00    -0.014 A 
ATOM     64  C   UNL A   1      44.395  33.273  31.167  1.00  0.00     0.009 A 
ATOM     65  C   UNL A   1      43.652  32.359  33.280  1.00  0.00     0.009 A 
ATOM     66  C   UNL A   1      44.604  34.511  31.779  1.00  0.00     0.001 A 
ATOM     67  C   UNL A   1      43.832  33.606  33.881  1.00  0.00     0.001 A 
ATOM     68  C   UNL A   1      44.318  34.677  33.134  1.00  0.00     0.000 A 
ENDBRANCH  49  63
BRANCH  50  69
ATOM     69  C   UNL A   1      42.168  23.374  27.580  1.00  0.00    -0.014 A 
ATOM     70  C   UNL A   1      41.607  22.319  28.316  1.00  0.00     0.009 A 
ATOM     71  C   UNL A   1      42.524  23.151  26.241  1.00  0.00     0.009 A 
ATOM     72  C   UNL A   1      41.430  21.063  27.732  1.00  0.00     0.001 A 
ATOM     73  C   UNL A   1      42.318  21.902  25.651  1.00  0.00     0.001 A 
ATOM     74  C   UNL A   1      41.782  20.857  26.399  1.00  0.00     0.000 A 
ENDBRANCH  50  69
BRANCH  62  75
ATOM     75  C   UNL A   1      47.802  26.244  30.496  1.00  0.00    -0.014 A 
ATOM     76  C   UNL A   1      48.770  26.283  29.479  1.00  0.00     0.009 A 
ATOM     77  C   UNL A   1      48.166  25.756  31.762  1.00  0.00     0.009 A 
ATOM     78  C   UNL A   1      50.063  25.810  29.718  1.00  0.00     0.001 A 
ATOM     79  C   UNL A   1      49.466  25.314  32.005  1.00  0.00     0.001 A 
ATOM     80  C   UNL A   1      50.412  25.331  30.981  1.00  0.00     0.000 A 
ENDBRANCH  62  75
ENDBRANCH  36  37
ENDBRANCH  29  31
ENDBRANCH  28  29
ENDBRANCH  27  28
ENDBRANCH  26  27
ENDBRANCH  25  26
ENDBRANCH  24  25
ENDBRANCH   1  24
TORSDOF 20
ENDMDL
MODEL 3
REMARK VINA RESULT:      -9.8      2.466      4.182
REMARK SMILES COc1ccc(Cc2ncc(C(=O)OCCOCCOCCOC(=O)c3ccc(-c4c5nc(c(-c6ccccc6)c6ccc([nH]6)c(-c6ccccc6)c6nc(c(-c7ccccc7)c7ccc4[nH]7)C=C6)C=C5)cc3)c(C)n2)cn1
REMARK SMILES IDX 18 1 17 2 16 3 15 4 14 5 12 6 13 7 11 8 8 9 9 10 76 11 10 12
REMARK SMILES IDX 74 13 75 14 7 15 6 16 3 17 4 18 78 19 5 20 77 21 2 22 1 23
REMARK SMILES IDX 19 24 20 25 21 26 22 27 23 28 24 29 25 30 26 31 27 32 73 33
REMARK SMILES IDX 28 34 72 35 29 36 30 37 31 38 66 39 32 40 71 41 65 42 67 43
REMARK SMILES IDX 33 44 70 45 64 46 63 47 34 49 56 50 41 51 55 52 42 53 45 54
REMARK SMILES IDX 54 55 68 56 43 57 44 58 53 60 69 61 46 62 35 63 36 64 40 65
REMARK SMILES IDX 37 66 39 67 38 68 57 69 58 70 62 71 59 72 61 73 60 74 47 75
REMARK SMILES IDX 48 76 52 77 49 78 51 79 50 80
REMARK H PARENT 67 48 45 59
REMARK Flexibility Score: inf
ROOT
ATOM      1  C   UNL A   1      34.479  32.520  28.410  1.00  0.00     0.188 C 
ENDROOT
BRANCH   1   2
ATOM      2  O   UNL A   1      35.416  31.757  27.656  1.00  0.00    -0.376 OA
BRANCH   2   3
ATOM      3  C   UNL A   1      35.458  30.341  27.821  1.00  0.00     0.202 C 
BRANCH   3   4
ATOM      4  C   UNL A   1      34.241  29.516  27.378  1.00  0.00     0.261 C 
BRANCH   4   5
ATOM      5  O   UNL A   1      34.369  28.976  26.048  1.00  0.00    -0.460 OA
BRANCH   5   6
ATOM      6  C   UNL A   1      33.218  28.825  25.352  1.00  0.00     0.341 C 
ATOM      7  O   UNL A   1      32.320  29.645  25.249  1.00  0.00    -0.246 OA
BRANCH   6   8
ATOM      8  C   UNL A   1      33.254  27.610  24.522  1.00  0.00     0.099 A 
ATOM      9  C   UNL A   1      33.301  25.194  23.257  1.00  0.00     0.133 A 
ATOM     10  N   UNL A   1      32.888  25.219  24.536  1.00  0.00    -0.240 NA
ATOM     11  N   UNL A   1      33.641  26.298  22.555  1.00  0.00    -0.237 NA
ATOM     12  C   UNL A   1      32.884  26.428  25.139  1.00  0.00     0.130 A 
ATOM     13  C   UNL A   1      33.604  27.506  23.188  1.00  0.00     0.056 A 
ATOM     14  C   UNL A   1      34.051  28.669  22.353  1.00  0.00     0.068 C 
BRANCH   9  15
ATOM     15  C   UNL A   1      33.562  23.843  22.629  1.00  0.00     0.114 C 
BRANCH  15  16
ATOM     16  C   UNL A   1      34.515  22.935  23.362  1.00  0.00    -0.022 A 
ATOM     17  C   UNL A   1      36.209  21.368  24.854  1.00  0.00     0.212 A 
ATOM     18  C   UNL A   1      36.759  22.245  23.932  1.00  0.00     0.069 A 
ATOM     19  N   UNL A   1      34.883  21.219  25.039  1.00  0.00    -0.222 NA
ATOM     20  C   UNL A   1      35.897  23.042  23.182  1.00  0.00     0.011 A 
ATOM     21  C   UNL A   1      34.068  22.007  24.298  1.00  0.00     0.119 A 
BRANCH  17  22
ATOM     22  O   UNL A   1      37.003  20.530  25.593  1.00  0.00    -0.481 OA
ATOM     23  C   UNL A   1      37.986  19.897  24.779  1.00  0.00     0.280 C 
ENDBRANCH  17  22
ENDBRANCH  15  16
ENDBRANCH   9  15
ENDBRANCH   6   8
ENDBRANCH   5   6
ENDBRANCH   4   5
ENDBRANCH   3   4
ENDBRANCH   2   3
ENDBRANCH   1   2
BRANCH   1  24
ATOM     24  C   UNL A   1      34.552  34.062  28.376  1.00  0.00     0.188 C 
BRANCH  24  25
ATOM     25  O   UNL A   1      34.042  34.674  29.539  1.00  0.00    -0.376 OA
BRANCH  25  26
ATOM     26  C   UNL A   1      34.132  33.966  30.764  1.00  0.00     0.202 C 
BRANCH  26  27
ATOM     27  C   UNL A   1      34.787  34.583  32.017  1.00  0.00     0.261 C 
BRANCH  27  28
ATOM     28  O   UNL A   1      36.144  34.223  32.307  1.00  0.00    -0.460 OA
BRANCH  28  29
ATOM     29  C   UNL A   1      36.347  33.065  32.980  1.00  0.00     0.338 C 
ATOM     30  O   UNL A   1      35.742  32.666  33.955  1.00  0.00    -0.246 OA
BRANCH  29  31
ATOM     31  C   UNL A   1      37.335  32.269  32.219  1.00  0.00     0.060 A 
ATOM     32  C   UNL A   1      38.295  31.524  32.918  1.00  0.00     0.016 A 
ATOM     33  C   UNL A   1      37.316  32.265  30.822  1.00  0.00     0.016 A 
ATOM     34  C   UNL A   1      39.255  30.790  32.217  1.00  0.00     0.010 A 
ATOM     35  C   UNL A   1      38.289  31.546  30.123  1.00  0.00     0.010 A 
ATOM     36  C   UNL A   1      39.281  30.826  30.816  1.00  0.00    -0.014 A 
BRANCH  36  37
ATOM     37  C   UNL A   1      40.436  30.263  30.075  1.00  0.00     0.031 A 
ATOM     38  C   UNL A   1      41.641  31.135  29.853  1.00  0.00     0.074 A 
ATOM     39  C   UNL A   1      40.424  29.003  29.606  1.00  0.00     0.049 A 
ATOM     40  N   UNL A   1      42.742  30.881  29.191  1.00  0.00    -0.248 NA
ATOM     41  C   UNL A   1      41.591  32.478  30.453  1.00  0.00     0.031 C 
ATOM     42  C   UNL A   1      39.343  28.037  29.792  1.00  0.00     0.029 A 
ATOM     43  N   UNL A   1      41.361  28.323  28.868  1.00  0.00    -0.354 N 
ATOM     44  C   UNL A   1      43.515  32.031  29.295  1.00  0.00     0.074 A 
ATOM     45  C   UNL A   1      42.742  32.995  30.048  1.00  0.00     0.031 C 
ATOM     46  C   UNL A   1      39.679  26.886  29.183  1.00  0.00     0.029 A 
ATOM     47  C   UNL A   1      40.981  27.047  28.535  1.00  0.00     0.049 A 
ATOM     48  H   UNL A   1      42.225  28.714  28.602  1.00  0.00     0.167 HD
ATOM     49  C   UNL A   1      44.760  32.266  28.816  1.00  0.00     0.031 A 
ATOM     50  C   UNL A   1      41.605  26.121  27.781  1.00  0.00     0.031 A 
ATOM     51  C   UNL A   1      45.523  31.318  28.049  1.00  0.00     0.049 A 
ATOM     52  C   UNL A   1      42.945  26.441  27.169  1.00  0.00     0.074 A 
ATOM     53  C   UNL A   1      46.795  31.460  27.522  1.00  0.00     0.029 A 
ATOM     54  N   UNL A   1      45.079  30.055  27.689  1.00  0.00    -0.354 N 
ATOM     55  N   UNL A   1      43.676  27.522  27.291  1.00  0.00    -0.248 NA
ATOM     56  C   UNL A   1      43.547  25.403  26.318  1.00  0.00     0.031 C 
ATOM     57  C   UNL A   1      47.097  30.304  26.793  1.00  0.00     0.029 A 
ATOM     58  C   UNL A   1      46.039  29.419  26.920  1.00  0.00     0.049 A 
ATOM     59  H   UNL A   1      44.210  29.669  27.943  1.00  0.00     0.167 HD
ATOM     60  C   UNL A   1      44.837  27.282  26.564  1.00  0.00     0.074 A 
ATOM     61  C   UNL A   1      44.716  25.949  26.013  1.00  0.00     0.031 C 
ATOM     62  C   UNL A   1      45.908  28.091  26.377  1.00  0.00     0.031 A 
BRANCH  49  63
ATOM     63  C   UNL A   1      45.351  33.622  29.079  1.00  0.00    -0.014 A 
ATOM     64  C   UNL A   1      46.054  33.896  30.264  1.00  0.00     0.009 A 
ATOM     65  C   UNL A   1      45.209  34.640  28.122  1.00  0.00     0.009 A 
ATOM     66  C   UNL A   1      46.564  35.175  30.503  1.00  0.00     0.001 A 
ATOM     67  C   UNL A   1      45.748  35.908  28.351  1.00  0.00     0.001 A 
ATOM     68  C   UNL A   1      46.414  36.177  29.546  1.00  0.00     0.000 A 
ENDBRANCH  49  63
BRANCH  50  69
ATOM     69  C   UNL A   1      40.970  24.797  27.543  1.00  0.00    -0.014 A 
ATOM     70  C   UNL A   1      41.459  23.648  28.184  1.00  0.00     0.009 A 
ATOM     71  C   UNL A   1      39.894  24.669  26.651  1.00  0.00     0.009 A 
ATOM     72  C   UNL A   1      40.899  22.396  27.917  1.00  0.00     0.001 A 
ATOM     73  C   UNL A   1      39.317  23.420  26.410  1.00  0.00     0.001 A 
ATOM     74  C   UNL A   1      39.827  22.284  27.034  1.00  0.00     0.000 A 
ENDBRANCH  50  69
BRANCH  62  75
ATOM     75  C   UNL A   1      47.059  27.541  25.577  1.00  0.00    -0.014 A 
ATOM     76  C   UNL A   1      48.095  26.816  26.186  1.00  0.00     0.009 A 
ATOM     77  C   UNL A   1      47.081  27.720  24.184  1.00  0.00     0.009 A 
ATOM     78  C   UNL A   1      49.148  26.311  25.418  1.00  0.00     0.001 A 
ATOM     79  C   UNL A   1      48.118  27.186  23.417  1.00  0.00     0.001 A 
ATOM     80  C   UNL A   1      49.156  26.491  24.035  1.00  0.00     0.000 A 
ENDBRANCH  62  75
ENDBRANCH  36  37
ENDBRANCH  29  31
ENDBRANCH  28  29
ENDBRANCH  27  28
ENDBRANCH  26  27
ENDBRANCH  25  26
ENDBRANCH  24  25
ENDBRANCH   1  24
TORSDOF 20
ENDMDL
