MODEL 1
REMARK VINA RESULT:      -9.6      0.000      0.000
REMARK SMILES O=C(C[C@@H]([NH2+]Cc1ccccc1)C(=O)/N=c1/[nH]c(-c2ccccc2)cs1)OCCOCCOCCOC(=O)c1ccc(-c2c3nc(c(-c4ccccc4)c4ccc([nH]4)c(-c4ccccc4)c4nc(c(-c5ccccc5)c5ccc2[nH]5)C=C4)C=C3)cc1
REMARK SMILES IDX 31 1 30 2 29 3 28 4 27 5 2 6 1 7 3 8 4 9 5 10 6 13 7 14 8 15
REMARK SMILES IDX 12 16 9 17 11 18 10 19 13 20 14 21 15 22 16 23 17 24 26 25
REMARK SMILES IDX 18 26 25 28 19 29 20 30 24 31 21 32 23 33 22 34 32 35 33 36
REMARK SMILES IDX 34 37 35 38 36 39 37 40 38 41 39 42 40 43 86 44 41 45 85 46
REMARK SMILES IDX 42 47 43 48 44 49 79 50 45 51 84 52 78 53 80 54 46 55 83 56
REMARK SMILES IDX 77 57 76 58 47 60 69 61 54 62 68 63 55 64 58 65 67 66 81 67
REMARK SMILES IDX 56 68 57 69 66 71 82 72 59 73 48 74 49 75 53 76 50 77 52 78
REMARK SMILES IDX 51 79 70 80 71 81 75 82 72 83 74 84 73 85 60 86 61 87 65 88
REMARK SMILES IDX 62 89 64 90 63 91
REMARK H PARENT 5 11 5 12 17 27 80 59 58 70
REMARK Flexibility Score: inf
ROOT
ATOM      1  C   UNL A   1      37.840  29.383  28.448  1.00  0.00     0.188 C 
ENDROOT
BRANCH   1   2
ATOM      2  O   UNL A   1      36.842  29.577  27.461  1.00  0.00    -0.376 OA
BRANCH   2   3
ATOM      3  C   UNL A   1      35.465  29.605  27.838  1.00  0.00     0.202 C 
BRANCH   3   4
ATOM      4  C   UNL A   1      34.409  29.017  26.904  1.00  0.00     0.261 C 
BRANCH   4   5
ATOM      5  O   UNL A   1      33.016  28.879  27.328  1.00  0.00    -0.463 OA
BRANCH   5   6
ATOM      6  C   UNL A   1      32.142  27.854  27.380  1.00  0.00     0.312 C 
ATOM      7  O   UNL A   1      31.079  27.994  27.980  1.00  0.00    -0.252 OA
BRANCH   6   8
ATOM      8  C   UNL A   1      32.458  26.569  26.683  1.00  0.00     0.198 C 
BRANCH   8   9
ATOM      9  C   UNL A   1      31.647  26.345  25.410  1.00  0.00     0.286 C 
BRANCH   9  10
ATOM     10  N   UNL A   1      32.463  26.263  24.167  1.00  0.00    -0.332 N 
ATOM     11  H   UNL A   1      32.221  27.046  23.559  1.00  0.00     0.347 HD
ATOM     12  H   UNL A   1      32.262  25.373  23.711  1.00  0.00     0.347 HD
BRANCH  10  13
ATOM     13  C   UNL A   1      33.906  26.314  24.461  1.00  0.00     0.297 C 
BRANCH  13  14
ATOM     14  C   UNL A   1      34.518  24.931  24.358  1.00  0.00     0.006 A 
ATOM     15  C   UNL A   1      35.405  24.476  25.345  1.00  0.00     0.009 A 
ATOM     16  C   UNL A   1      34.337  24.164  23.197  1.00  0.00     0.009 A 
ATOM     17  C   UNL A   1      36.131  23.301  25.151  1.00  0.00     0.001 A 
ATOM     18  C   UNL A   1      35.080  23.001  22.998  1.00  0.00     0.001 A 
ATOM     19  C   UNL A   1      35.981  22.574  23.971  1.00  0.00     0.000 A 
ENDBRANCH  13  14
ENDBRANCH  10  13
ENDBRANCH   9  10
BRANCH   9  20
ATOM     20  C   UNL A   1      30.736  25.097  25.573  1.00  0.00     0.307 C 
ATOM     21  O   UNL A   1      29.937  25.037  26.507  1.00  0.00    -0.265 OA
BRANCH  20  22
ATOM     22  N   UNL A   1      30.871  24.084  24.643  1.00  0.00    -0.180 NA
ATOM     23  C   UNL A   1      31.538  23.042  25.005  1.00  0.00     0.190 A 
ATOM     24  N   UNL A   1      31.770  21.896  24.269  1.00  0.00    -0.330 N 
ATOM     25  S   UNL A   1      32.391  22.859  26.564  1.00  0.00    -0.105 S 
ATOM     26  C   UNL A   1      32.619  20.967  24.844  1.00  0.00     0.058 A 
ATOM     27  H   UNL A   1      31.357  21.750  23.389  1.00  0.00     0.169 HD
ATOM     28  C   UNL A   1      33.079  21.369  26.036  1.00  0.00     0.095 A 
BRANCH  26  29
ATOM     29  C   UNL A   1      33.014  19.675  24.250  1.00  0.00    -0.001 A 
ATOM     30  C   UNL A   1      34.091  18.921  24.725  1.00  0.00     0.010 A 
ATOM     31  C   UNL A   1      32.274  19.150  23.168  1.00  0.00     0.010 A 
ATOM     32  C   UNL A   1      34.395  17.676  24.155  1.00  0.00     0.001 A 
ATOM     33  C   UNL A   1      32.563  17.904  22.612  1.00  0.00     0.001 A 
ATOM     34  C   UNL A   1      33.627  17.164  23.109  1.00  0.00     0.000 A 
ENDBRANCH  26  29
ENDBRANCH  20  22
ENDBRANCH   9  20
ENDBRANCH   8   9
ENDBRANCH   6   8
ENDBRANCH   5   6
ENDBRANCH   4   5
ENDBRANCH   3   4
ENDBRANCH   2   3
ENDBRANCH   1   2
BRANCH   1  35
ATOM     35  C   UNL A   1      39.057  28.567  27.995  1.00  0.00     0.188 C 
BRANCH  35  36
ATOM     36  O   UNL A   1      39.233  27.278  28.564  1.00  0.00    -0.376 OA
BRANCH  36  37
ATOM     37  C   UNL A   1      39.053  26.146  27.714  1.00  0.00     0.202 C 
BRANCH  37  38
ATOM     38  C   UNL A   1      39.920  24.897  27.943  1.00  0.00     0.261 C 
BRANCH  38  39
ATOM     39  O   UNL A   1      40.522  24.352  26.753  1.00  0.00    -0.460 OA
BRANCH  39  40
ATOM     40  C   UNL A   1      41.805  23.936  26.878  1.00  0.00     0.338 C 
ATOM     41  O   UNL A   1      42.216  22.794  27.002  1.00  0.00    -0.246 OA
BRANCH  40  42
ATOM     42  C   UNL A   1      42.701  25.101  26.862  1.00  0.00     0.060 A 
ATOM     43  C   UNL A   1      42.944  25.815  25.683  1.00  0.00     0.016 A 
ATOM     44  C   UNL A   1      43.368  25.429  28.040  1.00  0.00     0.016 A 
ATOM     45  C   UNL A   1      43.868  26.873  25.682  1.00  0.00     0.010 A 
ATOM     46  C   UNL A   1      44.254  26.510  28.045  1.00  0.00     0.010 A 
ATOM     47  C   UNL A   1      44.544  27.220  26.859  1.00  0.00    -0.014 A 
BRANCH  47  48
ATOM     48  C   UNL A   1      45.716  28.142  26.869  1.00  0.00     0.031 A 
ATOM     49  C   UNL A   1      45.428  29.620  26.962  1.00  0.00     0.074 A 
ATOM     50  C   UNL A   1      46.994  27.734  26.738  1.00  0.00     0.049 A 
ATOM     51  N   UNL A   1      46.210  30.643  26.735  1.00  0.00    -0.248 NA
ATOM     52  C   UNL A   1      44.043  29.985  27.308  1.00  0.00     0.031 C 
ATOM     53  C   UNL A   1      47.454  26.350  26.673  1.00  0.00     0.029 A 
ATOM     54  N   UNL A   1      48.147  28.474  26.611  1.00  0.00    -0.354 N 
ATOM     55  C   UNL A   1      45.393  31.762  26.836  1.00  0.00     0.074 A 
ATOM     56  C   UNL A   1      44.052  31.289  27.096  1.00  0.00     0.031 C 
ATOM     57  C   UNL A   1      48.791  26.339  26.514  1.00  0.00     0.029 A 
ATOM     58  C   UNL A   1      49.278  27.714  26.428  1.00  0.00     0.049 A 
ATOM     59  H   UNL A   1      48.161  29.458  26.649  1.00  0.00     0.167 HD
ATOM     60  C   UNL A   1      45.721  33.071  26.744  1.00  0.00     0.031 A 
ATOM     61  C   UNL A   1      50.555  28.086  26.201  1.00  0.00     0.031 A 
ATOM     62  C   UNL A   1      47.059  33.557  26.561  1.00  0.00     0.049 A 
ATOM     63  C   UNL A   1      50.908  29.550  26.106  1.00  0.00     0.074 A 
ATOM     64  C   UNL A   1      47.499  34.867  26.516  1.00  0.00     0.029 A 
ATOM     65  N   UNL A   1      48.175  32.750  26.418  1.00  0.00    -0.354 N 
ATOM     66  N   UNL A   1      50.129  30.600  26.208  1.00  0.00    -0.248 NA
ATOM     67  C   UNL A   1      52.324  29.880  25.869  1.00  0.00     0.031 C 
ATOM     68  C   UNL A   1      48.883  34.854  26.311  1.00  0.00     0.029 A 
ATOM     69  C   UNL A   1      49.305  33.534  26.279  1.00  0.00     0.049 A 
ATOM     70  H   UNL A   1      48.164  31.765  26.415  1.00  0.00     0.167 HD
ATOM     71  C   UNL A   1      50.964  31.708  26.089  1.00  0.00     0.074 A 
ATOM     72  C   UNL A   1      52.308  31.205  25.910  1.00  0.00     0.031 C 
ATOM     73  C   UNL A   1      50.642  33.024  26.129  1.00  0.00     0.031 A 
BRANCH  60  74
ATOM     74  C   UNL A   1      44.595  34.061  26.827  1.00  0.00    -0.014 A 
ATOM     75  C   UNL A   1      43.835  34.405  25.697  1.00  0.00     0.009 A 
ATOM     76  C   UNL A   1      44.310  34.680  28.053  1.00  0.00     0.009 A 
ATOM     77  C   UNL A   1      42.853  35.392  25.781  1.00  0.00     0.001 A 
ATOM     78  C   UNL A   1      43.301  35.640  28.142  1.00  0.00     0.001 A 
ATOM     79  C   UNL A   1      42.585  36.006  27.004  1.00  0.00     0.000 A 
ENDBRANCH  60  74
BRANCH  61  80
ATOM     80  C   UNL A   1      51.623  27.059  26.049  1.00  0.00    -0.014 A 
ATOM     81  C   UNL A   1      51.868  26.473  24.796  1.00  0.00     0.009 A 
ATOM     82  C   UNL A   1      52.368  26.628  27.155  1.00  0.00     0.009 A 
ATOM     83  C   UNL A   1      52.817  25.456  24.662  1.00  0.00     0.001 A 
ATOM     84  C   UNL A   1      53.335  25.630  27.013  1.00  0.00     0.001 A 
ATOM     85  C   UNL A   1      53.552  25.038  25.769  1.00  0.00     0.000 A 
ENDBRANCH  61  80
BRANCH  73  86
ATOM     86  C   UNL A   1      51.760  34.026  26.045  1.00  0.00    -0.014 A 
ATOM     87  C   UNL A   1      52.166  34.571  24.820  1.00  0.00     0.009 A 
ATOM     88  C   UNL A   1      52.355  34.491  27.229  1.00  0.00     0.009 A 
ATOM     89  C   UNL A   1      53.162  35.550  24.780  1.00  0.00     0.001 A 
ATOM     90  C   UNL A   1      53.332  35.487  27.189  1.00  0.00     0.001 A 
ATOM     91  C   UNL A   1      53.739  36.012  25.963  1.00  0.00     0.000 A 
ENDBRANCH  73  86
ENDBRANCH  47  48
ENDBRANCH  40  42
ENDBRANCH  39  40
ENDBRANCH  38  39
ENDBRANCH  37  38
ENDBRANCH  36  37
ENDBRANCH  35  36
ENDBRANCH   1  35
TORSDOF 24
ENDMDL
MODEL 2
REMARK VINA RESULT:      -9.5      3.299      7.611
REMARK SMILES O=C(C[C@@H]([NH2+]Cc1ccccc1)C(=O)/N=c1/[nH]c(-c2ccccc2)cs1)OCCOCCOCCOC(=O)c1ccc(-c2c3nc(c(-c4ccccc4)c4ccc([nH]4)c(-c4ccccc4)c4nc(c(-c5ccccc5)c5ccc2[nH]5)C=C4)C=C3)cc1
REMARK SMILES IDX 31 1 30 2 29 3 28 4 27 5 2 6 1 7 3 8 4 9 5 10 6 13 7 14 8 15
REMARK SMILES IDX 12 16 9 17 11 18 10 19 13 20 14 21 15 22 16 23 17 24 26 25
REMARK SMILES IDX 18 26 25 28 19 29 20 30 24 31 21 32 23 33 22 34 32 35 33 36
REMARK SMILES IDX 34 37 35 38 36 39 37 40 38 41 39 42 40 43 86 44 41 45 85 46
REMARK SMILES IDX 42 47 43 48 44 49 79 50 45 51 84 52 78 53 80 54 46 55 83 56
REMARK SMILES IDX 77 57 76 58 47 60 69 61 54 62 68 63 55 64 58 65 67 66 81 67
REMARK SMILES IDX 56 68 57 69 66 71 82 72 59 73 48 74 49 75 53 76 50 77 52 78
REMARK SMILES IDX 51 79 70 80 71 81 75 82 72 83 74 84 73 85 60 86 61 87 65 88
REMARK SMILES IDX 62 89 64 90 63 91
REMARK H PARENT 5 11 5 12 17 27 80 59 58 70
REMARK Flexibility Score: inf
ROOT
ATOM      1  C   UNL A   1      34.480  32.584  29.093  1.00  0.00     0.188 C 
ENDROOT
BRANCH   1   2
ATOM      2  O   UNL A   1      34.774  32.099  27.794  1.00  0.00    -0.376 OA
BRANCH   2   3
ATOM      3  C   UNL A   1      34.874  30.693  27.565  1.00  0.00     0.202 C 
BRANCH   3   4
ATOM      4  C   UNL A   1      33.856  29.995  26.666  1.00  0.00     0.261 C 
BRANCH   4   5
ATOM      5  O   UNL A   1      33.605  28.558  26.780  1.00  0.00    -0.463 OA
BRANCH   5   6
ATOM      6  C   UNL A   1      32.509  27.781  26.678  1.00  0.00     0.312 C 
ATOM      7  O   UNL A   1      31.394  28.295  26.732  1.00  0.00    -0.252 OA
BRANCH   6   8
ATOM      8  C   UNL A   1      32.657  26.307  26.469  1.00  0.00     0.198 C 
BRANCH   8   9
ATOM      9  C   UNL A   1      31.920  25.784  25.239  1.00  0.00     0.286 C 
BRANCH   9  10
ATOM     10  N   UNL A   1      32.802  25.470  24.081  1.00  0.00    -0.332 N 
ATOM     11  H   UNL A   1      32.926  24.459  24.023  1.00  0.00     0.347 HD
ATOM     12  H   UNL A   1      33.696  25.939  24.224  1.00  0.00     0.347 HD
BRANCH  10  13
ATOM     13  C   UNL A   1      32.227  25.955  22.813  1.00  0.00     0.297 C 
BRANCH  13  14
ATOM     14  C   UNL A   1      31.267  27.100  23.070  1.00  0.00     0.006 A 
ATOM     15  C   UNL A   1      29.912  26.841  23.326  1.00  0.00     0.009 A 
ATOM     16  C   UNL A   1      31.685  28.427  22.889  1.00  0.00     0.009 A 
ATOM     17  C   UNL A   1      28.989  27.886  23.352  1.00  0.00     0.001 A 
ATOM     18  C   UNL A   1      30.756  29.466  22.895  1.00  0.00     0.001 A 
ATOM     19  C   UNL A   1      29.409  29.195  23.120  1.00  0.00     0.000 A 
ENDBRANCH  13  14
ENDBRANCH  10  13
ENDBRANCH   9  10
BRANCH   9  20
ATOM     20  C   UNL A   1      31.038  24.566  25.626  1.00  0.00     0.307 C 
ATOM     21  O   UNL A   1      30.297  24.630  26.607  1.00  0.00    -0.265 OA
BRANCH  20  22
ATOM     22  N   UNL A   1      31.130  23.436  24.836  1.00  0.00    -0.180 NA
ATOM     23  C   UNL A   1      31.861  22.470  25.278  1.00  0.00     0.190 A 
ATOM     24  N   UNL A   1      32.072  21.238  24.690  1.00  0.00    -0.330 N 
ATOM     25  S   UNL A   1      32.846  22.527  26.769  1.00  0.00    -0.105 S 
ATOM     26  C   UNL A   1      32.996  20.418  25.311  1.00  0.00     0.058 A 
ATOM     27  H   UNL A   1      31.592  20.961  23.877  1.00  0.00     0.169 HD
ATOM     28  C   UNL A   1      33.539  20.994  26.393  1.00  0.00     0.095 A 
BRANCH  26  29
ATOM     29  C   UNL A   1      33.386  19.066  24.869  1.00  0.00    -0.001 A 
ATOM     30  C   UNL A   1      34.716  18.692  24.657  1.00  0.00     0.010 A 
ATOM     31  C   UNL A   1      32.389  18.085  24.666  1.00  0.00     0.010 A 
ATOM     32  C   UNL A   1      35.036  17.379  24.283  1.00  0.00     0.001 A 
ATOM     33  C   UNL A   1      32.707  16.774  24.312  1.00  0.00     0.001 A 
ATOM     34  C   UNL A   1      34.035  16.419  24.121  1.00  0.00     0.000 A 
ENDBRANCH  26  29
ENDBRANCH  20  22
ENDBRANCH   9  20
ENDBRANCH   8   9
ENDBRANCH   6   8
ENDBRANCH   5   6
ENDBRANCH   4   5
ENDBRANCH   3   4
ENDBRANCH   2   3
ENDBRANCH   1   2
BRANCH   1  35
ATOM     35  C   UNL A   1      35.037  33.977  29.411  1.00  0.00     0.188 C 
BRANCH  35  36
ATOM     36  O   UNL A   1      35.321  34.277  30.770  1.00  0.00    -0.376 OA
BRANCH  36  37
ATOM     37  C   UNL A   1      34.271  34.110  31.721  1.00  0.00     0.202 C 
BRANCH  37  38
ATOM     38  C   UNL A   1      34.497  33.178  32.922  1.00  0.00     0.261 C 
BRANCH  38  39
ATOM     39  O   UNL A   1      35.309  32.020  32.646  1.00  0.00    -0.460 OA
BRANCH  39  40
ATOM     40  C   UNL A   1      36.502  31.969  33.285  1.00  0.00     0.338 C 
ATOM     41  O   UNL A   1      36.772  32.370  34.405  1.00  0.00    -0.246 OA
BRANCH  40  42
ATOM     42  C   UNL A   1      37.503  31.349  32.406  1.00  0.00     0.060 A 
ATOM     43  C   UNL A   1      38.547  30.574  32.926  1.00  0.00     0.016 A 
ATOM     44  C   UNL A   1      37.432  31.619  31.041  1.00  0.00     0.016 A 
ATOM     45  C   UNL A   1      39.534  30.062  32.068  1.00  0.00     0.010 A 
ATOM     46  C   UNL A   1      38.392  31.071  30.186  1.00  0.00     0.010 A 
ATOM     47  C   UNL A   1      39.475  30.319  30.692  1.00  0.00    -0.014 A 
BRANCH  47  48
ATOM     48  C   UNL A   1      40.616  30.037  29.774  1.00  0.00     0.031 A 
ATOM     49  C   UNL A   1      40.607  28.713  29.052  1.00  0.00     0.074 A 
ATOM     50  C   UNL A   1      41.668  30.863  29.608  1.00  0.00     0.049 A 
ATOM     51  N   UNL A   1      41.567  28.100  28.411  1.00  0.00    -0.248 NA
ATOM     52  C   UNL A   1      39.344  27.955  29.114  1.00  0.00     0.031 C 
ATOM     53  C   UNL A   1      41.824  32.190  30.195  1.00  0.00     0.029 A 
ATOM     54  N   UNL A   1      42.831  30.677  28.895  1.00  0.00    -0.354 N 
ATOM     55  C   UNL A   1      41.047  26.860  28.063  1.00  0.00     0.074 A 
ATOM     56  C   UNL A   1      39.709  26.791  28.606  1.00  0.00     0.031 C 
ATOM     57  C   UNL A   1      43.014  32.698  29.825  1.00  0.00     0.029 A 
ATOM     58  C   UNL A   1      43.722  31.718  29.004  1.00  0.00     0.049 A 
ATOM     59  H   UNL A   1      43.008  29.872  28.356  1.00  0.00     0.167 HD
ATOM     60  C   UNL A   1      41.614  25.867  27.341  1.00  0.00     0.031 A 
ATOM     61  C   UNL A   1      44.971  31.855  28.513  1.00  0.00     0.031 A 
ATOM     62  C   UNL A   1      42.912  25.950  26.734  1.00  0.00     0.049 A 
ATOM     63  C   UNL A   1      45.590  30.742  27.704  1.00  0.00     0.074 A 
ATOM     64  C   UNL A   1      43.548  25.019  25.932  1.00  0.00     0.029 A 
ATOM     65  N   UNL A   1      43.761  27.039  26.842  1.00  0.00    -0.354 N 
ATOM     66  N   UNL A   1      45.088  29.576  27.377  1.00  0.00    -0.248 NA
ATOM     67  C   UNL A   1      46.951  30.970  27.189  1.00  0.00     0.031 C 
ATOM     68  C   UNL A   1      44.801  25.533  25.581  1.00  0.00     0.029 A 
ATOM     69  C   UNL A   1      44.919  26.802  26.125  1.00  0.00     0.049 A 
ATOM     70  H   UNL A   1      43.568  27.858  27.353  1.00  0.00     0.167 HD
ATOM     71  C   UNL A   1      46.051  28.952  26.590  1.00  0.00     0.074 A 
ATOM     72  C   UNL A   1      47.166  29.868  26.484  1.00  0.00     0.031 C 
ATOM     73  C   UNL A   1      46.011  27.731  26.003  1.00  0.00     0.031 A 
BRANCH  60  74
ATOM     74  C   UNL A   1      40.823  24.599  27.189  1.00  0.00    -0.014 A 
ATOM     75  C   UNL A   1      41.204  23.414  27.839  1.00  0.00     0.009 A 
ATOM     76  C   UNL A   1      39.693  24.587  26.358  1.00  0.00     0.009 A 
ATOM     77  C   UNL A   1      40.505  22.228  27.613  1.00  0.00     0.001 A 
ATOM     78  C   UNL A   1      38.972  23.408  26.163  1.00  0.00     0.001 A 
ATOM     79  C   UNL A   1      39.387  22.228  26.778  1.00  0.00     0.000 A 
ENDBRANCH  60  74
BRANCH  61  80
ATOM     80  C   UNL A   1      45.743  33.105  28.759  1.00  0.00    -0.014 A 
ATOM     81  C   UNL A   1      45.678  34.169  27.845  1.00  0.00     0.009 A 
ATOM     82  C   UNL A   1      46.581  33.225  29.877  1.00  0.00     0.009 A 
ATOM     83  C   UNL A   1      46.457  35.314  28.031  1.00  0.00     0.001 A 
ATOM     84  C   UNL A   1      47.338  34.382  30.076  1.00  0.00     0.001 A 
ATOM     85  C   UNL A   1      47.283  35.421  29.148  1.00  0.00     0.000 A 
ENDBRANCH  61  80
BRANCH  73  86
ATOM     86  C   UNL A   1      47.171  27.326  25.137  1.00  0.00    -0.014 A 
ATOM     87  C   UNL A   1      47.272  27.745  23.803  1.00  0.00     0.009 A 
ATOM     88  C   UNL A   1      48.221  26.582  25.699  1.00  0.00     0.009 A 
ATOM     89  C   UNL A   1      48.395  27.408  23.042  1.00  0.00     0.001 A 
ATOM     90  C   UNL A   1      49.352  26.268  24.944  1.00  0.00     0.001 A 
ATOM     91  C   UNL A   1      49.435  26.677  23.614  1.00  0.00     0.000 A 
ENDBRANCH  73  86
ENDBRANCH  47  48
ENDBRANCH  40  42
ENDBRANCH  39  40
ENDBRANCH  38  39
ENDBRANCH  37  38
ENDBRANCH  36  37
ENDBRANCH  35  36
ENDBRANCH   1  35
TORSDOF 24
ENDMDL
MODEL 3
REMARK VINA RESULT:      -8.5      6.880      9.653
REMARK SMILES O=C(C[C@@H]([NH2+]Cc1ccccc1)C(=O)/N=c1/[nH]c(-c2ccccc2)cs1)OCCOCCOCCOC(=O)c1ccc(-c2c3nc(c(-c4ccccc4)c4ccc([nH]4)c(-c4ccccc4)c4nc(c(-c5ccccc5)c5ccc2[nH]5)C=C4)C=C3)cc1
REMARK SMILES IDX 31 1 30 2 29 3 28 4 27 5 2 6 1 7 3 8 4 9 5 10 6 13 7 14 8 15
REMARK SMILES IDX 12 16 9 17 11 18 10 19 13 20 14 21 15 22 16 23 17 24 26 25
REMARK SMILES IDX 18 26 25 28 19 29 20 30 24 31 21 32 23 33 22 34 32 35 33 36
REMARK SMILES IDX 34 37 35 38 36 39 37 40 38 41 39 42 40 43 86 44 41 45 85 46
REMARK SMILES IDX 42 47 43 48 44 49 79 50 45 51 84 52 78 53 80 54 46 55 83 56
REMARK SMILES IDX 77 57 76 58 47 60 69 61 54 62 68 63 55 64 58 65 67 66 81 67
REMARK SMILES IDX 56 68 57 69 66 71 82 72 59 73 48 74 49 75 53 76 50 77 52 78
REMARK SMILES IDX 51 79 70 80 71 81 75 82 72 83 74 84 73 85 60 86 61 87 65 88
REMARK SMILES IDX 62 89 64 90 63 91
REMARK H PARENT 5 11 5 12 17 27 80 59 58 70
REMARK Flexibility Score: inf
ROOT
ATOM      1  C   UNL A   1      37.832  29.650  28.687  1.00  0.00     0.188 C 
ENDROOT
BRANCH   1   2
ATOM      2  O   UNL A   1      36.940  29.773  27.593  1.00  0.00    -0.376 OA
BRANCH   2   3
ATOM      3  C   UNL A   1      35.530  29.746  27.818  1.00  0.00     0.202 C 
BRANCH   3   4
ATOM      4  C   UNL A   1      34.624  28.959  26.873  1.00  0.00     0.261 C 
BRANCH   4   5
ATOM      5  O   UNL A   1      33.170  29.106  26.921  1.00  0.00    -0.463 OA
BRANCH   5   6
ATOM      6  C   UNL A   1      32.136  28.244  26.991  1.00  0.00     0.312 C 
ATOM      7  O   UNL A   1      30.993  28.676  27.125  1.00  0.00    -0.252 OA
BRANCH   6   8
ATOM      8  C   UNL A   1      32.382  26.773  26.872  1.00  0.00     0.198 C 
BRANCH   8   9
ATOM      9  C   UNL A   1      32.046  26.204  25.496  1.00  0.00     0.286 C 
BRANCH   9  10
ATOM     10  N   UNL A   1      33.234  25.907  24.647  1.00  0.00    -0.332 N 
ATOM     11  H   UNL A   1      33.428  26.714  24.054  1.00  0.00     0.347 HD
ATOM     12  H   UNL A   1      33.026  25.082  24.084  1.00  0.00     0.347 HD
BRANCH  10  13
ATOM     13  C   UNL A   1      34.426  25.617  25.465  1.00  0.00     0.297 C 
BRANCH  13  14
ATOM     14  C   UNL A   1      35.120  24.367  24.965  1.00  0.00     0.006 A 
ATOM     15  C   UNL A   1      36.154  23.785  25.716  1.00  0.00     0.009 A 
ATOM     16  C   UNL A   1      34.856  23.878  23.677  1.00  0.00     0.009 A 
ATOM     17  C   UNL A   1      36.935  22.768  25.167  1.00  0.00     0.001 A 
ATOM     18  C   UNL A   1      35.653  22.876  23.125  1.00  0.00     0.001 A 
ATOM     19  C   UNL A   1      36.695  22.326  23.868  1.00  0.00     0.000 A 
ENDBRANCH  13  14
ENDBRANCH  10  13
ENDBRANCH   9  10
BRANCH   9  20
ATOM     20  C   UNL A   1      31.130  24.958  25.645  1.00  0.00     0.307 C 
ATOM     21  O   UNL A   1      30.331  24.891  26.578  1.00  0.00    -0.265 OA
BRANCH  20  22
ATOM     22  N   UNL A   1      31.261  23.956  24.703  1.00  0.00    -0.180 NA
ATOM     23  C   UNL A   1      31.856  22.875  25.076  1.00  0.00     0.190 A 
ATOM     24  N   UNL A   1      32.068  21.731  24.331  1.00  0.00    -0.330 N 
ATOM     25  S   UNL A   1      32.621  22.622  26.672  1.00  0.00    -0.105 S 
ATOM     26  C   UNL A   1      32.839  20.750  24.928  1.00  0.00     0.058 A 
ATOM     27  H   UNL A   1      31.692  21.621  23.428  1.00  0.00     0.169 HD
ATOM     28  C   UNL A   1      33.259  21.109  26.149  1.00  0.00     0.095 A 
BRANCH  26  29
ATOM     29  C   UNL A   1      33.198  19.451  24.330  1.00  0.00    -0.001 A 
ATOM     30  C   UNL A   1      32.442  18.846  23.321  1.00  0.00     0.010 A 
ATOM     31  C   UNL A   1      34.363  18.781  24.765  1.00  0.00     0.010 A 
ATOM     32  C   UNL A   1      32.855  17.632  22.752  1.00  0.00     0.001 A 
ATOM     33  C   UNL A   1      34.785  17.584  24.188  1.00  0.00     0.001 A 
ATOM     34  C   UNL A   1      34.029  17.008  23.177  1.00  0.00     0.000 A 
ENDBRANCH  26  29
ENDBRANCH  20  22
ENDBRANCH   9  20
ENDBRANCH   8   9
ENDBRANCH   6   8
ENDBRANCH   5   6
ENDBRANCH   4   5
ENDBRANCH   3   4
ENDBRANCH   2   3
ENDBRANCH   1   2
BRANCH   1  35
ATOM     35  C   UNL A   1      39.321  29.660  28.320  1.00  0.00     0.188 C 
BRANCH  35  36
ATOM     36  O   UNL A   1      39.804  28.604  27.503  1.00  0.00    -0.376 OA
BRANCH  36  37
ATOM     37  C   UNL A   1      40.764  28.927  26.498  1.00  0.00     0.202 C 
BRANCH  37  38
ATOM     38  C   UNL A   1      41.864  27.907  26.164  1.00  0.00     0.261 C 
BRANCH  38  39
ATOM     39  O   UNL A   1      43.197  28.313  26.531  1.00  0.00    -0.460 OA
BRANCH  39  40
ATOM     40  C   UNL A   1      43.712  27.722  27.635  1.00  0.00     0.338 C 
ATOM     41  O   UNL A   1      44.497  26.789  27.692  1.00  0.00    -0.246 OA
BRANCH  40  42
ATOM     42  C   UNL A   1      43.165  28.368  28.837  1.00  0.00     0.060 A 
ATOM     43  C   UNL A   1      43.388  29.725  29.099  1.00  0.00     0.016 A 
ATOM     44  C   UNL A   1      42.481  27.572  29.754  1.00  0.00     0.016 A 
ATOM     45  C   UNL A   1      42.922  30.294  30.295  1.00  0.00     0.010 A 
ATOM     46  C   UNL A   1      41.981  28.152  30.922  1.00  0.00     0.010 A 
ATOM     47  C   UNL A   1      42.227  29.509  31.226  1.00  0.00    -0.014 A 
BRANCH  47  48
ATOM     48  C   UNL A   1      41.942  29.975  32.613  1.00  0.00     0.031 A 
ATOM     49  C   UNL A   1      40.633  30.688  32.844  1.00  0.00     0.074 A 
ATOM     50  C   UNL A   1      42.807  29.850  33.640  1.00  0.00     0.049 A 
ATOM     51  N   UNL A   1      40.240  31.414  33.858  1.00  0.00    -0.248 NA
ATOM     52  C   UNL A   1      39.655  30.609  31.744  1.00  0.00     0.031 C 
ATOM     53  C   UNL A   1      44.092  29.161  33.605  1.00  0.00     0.029 A 
ATOM     54  N   UNL A   1      42.724  30.335  34.926  1.00  0.00    -0.354 N 
ATOM     55  C   UNL A   1      39.008  31.936  33.484  1.00  0.00     0.074 A 
ATOM     56  C   UNL A   1      38.745  31.484  32.136  1.00  0.00     0.031 C 
ATOM     57  C   UNL A   1      44.683  29.270  34.810  1.00  0.00     0.029 A 
ATOM     58  C   UNL A   1      43.834  30.069  35.692  1.00  0.00     0.049 A 
ATOM     59  H   UNL A   1      41.942  30.827  35.265  1.00  0.00     0.167 HD
ATOM     60  C   UNL A   1      38.155  32.707  34.195  1.00  0.00     0.031 A 
ATOM     61  C   UNL A   1      44.136  30.441  36.953  1.00  0.00     0.031 A 
ATOM     62  C   UNL A   1      38.368  33.101  35.559  1.00  0.00     0.049 A 
ATOM     63  C   UNL A   1      43.172  31.296  37.738  1.00  0.00     0.074 A 
ATOM     64  C   UNL A   1      37.533  33.831  36.384  1.00  0.00     0.029 A 
ATOM     65  N   UNL A   1      39.490  32.776  36.304  1.00  0.00    -0.354 N 
ATOM     66  N   UNL A   1      42.008  31.781  37.377  1.00  0.00    -0.248 NA
ATOM     67  C   UNL A   1      43.564  31.652  39.113  1.00  0.00     0.031 C 
ATOM     68  C   UNL A   1      38.165  33.977  37.623  1.00  0.00     0.029 A 
ATOM     69  C   UNL A   1      39.370  33.295  37.580  1.00  0.00     0.049 A 
ATOM     70  H   UNL A   1      40.256  32.254  35.973  1.00  0.00     0.167 HD
ATOM     71  C   UNL A   1      41.515  32.459  38.487  1.00  0.00     0.074 A 
ATOM     72  C   UNL A   1      42.502  32.324  39.536  1.00  0.00     0.031 C 
ATOM     73  C   UNL A   1      40.346  33.131  38.625  1.00  0.00     0.031 A 
BRANCH  60  74
ATOM     74  C   UNL A   1      36.917  33.180  33.490  1.00  0.00    -0.014 A 
ATOM     75  C   UNL A   1      35.838  32.316  33.243  1.00  0.00     0.009 A 
ATOM     76  C   UNL A   1      36.843  34.508  33.042  1.00  0.00     0.009 A 
ATOM     77  C   UNL A   1      34.735  32.756  32.509  1.00  0.00     0.001 A 
ATOM     78  C   UNL A   1      35.722  34.955  32.341  1.00  0.00     0.001 A 
ATOM     79  C   UNL A   1      34.678  34.076  32.062  1.00  0.00     0.000 A 
ENDBRANCH  60  74
BRANCH  61  80
ATOM     80  C   UNL A   1      45.415  30.007  37.580  1.00  0.00    -0.014 A 
ATOM     81  C   UNL A   1      46.572  30.791  37.443  1.00  0.00     0.009 A 
ATOM     82  C   UNL A   1      45.499  28.793  38.277  1.00  0.00     0.009 A 
ATOM     83  C   UNL A   1      47.792  30.353  37.965  1.00  0.00     0.001 A 
ATOM     84  C   UNL A   1      46.714  28.371  38.822  1.00  0.00     0.001 A 
ATOM     85  C   UNL A   1      47.861  29.146  38.658  1.00  0.00     0.000 A 
ENDBRANCH  61  80
BRANCH  73  86
ATOM     86  C   UNL A   1      40.024  33.720  39.970  1.00  0.00    -0.014 A 
ATOM     87  C   UNL A   1      39.414  32.959  40.977  1.00  0.00     0.009 A 
ATOM     88  C   UNL A   1      40.420  35.036  40.256  1.00  0.00     0.009 A 
ATOM     89  C   UNL A   1      39.188  33.514  42.239  1.00  0.00     0.001 A 
ATOM     90  C   UNL A   1      40.215  35.579  41.526  1.00  0.00     0.001 A 
ATOM     91  C   UNL A   1      39.594  34.819  42.514  1.00  0.00     0.000 A 
ENDBRANCH  73  86
ENDBRANCH  47  48
ENDBRANCH  40  42
ENDBRANCH  39  40
ENDBRANCH  38  39
ENDBRANCH  37  38
ENDBRANCH  36  37
ENDBRANCH  35  36
ENDBRANCH   1  35
TORSDOF 24
ENDMDL
