MODEL 1
REMARK VINA RESULT:     -11.6      0.000      0.000
REMARK SMILES Cc1cc(S(F)(F)(F)(F)F)cc2c1O[C@H](C(F)(F)F)C(C(=O)OCCOCCOCCOC(=O)c1ccc(-c3c4nc(c(-c5ccccc5)c5ccc([nH]5)c(-c5ccccc5)c5nc(c(-c6ccccc6)c6ccc3[nH]6)C=C5)C=C4)cc1)=C2
REMARK SMILES IDX 28 1 27 2 26 3 25 4 24 5 23 6 21 7 22 8 20 9 1 10 2 11 3 12
REMARK SMILES IDX 13 13 4 14 12 15 14 16 11 17 83 18 15 19 5 20 6 21 7 22 8 23
REMARK SMILES IDX 9 24 10 25 16 26 17 27 18 28 19 29 29 30 30 31 31 32 32 33
REMARK SMILES IDX 33 34 34 35 35 36 36 37 82 38 37 39 81 40 38 41 39 42 40 43
REMARK SMILES IDX 75 44 41 45 80 46 74 47 76 48 42 49 79 50 73 51 72 52 43 54
REMARK SMILES IDX 65 55 50 56 64 57 51 58 54 59 63 60 77 61 52 62 53 63 62 65
REMARK SMILES IDX 78 66 55 67 44 68 45 69 49 70 46 71 48 72 47 73 66 74 67 75
REMARK SMILES IDX 71 76 68 77 70 78 69 79 56 80 57 81 61 82 58 83 60 84 59 85
REMARK H PARENT 76 53 54 64
REMARK Flexibility Score: inf
ROOT
ATOM      1  C   UNL A   1      31.568  29.248  25.453  1.00  0.00     0.188 C 
ENDROOT
BRANCH   1   2
ATOM      2  C   UNL A   1      31.182  29.253  23.982  1.00  0.00     0.188 C 
BRANCH   2   3
ATOM      3  O   UNL A   1      29.903  28.656  23.827  1.00  0.00    -0.376 OA
BRANCH   3   4
ATOM      4  C   UNL A   1      30.010  27.521  22.980  1.00  0.00     0.202 C 
BRANCH   4   5
ATOM      5  C   UNL A   1      30.167  26.269  23.828  1.00  0.00     0.261 C 
BRANCH   5   6
ATOM      6  O   UNL A   1      30.613  25.196  23.010  1.00  0.00    -0.460 OA
BRANCH   6   7
ATOM      7  C   UNL A   1      31.979  25.111  22.634  1.00  0.00     0.338 C 
ATOM      8  O   UNL A   1      32.463  25.941  21.802  1.00  0.00    -0.246 OA
BRANCH   7   9
ATOM      9  C   UNL A   1      32.863  24.024  23.225  1.00  0.00     0.087 C 
ATOM     10  C   UNL A   1      36.711  21.399  25.392  1.00  0.00     0.048 C 
ATOM     11  C   UNL A   1      35.327  21.064  24.859  1.00  0.00    -0.007 A 
ATOM     12  C   UNL A   1      34.866  19.766  24.894  1.00  0.00     0.031 A 
ATOM     13  C   UNL A   1      34.520  22.064  24.319  1.00  0.00     0.130 A 
ATOM     14  C   UNL A   1      33.610  19.447  24.393  1.00  0.00     0.108 A 
ATOM     15  C   UNL A   1      33.242  21.735  23.816  1.00  0.00     0.019 A 
ATOM     16  O   UNL A   1      34.956  23.465  24.253  1.00  0.00    -0.475 OA
ATOM     17  C   UNL A   1      32.799  20.412  23.865  1.00  0.00     0.036 A 
ATOM     18  C   UNL A   1      32.416  22.804  23.253  1.00  0.00     0.027 C 
ATOM     19  C   UNL A   1      34.121  24.378  23.715  1.00  0.00     0.316 C 
BRANCH  14  20
ATOM     20  S   UNL A   1      33.040  17.730  24.442  1.00  0.00     0.310 S 
ATOM     21  F   UNL A   1      34.553  17.254  24.481  1.00  0.00    -0.094 F 
ATOM     22  F   UNL A   1      33.124  17.639  22.871  1.00  0.00    -0.094 F 
ATOM     23  F   UNL A   1      32.631  16.232  24.534  1.00  0.00    -0.094 F 
ATOM     24  F   UNL A   1      33.097  17.803  26.018  1.00  0.00    -0.094 F 
ATOM     25  F   UNL A   1      33.564  19.219  24.368  1.00  0.00    -0.094 F 
ENDBRANCH  14  20
BRANCH  19  26
ATOM     26  C   UNL A   1      33.769  25.241  24.916  1.00  0.00     0.430 C 
ATOM     27  F   UNL A   1      34.723  25.132  25.835  1.00  0.00    -0.167 F 
ATOM     28  F   UNL A   1      33.663  26.510  24.535  1.00  0.00    -0.167 F 
ATOM     29  F   UNL A   1      32.611  24.835  25.429  1.00  0.00    -0.167 F 
ENDBRANCH  19  26
ENDBRANCH   7   9
ENDBRANCH   6   7
ENDBRANCH   5   6
ENDBRANCH   4   5
ENDBRANCH   3   4
ENDBRANCH   2   3
ENDBRANCH   1   2
BRANCH   1  30
ATOM     30  O   UNL A   1      32.414  30.355  25.723  1.00  0.00    -0.376 OA
BRANCH  30  31
ATOM     31  C   UNL A   1      31.709  31.311  26.501  1.00  0.00     0.202 C 
BRANCH  31  32
ATOM     32  C   UNL A   1      32.672  32.002  27.452  1.00  0.00     0.261 C 
BRANCH  32  33
ATOM     33  O   UNL A   1      32.341  33.380  27.542  1.00  0.00    -0.460 OA
BRANCH  33  34
ATOM     34  C   UNL A   1      33.095  34.238  28.385  1.00  0.00     0.338 C 
ATOM     35  O   UNL A   1      32.595  35.337  28.783  1.00  0.00    -0.246 OA
BRANCH  34  36
ATOM     36  C   UNL A   1      34.500  33.843  28.812  1.00  0.00     0.060 A 
ATOM     37  C   UNL A   1      34.709  33.327  30.087  1.00  0.00     0.016 A 
ATOM     38  C   UNL A   1      35.511  33.860  27.971  1.00  0.00     0.016 A 
ATOM     39  C   UNL A   1      35.785  32.423  30.234  1.00  0.00     0.010 A 
ATOM     40  C   UNL A   1      36.769  33.380  28.354  1.00  0.00     0.010 A 
ATOM     41  C   UNL A   1      36.913  32.675  29.456  1.00  0.00    -0.014 A 
BRANCH  41  42
ATOM     42  C   UNL A   1      38.278  32.149  29.871  1.00  0.00     0.031 A 
ATOM     43  C   UNL A   1      39.052  32.844  30.802  1.00  0.00     0.074 A 
ATOM     44  C   UNL A   1      38.595  30.892  29.386  1.00  0.00     0.049 A 
ATOM     45  N   UNL A   1      40.172  32.433  31.398  1.00  0.00    -0.248 NA
ATOM     46  C   UNL A   1      38.734  34.194  31.293  1.00  0.00     0.031 C 
ATOM     47  C   UNL A   1      37.816  30.180  28.453  1.00  0.00     0.029 A 
ATOM     48  N   UNL A   1      39.688  30.115  29.701  1.00  0.00    -0.354 N 
ATOM     49  C   UNL A   1      40.615  33.368  32.242  1.00  0.00     0.074 A 
ATOM     50  C   UNL A   1      39.700  34.516  32.182  1.00  0.00     0.031 C 
ATOM     51  C   UNL A   1      38.435  28.997  28.200  1.00  0.00     0.029 A 
ATOM     52  C   UNL A   1      39.612  28.949  28.971  1.00  0.00     0.049 A 
ATOM     53  H   UNL A   1      40.401  30.353  30.337  1.00  0.00     0.167 HD
ATOM     54  C   UNL A   1      41.743  33.306  33.061  1.00  0.00     0.031 A 
ATOM     55  C   UNL A   1      40.509  27.893  28.964  1.00  0.00     0.031 A 
ATOM     56  C   UNL A   1      42.617  32.231  33.085  1.00  0.00     0.049 A 
ATOM     57  C   UNL A   1      41.670  27.856  29.740  1.00  0.00     0.074 A 
ATOM     58  C   UNL A   1      43.755  32.149  33.910  1.00  0.00     0.029 A 
ATOM     59  N   UNL A   1      42.554  31.075  32.338  1.00  0.00    -0.354 N 
ATOM     60  N   UNL A   1      42.091  28.773  30.613  1.00  0.00    -0.248 NA
ATOM     61  C   UNL A   1      42.644  26.757  29.716  1.00  0.00     0.031 C 
ATOM     62  C   UNL A   1      44.375  30.966  33.658  1.00  0.00     0.029 A 
ATOM     63  C   UNL A   1      43.634  30.289  32.670  1.00  0.00     0.049 A 
ATOM     64  H   UNL A   1      41.857  30.851  31.680  1.00  0.00     0.167 HD
ATOM     65  C   UNL A   1      43.234  28.379  31.178  1.00  0.00     0.074 A 
ATOM     66  C   UNL A   1      43.610  27.080  30.604  1.00  0.00     0.031 C 
ATOM     67  C   UNL A   1      43.976  29.049  32.152  1.00  0.00     0.031 A 
BRANCH  54  68
ATOM     68  C   UNL A   1      42.030  34.485  33.977  1.00  0.00    -0.014 A 
ATOM     69  C   UNL A   1      42.811  35.552  33.546  1.00  0.00     0.009 A 
ATOM     70  C   UNL A   1      41.545  34.519  35.199  1.00  0.00     0.009 A 
ATOM     71  C   UNL A   1      42.621  36.783  34.212  1.00  0.00     0.001 A 
ATOM     72  C   UNL A   1      41.817  35.599  36.046  1.00  0.00     0.001 A 
ATOM     73  C   UNL A   1      42.341  36.709  35.575  1.00  0.00     0.000 A 
ENDBRANCH  54  68
BRANCH  55  74
ATOM     74  C   UNL A   1      40.213  26.707  28.060  1.00  0.00    -0.014 A 
ATOM     75  C   UNL A   1      40.645  26.691  26.738  1.00  0.00     0.009 A 
ATOM     76  C   UNL A   1      39.541  25.670  28.511  1.00  0.00     0.009 A 
ATOM     77  C   UNL A   1      40.790  25.420  26.137  1.00  0.00     0.001 A 
ATOM     78  C   UNL A   1      39.259  24.582  27.678  1.00  0.00     0.001 A 
ATOM     79  C   UNL A   1      39.866  24.449  26.516  1.00  0.00     0.000 A 
ENDBRANCH  55  74
BRANCH  67  80
ATOM     80  C   UNL A   1      45.235  28.378  32.676  1.00  0.00    -0.014 A 
ATOM     81  C   UNL A   1      45.215  27.444  33.706  1.00  0.00     0.009 A 
ATOM     82  C   UNL A   1      46.371  28.586  32.043  1.00  0.00     0.009 A 
ATOM     83  C   UNL A   1      46.217  26.448  33.675  1.00  0.00     0.001 A 
ATOM     84  C   UNL A   1      47.530  27.891  32.405  1.00  0.00     0.001 A 
ATOM     85  C   UNL A   1      47.466  26.844  33.200  1.00  0.00     0.000 A 
ENDBRANCH  67  80
ENDBRANCH  41  42
ENDBRANCH  34  36
ENDBRANCH  33  34
ENDBRANCH  32  33
ENDBRANCH  31  32
ENDBRANCH  30  31
ENDBRANCH   1  30
TORSDOF 19
ENDMDL
MODEL 2
REMARK VINA RESULT:     -11.5      0.479      5.644
REMARK SMILES Cc1cc(S(F)(F)(F)(F)F)cc2c1O[C@H](C(F)(F)F)C(C(=O)OCCOCCOCCOC(=O)c1ccc(-c3c4nc(c(-c5ccccc5)c5ccc([nH]5)c(-c5ccccc5)c5nc(c(-c6ccccc6)c6ccc3[nH]6)C=C5)C=C4)cc1)=C2
REMARK SMILES IDX 28 1 27 2 26 3 25 4 24 5 23 6 21 7 22 8 20 9 1 10 2 11 3 12
REMARK SMILES IDX 13 13 4 14 12 15 14 16 11 17 83 18 15 19 5 20 6 21 7 22 8 23
REMARK SMILES IDX 9 24 10 25 16 26 17 27 18 28 19 29 29 30 30 31 31 32 32 33
REMARK SMILES IDX 33 34 34 35 35 36 36 37 82 38 37 39 81 40 38 41 39 42 40 43
REMARK SMILES IDX 75 44 41 45 80 46 74 47 76 48 42 49 79 50 73 51 72 52 43 54
REMARK SMILES IDX 65 55 50 56 64 57 51 58 54 59 63 60 77 61 52 62 53 63 62 65
REMARK SMILES IDX 78 66 55 67 44 68 45 69 49 70 46 71 48 72 47 73 66 74 67 75
REMARK SMILES IDX 71 76 68 77 70 78 69 79 56 80 57 81 61 82 58 83 60 84 59 85
REMARK H PARENT 76 53 54 64
REMARK Flexibility Score: inf
ROOT
ATOM      1  C   UNL A   1      31.458  29.338  25.420  1.00  0.00     0.188 C 
ENDROOT
BRANCH   1   2
ATOM      2  C   UNL A   1      31.051  29.231  23.959  1.00  0.00     0.188 C 
BRANCH   2   3
ATOM      3  O   UNL A   1      29.775  28.616  23.866  1.00  0.00    -0.376 OA
BRANCH   3   4
ATOM      4  C   UNL A   1      29.869  27.448  23.064  1.00  0.00     0.202 C 
BRANCH   4   5
ATOM      5  C   UNL A   1      30.142  26.244  23.952  1.00  0.00     0.261 C 
BRANCH   5   6
ATOM      6  O   UNL A   1      30.555  25.148  23.148  1.00  0.00    -0.460 OA
BRANCH   6   7
ATOM      7  C   UNL A   1      31.884  25.093  22.651  1.00  0.00     0.338 C 
ATOM      8  O   UNL A   1      32.259  25.902  21.745  1.00  0.00    -0.246 OA
BRANCH   7   9
ATOM      9  C   UNL A   1      32.858  24.064  23.203  1.00  0.00     0.087 C 
ATOM     10  C   UNL A   1      37.003  21.654  25.050  1.00  0.00     0.048 C 
ATOM     11  C   UNL A   1      35.571  21.263  24.721  1.00  0.00    -0.007 A 
ATOM     12  C   UNL A   1      35.145  19.966  24.908  1.00  0.00     0.031 A 
ATOM     13  C   UNL A   1      34.681  22.211  24.217  1.00  0.00     0.130 A 
ATOM     14  C   UNL A   1      33.844  19.595  24.595  1.00  0.00     0.108 A 
ATOM     15  C   UNL A   1      33.357  21.830  23.905  1.00  0.00     0.019 A 
ATOM     16  O   UNL A   1      35.075  23.608  23.995  1.00  0.00    -0.475 OA
ATOM     17  C   UNL A   1      32.953  20.509  24.104  1.00  0.00     0.036 A 
ATOM     18  C   UNL A   1      32.444  22.844  23.375  1.00  0.00     0.027 C 
ATOM     19  C   UNL A   1      34.159  24.469  23.503  1.00  0.00     0.316 C 
BRANCH  14  20
ATOM     20  S   UNL A   1      33.321  17.880  24.839  1.00  0.00     0.310 S 
ATOM     21  F   UNL A   1      31.935  18.230  24.152  1.00  0.00    -0.094 F 
ATOM     22  F   UNL A   1      32.657  18.260  26.216  1.00  0.00    -0.094 F 
ATOM     23  F   UNL A   1      32.818  16.414  24.968  1.00  0.00    -0.094 F 
ATOM     24  F   UNL A   1      33.872  17.555  23.394  1.00  0.00    -0.094 F 
ATOM     25  F   UNL A   1      33.741  19.391  24.643  1.00  0.00    -0.094 F 
ENDBRANCH  14  20
BRANCH  19  26
ATOM     26  C   UNL A   1      33.942  25.414  24.673  1.00  0.00     0.430 C 
ATOM     27  F   UNL A   1      33.828  26.659  24.222  1.00  0.00    -0.167 F 
ATOM     28  F   UNL A   1      32.831  25.073  25.319  1.00  0.00    -0.167 F 
ATOM     29  F   UNL A   1      34.978  25.336  25.503  1.00  0.00    -0.167 F 
ENDBRANCH  19  26
ENDBRANCH   7   9
ENDBRANCH   6   7
ENDBRANCH   5   6
ENDBRANCH   4   5
ENDBRANCH   3   4
ENDBRANCH   2   3
ENDBRANCH   1   2
BRANCH   1  30
ATOM     30  O   UNL A   1      32.255  30.498  25.605  1.00  0.00    -0.376 OA
BRANCH  30  31
ATOM     31  C   UNL A   1      31.521  31.464  26.342  1.00  0.00     0.202 C 
BRANCH  31  32
ATOM     32  C   UNL A   1      32.411  32.067  27.416  1.00  0.00     0.261 C 
BRANCH  32  33
ATOM     33  O   UNL A   1      32.182  33.466  27.491  1.00  0.00    -0.460 OA
BRANCH  33  34
ATOM     34  C   UNL A   1      32.998  34.277  28.321  1.00  0.00     0.338 C 
ATOM     35  O   UNL A   1      32.618  35.449  28.636  1.00  0.00    -0.246 OA
BRANCH  34  36
ATOM     36  C   UNL A   1      34.327  33.746  28.835  1.00  0.00     0.060 A 
ATOM     37  C   UNL A   1      34.415  33.265  30.137  1.00  0.00     0.016 A 
ATOM     38  C   UNL A   1      35.372  33.612  28.047  1.00  0.00     0.016 A 
ATOM     39  C   UNL A   1      35.372  32.253  30.373  1.00  0.00     0.010 A 
ATOM     40  C   UNL A   1      36.546  33.010  28.512  1.00  0.00     0.010 A 
ATOM     41  C   UNL A   1      36.557  32.342  29.646  1.00  0.00    -0.014 A 
BRANCH  41  42
ATOM     42  C   UNL A   1      37.831  31.683  30.150  1.00  0.00     0.031 A 
ATOM     43  C   UNL A   1      38.263  30.471  29.608  1.00  0.00     0.074 A 
ATOM     44  C   UNL A   1      38.574  32.443  31.037  1.00  0.00     0.049 A 
ATOM     45  N   UNL A   1      39.432  29.862  29.808  1.00  0.00    -0.248 NA
ATOM     46  C   UNL A   1      37.461  29.646  28.692  1.00  0.00     0.031 C 
ATOM     47  C   UNL A   1      38.150  33.671  31.581  1.00  0.00     0.029 A 
ATOM     48  N   UNL A   1      39.823  32.165  31.547  1.00  0.00    -0.354 N 
ATOM     49  C   UNL A   1      39.488  28.728  29.104  1.00  0.00     0.074 A 
ATOM     50  C   UNL A   1      38.219  28.571  28.381  1.00  0.00     0.031 C 
ATOM     51  C   UNL A   1      39.122  34.121  32.416  1.00  0.00     0.029 A 
ATOM     52  C   UNL A   1      40.172  33.184  32.407  1.00  0.00     0.049 A 
ATOM     53  H   UNL A   1      40.372  31.376  31.334  1.00  0.00     0.167 HD
ATOM     54  C   UNL A   1      40.548  27.823  29.035  1.00  0.00     0.031 A 
ATOM     55  C   UNL A   1      41.335  33.304  33.151  1.00  0.00     0.031 A 
ATOM     56  C   UNL A   1      41.728  27.966  29.747  1.00  0.00     0.049 A 
ATOM     57  C   UNL A   1      42.372  32.368  33.128  1.00  0.00     0.074 A 
ATOM     58  C   UNL A   1      42.809  27.066  29.683  1.00  0.00     0.029 A 
ATOM     59  N   UNL A   1      42.067  28.971  30.625  1.00  0.00    -0.354 N 
ATOM     60  N   UNL A   1      42.443  31.256  32.394  1.00  0.00    -0.248 NA
ATOM     61  C   UNL A   1      43.593  32.468  33.937  1.00  0.00     0.031 C 
ATOM     62  C   UNL A   1      43.783  27.517  30.518  1.00  0.00     0.029 A 
ATOM     63  C   UNL A   1      43.325  28.706  31.117  1.00  0.00     0.049 A 
ATOM     64  H   UNL A   1      41.507  29.745  30.860  1.00  0.00     0.167 HD
ATOM     65  C   UNL A   1      43.596  30.626  32.626  1.00  0.00     0.074 A 
ATOM     66  C   UNL A   1      44.350  31.393  33.627  1.00  0.00     0.031 C 
ATOM     67  C   UNL A   1      44.052  29.443  32.040  1.00  0.00     0.031 A 
BRANCH  54  68
ATOM     68  C   UNL A   1      40.398  26.612  28.128  1.00  0.00    -0.014 A 
ATOM     69  C   UNL A   1      39.830  25.432  28.598  1.00  0.00     0.009 A 
ATOM     70  C   UNL A   1      40.805  26.655  26.878  1.00  0.00     0.009 A 
ATOM     71  C   UNL A   1      39.273  24.570  27.628  1.00  0.00     0.001 A 
ATOM     72  C   UNL A   1      40.678  25.537  26.046  1.00  0.00     0.001 A 
ATOM     73  C   UNL A   1      39.931  24.515  26.401  1.00  0.00     0.000 A 
ENDBRANCH  54  68
BRANCH  55  74
ATOM     74  C   UNL A   1      41.490  34.523  34.046  1.00  0.00    -0.014 A 
ATOM     75  C   UNL A   1      40.980  34.531  35.340  1.00  0.00     0.009 A 
ATOM     76  C   UNL A   1      42.113  35.599  33.613  1.00  0.00     0.009 A 
ATOM     77  C   UNL A   1      41.576  35.435  36.248  1.00  0.00     0.001 A 
ATOM     78  C   UNL A   1      42.249  36.726  34.430  1.00  0.00     0.001 A 
ATOM     79  C   UNL A   1      41.991  36.656  35.720  1.00  0.00     0.000 A 
ENDBRANCH  55  74
BRANCH  67  80
ATOM     80  C   UNL A   1      45.428  28.935  32.437  1.00  0.00    -0.014 A 
ATOM     81  C   UNL A   1      45.636  28.119  33.543  1.00  0.00     0.009 A 
ATOM     82  C   UNL A   1      46.442  29.162  31.629  1.00  0.00     0.009 A 
ATOM     83  C   UNL A   1      46.713  27.208  33.463  1.00  0.00     0.001 A 
ATOM     84  C   UNL A   1      47.699  28.604  31.883  1.00  0.00     0.001 A 
ATOM     85  C   UNL A   1      47.843  27.648  32.776  1.00  0.00     0.000 A 
ENDBRANCH  67  80
ENDBRANCH  41  42
ENDBRANCH  34  36
ENDBRANCH  33  34
ENDBRANCH  32  33
ENDBRANCH  31  32
ENDBRANCH  30  31
ENDBRANCH   1  30
TORSDOF 19
ENDMDL
MODEL 3
REMARK VINA RESULT:     -11.1      3.387      9.050
REMARK SMILES Cc1cc(S(F)(F)(F)(F)F)cc2c1O[C@H](C(F)(F)F)C(C(=O)OCCOCCOCCOC(=O)c1ccc(-c3c4nc(c(-c5ccccc5)c5ccc([nH]5)c(-c5ccccc5)c5nc(c(-c6ccccc6)c6ccc3[nH]6)C=C5)C=C4)cc1)=C2
REMARK SMILES IDX 28 1 27 2 26 3 25 4 24 5 23 6 21 7 22 8 20 9 1 10 2 11 3 12
REMARK SMILES IDX 13 13 4 14 12 15 14 16 11 17 83 18 15 19 5 20 6 21 7 22 8 23
REMARK SMILES IDX 9 24 10 25 16 26 17 27 18 28 19 29 29 30 30 31 31 32 32 33
REMARK SMILES IDX 33 34 34 35 35 36 36 37 82 38 37 39 81 40 38 41 39 42 40 43
REMARK SMILES IDX 75 44 41 45 80 46 74 47 76 48 42 49 79 50 73 51 72 52 43 54
REMARK SMILES IDX 65 55 50 56 64 57 51 58 54 59 63 60 77 61 52 62 53 63 62 65
REMARK SMILES IDX 78 66 55 67 44 68 45 69 49 70 46 71 48 72 47 73 66 74 67 75
REMARK SMILES IDX 71 76 68 77 70 78 69 79 56 80 57 81 61 82 58 83 60 84 59 85
REMARK H PARENT 76 53 54 64
REMARK Flexibility Score: inf
ROOT
ATOM      1  C   UNL A   1      40.620  20.197  26.475  1.00  0.00     0.188 C 
ENDROOT
BRANCH   1   2
ATOM      2  C   UNL A   1      40.352  21.499  27.213  1.00  0.00     0.188 C 
BRANCH   2   3
ATOM      3  O   UNL A   1      39.283  22.189  26.583  1.00  0.00    -0.376 OA
BRANCH   3   4
ATOM      4  C   UNL A   1      38.582  21.297  25.729  1.00  0.00     0.202 C 
BRANCH   4   5
ATOM      5  C   UNL A   1      37.408  22.023  25.091  1.00  0.00     0.261 C 
BRANCH   5   6
ATOM      6  O   UNL A   1      36.255  21.195  25.144  1.00  0.00    -0.460 OA
BRANCH   6   7
ATOM      7  C   UNL A   1      35.060  21.678  25.738  1.00  0.00     0.338 C 
ATOM      8  O   UNL A   1      34.609  21.132  26.794  1.00  0.00    -0.246 OA
BRANCH   7   9
ATOM      9  C   UNL A   1      34.318  22.847  25.110  1.00  0.00     0.087 C 
ATOM     10  C   UNL A   1      31.801  25.973  21.902  1.00  0.00     0.048 C 
ATOM     11  C   UNL A   1      32.275  26.044  23.344  1.00  0.00    -0.007 A 
ATOM     12  C   UNL A   1      32.050  27.177  24.094  1.00  0.00     0.031 A 
ATOM     13  C   UNL A   1      32.954  24.968  23.916  1.00  0.00     0.130 A 
ATOM     14  C   UNL A   1      32.494  27.258  25.408  1.00  0.00     0.108 A 
ATOM     15  C   UNL A   1      33.400  25.053  25.254  1.00  0.00     0.019 A 
ATOM     16  O   UNL A   1      33.226  23.733  23.168  1.00  0.00    -0.475 OA
ATOM     17  C   UNL A   1      33.156  26.214  25.990  1.00  0.00     0.036 A 
ATOM     18  C   UNL A   1      34.110  23.910  25.828  1.00  0.00     0.027 C 
ATOM     19  C   UNL A   1      33.889  22.734  23.787  1.00  0.00     0.316 C 
BRANCH  14  20
ATOM     20  S   UNL A   1      32.193  28.767  26.360  1.00  0.00     0.310 S 
ATOM     21  F   UNL A   1      33.181  28.230  27.479  1.00  0.00    -0.094 F 
ATOM     22  F   UNL A   1      31.026  28.059  27.147  1.00  0.00    -0.094 F 
ATOM     23  F   UNL A   1      32.025  30.056  27.215  1.00  0.00    -0.094 F 
ATOM     24  F   UNL A   1      33.454  29.408  25.657  1.00  0.00    -0.094 F 
ATOM     25  F   UNL A   1      32.448  27.426  25.563  1.00  0.00    -0.094 F 
ENDBRANCH  14  20
BRANCH  19  26
ATOM     26  C   UNL A   1      32.826  21.652  23.883  1.00  0.00     0.430 C 
ATOM     27  F   UNL A   1      32.064  21.681  22.794  1.00  0.00    -0.167 F 
ATOM     28  F   UNL A   1      33.413  20.462  23.981  1.00  0.00    -0.167 F 
ATOM     29  F   UNL A   1      32.073  21.865  24.958  1.00  0.00    -0.167 F 
ENDBRANCH  19  26
ENDBRANCH   7   9
ENDBRANCH   6   7
ENDBRANCH   5   6
ENDBRANCH   4   5
ENDBRANCH   3   4
ENDBRANCH   2   3
ENDBRANCH   1   2
BRANCH   1  30
ATOM     30  O   UNL A   1      41.805  20.327  25.703  1.00  0.00    -0.376 OA
BRANCH  30  31
ATOM     31  C   UNL A   1      42.874  20.738  26.543  1.00  0.00     0.202 C 
BRANCH  31  32
ATOM     32  C   UNL A   1      44.065  21.138  25.689  1.00  0.00     0.261 C 
BRANCH  32  33
ATOM     33  O   UNL A   1      44.426  22.480  25.978  1.00  0.00    -0.460 OA
BRANCH  33  34
ATOM     34  C   UNL A   1      43.637  23.551  25.481  1.00  0.00     0.338 C 
ATOM     35  O   UNL A   1      43.343  23.603  24.246  1.00  0.00    -0.246 OA
BRANCH  34  36
ATOM     36  C   UNL A   1      43.145  24.635  26.426  1.00  0.00     0.060 A 
ATOM     37  C   UNL A   1      41.970  24.437  27.143  1.00  0.00     0.016 A 
ATOM     38  C   UNL A   1      43.860  25.710  26.680  1.00  0.00     0.016 A 
ATOM     39  C   UNL A   1      41.878  25.085  28.396  1.00  0.00     0.010 A 
ATOM     40  C   UNL A   1      43.441  26.636  27.643  1.00  0.00     0.010 A 
ATOM     41  C   UNL A   1      42.475  26.341  28.487  1.00  0.00    -0.014 A 
BRANCH  41  42
ATOM     42  C   UNL A   1      42.023  27.344  29.536  1.00  0.00     0.031 A 
ATOM     43  C   UNL A   1      40.895  28.137  29.316  1.00  0.00     0.074 A 
ATOM     44  C   UNL A   1      42.706  27.284  30.738  1.00  0.00     0.049 A 
ATOM     45  N   UNL A   1      40.270  28.923  30.194  1.00  0.00    -0.248 NA
ATOM     46  C   UNL A   1      40.189  28.227  28.030  1.00  0.00     0.031 C 
ATOM     47  C   UNL A   1      43.839  26.481  30.970  1.00  0.00     0.029 A 
ATOM     48  N   UNL A   1      42.429  27.968  31.902  1.00  0.00    -0.354 N 
ATOM     49  C   UNL A   1      39.217  29.509  29.621  1.00  0.00     0.074 A 
ATOM     50  C   UNL A   1      39.153  29.074  28.219  1.00  0.00     0.031 C 
ATOM     51  C   UNL A   1      44.248  26.686  32.250  1.00  0.00     0.029 A 
ATOM     52  C   UNL A   1      43.375  27.620  32.841  1.00  0.00     0.049 A 
ATOM     53  H   UNL A   1      41.683  28.597  32.039  1.00  0.00     0.167 HD
ATOM     54  C   UNL A   1      38.307  30.385  30.212  1.00  0.00     0.031 A 
ATOM     55  C   UNL A   1      43.489  28.082  34.142  1.00  0.00     0.031 A 
ATOM     56  C   UNL A   1      38.395  30.814  31.527  1.00  0.00     0.049 A 
ATOM     57  C   UNL A   1      42.612  29.005  34.717  1.00  0.00     0.074 A 
ATOM     58  C   UNL A   1      37.481  31.691  32.142  1.00  0.00     0.029 A 
ATOM     59  N   UNL A   1      39.355  30.484  32.459  1.00  0.00    -0.354 N 
ATOM     60  N   UNL A   1      41.536  29.559  34.155  1.00  0.00    -0.248 NA
ATOM     61  C   UNL A   1      42.741  29.525  36.084  1.00  0.00     0.031 C 
ATOM     62  C   UNL A   1      37.889  31.896  33.422  1.00  0.00     0.029 A 
ATOM     63  C   UNL A   1      39.066  31.150  33.629  1.00  0.00     0.049 A 
ATOM     64  H   UNL A   1      40.117  29.879  32.313  1.00  0.00     0.167 HD
ATOM     65  C   UNL A   1      40.936  30.377  35.022  1.00  0.00     0.074 A 
ATOM     66  C   UNL A   1      41.706  30.373  36.273  1.00  0.00     0.031 C 
ATOM     67  C   UNL A   1      39.774  31.125  34.821  1.00  0.00     0.031 A 
BRANCH  54  68
ATOM     68  C   UNL A   1      37.152  30.900  29.367  1.00  0.00    -0.014 A 
ATOM     69  C   UNL A   1      37.051  32.248  29.040  1.00  0.00     0.009 A 
ATOM     70  C   UNL A   1      36.225  30.078  28.926  1.00  0.00     0.009 A 
ATOM     71  C   UNL A   1      36.296  32.563  27.889  1.00  0.00     0.001 A 
ATOM     72  C   UNL A   1      35.157  30.552  28.156  1.00  0.00     0.001 A 
ATOM     73  C   UNL A   1      35.182  31.763  27.643  1.00  0.00     0.000 A 
ENDBRANCH  54  68
BRANCH  55  74
ATOM     74  C   UNL A   1      44.633  27.555  34.992  1.00  0.00    -0.014 A 
ATOM     75  C   UNL A   1      45.862  28.205  35.020  1.00  0.00     0.009 A 
ATOM     76  C   UNL A   1      44.484  26.470  35.722  1.00  0.00     0.009 A 
ATOM     77  C   UNL A   1      46.668  27.986  36.160  1.00  0.00     0.001 A 
ATOM     78  C   UNL A   1      45.539  25.978  36.498  1.00  0.00     0.001 A 
ATOM     79  C   UNL A   1      46.611  26.711  36.720  1.00  0.00     0.000 A 
ENDBRANCH  55  74
BRANCH  67  80
ATOM     80  C   UNL A   1      39.255  31.962  35.978  1.00  0.00    -0.014 A 
ATOM     81  C   UNL A   1      39.657  33.274  36.196  1.00  0.00     0.009 A 
ATOM     82  C   UNL A   1      38.286  31.474  36.724  1.00  0.00     0.009 A 
ATOM     83  C   UNL A   1      38.715  34.131  36.807  1.00  0.00     0.001 A 
ATOM     84  C   UNL A   1      37.684  32.254  37.717  1.00  0.00     0.001 A 
ATOM     85  C   UNL A   1      37.886  33.553  37.766  1.00  0.00     0.000 A 
ENDBRANCH  67  80
ENDBRANCH  41  42
ENDBRANCH  34  36
ENDBRANCH  33  34
ENDBRANCH  32  33
ENDBRANCH  31  32
ENDBRANCH  30  31
ENDBRANCH   1  30
TORSDOF 19
ENDMDL
