MODEL 1
REMARK VINA RESULT:     -10.3      0.000      0.000
REMARK SMILES O=C(OCCOCCOCCOC(=O)[C@@H]1C=C[C@H](NC(=O)[C@@H]2Cc3ccccc3O2)C1)c1ccc(-c2c3nc(c(-c4ccccc4)c4ccc([nH]4)c(-c4ccccc4)c4nc(c(-c5ccccc5)c5ccc2[nH]5)C=C4)C=C3)cc1
REMARK SMILES IDX 7 1 6 2 5 3 4 4 3 5 2 6 1 7 32 8 33 9 79 10 34 11 78 12
REMARK SMILES IDX 35 13 36 14 37 15 72 16 38 17 77 18 71 19 73 20 39 21 76 22
REMARK SMILES IDX 70 23 69 24 40 26 62 27 47 28 61 29 48 30 51 31 60 32 74 33
REMARK SMILES IDX 49 34 50 35 59 37 75 38 52 39 41 40 42 41 46 42 43 43 45 44
REMARK SMILES IDX 44 45 63 46 64 47 68 48 65 49 67 50 66 51 53 52 54 53 58 54
REMARK SMILES IDX 55 55 57 56 56 57 8 58 9 59 10 60 11 61 12 62 13 63 14 64
REMARK SMILES IDX 15 65 16 66 31 67 17 68 18 69 19 70 20 71 21 73 22 74 23 75
REMARK SMILES IDX 30 76 24 77 29 78 25 79 28 80 26 81 27 82
REMARK H PARENT 73 25 51 36 19 72
REMARK Flexibility Score: inf
ROOT
ATOM      1  C   UNL A   1      34.972  32.945  28.268  1.00  0.00     0.188 C 
ENDROOT
BRANCH   1   2
ATOM      2  O   UNL A   1      33.800  33.761  28.323  1.00  0.00    -0.376 OA
BRANCH   2   3
ATOM      3  C   UNL A   1      34.056  35.157  28.522  1.00  0.00     0.202 C 
BRANCH   3   4
ATOM      4  C   UNL A   1      32.987  35.951  29.300  1.00  0.00     0.261 C 
BRANCH   4   5
ATOM      5  O   UNL A   1      32.501  35.294  30.485  1.00  0.00    -0.460 OA
BRANCH   5   6
ATOM      6  C   UNL A   1      32.968  35.385  31.755  1.00  0.00     0.338 C 
ATOM      7  O   UNL A   1      32.354  36.075  32.566  1.00  0.00    -0.246 OA
BRANCH   6   8
ATOM      8  C   UNL A   1      34.214  34.707  32.221  1.00  0.00     0.060 A 
ATOM      9  C   UNL A   1      35.483  35.270  32.143  1.00  0.00     0.016 A 
ATOM     10  C   UNL A   1      34.089  33.463  32.860  1.00  0.00     0.016 A 
ATOM     11  C   UNL A   1      36.610  34.602  32.584  1.00  0.00     0.010 A 
ATOM     12  C   UNL A   1      35.213  32.802  33.369  1.00  0.00     0.010 A 
ATOM     13  C   UNL A   1      36.482  33.366  33.207  1.00  0.00    -0.014 A 
BRANCH  13  14
ATOM     14  C   UNL A   1      37.726  32.669  33.571  1.00  0.00     0.031 A 
ATOM     15  C   UNL A   1      38.330  31.732  32.575  1.00  0.00     0.074 A 
ATOM     16  C   UNL A   1      38.377  33.018  34.696  1.00  0.00     0.049 A 
ATOM     17  N   UNL A   1      39.414  31.015  32.678  1.00  0.00    -0.248 NA
ATOM     18  C   UNL A   1      37.634  31.602  31.283  1.00  0.00     0.031 C 
ATOM     19  C   UNL A   1      37.923  34.038  35.645  1.00  0.00     0.029 A 
ATOM     20  N   UNL A   1      39.571  32.596  35.213  1.00  0.00    -0.354 N 
ATOM     21  C   UNL A   1      39.511  30.320  31.481  1.00  0.00     0.074 A 
ATOM     22  C   UNL A   1      38.384  30.703  30.663  1.00  0.00     0.031 C 
ATOM     23  C   UNL A   1      38.849  34.188  36.604  1.00  0.00     0.029 A 
ATOM     24  C   UNL A   1      39.901  33.208  36.399  1.00  0.00     0.049 A 
ATOM     25  H   UNL A   1      40.140  31.921  34.779  1.00  0.00     0.167 HD
ATOM     26  C   UNL A   1      40.459  29.430  31.116  1.00  0.00     0.031 A 
ATOM     27  C   UNL A   1      40.912  32.964  37.252  1.00  0.00     0.031 A 
ATOM     28  C   UNL A   1      41.560  29.067  31.962  1.00  0.00     0.049 A 
ATOM     29  C   UNL A   1      41.875  31.875  36.877  1.00  0.00     0.074 A 
ATOM     30  C   UNL A   1      42.554  28.135  31.735  1.00  0.00     0.029 A 
ATOM     31  N   UNL A   1      41.806  29.626  33.210  1.00  0.00    -0.354 N 
ATOM     32  N   UNL A   1      41.928  31.173  35.770  1.00  0.00    -0.248 NA
ATOM     33  C   UNL A   1      42.902  31.532  37.864  1.00  0.00     0.031 C 
ATOM     34  C   UNL A   1      43.364  28.085  32.874  1.00  0.00     0.029 A 
ATOM     35  C   UNL A   1      42.917  29.036  33.780  1.00  0.00     0.049 A 
ATOM     36  H   UNL A   1      41.267  30.338  33.626  1.00  0.00     0.167 HD
ATOM     37  C   UNL A   1      43.007  30.316  35.918  1.00  0.00     0.074 A 
ATOM     38  C   UNL A   1      43.595  30.610  37.211  1.00  0.00     0.031 C 
ATOM     39  C   UNL A   1      43.468  29.366  35.069  1.00  0.00     0.031 A 
BRANCH  26  40
ATOM     40  C   UNL A   1      40.277  28.733  29.800  1.00  0.00    -0.014 A 
ATOM     41  C   UNL A   1      39.568  27.528  29.688  1.00  0.00     0.009 A 
ATOM     42  C   UNL A   1      40.842  29.299  28.646  1.00  0.00     0.009 A 
ATOM     43  C   UNL A   1      39.451  26.891  28.449  1.00  0.00     0.001 A 
ATOM     44  C   UNL A   1      40.703  28.675  27.406  1.00  0.00     0.001 A 
ATOM     45  C   UNL A   1      40.013  27.467  27.310  1.00  0.00     0.000 A 
ENDBRANCH  26  40
BRANCH  27  46
ATOM     46  C   UNL A   1      41.003  33.670  38.561  1.00  0.00    -0.014 A 
ATOM     47  C   UNL A   1      41.788  34.822  38.717  1.00  0.00     0.009 A 
ATOM     48  C   UNL A   1      40.337  33.157  39.689  1.00  0.00     0.009 A 
ATOM     49  C   UNL A   1      41.935  35.419  39.973  1.00  0.00     0.001 A 
ATOM     50  C   UNL A   1      40.454  33.776  40.936  1.00  0.00     0.001 A 
ATOM     51  C   UNL A   1      41.267  34.896  41.081  1.00  0.00     0.000 A 
ENDBRANCH  27  46
BRANCH  39  52
ATOM     52  C   UNL A   1      44.691  28.616  35.508  1.00  0.00    -0.014 A 
ATOM     53  C   UNL A   1      44.590  27.414  36.225  1.00  0.00     0.009 A 
ATOM     54  C   UNL A   1      45.958  29.105  35.158  1.00  0.00     0.009 A 
ATOM     55  C   UNL A   1      45.744  26.733  36.614  1.00  0.00     0.001 A 
ATOM     56  C   UNL A   1      47.107  28.402  35.516  1.00  0.00     0.001 A 
ATOM     57  C   UNL A   1      46.998  27.223  36.252  1.00  0.00     0.000 A 
ENDBRANCH  39  52
ENDBRANCH  13  14
ENDBRANCH   6   8
ENDBRANCH   5   6
ENDBRANCH   4   5
ENDBRANCH   3   4
ENDBRANCH   2   3
ENDBRANCH   1   2
BRANCH   1  58
ATOM     58  C   UNL A   1      34.668  31.469  28.005  1.00  0.00     0.188 C 
BRANCH  58  59
ATOM     59  O   UNL A   1      33.435  31.183  27.351  1.00  0.00    -0.376 OA
BRANCH  59  60
ATOM     60  C   UNL A   1      33.358  29.979  26.597  1.00  0.00     0.202 C 
BRANCH  60  61
ATOM     61  C   UNL A   1      33.724  28.670  27.311  1.00  0.00     0.261 C 
BRANCH  61  62
ATOM     62  O   UNL A   1      33.543  27.493  26.505  1.00  0.00    -0.463 OA
BRANCH  62  63
ATOM     63  C   UNL A   1      32.366  26.821  26.678  1.00  0.00     0.312 C 
ATOM     64  O   UNL A   1      31.398  27.232  27.296  1.00  0.00    -0.252 OA
BRANCH  63  65
ATOM     65  C   UNL A   1      32.424  25.465  25.981  1.00  0.00     0.124 C 
ATOM     66  C   UNL A   1      33.822  25.002  25.696  1.00  0.00    -0.014 C 
ATOM     67  C   UNL A   1      31.838  25.588  24.569  1.00  0.00     0.048 C 
ATOM     68  C   UNL A   1      34.150  25.164  24.409  1.00  0.00    -0.006 C 
ATOM     69  C   UNL A   1      33.033  25.749  23.617  1.00  0.00     0.106 C 
BRANCH  69  70
ATOM     70  N   UNL A   1      33.345  27.119  23.310  1.00  0.00    -0.347 N 
ATOM     71  C   UNL A   1      32.611  28.261  23.337  1.00  0.00     0.261 C 
ATOM     72  H   UNL A   1      34.277  27.257  23.024  1.00  0.00     0.164 HD
ATOM     73  O   UNL A   1      33.251  29.303  23.126  1.00  0.00    -0.271 OA
BRANCH  71  74
ATOM     74  C   UNL A   1      31.083  28.363  23.539  1.00  0.00     0.266 C 
ATOM     75  C   UNL A   1      30.054  28.187  22.418  1.00  0.00     0.095 C 
ATOM     76  O   UNL A   1      30.823  29.613  24.243  1.00  0.00    -0.480 OA
ATOM     77  C   UNL A   1      29.274  29.438  22.549  1.00  0.00    -0.002 A 
ATOM     78  C   UNL A   1      29.744  30.169  23.622  1.00  0.00     0.123 A 
ATOM     79  C   UNL A   1      28.215  29.897  21.784  1.00  0.00     0.008 A 
ATOM     80  C   UNL A   1      29.159  31.358  24.004  1.00  0.00     0.047 A 
ATOM     81  C   UNL A   1      27.617  31.107  22.143  1.00  0.00     0.001 A 
ATOM     82  C   UNL A   1      28.078  31.829  23.255  1.00  0.00     0.004 A 
ENDBRANCH  71  74
ENDBRANCH  69  70
ENDBRANCH  63  65
ENDBRANCH  62  63
ENDBRANCH  61  62
ENDBRANCH  60  61
ENDBRANCH  59  60
ENDBRANCH  58  59
ENDBRANCH   1  58
TORSDOF 19
ENDMDL
MODEL 2
REMARK VINA RESULT:     -10.2      0.307      5.824
REMARK SMILES O=C(OCCOCCOCCOC(=O)[C@@H]1C=C[C@H](NC(=O)[C@@H]2Cc3ccccc3O2)C1)c1ccc(-c2c3nc(c(-c4ccccc4)c4ccc([nH]4)c(-c4ccccc4)c4nc(c(-c5ccccc5)c5ccc2[nH]5)C=C4)C=C3)cc1
REMARK SMILES IDX 7 1 6 2 5 3 4 4 3 5 2 6 1 7 32 8 33 9 79 10 34 11 78 12
REMARK SMILES IDX 35 13 36 14 37 15 72 16 38 17 77 18 71 19 73 20 39 21 76 22
REMARK SMILES IDX 70 23 69 24 40 26 62 27 47 28 61 29 48 30 51 31 60 32 74 33
REMARK SMILES IDX 49 34 50 35 59 37 75 38 52 39 41 40 42 41 46 42 43 43 45 44
REMARK SMILES IDX 44 45 63 46 64 47 68 48 65 49 67 50 66 51 53 52 54 53 58 54
REMARK SMILES IDX 55 55 57 56 56 57 8 58 9 59 10 60 11 61 12 62 13 63 14 64
REMARK SMILES IDX 15 65 16 66 31 67 17 68 18 69 19 70 20 71 21 73 22 74 23 75
REMARK SMILES IDX 30 76 24 77 29 78 25 79 28 80 26 81 27 82
REMARK H PARENT 73 25 51 36 19 72
REMARK Flexibility Score: inf
ROOT
ATOM      1  C   UNL A   1      34.947  33.046  28.382  1.00  0.00     0.188 C 
ENDROOT
BRANCH   1   2
ATOM      2  O   UNL A   1      33.768  33.855  28.387  1.00  0.00    -0.376 OA
BRANCH   2   3
ATOM      3  C   UNL A   1      34.008  35.253  28.595  1.00  0.00     0.202 C 
BRANCH   3   4
ATOM      4  C   UNL A   1      32.906  36.040  29.333  1.00  0.00     0.261 C 
BRANCH   4   5
ATOM      5  O   UNL A   1      32.419  35.404  30.529  1.00  0.00    -0.460 OA
BRANCH   5   6
ATOM      6  C   UNL A   1      32.923  35.468  31.787  1.00  0.00     0.338 C 
ATOM      7  O   UNL A   1      32.335  36.143  32.629  1.00  0.00    -0.246 OA
BRANCH   6   8
ATOM      8  C   UNL A   1      34.179  34.778  32.201  1.00  0.00     0.060 A 
ATOM      9  C   UNL A   1      35.447  35.343  32.106  1.00  0.00     0.016 A 
ATOM     10  C   UNL A   1      34.070  33.517  32.811  1.00  0.00     0.016 A 
ATOM     11  C   UNL A   1      36.584  34.663  32.500  1.00  0.00     0.010 A 
ATOM     12  C   UNL A   1      35.207  32.843  33.272  1.00  0.00     0.010 A 
ATOM     13  C   UNL A   1      36.472  33.411  33.093  1.00  0.00    -0.014 A 
BRANCH  13  14
ATOM     14  C   UNL A   1      37.724  32.704  33.406  1.00  0.00     0.031 A 
ATOM     15  C   UNL A   1      38.351  32.932  34.743  1.00  0.00     0.074 A 
ATOM     16  C   UNL A   1      38.172  31.748  32.571  1.00  0.00     0.049 A 
ATOM     17  N   UNL A   1      39.445  32.420  35.233  1.00  0.00    -0.248 NA
ATOM     18  C   UNL A   1      37.640  33.840  35.661  1.00  0.00     0.031 C 
ATOM     19  C   UNL A   1      37.525  31.363  31.313  1.00  0.00     0.029 A 
ATOM     20  N   UNL A   1      39.240  30.899  32.665  1.00  0.00    -0.354 N 
ATOM     21  C   UNL A   1      39.575  32.971  36.499  1.00  0.00     0.074 A 
ATOM     22  C   UNL A   1      38.449  33.851  36.709  1.00  0.00     0.031 C 
ATOM     23  C   UNL A   1      38.188  30.327  30.778  1.00  0.00     0.029 A 
ATOM     24  C   UNL A   1      39.360  30.049  31.591  1.00  0.00     0.049 A 
ATOM     25  H   UNL A   1      39.863  30.896  33.426  1.00  0.00     0.167 HD
ATOM     26  C   UNL A   1      40.564  32.761  37.395  1.00  0.00     0.031 A 
ATOM     27  C   UNL A   1      40.337  29.181  31.273  1.00  0.00     0.031 A 
ATOM     28  C   UNL A   1      41.675  31.886  37.145  1.00  0.00     0.049 A 
ATOM     29  C   UNL A   1      41.489  29.069  32.228  1.00  0.00     0.074 A 
ATOM     30  C   UNL A   1      42.773  31.633  37.944  1.00  0.00     0.029 A 
ATOM     31  N   UNL A   1      41.825  31.120  35.996  1.00  0.00    -0.354 N 
ATOM     32  N   UNL A   1      41.641  29.641  33.400  1.00  0.00    -0.248 NA
ATOM     33  C   UNL A   1      42.607  28.214  31.820  1.00  0.00     0.031 C 
ATOM     34  C   UNL A   1      43.619  30.763  37.249  1.00  0.00     0.029 A 
ATOM     35  C   UNL A   1      43.013  30.418  36.049  1.00  0.00     0.049 A 
ATOM     36  H   UNL A   1      41.178  31.083  35.254  1.00  0.00     0.167 HD
ATOM     37  C   UNL A   1      42.865  29.200  33.879  1.00  0.00     0.074 A 
ATOM     38  C   UNL A   1      43.397  28.290  32.882  1.00  0.00     0.031 C 
ATOM     39  C   UNL A   1      43.498  29.520  35.033  1.00  0.00     0.031 A 
BRANCH  26  40
ATOM     40  C   UNL A   1      40.528  33.564  38.660  1.00  0.00    -0.014 A 
ATOM     41  C   UNL A   1      41.151  34.817  38.766  1.00  0.00     0.009 A 
ATOM     42  C   UNL A   1      39.856  33.044  39.778  1.00  0.00     0.009 A 
ATOM     43  C   UNL A   1      41.124  35.519  39.975  1.00  0.00     0.001 A 
ATOM     44  C   UNL A   1      39.809  33.758  40.976  1.00  0.00     0.001 A 
ATOM     45  C   UNL A   1      40.449  34.991  41.075  1.00  0.00     0.000 A 
ENDBRANCH  26  40
BRANCH  27  46
ATOM     46  C   UNL A   1      40.325  28.447  29.976  1.00  0.00    -0.014 A 
ATOM     47  C   UNL A   1      40.984  28.951  28.845  1.00  0.00     0.009 A 
ATOM     48  C   UNL A   1      39.599  27.249  29.849  1.00  0.00     0.009 A 
ATOM     49  C   UNL A   1      40.886  28.296  27.613  1.00  0.00     0.001 A 
ATOM     50  C   UNL A   1      39.533  26.575  28.627  1.00  0.00     0.001 A 
ATOM     51  C   UNL A   1      40.162  27.108  27.505  1.00  0.00     0.000 A 
ENDBRANCH  27  46
BRANCH  39  52
ATOM     52  C   UNL A   1      44.813  28.843  35.283  1.00  0.00    -0.014 A 
ATOM     53  C   UNL A   1      46.023  29.430  34.885  1.00  0.00     0.009 A 
ATOM     54  C   UNL A   1      44.834  27.617  35.966  1.00  0.00     0.009 A 
ATOM     55  C   UNL A   1      47.231  28.781  35.137  1.00  0.00     0.001 A 
ATOM     56  C   UNL A   1      46.046  26.991  36.249  1.00  0.00     0.001 A 
ATOM     57  C   UNL A   1      47.242  27.569  35.825  1.00  0.00     0.000 A 
ENDBRANCH  39  52
ENDBRANCH  13  14
ENDBRANCH   6   8
ENDBRANCH   5   6
ENDBRANCH   4   5
ENDBRANCH   3   4
ENDBRANCH   2   3
ENDBRANCH   1   2
BRANCH   1  58
ATOM     58  C   UNL A   1      34.675  31.587  28.009  1.00  0.00     0.188 C 
BRANCH  58  59
ATOM     59  O   UNL A   1      33.395  31.304  27.453  1.00  0.00    -0.376 OA
BRANCH  59  60
ATOM     60  C   UNL A   1      33.263  30.110  26.688  1.00  0.00     0.202 C 
BRANCH  60  61
ATOM     61  C   UNL A   1      33.761  28.803  27.322  1.00  0.00     0.261 C 
BRANCH  61  62
ATOM     62  O   UNL A   1      33.531  27.637  26.514  1.00  0.00    -0.463 OA
BRANCH  62  63
ATOM     63  C   UNL A   1      32.377  26.950  26.764  1.00  0.00     0.312 C 
ATOM     64  O   UNL A   1      31.433  27.363  27.418  1.00  0.00    -0.252 OA
BRANCH  63  65
ATOM     65  C   UNL A   1      32.425  25.575  26.105  1.00  0.00     0.124 C 
ATOM     66  C   UNL A   1      33.819  25.101  25.821  1.00  0.00    -0.014 C 
ATOM     67  C   UNL A   1      31.828  25.661  24.694  1.00  0.00     0.048 C 
ATOM     68  C   UNL A   1      34.138  25.226  24.528  1.00  0.00    -0.006 C 
ATOM     69  C   UNL A   1      33.016  25.792  23.729  1.00  0.00     0.106 C 
BRANCH  69  70
ATOM     70  N   UNL A   1      33.329  27.153  23.382  1.00  0.00    -0.347 N 
ATOM     71  C   UNL A   1      32.592  28.292  23.359  1.00  0.00     0.261 C 
ATOM     72  H   UNL A   1      34.265  27.284  23.107  1.00  0.00     0.164 HD
ATOM     73  O   UNL A   1      33.233  29.328  23.125  1.00  0.00    -0.271 OA
BRANCH  71  74
ATOM     74  C   UNL A   1      31.060  28.396  23.531  1.00  0.00     0.266 C 
ATOM     75  C   UNL A   1      30.054  28.245  22.387  1.00  0.00     0.095 C 
ATOM     76  O   UNL A   1      30.790  29.633  24.254  1.00  0.00    -0.480 OA
ATOM     77  C   UNL A   1      29.276  29.496  22.526  1.00  0.00    -0.002 A 
ATOM     78  C   UNL A   1      29.726  30.205  23.621  1.00  0.00     0.123 A 
ATOM     79  C   UNL A   1      28.234  29.973  21.748  1.00  0.00     0.008 A 
ATOM     80  C   UNL A   1      29.137  31.389  24.014  1.00  0.00     0.047 A 
ATOM     81  C   UNL A   1      27.632  31.178  22.118  1.00  0.00     0.001 A 
ATOM     82  C   UNL A   1      28.073  31.877  23.253  1.00  0.00     0.004 A 
ENDBRANCH  71  74
ENDBRANCH  69  70
ENDBRANCH  63  65
ENDBRANCH  62  63
ENDBRANCH  61  62
ENDBRANCH  60  61
ENDBRANCH  59  60
ENDBRANCH  58  59
ENDBRANCH   1  58
TORSDOF 19
ENDMDL
MODEL 3
REMARK VINA RESULT:     -10.1      1.287      6.718
REMARK SMILES O=C(OCCOCCOCCOC(=O)[C@@H]1C=C[C@H](NC(=O)[C@@H]2Cc3ccccc3O2)C1)c1ccc(-c2c3nc(c(-c4ccccc4)c4ccc([nH]4)c(-c4ccccc4)c4nc(c(-c5ccccc5)c5ccc2[nH]5)C=C4)C=C3)cc1
REMARK SMILES IDX 7 1 6 2 5 3 4 4 3 5 2 6 1 7 32 8 33 9 79 10 34 11 78 12
REMARK SMILES IDX 35 13 36 14 37 15 72 16 38 17 77 18 71 19 73 20 39 21 76 22
REMARK SMILES IDX 70 23 69 24 40 26 62 27 47 28 61 29 48 30 51 31 60 32 74 33
REMARK SMILES IDX 49 34 50 35 59 37 75 38 52 39 41 40 42 41 46 42 43 43 45 44
REMARK SMILES IDX 44 45 63 46 64 47 68 48 65 49 67 50 66 51 53 52 54 53 58 54
REMARK SMILES IDX 55 55 57 56 56 57 8 58 9 59 10 60 11 61 12 62 13 63 14 64
REMARK SMILES IDX 15 65 16 66 31 67 17 68 18 69 19 70 20 71 21 73 22 74 23 75
REMARK SMILES IDX 30 76 24 77 29 78 25 79 28 80 26 81 27 82
REMARK H PARENT 73 25 51 36 19 72
REMARK Flexibility Score: inf
ROOT
ATOM      1  C   UNL A   1      34.417  32.998  29.288  1.00  0.00     0.188 C 
ENDROOT
BRANCH   1   2
ATOM      2  O   UNL A   1      33.303  33.892  29.218  1.00  0.00    -0.376 OA
BRANCH   2   3
ATOM      3  C   UNL A   1      33.644  35.240  28.871  1.00  0.00     0.202 C 
BRANCH   3   4
ATOM      4  C   UNL A   1      32.953  36.357  29.679  1.00  0.00     0.261 C 
BRANCH   4   5
ATOM      5  O   UNL A   1      32.330  35.912  30.899  1.00  0.00    -0.460 OA
BRANCH   5   6
ATOM      6  C   UNL A   1      32.851  35.876  32.151  1.00  0.00     0.338 C 
ATOM      7  O   UNL A   1      32.295  36.511  33.045  1.00  0.00    -0.246 OA
BRANCH   6   8
ATOM      8  C   UNL A   1      34.091  35.123  32.501  1.00  0.00     0.060 A 
ATOM      9  C   UNL A   1      35.374  35.656  32.431  1.00  0.00     0.016 A 
ATOM     10  C   UNL A   1      33.950  33.825  33.020  1.00  0.00     0.016 A 
ATOM     11  C   UNL A   1      36.494  34.917  32.763  1.00  0.00     0.010 A 
ATOM     12  C   UNL A   1      35.070  33.087  33.419  1.00  0.00     0.010 A 
ATOM     13  C   UNL A   1      36.350  33.630  33.266  1.00  0.00    -0.014 A 
BRANCH  13  14
ATOM     14  C   UNL A   1      37.584  32.866  33.513  1.00  0.00     0.031 A 
ATOM     15  C   UNL A   1      38.283  33.055  34.821  1.00  0.00     0.074 A 
ATOM     16  C   UNL A   1      37.949  31.900  32.651  1.00  0.00     0.049 A 
ATOM     17  N   UNL A   1      39.376  32.491  35.254  1.00  0.00    -0.248 NA
ATOM     18  C   UNL A   1      37.657  33.985  35.778  1.00  0.00     0.031 C 
ATOM     19  C   UNL A   1      37.226  31.554  31.424  1.00  0.00     0.029 A 
ATOM     20  N   UNL A   1      38.983  31.004  32.688  1.00  0.00    -0.354 N 
ATOM     21  C   UNL A   1      39.590  33.024  36.516  1.00  0.00     0.074 A 
ATOM     22  C   UNL A   1      38.515  33.950  36.786  1.00  0.00     0.031 C 
ATOM     23  C   UNL A   1      37.818  30.496  30.850  1.00  0.00     0.029 A 
ATOM     24  C   UNL A   1      39.013  30.160  31.603  1.00  0.00     0.049 A 
ATOM     25  H   UNL A   1      39.640  30.967  33.418  1.00  0.00     0.167 HD
ATOM     26  C   UNL A   1      40.611  32.764  37.361  1.00  0.00     0.031 A 
ATOM     27  C   UNL A   1      39.935  29.253  31.233  1.00  0.00     0.031 A 
ATOM     28  C   UNL A   1      41.669  31.844  37.052  1.00  0.00     0.049 A 
ATOM     29  C   UNL A   1      41.126  29.083  32.130  1.00  0.00     0.074 A 
ATOM     30  C   UNL A   1      42.792  31.536  37.796  1.00  0.00     0.029 A 
ATOM     31  N   UNL A   1      41.730  31.083  35.892  1.00  0.00    -0.354 N 
ATOM     32  N   UNL A   1      41.359  29.637  33.298  1.00  0.00    -0.248 NA
ATOM     33  C   UNL A   1      42.184  28.184  31.663  1.00  0.00     0.031 C 
ATOM     34  C   UNL A   1      43.565  30.637  37.055  1.00  0.00     0.029 A 
ATOM     35  C   UNL A   1      42.888  30.330  35.883  1.00  0.00     0.049 A 
ATOM     36  H   UNL A   1      41.048  31.081  35.182  1.00  0.00     0.167 HD
ATOM     37  C   UNL A   1      42.583  29.139  33.714  1.00  0.00     0.074 A 
ATOM     38  C   UNL A   1      43.027  28.216  32.686  1.00  0.00     0.031 C 
ATOM     39  C   UNL A   1      43.285  29.421  34.838  1.00  0.00     0.031 A 
BRANCH  26  40
ATOM     40  C   UNL A   1      40.670  33.556  38.633  1.00  0.00    -0.014 A 
ATOM     41  C   UNL A   1      40.079  33.101  39.822  1.00  0.00     0.009 A 
ATOM     42  C   UNL A   1      41.328  34.796  38.634  1.00  0.00     0.009 A 
ATOM     43  C   UNL A   1      40.125  33.885  40.978  1.00  0.00     0.001 A 
ATOM     44  C   UNL A   1      41.395  35.566  39.795  1.00  0.00     0.001 A 
ATOM     45  C   UNL A   1      40.787  35.113  40.965  1.00  0.00     0.000 A 
ENDBRANCH  26  40
BRANCH  27  46
ATOM     46  C   UNL A   1      39.829  28.533  29.933  1.00  0.00    -0.014 A 
ATOM     47  C   UNL A   1      39.295  27.238  29.857  1.00  0.00     0.009 A 
ATOM     48  C   UNL A   1      40.317  29.125  28.754  1.00  0.00     0.009 A 
ATOM     49  C   UNL A   1      39.287  26.542  28.643  1.00  0.00     0.001 A 
ATOM     50  C   UNL A   1      40.274  28.443  27.536  1.00  0.00     0.001 A 
ATOM     51  C   UNL A   1      39.774  27.145  27.484  1.00  0.00     0.000 A 
ENDBRANCH  27  46
BRANCH  39  52
ATOM     52  C   UNL A   1      44.579  28.685  35.021  1.00  0.00    -0.014 A 
ATOM     53  C   UNL A   1      45.791  29.215  34.553  1.00  0.00     0.009 A 
ATOM     54  C   UNL A   1      44.582  27.462  35.708  1.00  0.00     0.009 A 
ATOM     55  C   UNL A   1      46.980  28.513  34.743  1.00  0.00     0.001 A 
ATOM     56  C   UNL A   1      45.778  26.781  35.927  1.00  0.00     0.001 A 
ATOM     57  C   UNL A   1      46.973  27.303  35.436  1.00  0.00     0.000 A 
ENDBRANCH  39  52
ENDBRANCH  13  14
ENDBRANCH   6   8
ENDBRANCH   5   6
ENDBRANCH   4   5
ENDBRANCH   3   4
ENDBRANCH   2   3
ENDBRANCH   1   2
BRANCH   1  58
ATOM     58  C   UNL A   1      34.636  32.206  27.998  1.00  0.00     0.188 C 
BRANCH  58  59
ATOM     59  O   UNL A   1      34.785  30.796  28.138  1.00  0.00    -0.376 OA
BRANCH  59  60
ATOM     60  C   UNL A   1      33.739  29.974  27.633  1.00  0.00     0.202 C 
BRANCH  60  61
ATOM     61  C   UNL A   1      33.310  30.187  26.175  1.00  0.00     0.261 C 
BRANCH  61  62
ATOM     62  O   UNL A   1      33.526  29.046  25.328  1.00  0.00    -0.463 OA
BRANCH  62  63
ATOM     63  C   UNL A   1      32.934  29.090  24.097  1.00  0.00     0.312 C 
ATOM     64  O   UNL A   1      33.517  29.223  23.033  1.00  0.00    -0.252 OA
BRANCH  63  65
ATOM     65  C   UNL A   1      31.422  28.945  24.231  1.00  0.00     0.124 C 
ATOM     66  C   UNL A   1      30.998  27.609  24.764  1.00  0.00    -0.014 C 
ATOM     67  C   UNL A   1      30.780  28.948  22.838  1.00  0.00     0.048 C 
ATOM     68  C   UNL A   1      30.529  26.811  23.798  1.00  0.00    -0.006 C 
ATOM     69  C   UNL A   1      30.548  27.475  22.465  1.00  0.00     0.106 C 
BRANCH  69  70
ATOM     70  N   UNL A   1      31.608  26.908  21.676  1.00  0.00    -0.347 N 
ATOM     71  C   UNL A   1      32.556  25.973  21.939  1.00  0.00     0.261 C 
ATOM     72  H   UNL A   1      31.657  27.270  20.762  1.00  0.00     0.164 HD
ATOM     73  O   UNL A   1      33.242  25.630  20.964  1.00  0.00    -0.271 OA
BRANCH  71  74
ATOM     74  C   UNL A   1      32.884  25.365  23.321  1.00  0.00     0.266 C 
ATOM     75  C   UNL A   1      34.222  25.547  24.045  1.00  0.00     0.095 C 
ATOM     76  O   UNL A   1      32.557  23.945  23.257  1.00  0.00    -0.480 OA
ATOM     77  C   UNL A   1      34.594  24.140  24.312  1.00  0.00    -0.002 A 
ATOM     78  C   UNL A   1      33.589  23.301  23.872  1.00  0.00     0.123 A 
ATOM     79  C   UNL A   1      35.735  23.632  24.911  1.00  0.00     0.008 A 
ATOM     80  C   UNL A   1      33.654  21.934  24.046  1.00  0.00     0.047 A 
ATOM     81  C   UNL A   1      35.829  22.249  25.084  1.00  0.00     0.001 A 
ATOM     82  C   UNL A   1      34.789  21.404  24.665  1.00  0.00     0.004 A 
ENDBRANCH  71  74
ENDBRANCH  69  70
ENDBRANCH  63  65
ENDBRANCH  62  63
ENDBRANCH  61  62
ENDBRANCH  60  61
ENDBRANCH  59  60
ENDBRANCH  58  59
ENDBRANCH   1  58
TORSDOF 19
ENDMDL
