MODEL 1
REMARK VINA RESULT:      -8.4      0.000      0.000
REMARK SMILES CC(C)=CCC[C@H](C)CC(=O)OCCOCCOCCOC(=O)c1ccc(-c2c3nc(c(-c4ccccc4)c4ccc([nH]4)c(-c4ccccc4)c4nc(c(-c5ccccc5)c5ccc2[nH]5)C=C4)C=C3)cc1
REMARK SMILES IDX 16 1 15 2 14 3 13 4 12 5 10 6 11 7 9 8 7 9 8 10 6 11 5 12
REMARK SMILES IDX 4 13 1 14 2 15 3 16 17 17 18 18 19 19 20 20 21 21 22 22
REMARK SMILES IDX 23 23 24 24 25 25 71 26 26 27 70 28 27 29 28 30 29 31 64 32
REMARK SMILES IDX 30 33 69 34 63 35 65 36 31 37 68 38 62 39 61 40 32 42 54 43
REMARK SMILES IDX 39 44 53 45 40 46 43 47 52 48 66 49 41 50 42 51 51 53 67 54
REMARK SMILES IDX 44 55 33 56 34 57 38 58 35 59 37 60 36 61 55 62 56 63 60 64
REMARK SMILES IDX 57 65 59 66 58 67 45 68 46 69 50 70 47 71 49 72 48 73
REMARK H PARENT 65 41 43 52
REMARK Flexibility Score: inf
ROOT
ATOM      1  C   UNL A   1      34.592  22.453  25.819  1.00  0.00     0.188 C 
ENDROOT
BRANCH   1   2
ATOM      2  O   UNL A   1      35.013  23.782  26.112  1.00  0.00    -0.376 OA
BRANCH   2   3
ATOM      3  C   UNL A   1      34.693  24.775  25.134  1.00  0.00     0.202 C 
BRANCH   3   4
ATOM      4  C   UNL A   1      33.881  24.294  23.917  1.00  0.00     0.261 C 
BRANCH   4   5
ATOM      5  O   UNL A   1      34.182  25.002  22.691  1.00  0.00    -0.463 OA
BRANCH   5   6
ATOM      6  C   UNL A   1      33.116  25.480  21.999  1.00  0.00     0.306 C 
ATOM      7  O   UNL A   1      33.176  25.937  20.862  1.00  0.00    -0.252 OA
BRANCH   6   8
ATOM      8  C   UNL A   1      31.770  25.260  22.680  1.00  0.00     0.126 C 
BRANCH   8   9
ATOM      9  C   UNL A   1      30.805  26.427  22.956  1.00  0.00    -0.003 C 
ATOM     10  C   UNL A   1      29.748  26.055  24.003  1.00  0.00     0.008 C 
BRANCH   9  11
ATOM     11  C   UNL A   1      31.585  27.680  23.459  1.00  0.00     0.008 C 
BRANCH  11  12
ATOM     12  C   UNL A   1      30.773  28.779  24.167  1.00  0.00     0.027 C 
BRANCH  12  13
ATOM     13  C   UNL A   1      31.595  29.626  25.104  1.00  0.00    -0.028 C 
ATOM     14  C   UNL A   1      31.479  28.104  27.102  1.00  0.00     0.039 C 
ATOM     15  C   UNL A   1      31.927  29.346  26.381  1.00  0.00    -0.080 C 
ATOM     16  C   UNL A   1      32.797  30.282  27.179  1.00  0.00     0.039 C 
ENDBRANCH  12  13
ENDBRANCH  11  12
ENDBRANCH   9  11
ENDBRANCH   8   9
ENDBRANCH   6   8
ENDBRANCH   5   6
ENDBRANCH   4   5
ENDBRANCH   3   4
ENDBRANCH   2   3
ENDBRANCH   1   2
BRANCH   1  17
ATOM     17  C   UNL A   1      35.670  21.375  25.941  1.00  0.00     0.188 C 
BRANCH  17  18
ATOM     18  O   UNL A   1      36.657  21.367  24.926  1.00  0.00    -0.376 OA
BRANCH  18  19
ATOM     19  C   UNL A   1      38.023  21.435  25.331  1.00  0.00     0.202 C 
BRANCH  19  20
ATOM     20  C   UNL A   1      38.938  20.206  25.115  1.00  0.00     0.261 C 
BRANCH  20  21
ATOM     21  O   UNL A   1      39.682  19.710  26.250  1.00  0.00    -0.460 OA
BRANCH  21  22
ATOM     22  C   UNL A   1      41.028  19.662  26.162  1.00  0.00     0.338 C 
ATOM     23  O   UNL A   1      41.689  18.800  25.603  1.00  0.00    -0.246 OA
BRANCH  22  24
ATOM     24  C   UNL A   1      41.571  20.980  26.596  1.00  0.00     0.060 A 
ATOM     25  C   UNL A   1      41.436  21.327  27.946  1.00  0.00     0.016 A 
ATOM     26  C   UNL A   1      42.258  21.839  25.739  1.00  0.00     0.016 A 
ATOM     27  C   UNL A   1      41.936  22.531  28.444  1.00  0.00     0.010 A 
ATOM     28  C   UNL A   1      42.736  23.064  26.226  1.00  0.00     0.010 A 
ATOM     29  C   UNL A   1      42.545  23.434  27.572  1.00  0.00    -0.014 A 
BRANCH  29  30
ATOM     30  C   UNL A   1      42.765  24.843  27.989  1.00  0.00     0.031 A 
ATOM     31  C   UNL A   1      44.169  25.256  28.340  1.00  0.00     0.074 A 
ATOM     32  C   UNL A   1      41.771  25.748  28.049  1.00  0.00     0.049 A 
ATOM     33  N   UNL A   1      44.600  26.354  28.906  1.00  0.00    -0.248 NA
ATOM     34  C   UNL A   1      45.230  24.289  28.012  1.00  0.00     0.031 C 
ATOM     35  C   UNL A   1      40.388  25.527  27.634  1.00  0.00     0.029 A 
ATOM     36  N   UNL A   1      41.783  27.044  28.509  1.00  0.00    -0.354 N 
ATOM     37  C   UNL A   1      45.974  26.190  29.039  1.00  0.00     0.074 A 
ATOM     38  C   UNL A   1      46.302  24.886  28.506  1.00  0.00     0.031 C 
ATOM     39  C   UNL A   1      39.676  26.643  27.883  1.00  0.00     0.029 A 
ATOM     40  C   UNL A   1      40.541  27.632  28.525  1.00  0.00     0.049 A 
ATOM     41  H   UNL A   1      42.603  27.507  28.796  1.00  0.00     0.167 HD
ATOM     42  C   UNL A   1      46.881  27.044  29.566  1.00  0.00     0.031 A 
ATOM     43  C   UNL A   1      40.140  28.811  29.044  1.00  0.00     0.031 A 
ATOM     44  C   UNL A   1      46.555  28.340  30.098  1.00  0.00     0.049 A 
ATOM     45  C   UNL A   1      41.148  29.704  29.726  1.00  0.00     0.074 A 
ATOM     46  C   UNL A   1      47.402  29.279  30.661  1.00  0.00     0.029 A 
ATOM     47  N   UNL A   1      45.278  28.876  30.135  1.00  0.00    -0.354 N 
ATOM     48  N   UNL A   1      42.440  29.531  29.881  1.00  0.00    -0.248 NA
ATOM     49  C   UNL A   1      40.640  30.955  30.309  1.00  0.00     0.031 C 
ATOM     50  C   UNL A   1      46.627  30.358  31.095  1.00  0.00     0.029 A 
ATOM     51  C   UNL A   1      45.310  30.124  30.733  1.00  0.00     0.049 A 
ATOM     52  H   UNL A   1      44.469  28.435  29.788  1.00  0.00     0.167 HD
ATOM     53  C   UNL A   1      42.901  30.667  30.537  1.00  0.00     0.074 A 
ATOM     54  C   UNL A   1      41.754  31.524  30.749  1.00  0.00     0.031 C 
ATOM     55  C   UNL A   1      44.164  30.975  30.923  1.00  0.00     0.031 A 
BRANCH  42  56
ATOM     56  C   UNL A   1      48.308  26.574  29.649  1.00  0.00    -0.014 A 
ATOM     57  C   UNL A   1      48.810  25.941  30.796  1.00  0.00     0.009 A 
ATOM     58  C   UNL A   1      49.157  26.752  28.545  1.00  0.00     0.009 A 
ATOM     59  C   UNL A   1      50.145  25.531  30.849  1.00  0.00     0.001 A 
ATOM     60  C   UNL A   1      50.480  26.311  28.588  1.00  0.00     0.001 A 
ATOM     61  C   UNL A   1      50.976  25.712  29.744  1.00  0.00     0.000 A 
ENDBRANCH  42  56
BRANCH  43  62
ATOM     62  C   UNL A   1      38.706  29.208  28.989  1.00  0.00    -0.014 A 
ATOM     63  C   UNL A   1      38.184  29.861  27.862  1.00  0.00     0.009 A 
ATOM     64  C   UNL A   1      37.858  28.970  30.083  1.00  0.00     0.009 A 
ATOM     65  C   UNL A   1      36.854  30.290  27.841  1.00  0.00     0.001 A 
ATOM     66  C   UNL A   1      36.519  29.369  30.047  1.00  0.00     0.001 A 
ATOM     67  C   UNL A   1      36.021  30.038  28.930  1.00  0.00     0.000 A 
ENDBRANCH  43  62
BRANCH  55  68
ATOM     68  C   UNL A   1      44.397  32.325  31.548  1.00  0.00    -0.014 A 
ATOM     69  C   UNL A   1      44.525  33.487  30.773  1.00  0.00     0.009 A 
ATOM     70  C   UNL A   1      44.423  32.437  32.948  1.00  0.00     0.009 A 
ATOM     71  C   UNL A   1      44.703  34.729  31.388  1.00  0.00     0.001 A 
ATOM     72  C   UNL A   1      44.567  33.683  33.560  1.00  0.00     0.001 A 
ATOM     73  C   UNL A   1      44.716  34.826  32.779  1.00  0.00     0.000 A 
ENDBRANCH  55  68
ENDBRANCH  29  30
ENDBRANCH  22  24
ENDBRANCH  21  22
ENDBRANCH  20  21
ENDBRANCH  19  20
ENDBRANCH  18  19
ENDBRANCH  17  18
ENDBRANCH   1  17
TORSDOF 21
ENDMDL
MODEL 2
REMARK VINA RESULT:      -8.3      1.108      6.290
REMARK SMILES CC(C)=CCC[C@H](C)CC(=O)OCCOCCOCCOC(=O)c1ccc(-c2c3nc(c(-c4ccccc4)c4ccc([nH]4)c(-c4ccccc4)c4nc(c(-c5ccccc5)c5ccc2[nH]5)C=C4)C=C3)cc1
REMARK SMILES IDX 16 1 15 2 14 3 13 4 12 5 10 6 11 7 9 8 7 9 8 10 6 11 5 12
REMARK SMILES IDX 4 13 1 14 2 15 3 16 17 17 18 18 19 19 20 20 21 21 22 22
REMARK SMILES IDX 23 23 24 24 25 25 71 26 26 27 70 28 27 29 28 30 29 31 64 32
REMARK SMILES IDX 30 33 69 34 63 35 65 36 31 37 68 38 62 39 61 40 32 42 54 43
REMARK SMILES IDX 39 44 53 45 40 46 43 47 52 48 66 49 41 50 42 51 51 53 67 54
REMARK SMILES IDX 44 55 33 56 34 57 38 58 35 59 37 60 36 61 55 62 56 63 60 64
REMARK SMILES IDX 57 65 59 66 58 67 45 68 46 69 50 70 47 71 49 72 48 73
REMARK H PARENT 65 41 43 52
REMARK Flexibility Score: inf
ROOT
ATOM      1  C   UNL A   1      34.582  22.362  25.301  1.00  0.00     0.188 C 
ENDROOT
BRANCH   1   2
ATOM      2  O   UNL A   1      35.080  23.605  24.814  1.00  0.00    -0.376 OA
BRANCH   2   3
ATOM      3  C   UNL A   1      34.862  23.870  23.426  1.00  0.00     0.202 C 
BRANCH   3   4
ATOM      4  C   UNL A   1      33.395  24.004  22.981  1.00  0.00     0.261 C 
BRANCH   4   5
ATOM      5  O   UNL A   1      33.213  24.788  21.778  1.00  0.00    -0.463 OA
BRANCH   5   6
ATOM      6  C   UNL A   1      32.105  25.572  21.736  1.00  0.00     0.306 C 
ATOM      7  O   UNL A   1      31.698  26.143  20.729  1.00  0.00    -0.252 OA
BRANCH   6   8
ATOM      8  C   UNL A   1      31.281  25.572  23.018  1.00  0.00     0.126 C 
BRANCH   8   9
ATOM      9  C   UNL A   1      30.215  26.647  23.293  1.00  0.00    -0.003 C 
ATOM     10  C   UNL A   1      29.115  26.131  24.229  1.00  0.00     0.008 C 
BRANCH   9  11
ATOM     11  C   UNL A   1      30.862  27.912  23.936  1.00  0.00     0.008 C 
BRANCH  11  12
ATOM     12  C   UNL A   1      30.823  29.216  23.120  1.00  0.00     0.027 C 
BRANCH  12  13
ATOM     13  C   UNL A   1      29.798  30.204  23.613  1.00  0.00    -0.028 C 
ATOM     14  C   UNL A   1      28.065  29.788  21.840  1.00  0.00     0.039 C 
ATOM     15  C   UNL A   1      28.585  30.461  23.081  1.00  0.00    -0.080 C 
ATOM     16  C   UNL A   1      27.652  31.455  23.721  1.00  0.00     0.039 C 
ENDBRANCH  12  13
ENDBRANCH  11  12
ENDBRANCH   9  11
ENDBRANCH   8   9
ENDBRANCH   6   8
ENDBRANCH   5   6
ENDBRANCH   4   5
ENDBRANCH   3   4
ENDBRANCH   2   3
ENDBRANCH   1   2
BRANCH   1  17
ATOM     17  C   UNL A   1      35.622  21.432  25.927  1.00  0.00     0.188 C 
BRANCH  17  18
ATOM     18  O   UNL A   1      36.489  20.770  25.023  1.00  0.00    -0.376 OA
BRANCH  18  19
ATOM     19  C   UNL A   1      37.887  21.029  25.136  1.00  0.00     0.202 C 
BRANCH  19  20
ATOM     20  C   UNL A   1      38.890  19.872  24.911  1.00  0.00     0.261 C 
BRANCH  20  21
ATOM     21  O   UNL A   1      39.697  19.450  26.032  1.00  0.00    -0.460 OA
BRANCH  21  22
ATOM     22  C   UNL A   1      41.022  19.706  26.000  1.00  0.00     0.338 C 
ATOM     23  O   UNL A   1      41.864  19.095  25.358  1.00  0.00    -0.246 OA
BRANCH  22  24
ATOM     24  C   UNL A   1      41.257  21.033  26.634  1.00  0.00     0.060 A 
ATOM     25  C   UNL A   1      41.629  22.096  25.800  1.00  0.00     0.016 A 
ATOM     26  C   UNL A   1      41.061  21.272  27.993  1.00  0.00     0.016 A 
ATOM     27  C   UNL A   1      41.846  23.379  26.305  1.00  0.00     0.010 A 
ATOM     28  C   UNL A   1      41.307  22.552  28.512  1.00  0.00     0.010 A 
ATOM     29  C   UNL A   1      41.737  23.603  27.678  1.00  0.00    -0.014 A 
BRANCH  29  30
ATOM     30  C   UNL A   1      42.296  24.842  28.279  1.00  0.00     0.031 A 
ATOM     31  C   UNL A   1      41.343  25.973  28.557  1.00  0.00     0.074 A 
ATOM     32  C   UNL A   1      43.598  24.978  28.590  1.00  0.00     0.049 A 
ATOM     33  N   UNL A   1      41.593  27.212  28.896  1.00  0.00    -0.248 NA
ATOM     34  C   UNL A   1      39.910  25.660  28.424  1.00  0.00     0.031 C 
ATOM     35  C   UNL A   1      44.615  23.935  28.483  1.00  0.00     0.029 A 
ATOM     36  N   UNL A   1      44.287  26.077  29.046  1.00  0.00    -0.354 N 
ATOM     37  C   UNL A   1      40.352  27.834  28.975  1.00  0.00     0.074 A 
ATOM     38  C   UNL A   1      39.354  26.842  28.640  1.00  0.00     0.031 C 
ATOM     39  C   UNL A   1      45.806  24.452  28.839  1.00  0.00     0.029 A 
ATOM     40  C   UNL A   1      45.643  25.873  29.142  1.00  0.00     0.049 A 
ATOM     41  H   UNL A   1      43.851  26.927  29.283  1.00  0.00     0.167 HD
ATOM     42  C   UNL A   1      40.068  29.119  29.291  1.00  0.00     0.031 A 
ATOM     43  C   UNL A   1      46.640  26.745  29.396  1.00  0.00     0.031 A 
ATOM     44  C   UNL A   1      41.060  30.106  29.622  1.00  0.00     0.049 A 
ATOM     45  C   UNL A   1      46.313  28.198  29.639  1.00  0.00     0.074 A 
ATOM     46  C   UNL A   1      40.875  31.437  29.951  1.00  0.00     0.029 A 
ATOM     47  N   UNL A   1      42.424  29.867  29.664  1.00  0.00    -0.354 N 
ATOM     48  N   UNL A   1      45.143  28.790  29.680  1.00  0.00    -0.248 NA
ATOM     49  C   UNL A   1      47.449  29.105  29.867  1.00  0.00     0.031 C 
ATOM     50  C   UNL A   1      42.133  32.019  30.131  1.00  0.00     0.029 A 
ATOM     51  C   UNL A   1      43.096  31.033  29.990  1.00  0.00     0.049 A 
ATOM     52  H   UNL A   1      42.852  28.998  29.488  1.00  0.00     0.167 HD
ATOM     53  C   UNL A   1      45.399  30.123  29.980  1.00  0.00     0.074 A 
ATOM     54  C   UNL A   1      46.834  30.254  30.115  1.00  0.00     0.031 C 
ATOM     55  C   UNL A   1      44.524  31.146  30.137  1.00  0.00     0.031 A 
BRANCH  42  56
ATOM     56  C   UNL A   1      38.627  29.544  29.229  1.00  0.00    -0.014 A 
ATOM     57  C   UNL A   1      38.054  30.044  28.049  1.00  0.00     0.009 A 
ATOM     58  C   UNL A   1      37.823  29.420  30.374  1.00  0.00     0.009 A 
ATOM     59  C   UNL A   1      36.717  30.447  28.030  1.00  0.00     0.001 A 
ATOM     60  C   UNL A   1      36.479  29.792  30.342  1.00  0.00     0.001 A 
ATOM     61  C   UNL A   1      35.930  30.316  29.173  1.00  0.00     0.000 A 
ENDBRANCH  42  56
BRANCH  43  62
ATOM     62  C   UNL A   1      48.057  26.289  29.390  1.00  0.00    -0.014 A 
ATOM     63  C   UNL A   1      48.804  26.277  28.201  1.00  0.00     0.009 A 
ATOM     64  C   UNL A   1      48.663  25.825  30.569  1.00  0.00     0.009 A 
ATOM     65  C   UNL A   1      50.113  25.788  28.188  1.00  0.00     0.001 A 
ATOM     66  C   UNL A   1      49.983  25.367  30.561  1.00  0.00     0.001 A 
ATOM     67  C   UNL A   1      50.703  25.339  29.369  1.00  0.00     0.000 A 
ENDBRANCH  43  62
BRANCH  55  68
ATOM     68  C   UNL A   1      45.075  32.486  30.546  1.00  0.00    -0.014 A 
ATOM     69  C   UNL A   1      45.258  32.830  31.894  1.00  0.00     0.009 A 
ATOM     70  C   UNL A   1      45.479  33.394  29.554  1.00  0.00     0.009 A 
ATOM     71  C   UNL A   1      45.808  34.069  32.238  1.00  0.00     0.001 A 
ATOM     72  C   UNL A   1      46.058  34.616  29.899  1.00  0.00     0.001 A 
ATOM     73  C   UNL A   1      46.214  34.955  31.241  1.00  0.00     0.000 A 
ENDBRANCH  55  68
ENDBRANCH  29  30
ENDBRANCH  22  24
ENDBRANCH  21  22
ENDBRANCH  20  21
ENDBRANCH  19  20
ENDBRANCH  18  19
ENDBRANCH  17  18
ENDBRANCH   1  17
TORSDOF 21
ENDMDL
MODEL 3
REMARK VINA RESULT:      -8.3      2.923      4.825
REMARK SMILES CC(C)=CCC[C@H](C)CC(=O)OCCOCCOCCOC(=O)c1ccc(-c2c3nc(c(-c4ccccc4)c4ccc([nH]4)c(-c4ccccc4)c4nc(c(-c5ccccc5)c5ccc2[nH]5)C=C4)C=C3)cc1
REMARK SMILES IDX 16 1 15 2 14 3 13 4 12 5 10 6 11 7 9 8 7 9 8 10 6 11 5 12
REMARK SMILES IDX 4 13 1 14 2 15 3 16 17 17 18 18 19 19 20 20 21 21 22 22
REMARK SMILES IDX 23 23 24 24 25 25 71 26 26 27 70 28 27 29 28 30 29 31 64 32
REMARK SMILES IDX 30 33 69 34 63 35 65 36 31 37 68 38 62 39 61 40 32 42 54 43
REMARK SMILES IDX 39 44 53 45 40 46 43 47 52 48 66 49 41 50 42 51 51 53 67 54
REMARK SMILES IDX 44 55 33 56 34 57 38 58 35 59 37 60 36 61 55 62 56 63 60 64
REMARK SMILES IDX 57 65 59 66 58 67 45 68 46 69 50 70 47 71 49 72 48 73
REMARK H PARENT 65 41 43 52
REMARK Flexibility Score: inf
ROOT
ATOM      1  C   UNL A   1      40.791  22.000  26.380  1.00  0.00     0.188 C 
ENDROOT
BRANCH   1   2
ATOM      2  O   UNL A   1      39.488  22.543  26.186  1.00  0.00    -0.376 OA
BRANCH   2   3
ATOM      3  C   UNL A   1      38.463  21.609  25.838  1.00  0.00     0.202 C 
BRANCH   3   4
ATOM      4  C   UNL A   1      37.049  22.190  25.653  1.00  0.00     0.261 C 
BRANCH   4   5
ATOM      5  O   UNL A   1      36.992  23.331  24.764  1.00  0.00    -0.463 OA
BRANCH   5   6
ATOM      6  C   UNL A   1      36.012  23.309  23.825  1.00  0.00     0.306 C 
ATOM      7  O   UNL A   1      35.989  24.029  22.831  1.00  0.00    -0.252 OA
BRANCH   6   8
ATOM      8  C   UNL A   1      34.993  22.190  23.999  1.00  0.00     0.126 C 
BRANCH   8   9
ATOM      9  C   UNL A   1      33.509  22.486  24.280  1.00  0.00    -0.003 C 
ATOM     10  C   UNL A   1      33.283  23.955  24.655  1.00  0.00     0.008 C 
BRANCH   9  11
ATOM     11  C   UNL A   1      32.636  22.151  23.031  1.00  0.00     0.008 C 
BRANCH  11  12
ATOM     12  C   UNL A   1      32.116  20.708  22.901  1.00  0.00     0.027 C 
BRANCH  12  13
ATOM     13  C   UNL A   1      32.356  19.869  24.128  1.00  0.00    -0.028 C 
ATOM     14  C   UNL A   1      32.866  17.708  22.949  1.00  0.00     0.039 C 
ATOM     15  C   UNL A   1      32.698  18.565  24.174  1.00  0.00    -0.080 C 
ATOM     16  C   UNL A   1      32.945  17.873  25.489  1.00  0.00     0.039 C 
ENDBRANCH  12  13
ENDBRANCH  11  12
ENDBRANCH   9  11
ENDBRANCH   8   9
ENDBRANCH   6   8
ENDBRANCH   5   6
ENDBRANCH   4   5
ENDBRANCH   3   4
ENDBRANCH   2   3
ENDBRANCH   1   2
BRANCH   1  17
ATOM     17  C   UNL A   1      40.929  21.002  27.531  1.00  0.00     0.188 C 
BRANCH  17  18
ATOM     18  O   UNL A   1      41.079  19.643  27.159  1.00  0.00    -0.376 OA
BRANCH  18  19
ATOM     19  C   UNL A   1      42.367  19.052  27.319  1.00  0.00     0.202 C 
BRANCH  19  20
ATOM     20  C   UNL A   1      43.080  18.448  26.085  1.00  0.00     0.261 C 
BRANCH  20  21
ATOM     21  O   UNL A   1      43.263  19.295  24.930  1.00  0.00    -0.460 OA
BRANCH  21  22
ATOM     22  C   UNL A   1      44.522  19.539  24.508  1.00  0.00     0.338 C 
ATOM     23  O   UNL A   1      45.218  18.797  23.832  1.00  0.00    -0.246 OA
BRANCH  22  24
ATOM     24  C   UNL A   1      44.822  20.979  24.744  1.00  0.00     0.060 A 
ATOM     25  C   UNL A   1      45.362  21.337  25.986  1.00  0.00     0.016 A 
ATOM     26  C   UNL A   1      44.652  21.961  23.769  1.00  0.00     0.016 A 
ATOM     27  C   UNL A   1      45.695  22.659  26.284  1.00  0.00     0.010 A 
ATOM     28  C   UNL A   1      44.957  23.296  24.072  1.00  0.00     0.010 A 
ATOM     29  C   UNL A   1      45.444  23.659  25.344  1.00  0.00    -0.014 A 
BRANCH  29  30
ATOM     30  C   UNL A   1      45.454  25.087  25.752  1.00  0.00     0.031 A 
ATOM     31  C   UNL A   1      46.771  25.816  25.707  1.00  0.00     0.074 A 
ATOM     32  C   UNL A   1      44.345  25.742  26.139  1.00  0.00     0.049 A 
ATOM     33  N   UNL A   1      47.091  26.992  26.180  1.00  0.00    -0.248 NA
ATOM     34  C   UNL A   1      47.879  25.111  25.040  1.00  0.00     0.031 C 
ATOM     35  C   UNL A   1      42.987  25.204  26.127  1.00  0.00     0.029 A 
ATOM     36  N   UNL A   1      44.200  27.015  26.641  1.00  0.00    -0.354 N 
ATOM     37  C   UNL A   1      48.445  27.149  25.906  1.00  0.00     0.074 A 
ATOM     38  C   UNL A   1      48.886  25.945  25.236  1.00  0.00     0.031 C 
ATOM     39  C   UNL A   1      42.148  26.132  26.625  1.00  0.00     0.029 A 
ATOM     40  C   UNL A   1      42.917  27.303  27.042  1.00  0.00     0.049 A 
ATOM     41  H   UNL A   1      44.943  27.657  26.705  1.00  0.00     0.167 HD
ATOM     42  C   UNL A   1      49.251  28.196  26.194  1.00  0.00     0.031 A 
ATOM     43  C   UNL A   1      42.432  28.368  27.713  1.00  0.00     0.031 A 
ATOM     44  C   UNL A   1      48.813  29.392  26.863  1.00  0.00     0.049 A 
ATOM     45  C   UNL A   1      43.369  29.479  28.122  1.00  0.00     0.074 A 
ATOM     46  C   UNL A   1      49.554  30.509  27.206  1.00  0.00     0.029 A 
ATOM     47  N   UNL A   1      47.515  29.623  27.290  1.00  0.00    -0.354 N 
ATOM     48  N   UNL A   1      44.653  29.608  27.892  1.00  0.00    -0.248 NA
ATOM     49  C   UNL A   1      42.785  30.591  28.889  1.00  0.00     0.031 C 
ATOM     50  C   UNL A   1      48.718  31.389  27.897  1.00  0.00     0.029 A 
ATOM     51  C   UNL A   1      47.439  30.855  27.916  1.00  0.00     0.049 A 
ATOM     52  H   UNL A   1      46.760  29.003  27.167  1.00  0.00     0.167 HD
ATOM     53  C   UNL A   1      45.020  30.830  28.445  1.00  0.00     0.074 A 
ATOM     54  C   UNL A   1      43.823  31.406  29.019  1.00  0.00     0.031 C 
ATOM     55  C   UNL A   1      46.238  31.425  28.469  1.00  0.00     0.031 A 
BRANCH  42  56
ATOM     56  C   UNL A   1      50.708  28.065  25.842  1.00  0.00    -0.014 A 
ATOM     57  C   UNL A   1      51.211  28.505  24.608  1.00  0.00     0.009 A 
ATOM     58  C   UNL A   1      51.595  27.509  26.777  1.00  0.00     0.009 A 
ATOM     59  C   UNL A   1      52.566  28.353  24.304  1.00  0.00     0.001 A 
ATOM     60  C   UNL A   1      52.953  27.390  26.484  1.00  0.00     0.001 A 
ATOM     61  C   UNL A   1      53.436  27.801  25.243  1.00  0.00     0.000 A 
ENDBRANCH  42  56
BRANCH  43  62
ATOM     62  C   UNL A   1      40.993  28.426  28.090  1.00  0.00    -0.014 A 
ATOM     63  C   UNL A   1      40.063  29.094  27.278  1.00  0.00     0.009 A 
ATOM     64  C   UNL A   1      40.546  27.845  29.288  1.00  0.00     0.009 A 
ATOM     65  C   UNL A   1      38.725  29.201  27.669  1.00  0.00     0.001 A 
ATOM     66  C   UNL A   1      39.201  27.925  29.661  1.00  0.00     0.001 A 
ATOM     67  C   UNL A   1      38.295  28.612  28.856  1.00  0.00     0.000 A 
ENDBRANCH  43  62
BRANCH  55  68
ATOM     68  C   UNL A   1      46.335  32.802  29.069  1.00  0.00    -0.014 A 
ATOM     69  C   UNL A   1      46.643  33.000  30.423  1.00  0.00     0.009 A 
ATOM     70  C   UNL A   1      46.178  33.925  28.239  1.00  0.00     0.009 A 
ATOM     71  C   UNL A   1      46.763  34.294  30.938  1.00  0.00     0.001 A 
ATOM     72  C   UNL A   1      46.331  35.214  28.748  1.00  0.00     0.001 A 
ATOM     73  C   UNL A   1      46.615  35.398  30.099  1.00  0.00     0.000 A 
ENDBRANCH  55  68
ENDBRANCH  29  30
ENDBRANCH  22  24
ENDBRANCH  21  22
ENDBRANCH  20  21
ENDBRANCH  19  20
ENDBRANCH  18  19
ENDBRANCH  17  18
ENDBRANCH   1  17
TORSDOF 21
ENDMDL
