MODEL 1
REMARK VINA RESULT:      -9.6      0.000      0.000
REMARK SMILES O=C(OCCOCCOCCOC(=O)c1nc2c(F)cccc2s1)c1ccc(-c2c3nc(c(-c4ccccc4)c4ccc([nH]4)c(-c4ccccc4)c4nc(c(-c5ccccc5)c5ccc2[nH]5)C=C4)C=C3)cc1
REMARK SMILES IDX 7 1 6 2 5 3 4 4 3 5 2 6 1 7 25 8 26 9 72 10 27 11 71 12
REMARK SMILES IDX 28 13 29 14 30 15 65 16 31 17 70 18 64 19 66 20 32 21 69 22
REMARK SMILES IDX 63 23 62 24 33 26 55 27 40 28 54 29 41 30 44 31 53 32 67 33
REMARK SMILES IDX 42 34 43 35 52 37 68 38 45 39 34 40 35 41 39 42 36 43 38 44
REMARK SMILES IDX 37 45 56 46 57 47 61 48 58 49 60 50 59 51 46 52 47 53 51 54
REMARK SMILES IDX 48 55 50 56 49 57 8 58 9 59 10 60 11 61 12 62 13 63 14 64
REMARK SMILES IDX 15 65 16 66 24 67 17 68 23 69 18 70 22 71 19 72 20 73 21 74
REMARK H PARENT 66 25 44 36
REMARK Flexibility Score: inf
ROOT
ATOM      1  C   UNL A   1      33.556  32.997  27.628  1.00  0.00     0.188 C 
ENDROOT
BRANCH   1   2
ATOM      2  O   UNL A   1      34.542  34.037  27.651  1.00  0.00    -0.376 OA
BRANCH   2   3
ATOM      3  C   UNL A   1      34.475  35.050  28.650  1.00  0.00     0.202 C 
BRANCH   3   4
ATOM      4  C   UNL A   1      33.332  34.796  29.635  1.00  0.00     0.261 C 
BRANCH   4   5
ATOM      5  O   UNL A   1      33.301  35.669  30.786  1.00  0.00    -0.460 OA
BRANCH   5   6
ATOM      6  C   UNL A   1      33.148  35.151  32.028  1.00  0.00     0.338 C 
ATOM      7  O   UNL A   1      32.055  34.918  32.526  1.00  0.00    -0.246 OA
BRANCH   6   8
ATOM      8  C   UNL A   1      34.398  34.573  32.577  1.00  0.00     0.060 A 
ATOM      9  C   UNL A   1      35.550  35.339  32.779  1.00  0.00     0.016 A 
ATOM     10  C   UNL A   1      34.421  33.194  32.825  1.00  0.00     0.016 A 
ATOM     11  C   UNL A   1      36.759  34.723  33.011  1.00  0.00     0.010 A 
ATOM     12  C   UNL A   1      35.633  32.565  33.068  1.00  0.00     0.010 A 
ATOM     13  C   UNL A   1      36.799  33.333  33.039  1.00  0.00    -0.014 A 
BRANCH  13  14
ATOM     14  C   UNL A   1      38.095  32.760  32.720  1.00  0.00     0.031 A 
ATOM     15  C   UNL A   1      39.177  32.824  33.727  1.00  0.00     0.074 A 
ATOM     16  C   UNL A   1      38.280  32.235  31.494  1.00  0.00     0.049 A 
ATOM     17  N   UNL A   1      40.370  33.312  33.595  1.00  0.00    -0.248 NA
ATOM     18  C   UNL A   1      38.881  32.282  35.059  1.00  0.00     0.031 C 
ATOM     19  C   UNL A   1      37.252  31.905  30.499  1.00  0.00     0.029 A 
ATOM     20  N   UNL A   1      39.425  31.766  30.932  1.00  0.00    -0.354 N 
ATOM     21  C   UNL A   1      41.025  33.035  34.788  1.00  0.00     0.074 A 
ATOM     22  C   UNL A   1      40.048  32.454  35.679  1.00  0.00     0.031 C 
ATOM     23  C   UNL A   1      37.780  31.059  29.592  1.00  0.00     0.029 A 
ATOM     24  C   UNL A   1      39.195  30.901  29.877  1.00  0.00     0.049 A 
ATOM     25  H   UNL A   1      40.325  32.016  31.243  1.00  0.00     0.167 HD
ATOM     26  C   UNL A   1      42.368  33.151  34.965  1.00  0.00     0.031 A 
ATOM     27  C   UNL A   1      40.078  30.011  29.372  1.00  0.00     0.031 A 
ATOM     28  C   UNL A   1      43.029  33.935  33.969  1.00  0.00     0.049 A 
ATOM     29  C   UNL A   1      41.437  30.454  29.758  1.00  0.00     0.074 A 
ATOM     30  C   UNL A   1      43.017  35.267  33.611  1.00  0.00     0.029 A 
ATOM     31  N   UNL A   1      43.658  33.278  32.941  1.00  0.00    -0.354 N 
ATOM     32  N   UNL A   1      42.005  31.540  29.312  1.00  0.00    -0.248 NA
ATOM     33  C   UNL A   1      42.051  29.878  30.945  1.00  0.00     0.031 C 
ATOM     34  C   UNL A   1      43.236  35.284  32.204  1.00  0.00     0.029 A 
ATOM     35  C   UNL A   1      43.361  33.957  31.786  1.00  0.00     0.049 A 
ATOM     36  H   UNL A   1      44.216  32.471  33.018  1.00  0.00     0.167 HD
ATOM     37  C   UNL A   1      42.787  31.996  30.363  1.00  0.00     0.074 A 
ATOM     38  C   UNL A   1      42.875  30.872  31.286  1.00  0.00     0.031 C 
ATOM     39  C   UNL A   1      43.058  33.327  30.519  1.00  0.00     0.031 A 
BRANCH  26  40
ATOM     40  C   UNL A   1      43.097  32.303  35.957  1.00  0.00    -0.014 A 
ATOM     41  C   UNL A   1      43.064  30.905  35.880  1.00  0.00     0.009 A 
ATOM     42  C   UNL A   1      43.684  32.883  37.100  1.00  0.00     0.009 A 
ATOM     43  C   UNL A   1      43.635  30.123  36.891  1.00  0.00     0.001 A 
ATOM     44  C   UNL A   1      44.281  32.106  38.092  1.00  0.00     0.001 A 
ATOM     45  C   UNL A   1      44.252  30.722  37.989  1.00  0.00     0.000 A 
ENDBRANCH  26  40
BRANCH  27  46
ATOM     46  C   UNL A   1      39.755  28.633  28.943  1.00  0.00    -0.014 A 
ATOM     47  C   UNL A   1      40.218  28.140  27.716  1.00  0.00     0.009 A 
ATOM     48  C   UNL A   1      39.182  27.710  29.843  1.00  0.00     0.009 A 
ATOM     49  C   UNL A   1      40.135  26.774  27.415  1.00  0.00     0.001 A 
ATOM     50  C   UNL A   1      39.085  26.351  29.537  1.00  0.00     0.001 A 
ATOM     51  C   UNL A   1      39.576  25.880  28.327  1.00  0.00     0.000 A 
ENDBRANCH  27  46
BRANCH  39  52
ATOM     52  C   UNL A   1      42.683  34.249  29.387  1.00  0.00    -0.014 A 
ATOM     53  C   UNL A   1      41.412  34.847  29.311  1.00  0.00     0.009 A 
ATOM     54  C   UNL A   1      43.669  34.660  28.478  1.00  0.00     0.009 A 
ATOM     55  C   UNL A   1      41.129  35.811  28.337  1.00  0.00     0.001 A 
ATOM     56  C   UNL A   1      43.389  35.634  27.515  1.00  0.00     0.001 A 
ATOM     57  C   UNL A   1      42.121  36.207  27.443  1.00  0.00     0.000 A 
ENDBRANCH  39  52
ENDBRANCH  13  14
ENDBRANCH   6   8
ENDBRANCH   5   6
ENDBRANCH   4   5
ENDBRANCH   3   4
ENDBRANCH   2   3
ENDBRANCH   1   2
BRANCH   1  58
ATOM     58  C   UNL A   1      33.966  31.545  27.910  1.00  0.00     0.188 C 
BRANCH  58  59
ATOM     59  O   UNL A   1      33.776  30.609  26.850  1.00  0.00    -0.376 OA
BRANCH  59  60
ATOM     60  C   UNL A   1      33.308  29.306  27.179  1.00  0.00     0.202 C 
BRANCH  60  61
ATOM     61  C   UNL A   1      33.982  28.188  26.390  1.00  0.00     0.261 C 
BRANCH  61  62
ATOM     62  O   UNL A   1      33.513  28.156  25.031  1.00  0.00    -0.458 OA
BRANCH  62  63
ATOM     63  C   UNL A   1      32.419  27.373  24.782  1.00  0.00     0.367 C 
ATOM     64  O   UNL A   1      32.328  26.191  25.079  1.00  0.00    -0.243 OA
BRANCH  63  65
ATOM     65  C   UNL A   1      31.372  28.169  24.172  1.00  0.00     0.203 A 
ATOM     66  N   UNL A   1      31.162  29.434  24.473  1.00  0.00    -0.226 NA
ATOM     67  S   UNL A   1      30.263  27.456  23.084  1.00  0.00    -0.107 S 
ATOM     68  C   UNL A   1      29.982  29.866  23.878  1.00  0.00     0.118 A 
ATOM     69  C   UNL A   1      29.326  28.904  23.102  1.00  0.00     0.058 A 
ATOM     70  C   UNL A   1      29.380  31.137  24.000  1.00  0.00     0.150 A 
ATOM     71  C   UNL A   1      28.091  29.164  22.481  1.00  0.00     0.021 A 
ATOM     72  F   UNL A   1      29.972  32.107  24.713  1.00  0.00    -0.205 F 
ATOM     73  C   UNL A   1      28.150  31.406  23.399  1.00  0.00     0.041 A 
ATOM     74  C   UNL A   1      27.507  30.423  22.654  1.00  0.00     0.005 A 
ENDBRANCH  63  65
ENDBRANCH  62  63
ENDBRANCH  61  62
ENDBRANCH  60  61
ENDBRANCH  59  60
ENDBRANCH  58  59
ENDBRANCH   1  58
TORSDOF 17
ENDMDL
MODEL 2
REMARK VINA RESULT:      -9.5      4.172      6.266
REMARK SMILES O=C(OCCOCCOCCOC(=O)c1nc2c(F)cccc2s1)c1ccc(-c2c3nc(c(-c4ccccc4)c4ccc([nH]4)c(-c4ccccc4)c4nc(c(-c5ccccc5)c5ccc2[nH]5)C=C4)C=C3)cc1
REMARK SMILES IDX 7 1 6 2 5 3 4 4 3 5 2 6 1 7 25 8 26 9 72 10 27 11 71 12
REMARK SMILES IDX 28 13 29 14 30 15 65 16 31 17 70 18 64 19 66 20 32 21 69 22
REMARK SMILES IDX 63 23 62 24 33 26 55 27 40 28 54 29 41 30 44 31 53 32 67 33
REMARK SMILES IDX 42 34 43 35 52 37 68 38 45 39 34 40 35 41 39 42 36 43 38 44
REMARK SMILES IDX 37 45 56 46 57 47 61 48 58 49 60 50 59 51 46 52 47 53 51 54
REMARK SMILES IDX 48 55 50 56 49 57 8 58 9 59 10 60 11 61 12 62 13 63 14 64
REMARK SMILES IDX 15 65 16 66 24 67 17 68 23 69 18 70 22 71 19 72 20 73 21 74
REMARK H PARENT 66 25 44 36
REMARK Flexibility Score: inf
ROOT
ATOM      1  C   UNL A   1      31.421  30.379  25.434  1.00  0.00     0.188 C 
ENDROOT
BRANCH   1   2
ATOM      2  O   UNL A   1      31.721  30.421  26.835  1.00  0.00    -0.376 OA
BRANCH   2   3
ATOM      3  C   UNL A   1      32.978  29.943  27.302  1.00  0.00     0.202 C 
BRANCH   3   4
ATOM      4  C   UNL A   1      34.047  31.037  27.262  1.00  0.00     0.261 C 
BRANCH   4   5
ATOM      5  O   UNL A   1      34.807  31.205  28.479  1.00  0.00    -0.460 OA
BRANCH   5   6
ATOM      6  C   UNL A   1      36.002  31.842  28.452  1.00  0.00     0.338 C 
ATOM      7  O   UNL A   1      36.144  32.982  28.031  1.00  0.00    -0.246 OA
BRANCH   6   8
ATOM      8  C   UNL A   1      37.034  31.182  29.287  1.00  0.00     0.060 A 
ATOM      9  C   UNL A   1      38.339  31.672  29.390  1.00  0.00     0.016 A 
ATOM     10  C   UNL A   1      36.682  29.985  29.926  1.00  0.00     0.016 A 
ATOM     11  C   UNL A   1      39.333  30.888  29.931  1.00  0.00     0.010 A 
ATOM     12  C   UNL A   1      37.676  29.192  30.481  1.00  0.00     0.010 A 
ATOM     13  C   UNL A   1      39.004  29.609  30.366  1.00  0.00    -0.014 A 
BRANCH  13  14
ATOM     14  C   UNL A   1      40.112  28.671  30.381  1.00  0.00     0.031 A 
ATOM     15  C   UNL A   1      40.827  28.423  31.652  1.00  0.00     0.074 A 
ATOM     16  C   UNL A   1      40.484  28.099  29.220  1.00  0.00     0.049 A 
ATOM     17  N   UNL A   1      42.095  28.531  31.896  1.00  0.00    -0.248 NA
ATOM     18  C   UNL A   1      40.015  28.011  32.803  1.00  0.00     0.031 C 
ATOM     19  C   UNL A   1      39.738  28.077  27.955  1.00  0.00     0.029 A 
ATOM     20  N   UNL A   1      41.556  27.303  28.967  1.00  0.00    -0.354 N 
ATOM     21  C   UNL A   1      42.268  28.087  33.201  1.00  0.00     0.074 A 
ATOM     22  C   UNL A   1      40.950  27.836  33.736  1.00  0.00     0.031 C 
ATOM     23  C   UNL A   1      40.238  27.100  27.172  1.00  0.00     0.029 A 
ATOM     24  C   UNL A   1      41.401  26.531  27.829  1.00  0.00     0.049 A 
ATOM     25  H   UNL A   1      42.359  27.277  29.536  1.00  0.00     0.167 HD
ATOM     26  C   UNL A   1      43.475  27.801  33.755  1.00  0.00     0.031 A 
ATOM     27  C   UNL A   1      42.096  25.412  27.528  1.00  0.00     0.031 A 
ATOM     28  C   UNL A   1      44.593  28.338  33.044  1.00  0.00     0.049 A 
ATOM     29  C   UNL A   1      43.353  25.435  28.310  1.00  0.00     0.074 A 
ATOM     30  C   UNL A   1      45.071  29.609  32.798  1.00  0.00     0.029 A 
ATOM     31  N   UNL A   1      45.274  27.510  32.188  1.00  0.00    -0.354 N 
ATOM     32  N   UNL A   1      44.314  26.296  28.123  1.00  0.00    -0.248 NA
ATOM     33  C   UNL A   1      43.403  24.718  29.576  1.00  0.00     0.031 C 
ATOM     34  C   UNL A   1      45.683  29.541  31.513  1.00  0.00     0.029 A 
ATOM     35  C   UNL A   1      45.534  28.232  31.050  1.00  0.00     0.049 A 
ATOM     36  H   UNL A   1      45.528  26.574  32.358  1.00  0.00     0.167 HD
ATOM     37  C   UNL A   1      44.855  26.512  29.382  1.00  0.00     0.074 A 
ATOM     38  C   UNL A   1      44.344  25.425  30.207  1.00  0.00     0.031 C 
ATOM     39  C   UNL A   1      45.442  27.704  29.706  1.00  0.00     0.031 A 
BRANCH  26  40
ATOM     40  C   UNL A   1      43.608  26.787  34.845  1.00  0.00    -0.014 A 
ATOM     41  C   UNL A   1      44.009  27.156  36.135  1.00  0.00     0.009 A 
ATOM     42  C   UNL A   1      43.512  25.410  34.557  1.00  0.00     0.009 A 
ATOM     43  C   UNL A   1      44.261  26.180  37.108  1.00  0.00     0.001 A 
ATOM     44  C   UNL A   1      43.733  24.439  35.533  1.00  0.00     0.001 A 
ATOM     45  C   UNL A   1      44.113  24.826  36.811  1.00  0.00     0.000 A 
ENDBRANCH  26  40
BRANCH  27  46
ATOM     46  C   UNL A   1      41.527  24.188  26.923  1.00  0.00    -0.014 A 
ATOM     47  C   UNL A   1      42.340  23.302  26.204  1.00  0.00     0.009 A 
ATOM     48  C   UNL A   1      40.223  23.759  27.248  1.00  0.00     0.009 A 
ATOM     49  C   UNL A   1      41.874  22.029  25.849  1.00  0.00     0.001 A 
ATOM     50  C   UNL A   1      39.752  22.497  26.880  1.00  0.00     0.001 A 
ATOM     51  C   UNL A   1      40.585  21.626  26.192  1.00  0.00     0.000 A 
ENDBRANCH  27  46
BRANCH  39  52
ATOM     52  C   UNL A   1      45.694  28.681  28.585  1.00  0.00    -0.014 A 
ATOM     53  C   UNL A   1      46.915  28.704  27.886  1.00  0.00     0.009 A 
ATOM     54  C   UNL A   1      44.638  29.472  28.111  1.00  0.00     0.009 A 
ATOM     55  C   UNL A   1      47.080  29.515  26.758  1.00  0.00     0.001 A 
ATOM     56  C   UNL A   1      44.801  30.270  26.974  1.00  0.00     0.001 A 
ATOM     57  C   UNL A   1      46.021  30.293  26.300  1.00  0.00     0.000 A 
ENDBRANCH  39  52
ENDBRANCH  13  14
ENDBRANCH   6   8
ENDBRANCH   5   6
ENDBRANCH   4   5
ENDBRANCH   3   4
ENDBRANCH   2   3
ENDBRANCH   1   2
BRANCH   1  58
ATOM     58  C   UNL A   1      31.562  29.063  24.658  1.00  0.00     0.188 C 
BRANCH  58  59
ATOM     59  O   UNL A   1      30.720  28.900  23.517  1.00  0.00    -0.376 OA
BRANCH  59  60
ATOM     60  C   UNL A   1      30.250  27.593  23.209  1.00  0.00     0.202 C 
BRANCH  60  61
ATOM     61  C   UNL A   1      31.057  26.883  22.126  1.00  0.00     0.261 C 
BRANCH  61  62
ATOM     62  O   UNL A   1      32.329  26.442  22.633  1.00  0.00    -0.458 OA
BRANCH  62  63
ATOM     63  C   UNL A   1      32.993  25.511  21.883  1.00  0.00     0.367 C 
ATOM     64  O   UNL A   1      33.217  25.612  20.686  1.00  0.00    -0.243 OA
BRANCH  63  65
ATOM     65  C   UNL A   1      33.438  24.422  22.731  1.00  0.00     0.203 A 
ATOM     66  N   UNL A   1      34.705  24.204  23.016  1.00  0.00    -0.226 NA
ATOM     67  S   UNL A   1      32.320  23.276  23.331  1.00  0.00    -0.107 S 
ATOM     68  C   UNL A   1      34.832  22.990  23.681  1.00  0.00     0.118 A 
ATOM     69  C   UNL A   1      33.628  22.316  23.913  1.00  0.00     0.058 A 
ATOM     70  C   UNL A   1      36.027  22.372  24.110  1.00  0.00     0.150 A 
ATOM     71  C   UNL A   1      33.589  21.048  24.523  1.00  0.00     0.021 A 
ATOM     72  F   UNL A   1      37.211  22.979  23.934  1.00  0.00    -0.205 F 
ATOM     73  C   UNL A   1      36.006  21.110  24.705  1.00  0.00     0.041 A 
ATOM     74  C   UNL A   1      34.796  20.451  24.901  1.00  0.00     0.005 A 
ENDBRANCH  63  65
ENDBRANCH  62  63
ENDBRANCH  61  62
ENDBRANCH  60  61
ENDBRANCH  59  60
ENDBRANCH  58  59
ENDBRANCH   1  58
TORSDOF 17
ENDMDL
MODEL 3
REMARK VINA RESULT:      -9.5      4.716      9.313
REMARK SMILES O=C(OCCOCCOCCOC(=O)c1nc2c(F)cccc2s1)c1ccc(-c2c3nc(c(-c4ccccc4)c4ccc([nH]4)c(-c4ccccc4)c4nc(c(-c5ccccc5)c5ccc2[nH]5)C=C4)C=C3)cc1
REMARK SMILES IDX 7 1 6 2 5 3 4 4 3 5 2 6 1 7 25 8 26 9 72 10 27 11 71 12
REMARK SMILES IDX 28 13 29 14 30 15 65 16 31 17 70 18 64 19 66 20 32 21 69 22
REMARK SMILES IDX 63 23 62 24 33 26 55 27 40 28 54 29 41 30 44 31 53 32 67 33
REMARK SMILES IDX 42 34 43 35 52 37 68 38 45 39 34 40 35 41 39 42 36 43 38 44
REMARK SMILES IDX 37 45 56 46 57 47 61 48 58 49 60 50 59 51 46 52 47 53 51 54
REMARK SMILES IDX 48 55 50 56 49 57 8 58 9 59 10 60 11 61 12 62 13 63 14 64
REMARK SMILES IDX 15 65 16 66 24 67 17 68 23 69 18 70 22 71 19 72 20 73 21 74
REMARK H PARENT 66 25 44 36
REMARK Flexibility Score: inf
ROOT
ATOM      1  C   UNL A   1      37.266  22.295  24.882  1.00  0.00     0.188 C 
ENDROOT
BRANCH   1   2
ATOM      2  O   UNL A   1      38.104  21.219  25.324  1.00  0.00    -0.376 OA
BRANCH   2   3
ATOM      3  C   UNL A   1      39.250  21.500  26.122  1.00  0.00     0.202 C 
BRANCH   3   4
ATOM      4  C   UNL A   1      40.231  20.326  26.133  1.00  0.00     0.261 C 
BRANCH   4   5
ATOM      5  O   UNL A   1      41.477  20.566  26.823  1.00  0.00    -0.460 OA
BRANCH   5   6
ATOM      6  C   UNL A   1      42.609  20.806  26.119  1.00  0.00     0.338 C 
ATOM      7  O   UNL A   1      43.032  20.052  25.254  1.00  0.00    -0.246 OA
BRANCH   6   8
ATOM      8  C   UNL A   1      43.084  22.205  26.238  1.00  0.00     0.060 A 
ATOM      9  C   UNL A   1      44.008  22.601  27.209  1.00  0.00     0.016 A 
ATOM     10  C   UNL A   1      42.516  23.159  25.382  1.00  0.00     0.016 A 
ATOM     11  C   UNL A   1      44.204  23.938  27.475  1.00  0.00     0.010 A 
ATOM     12  C   UNL A   1      42.714  24.508  25.637  1.00  0.00     0.010 A 
ATOM     13  C   UNL A   1      43.464  24.871  26.757  1.00  0.00    -0.014 A 
BRANCH  13  14
ATOM     14  C   UNL A   1      43.281  26.145  27.430  1.00  0.00     0.031 A 
ATOM     15  C   UNL A   1      44.316  27.192  27.282  1.00  0.00     0.074 A 
ATOM     16  C   UNL A   1      42.196  26.307  28.211  1.00  0.00     0.049 A 
ATOM     17  N   UNL A   1      44.963  27.820  28.212  1.00  0.00    -0.248 NA
ATOM     18  C   UNL A   1      44.682  27.576  25.913  1.00  0.00     0.031 C 
ATOM     19  C   UNL A   1      40.999  25.458  28.267  1.00  0.00     0.029 A 
ATOM     20  N   UNL A   1      41.883  27.346  29.029  1.00  0.00    -0.354 N 
ATOM     21  C   UNL A   1      45.737  28.770  27.557  1.00  0.00     0.074 A 
ATOM     22  C   UNL A   1      45.575  28.539  26.140  1.00  0.00     0.031 C 
ATOM     23  C   UNL A   1      40.003  26.149  28.856  1.00  0.00     0.029 A 
ATOM     24  C   UNL A   1      40.533  27.418  29.322  1.00  0.00     0.049 A 
ATOM     25  H   UNL A   1      42.549  27.983  29.377  1.00  0.00     0.167 HD
ATOM     26  C   UNL A   1      46.368  29.799  28.180  1.00  0.00     0.031 A 
ATOM     27  C   UNL A   1      39.876  28.506  29.782  1.00  0.00     0.031 A 
ATOM     28  C   UNL A   1      46.503  29.641  29.595  1.00  0.00     0.049 A 
ATOM     29  C   UNL A   1      40.874  29.410  30.398  1.00  0.00     0.074 A 
ATOM     30  C   UNL A   1      47.208  28.785  30.416  1.00  0.00     0.029 A 
ATOM     31  N   UNL A   1      45.595  30.274  30.406  1.00  0.00    -0.354 N 
ATOM     32  N   UNL A   1      41.538  29.132  31.484  1.00  0.00    -0.248 NA
ATOM     33  C   UNL A   1      41.421  30.497  29.599  1.00  0.00     0.031 C 
ATOM     34  C   UNL A   1      46.399  28.623  31.578  1.00  0.00     0.029 A 
ATOM     35  C   UNL A   1      45.244  29.385  31.390  1.00  0.00     0.049 A 
ATOM     36  H   UNL A   1      45.259  31.193  30.301  1.00  0.00     0.167 HD
ATOM     37  C   UNL A   1      42.779  29.728  31.311  1.00  0.00     0.074 A 
ATOM     38  C   UNL A   1      42.603  30.654  30.200  1.00  0.00     0.031 C 
ATOM     39  C   UNL A   1      43.900  29.215  31.901  1.00  0.00     0.031 A 
BRANCH  26  40
ATOM     40  C   UNL A   1      46.638  31.088  27.472  1.00  0.00    -0.014 A 
ATOM     41  C   UNL A   1      47.946  31.532  27.245  1.00  0.00     0.009 A 
ATOM     42  C   UNL A   1      45.583  31.976  27.176  1.00  0.00     0.009 A 
ATOM     43  C   UNL A   1      48.182  32.802  26.704  1.00  0.00     0.001 A 
ATOM     44  C   UNL A   1      45.815  33.228  26.608  1.00  0.00     0.001 A 
ATOM     45  C   UNL A   1      47.120  33.643  26.376  1.00  0.00     0.000 A 
ENDBRANCH  26  40
BRANCH  27  46
ATOM     46  C   UNL A   1      38.531  28.942  29.347  1.00  0.00    -0.014 A 
ATOM     47  C   UNL A   1      37.479  29.040  30.267  1.00  0.00     0.009 A 
ATOM     48  C   UNL A   1      38.328  29.490  28.063  1.00  0.00     0.009 A 
ATOM     49  C   UNL A   1      36.284  29.685  29.923  1.00  0.00     0.001 A 
ATOM     50  C   UNL A   1      37.131  30.119  27.714  1.00  0.00     0.001 A 
ATOM     51  C   UNL A   1      36.114  30.230  28.652  1.00  0.00     0.000 A 
ENDBRANCH  27  46
BRANCH  39  52
ATOM     52  C   UNL A   1      43.709  28.130  32.931  1.00  0.00    -0.014 A 
ATOM     53  C   UNL A   1      43.779  26.767  32.590  1.00  0.00     0.009 A 
ATOM     54  C   UNL A   1      43.629  28.476  34.287  1.00  0.00     0.009 A 
ATOM     55  C   UNL A   1      43.744  25.778  33.578  1.00  0.00     0.001 A 
ATOM     56  C   UNL A   1      43.609  27.486  35.275  1.00  0.00     0.001 A 
ATOM     57  C   UNL A   1      43.665  26.139  34.921  1.00  0.00     0.000 A 
ENDBRANCH  39  52
ENDBRANCH  13  14
ENDBRANCH   6   8
ENDBRANCH   5   6
ENDBRANCH   4   5
ENDBRANCH   3   4
ENDBRANCH   2   3
ENDBRANCH   1   2
BRANCH   1  58
ATOM     58  C   UNL A   1      35.794  22.345  25.310  1.00  0.00     0.188 C 
BRANCH  58  59
ATOM     59  O   UNL A   1      35.401  21.460  26.359  1.00  0.00    -0.376 OA
BRANCH  59  60
ATOM     60  C   UNL A   1      34.026  21.414  26.722  1.00  0.00     0.202 C 
BRANCH  60  61
ATOM     61  C   UNL A   1      33.332  22.772  26.699  1.00  0.00     0.261 C 
BRANCH  61  62
ATOM     62  O   UNL A   1      32.003  22.666  26.160  1.00  0.00    -0.458 OA
BRANCH  62  63
ATOM     63  C   UNL A   1      31.068  23.524  26.671  1.00  0.00     0.367 C 
ATOM     64  O   UNL A   1      30.225  23.221  27.500  1.00  0.00    -0.243 OA
BRANCH  63  65
ATOM     65  C   UNL A   1      31.270  24.852  26.124  1.00  0.00     0.203 A 
ATOM     66  N   UNL A   1      31.591  25.893  26.864  1.00  0.00    -0.226 NA
ATOM     67  S   UNL A   1      30.986  25.161  24.466  1.00  0.00    -0.107 S 
ATOM     68  C   UNL A   1      31.523  27.050  26.096  1.00  0.00     0.118 A 
ATOM     69  C   UNL A   1      31.169  26.850  24.757  1.00  0.00     0.058 A 
ATOM     70  C   UNL A   1      31.741  28.377  26.529  1.00  0.00     0.150 A 
ATOM     71  C   UNL A   1      31.001  27.923  23.863  1.00  0.00     0.021 A 
ATOM     72  F   UNL A   1      32.103  28.630  27.796  1.00  0.00    -0.205 F 
ATOM     73  C   UNL A   1      31.566  29.452  25.657  1.00  0.00     0.041 A 
ATOM     74  C   UNL A   1      31.189  29.225  24.337  1.00  0.00     0.005 A 
ENDBRANCH  63  65
ENDBRANCH  62  63
ENDBRANCH  61  62
ENDBRANCH  60  61
ENDBRANCH  59  60
ENDBRANCH  58  59
ENDBRANCH   1  58
TORSDOF 17
ENDMDL
