MODEL 1
REMARK VINA RESULT:      -9.3      0.000      0.000
REMARK SMILES Cc1cccc(C[C@H](C(=O)OCCOCCOCCOC(=O)c2ccc(-c3c4nc(c(-c5ccccc5)c5ccc([nH]5)c(-c5ccccc5)c5nc(c(-c6ccccc6)c6ccc3[nH]6)C=C5)C=C4)cc2)[C@@H]2CCCC[C@@H]2O)c1
REMARK SMILES IDX 15 1 14 2 13 3 12 4 11 5 9 6 10 7 8 8 7 9 6 10 1 11 2 12
REMARK SMILES IDX 3 13 78 14 4 15 5 16 71 17 72 18 76 19 73 20 75 21 74 22
REMARK SMILES IDX 77 23 16 25 17 26 18 27 19 28 20 29 21 30 22 31 23 32 24 33
REMARK SMILES IDX 70 34 25 35 69 36 26 37 27 38 28 39 63 40 29 41 68 42 62 43
REMARK SMILES IDX 64 44 30 45 67 46 61 47 60 48 31 50 53 51 38 52 52 53 39 54
REMARK SMILES IDX 42 55 51 56 65 57 40 58 41 59 50 61 66 62 43 63 32 64 33 65
REMARK SMILES IDX 37 66 34 67 36 68 35 69 54 70 55 71 59 72 56 73 58 74 57 75
REMARK SMILES IDX 44 76 45 77 49 78 46 79 48 80 47 81
REMARK H PARENT 77 24 64 49 42 60
REMARK Flexibility Score: inf
ROOT
ATOM      1  C   UNL A   1      42.149  21.897  25.932  1.00  0.00     0.188 C 
ENDROOT
BRANCH   1   2
ATOM      2  O   UNL A   1      41.133  22.806  26.288  1.00  0.00    -0.376 OA
BRANCH   2   3
ATOM      3  C   UNL A   1      39.824  22.251  26.315  1.00  0.00     0.202 C 
BRANCH   3   4
ATOM      4  C   UNL A   1      38.553  23.194  26.534  1.00  0.00     0.261 C 
BRANCH   4   5
ATOM      5  O   UNL A   1      37.177  23.462  25.781  1.00  0.00    -0.463 OA
BRANCH   5   6
ATOM      6  C   UNL A   1      35.923  22.812  25.821  1.00  0.00     0.309 C 
ATOM      7  O   UNL A   1      35.880  21.634  26.173  1.00  0.00    -0.252 OA
BRANCH   6   8
ATOM      8  C   UNL A   1      34.476  23.573  25.774  1.00  0.00     0.109 C 
BRANCH   8   9
ATOM      9  C   UNL A   1      34.780  24.897  25.067  1.00  0.00     0.051 C 
BRANCH   9  10
ATOM     10  C   UNL A   1      33.758  26.002  24.988  1.00  0.00    -0.047 A 
ATOM     11  C   UNL A   1      31.960  28.254  27.477  1.00  0.00     0.044 C 
ATOM     12  C   UNL A   1      32.492  27.705  26.192  1.00  0.00    -0.051 A 
ATOM     13  C   UNL A   1      32.131  28.301  24.983  1.00  0.00     0.003 A 
ATOM     14  C   UNL A   1      33.339  26.590  26.188  1.00  0.00     0.007 A 
ATOM     15  C   UNL A   1      32.475  27.688  23.791  1.00  0.00     0.001 A 
ATOM     16  C   UNL A   1      33.215  26.506  23.811  1.00  0.00     0.004 A 
ENDBRANCH   9  10
ENDBRANCH   8   9
BRANCH   8  17
ATOM     17  C   UNL A   1      33.065  22.831  25.489  1.00  0.00     0.032 C 
ATOM     18  C   UNL A   1      32.846  22.318  24.056  1.00  0.00     0.007 C 
ATOM     19  C   UNL A   1      31.670  23.268  26.058  1.00  0.00     0.118 C 
ATOM     20  C   UNL A   1      32.163  23.292  23.123  1.00  0.00     0.001 C 
ATOM     21  C   UNL A   1      30.621  23.891  25.110  1.00  0.00     0.032 C 
ATOM     22  C   UNL A   1      30.788  23.709  23.605  1.00  0.00     0.003 C 
BRANCH  19  23
ATOM     23  O   UNL A   1      31.768  24.039  27.250  1.00  0.00    -0.393 OA
ATOM     24  H   UNL A   1      30.878  24.230  27.585  1.00  0.00     0.210 HD
ENDBRANCH  19  23
ENDBRANCH   8  17
ENDBRANCH   6   8
ENDBRANCH   5   6
ENDBRANCH   4   5
ENDBRANCH   3   4
ENDBRANCH   2   3
ENDBRANCH   1   2
BRANCH   1  25
ATOM     25  C   UNL A   1      43.566  22.408  26.224  1.00  0.00     0.188 C 
BRANCH  25  26
ATOM     26  O   UNL A   1      43.660  23.836  26.285  1.00  0.00    -0.376 OA
BRANCH  26  27
ATOM     27  C   UNL A   1      44.208  24.423  25.096  1.00  0.00     0.202 C 
BRANCH  27  28
ATOM     28  C   UNL A   1      44.202  25.957  25.142  1.00  0.00     0.261 C 
BRANCH  28  29
ATOM     29  O   UNL A   1      43.128  26.389  26.000  1.00  0.00    -0.460 OA
BRANCH  29  30
ATOM     30  C   UNL A   1      42.739  27.663  25.759  1.00  0.00     0.338 C 
ATOM     31  O   UNL A   1      42.464  28.128  24.671  1.00  0.00    -0.246 OA
BRANCH  30  32
ATOM     32  C   UNL A   1      43.042  28.465  26.977  1.00  0.00     0.060 A 
ATOM     33  C   UNL A   1      42.442  28.025  28.118  1.00  0.00     0.016 A 
ATOM     34  C   UNL A   1      43.635  29.736  27.006  1.00  0.00     0.016 A 
ATOM     35  C   UNL A   1      42.314  28.920  29.182  1.00  0.00     0.010 A 
ATOM     36  C   UNL A   1      43.436  30.630  28.099  1.00  0.00     0.010 A 
ATOM     37  C   UNL A   1      42.667  30.274  29.204  1.00  0.00    -0.014 A 
BRANCH  37  38
ATOM     38  C   UNL A   1      42.222  31.307  30.261  1.00  0.00     0.031 A 
ATOM     39  C   UNL A   1      42.990  31.310  31.547  1.00  0.00     0.074 A 
ATOM     40  C   UNL A   1      41.161  32.202  30.326  1.00  0.00     0.049 A 
ATOM     41  N   UNL A   1      42.490  31.584  32.716  1.00  0.00    -0.248 NA
ATOM     42  C   UNL A   1      44.394  30.908  31.604  1.00  0.00     0.031 C 
ATOM     43  C   UNL A   1      41.127  33.466  31.080  1.00  0.00     0.029 A 
ATOM     44  N   UNL A   1      39.839  32.168  29.854  1.00  0.00    -0.354 N 
ATOM     45  C   UNL A   1      43.568  31.828  33.532  1.00  0.00     0.074 A 
ATOM     46  C   UNL A   1      44.691  31.198  32.873  1.00  0.00     0.031 C 
ATOM     47  C   UNL A   1      39.887  33.998  31.084  1.00  0.00     0.029 A 
ATOM     48  C   UNL A   1      38.956  33.087  30.442  1.00  0.00     0.049 A 
ATOM     49  H   UNL A   1      39.550  31.539  29.154  1.00  0.00     0.167 HD
ATOM     50  C   UNL A   1      43.530  32.768  34.522  1.00  0.00     0.031 A 
ATOM     51  C   UNL A   1      37.620  32.856  30.715  1.00  0.00     0.031 A 
ATOM     52  C   UNL A   1      42.269  33.497  34.619  1.00  0.00     0.049 A 
ATOM     53  C   UNL A   1      37.331  33.071  32.179  1.00  0.00     0.074 A 
ATOM     54  C   UNL A   1      41.914  34.779  34.221  1.00  0.00     0.029 A 
ATOM     55  N   UNL A   1      41.081  32.868  34.983  1.00  0.00    -0.354 N 
ATOM     56  N   UNL A   1      38.286  33.270  33.030  1.00  0.00    -0.248 NA
ATOM     57  C   UNL A   1      36.026  32.963  32.832  1.00  0.00     0.031 C 
ATOM     58  C   UNL A   1      40.529  34.947  34.409  1.00  0.00     0.029 A 
ATOM     59  C   UNL A   1      40.027  33.764  34.911  1.00  0.00     0.049 A 
ATOM     60  H   UNL A   1      41.003  31.924  35.252  1.00  0.00     0.167 HD
ATOM     61  C   UNL A   1      37.796  33.269  34.297  1.00  0.00     0.074 A 
ATOM     62  C   UNL A   1      36.365  33.096  34.130  1.00  0.00     0.031 C 
ATOM     63  C   UNL A   1      38.674  33.405  35.327  1.00  0.00     0.031 A 
BRANCH  50  64
ATOM     64  C   UNL A   1      44.837  33.299  35.075  1.00  0.00    -0.014 A 
ATOM     65  C   UNL A   1      45.589  34.240  34.351  1.00  0.00     0.009 A 
ATOM     66  C   UNL A   1      45.413  32.826  36.267  1.00  0.00     0.009 A 
ATOM     67  C   UNL A   1      46.896  34.585  34.711  1.00  0.00     0.001 A 
ATOM     68  C   UNL A   1      46.736  33.136  36.614  1.00  0.00     0.001 A 
ATOM     69  C   UNL A   1      47.484  34.001  35.823  1.00  0.00     0.000 A 
ENDBRANCH  50  64
BRANCH  51  70
ATOM     70  C   UNL A   1      36.746  31.919  29.912  1.00  0.00    -0.014 A 
ATOM     71  C   UNL A   1      35.922  32.413  28.886  1.00  0.00     0.009 A 
ATOM     72  C   UNL A   1      36.781  30.521  30.067  1.00  0.00     0.009 A 
ATOM     73  C   UNL A   1      35.277  31.549  27.979  1.00  0.00     0.001 A 
ATOM     74  C   UNL A   1      36.172  29.655  29.139  1.00  0.00     0.001 A 
ATOM     75  C   UNL A   1      35.441  30.170  28.075  1.00  0.00     0.000 A 
ENDBRANCH  51  70
BRANCH  63  76
ATOM     76  C   UNL A   1      38.371  33.378  36.794  1.00  0.00    -0.014 A 
ATOM     77  C   UNL A   1      37.653  32.377  37.452  1.00  0.00     0.009 A 
ATOM     78  C   UNL A   1      38.896  34.420  37.594  1.00  0.00     0.009 A 
ATOM     79  C   UNL A   1      37.438  32.439  38.836  1.00  0.00     0.001 A 
ATOM     80  C   UNL A   1      38.716  34.466  38.972  1.00  0.00     0.001 A 
ATOM     81  C   UNL A   1      37.974  33.476  39.594  1.00  0.00     0.000 A 
ENDBRANCH  63  76
ENDBRANCH  37  38
ENDBRANCH  30  32
ENDBRANCH  29  30
ENDBRANCH  28  29
ENDBRANCH  27  28
ENDBRANCH  26  27
ENDBRANCH  25  26
ENDBRANCH   1  25
TORSDOF 21
ENDMDL
MODEL 2
REMARK VINA RESULT:      -9.2      3.632      8.556
REMARK SMILES Cc1cccc(C[C@H](C(=O)OCCOCCOCCOC(=O)c2ccc(-c3c4nc(c(-c5ccccc5)c5ccc([nH]5)c(-c5ccccc5)c5nc(c(-c6ccccc6)c6ccc3[nH]6)C=C5)C=C4)cc2)[C@@H]2CCCC[C@@H]2O)c1
REMARK SMILES IDX 15 1 14 2 13 3 12 4 11 5 9 6 10 7 8 8 7 9 6 10 1 11 2 12
REMARK SMILES IDX 3 13 78 14 4 15 5 16 71 17 72 18 76 19 73 20 75 21 74 22
REMARK SMILES IDX 77 23 16 25 17 26 18 27 19 28 20 29 21 30 22 31 23 32 24 33
REMARK SMILES IDX 70 34 25 35 69 36 26 37 27 38 28 39 63 40 29 41 68 42 62 43
REMARK SMILES IDX 64 44 30 45 67 46 61 47 60 48 31 50 53 51 38 52 52 53 39 54
REMARK SMILES IDX 42 55 51 56 65 57 40 58 41 59 50 61 66 62 43 63 32 64 33 65
REMARK SMILES IDX 37 66 34 67 36 68 35 69 54 70 55 71 59 72 56 73 58 74 57 75
REMARK SMILES IDX 44 76 45 77 49 78 46 79 48 80 47 81
REMARK H PARENT 77 24 64 49 42 60
REMARK Flexibility Score: inf
ROOT
ATOM      1  C   UNL A   1      31.811  30.001  25.450  1.00  0.00     0.188 C 
ENDROOT
BRANCH   1   2
ATOM      2  O   UNL A   1      31.132  29.426  24.358  1.00  0.00    -0.376 OA
BRANCH   2   3
ATOM      3  C   UNL A   1      31.914  29.295  23.177  1.00  0.00     0.202 C 
BRANCH   3   4
ATOM      4  C   UNL A   1      32.457  27.861  22.726  1.00  0.00     0.261 C 
BRANCH   4   5
ATOM      5  O   UNL A   1      31.827  26.423  22.470  1.00  0.00    -0.463 OA
BRANCH   5   6
ATOM      6  C   UNL A   1      32.403  25.145  22.288  1.00  0.00     0.309 C 
ATOM      7  O   UNL A   1      33.087  24.945  21.284  1.00  0.00    -0.252 OA
BRANCH   6   8
ATOM      8  C   UNL A   1      32.533  24.005  23.452  1.00  0.00     0.109 C 
BRANCH   8   9
ATOM      9  C   UNL A   1      33.826  23.264  23.098  1.00  0.00     0.051 C 
BRANCH   9  10
ATOM     10  C   UNL A   1      34.283  22.058  23.879  1.00  0.00    -0.047 A 
ATOM     11  C   UNL A   1      32.774  18.709  24.881  1.00  0.00     0.044 C 
ATOM     12  C   UNL A   1      33.772  19.793  24.626  1.00  0.00    -0.051 A 
ATOM     13  C   UNL A   1      35.104  19.608  25.000  1.00  0.00     0.003 A 
ATOM     14  C   UNL A   1      33.382  20.997  24.027  1.00  0.00     0.007 A 
ATOM     15  C   UNL A   1      35.986  20.673  24.930  1.00  0.00     0.001 A 
ATOM     16  C   UNL A   1      35.544  21.904  24.445  1.00  0.00     0.004 A 
ENDBRANCH   9  10
ENDBRANCH   8   9
BRANCH   8  17
ATOM     17  C   UNL A   1      32.161  24.247  25.010  1.00  0.00     0.032 C 
ATOM     18  C   UNL A   1      30.663  24.294  25.351  1.00  0.00     0.007 C 
ATOM     19  C   UNL A   1      32.904  25.225  25.986  1.00  0.00     0.118 C 
ATOM     20  C   UNL A   1      30.039  25.671  25.314  1.00  0.00     0.001 C 
ATOM     21  C   UNL A   1      32.202  26.523  26.444  1.00  0.00     0.032 C 
ATOM     22  C   UNL A   1      30.690  26.643  26.276  1.00  0.00     0.003 C 
BRANCH  19  23
ATOM     23  O   UNL A   1      34.239  25.508  25.587  1.00  0.00    -0.393 OA
ATOM     24  H   UNL A   1      34.760  24.690  25.597  1.00  0.00     0.210 HD
ENDBRANCH  19  23
ENDBRANCH   8  17
ENDBRANCH   6   8
ENDBRANCH   5   6
ENDBRANCH   4   5
ENDBRANCH   3   4
ENDBRANCH   2   3
ENDBRANCH   1   2
BRANCH   1  25
ATOM     25  C   UNL A   1      31.160  31.287  25.976  1.00  0.00     0.188 C 
BRANCH  25  26
ATOM     26  O   UNL A   1      31.936  31.955  26.978  1.00  0.00    -0.376 OA
BRANCH  26  27
ATOM     27  C   UNL A   1      31.793  33.382  26.953  1.00  0.00     0.202 C 
BRANCH  27  28
ATOM     28  C   UNL A   1      32.958  34.100  27.649  1.00  0.00     0.261 C 
BRANCH  28  29
ATOM     29  O   UNL A   1      32.588  34.362  29.016  1.00  0.00    -0.460 OA
BRANCH  29  30
ATOM     30  C   UNL A   1      33.648  34.670  29.800  1.00  0.00     0.338 C 
ATOM     31  O   UNL A   1      33.788  35.697  30.433  1.00  0.00    -0.246 OA
BRANCH  30  32
ATOM     32  C   UNL A   1      34.740  33.710  29.480  1.00  0.00     0.060 A 
ATOM     33  C   UNL A   1      34.721  32.556  30.205  1.00  0.00     0.016 A 
ATOM     34  C   UNL A   1      35.896  33.988  28.735  1.00  0.00     0.016 A 
ATOM     35  C   UNL A   1      35.900  31.812  30.290  1.00  0.00     0.010 A 
ATOM     36  C   UNL A   1      37.089  33.222  28.892  1.00  0.00     0.010 A 
ATOM     37  C   UNL A   1      37.157  32.145  29.771  1.00  0.00    -0.014 A 
BRANCH  37  38
ATOM     38  C   UNL A   1      38.497  31.479  30.151  1.00  0.00     0.031 A 
ATOM     39  C   UNL A   1      38.749  30.122  29.570  1.00  0.00     0.074 A 
ATOM     40  C   UNL A   1      39.516  31.830  31.029  1.00  0.00     0.049 A 
ATOM     41  N   UNL A   1      39.407  29.167  30.159  1.00  0.00    -0.248 NA
ATOM     42  C   UNL A   1      38.183  29.720  28.284  1.00  0.00     0.031 C 
ATOM     43  C   UNL A   1      40.931  31.440  30.926  1.00  0.00     0.029 A 
ATOM     44  N   UNL A   1      39.540  32.502  32.261  1.00  0.00    -0.354 N 
ATOM     45  C   UNL A   1      39.713  28.264  29.170  1.00  0.00     0.074 A 
ATOM     46  C   UNL A   1      38.771  28.534  28.106  1.00  0.00     0.031 C 
ATOM     47  C   UNL A   1      41.615  31.787  32.036  1.00  0.00     0.029 A 
ATOM     48  C   UNL A   1      40.703  32.330  33.028  1.00  0.00     0.049 A 
ATOM     49  H   UNL A   1      38.789  33.059  32.568  1.00  0.00     0.167 HD
ATOM     50  C   UNL A   1      40.887  27.567  29.162  1.00  0.00     0.031 A 
ATOM     51  C   UNL A   1      40.750  32.245  34.408  1.00  0.00     0.031 A 
ATOM     52  C   UNL A   1      41.787  27.881  30.269  1.00  0.00     0.049 A 
ATOM     53  C   UNL A   1      41.404  30.958  34.840  1.00  0.00     0.074 A 
ATOM     54  C   UNL A   1      42.943  28.646  30.326  1.00  0.00     0.029 A 
ATOM     55  N   UNL A   1      41.461  27.582  31.589  1.00  0.00    -0.354 N 
ATOM     56  N   UNL A   1      41.695  30.032  33.984  1.00  0.00    -0.248 NA
ATOM     57  C   UNL A   1      41.671  30.538  36.216  1.00  0.00     0.031 C 
ATOM     58  C   UNL A   1      43.353  28.752  31.669  1.00  0.00     0.029 A 
ATOM     59  C   UNL A   1      42.442  28.062  32.441  1.00  0.00     0.049 A 
ATOM     60  H   UNL A   1      40.650  27.101  31.875  1.00  0.00     0.167 HD
ATOM     61  C   UNL A   1      42.118  28.912  34.626  1.00  0.00     0.074 A 
ATOM     62  C   UNL A   1      42.111  29.278  36.030  1.00  0.00     0.031 C 
ATOM     63  C   UNL A   1      42.410  27.813  33.880  1.00  0.00     0.031 A 
BRANCH  50  64
ATOM     64  C   UNL A   1      41.359  26.946  27.863  1.00  0.00    -0.014 A 
ATOM     65  C   UNL A   1      41.756  25.598  27.818  1.00  0.00     0.009 A 
ATOM     66  C   UNL A   1      41.519  27.681  26.676  1.00  0.00     0.009 A 
ATOM     67  C   UNL A   1      42.406  25.049  26.708  1.00  0.00     0.001 A 
ATOM     68  C   UNL A   1      42.205  27.150  25.573  1.00  0.00     0.001 A 
ATOM     69  C   UNL A   1      42.666  25.839  25.598  1.00  0.00     0.000 A 
ENDBRANCH  50  64
BRANCH  51  70
ATOM     70  C   UNL A   1      39.761  32.925  35.328  1.00  0.00    -0.014 A 
ATOM     71  C   UNL A   1      38.407  32.547  35.326  1.00  0.00     0.009 A 
ATOM     72  C   UNL A   1      40.143  33.877  36.291  1.00  0.00     0.009 A 
ATOM     73  C   UNL A   1      37.516  32.995  36.321  1.00  0.00     0.001 A 
ATOM     74  C   UNL A   1      39.267  34.294  37.310  1.00  0.00     0.001 A 
ATOM     75  C   UNL A   1      37.957  33.831  37.343  1.00  0.00     0.000 A 
ENDBRANCH  51  70
BRANCH  63  76
ATOM     76  C   UNL A   1      42.837  26.463  34.371  1.00  0.00    -0.014 A 
ATOM     77  C   UNL A   1      42.030  25.567  35.074  1.00  0.00     0.009 A 
ATOM     78  C   UNL A   1      44.147  26.033  34.055  1.00  0.00     0.009 A 
ATOM     79  C   UNL A   1      42.523  24.318  35.476  1.00  0.00     0.001 A 
ATOM     80  C   UNL A   1      44.629  24.780  34.420  1.00  0.00     0.001 A 
ATOM     81  C   UNL A   1      43.817  23.923  35.143  1.00  0.00     0.000 A 
ENDBRANCH  63  76
ENDBRANCH  37  38
ENDBRANCH  30  32
ENDBRANCH  29  30
ENDBRANCH  28  29
ENDBRANCH  27  28
ENDBRANCH  26  27
ENDBRANCH  25  26
ENDBRANCH   1  25
TORSDOF 21
ENDMDL
MODEL 3
REMARK VINA RESULT:      -9.1      1.361      2.923
REMARK SMILES Cc1cccc(C[C@H](C(=O)OCCOCCOCCOC(=O)c2ccc(-c3c4nc(c(-c5ccccc5)c5ccc([nH]5)c(-c5ccccc5)c5nc(c(-c6ccccc6)c6ccc3[nH]6)C=C5)C=C4)cc2)[C@@H]2CCCC[C@@H]2O)c1
REMARK SMILES IDX 15 1 14 2 13 3 12 4 11 5 9 6 10 7 8 8 7 9 6 10 1 11 2 12
REMARK SMILES IDX 3 13 78 14 4 15 5 16 71 17 72 18 76 19 73 20 75 21 74 22
REMARK SMILES IDX 77 23 16 25 17 26 18 27 19 28 20 29 21 30 22 31 23 32 24 33
REMARK SMILES IDX 70 34 25 35 69 36 26 37 27 38 28 39 63 40 29 41 68 42 62 43
REMARK SMILES IDX 64 44 30 45 67 46 61 47 60 48 31 50 53 51 38 52 52 53 39 54
REMARK SMILES IDX 42 55 51 56 65 57 40 58 41 59 50 61 66 62 43 63 32 64 33 65
REMARK SMILES IDX 37 66 34 67 36 68 35 69 54 70 55 71 59 72 56 73 58 74 57 75
REMARK SMILES IDX 44 76 45 77 49 78 46 79 48 80 47 81
REMARK H PARENT 77 24 64 49 42 60
REMARK Flexibility Score: inf
ROOT
ATOM      1  C   UNL A   1      43.302  22.067  25.384  1.00  0.00     0.188 C 
ENDROOT
BRANCH   1   2
ATOM      2  O   UNL A   1      42.513  21.903  26.539  1.00  0.00    -0.376 OA
BRANCH   2   3
ATOM      3  C   UNL A   1      41.389  21.049  26.373  1.00  0.00     0.202 C 
BRANCH   3   4
ATOM      4  C   UNL A   1      39.911  21.601  26.630  1.00  0.00     0.261 C 
BRANCH   4   5
ATOM      5  O   UNL A   1      38.640  21.943  25.735  1.00  0.00    -0.463 OA
BRANCH   5   6
ATOM      6  C   UNL A   1      37.680  22.978  25.793  1.00  0.00     0.309 C 
ATOM      7  O   UNL A   1      38.045  24.102  26.133  1.00  0.00    -0.252 OA
BRANCH   6   8
ATOM      8  C   UNL A   1      36.190  22.907  25.124  1.00  0.00     0.109 C 
BRANCH   8   9
ATOM      9  C   UNL A   1      35.453  21.869  25.976  1.00  0.00     0.051 C 
BRANCH   9  10
ATOM     10  C   UNL A   1      34.479  20.894  25.364  1.00  0.00    -0.047 A 
ATOM     11  C   UNL A   1      34.663  17.373  23.927  1.00  0.00     0.044 C 
ATOM     12  C   UNL A   1      34.116  18.649  24.482  1.00  0.00    -0.051 A 
ATOM     13  C   UNL A   1      32.735  18.845  24.531  1.00  0.00     0.003 A 
ATOM     14  C   UNL A   1      34.975  19.655  24.941  1.00  0.00     0.007 A 
ATOM     15  C   UNL A   1      32.235  20.090  24.875  1.00  0.00     0.001 A 
ATOM     16  C   UNL A   1      33.116  21.119  25.209  1.00  0.00     0.004 A 
ENDBRANCH   9  10
ENDBRANCH   8   9
BRANCH   8  17
ATOM     17  C   UNL A   1      35.377  24.194  24.569  1.00  0.00     0.032 C 
ATOM     18  C   UNL A   1      34.758  25.115  25.634  1.00  0.00     0.007 C 
ATOM     19  C   UNL A   1      34.434  24.210  23.317  1.00  0.00     0.118 C 
ATOM     20  C   UNL A   1      33.336  24.779  26.023  1.00  0.00     0.001 C 
ATOM     21  C   UNL A   1      32.906  24.331  23.514  1.00  0.00     0.032 C 
ATOM     22  C   UNL A   1      32.373  24.828  24.854  1.00  0.00     0.003 C 
BRANCH  19  23
ATOM     23  O   UNL A   1      34.724  23.176  22.384  1.00  0.00    -0.393 OA
ATOM     24  H   UNL A   1      34.279  22.358  22.658  1.00  0.00     0.210 HD
ENDBRANCH  19  23
ENDBRANCH   8  17
ENDBRANCH   6   8
ENDBRANCH   5   6
ENDBRANCH   4   5
ENDBRANCH   3   4
ENDBRANCH   2   3
ENDBRANCH   1   2
BRANCH   1  25
ATOM     25  C   UNL A   1      43.549  23.533  25.007  1.00  0.00     0.188 C 
BRANCH  25  26
ATOM     26  O   UNL A   1      44.935  23.896  24.991  1.00  0.00    -0.376 OA
BRANCH  26  27
ATOM     27  C   UNL A   1      45.160  25.298  25.197  1.00  0.00     0.202 C 
BRANCH  27  28
ATOM     28  C   UNL A   1      43.863  26.062  25.498  1.00  0.00     0.261 C 
BRANCH  28  29
ATOM     29  O   UNL A   1      44.104  27.471  25.317  1.00  0.00    -0.460 OA
BRANCH  29  30
ATOM     30  C   UNL A   1      43.012  28.230  25.569  1.00  0.00     0.338 C 
ATOM     31  O   UNL A   1      42.153  28.527  24.763  1.00  0.00    -0.246 OA
BRANCH  30  32
ATOM     32  C   UNL A   1      43.227  28.911  26.876  1.00  0.00     0.060 A 
ATOM     33  C   UNL A   1      42.422  28.480  27.887  1.00  0.00     0.016 A 
ATOM     34  C   UNL A   1      43.953  30.093  27.084  1.00  0.00     0.016 A 
ATOM     35  C   UNL A   1      42.247  29.317  28.991  1.00  0.00     0.010 A 
ATOM     36  C   UNL A   1      43.704  30.935  28.208  1.00  0.00     0.010 A 
ATOM     37  C   UNL A   1      42.748  30.611  29.167  1.00  0.00    -0.014 A 
BRANCH  37  38
ATOM     38  C   UNL A   1      42.279  31.625  30.232  1.00  0.00     0.031 A 
ATOM     39  C   UNL A   1      43.084  31.679  31.494  1.00  0.00     0.074 A 
ATOM     40  C   UNL A   1      41.171  32.460  30.326  1.00  0.00     0.049 A 
ATOM     41  N   UNL A   1      42.605  31.932  32.677  1.00  0.00    -0.248 NA
ATOM     42  C   UNL A   1      44.509  31.355  31.511  1.00  0.00     0.031 C 
ATOM     43  C   UNL A   1      41.090  33.725  31.075  1.00  0.00     0.029 A 
ATOM     44  N   UNL A   1      39.840  32.350  29.895  1.00  0.00    -0.354 N 
ATOM     45  C   UNL A   1      43.691  32.240  33.459  1.00  0.00     0.074 A 
ATOM     46  C   UNL A   1      44.828  31.670  32.769  1.00  0.00     0.031 C 
ATOM     47  C   UNL A   1      39.824  34.187  31.115  1.00  0.00     0.029 A 
ATOM     48  C   UNL A   1      38.925  33.222  30.506  1.00  0.00     0.049 A 
ATOM     49  H   UNL A   1      39.565  31.701  29.207  1.00  0.00     0.167 HD
ATOM     50  C   UNL A   1      43.632  33.182  34.445  1.00  0.00     0.031 A 
ATOM     51  C   UNL A   1      37.613  32.918  30.821  1.00  0.00     0.031 A 
ATOM     52  C   UNL A   1      42.335  33.841  34.577  1.00  0.00     0.049 A 
ATOM     53  C   UNL A   1      37.358  33.126  32.291  1.00  0.00     0.074 A 
ATOM     54  C   UNL A   1      41.897  35.099  34.184  1.00  0.00     0.029 A 
ATOM     55  N   UNL A   1      41.196  33.150  34.980  1.00  0.00    -0.354 N 
ATOM     56  N   UNL A   1      38.325  33.383  33.112  1.00  0.00    -0.248 NA
ATOM     57  C   UNL A   1      36.080  32.951  32.984  1.00  0.00     0.031 C 
ATOM     58  C   UNL A   1      40.512  35.191  34.414  1.00  0.00     0.029 A 
ATOM     59  C   UNL A   1      40.092  33.985  34.937  1.00  0.00     0.049 A 
ATOM     60  H   UNL A   1      41.178  32.204  35.256  1.00  0.00     0.167 HD
ATOM     61  C   UNL A   1      37.874  33.363  34.393  1.00  0.00     0.074 A 
ATOM     62  C   UNL A   1      36.451  33.109  34.271  1.00  0.00     0.031 C 
ATOM     63  C   UNL A   1      38.774  33.554  35.395  1.00  0.00     0.031 A 
BRANCH  50  64
ATOM     64  C   UNL A   1      44.923  33.788  34.956  1.00  0.00    -0.014 A 
ATOM     65  C   UNL A   1      45.649  34.696  34.164  1.00  0.00     0.009 A 
ATOM     66  C   UNL A   1      45.512  33.420  36.177  1.00  0.00     0.009 A 
ATOM     67  C   UNL A   1      46.945  35.102  34.495  1.00  0.00     0.001 A 
ATOM     68  C   UNL A   1      46.826  33.791  36.498  1.00  0.00     0.001 A 
ATOM     69  C   UNL A   1      47.550  34.617  35.645  1.00  0.00     0.000 A 
ENDBRANCH  50  64
BRANCH  51  70
ATOM     70  C   UNL A   1      36.769  31.929  30.049  1.00  0.00    -0.014 A 
ATOM     71  C   UNL A   1      35.934  32.364  29.005  1.00  0.00     0.009 A 
ATOM     72  C   UNL A   1      36.843  30.539  30.253  1.00  0.00     0.009 A 
ATOM     73  C   UNL A   1      35.317  31.451  28.127  1.00  0.00     0.001 A 
ATOM     74  C   UNL A   1      36.262  29.625  29.354  1.00  0.00     0.001 A 
ATOM     75  C   UNL A   1      35.520  30.082  28.272  1.00  0.00     0.000 A 
ENDBRANCH  51  70
BRANCH  63  76
ATOM     76  C   UNL A   1      38.518  33.519  36.871  1.00  0.00    -0.014 A 
ATOM     77  C   UNL A   1      38.969  34.465  37.793  1.00  0.00     0.009 A 
ATOM     78  C   UNL A   1      37.709  32.472  37.373  1.00  0.00     0.009 A 
ATOM     79  C   UNL A   1      38.659  34.347  39.155  1.00  0.00     0.001 A 
ATOM     80  C   UNL A   1      37.368  32.371  38.717  1.00  0.00     0.001 A 
ATOM     81  C   UNL A   1      37.855  33.307  39.614  1.00  0.00     0.000 A 
ENDBRANCH  63  76
ENDBRANCH  37  38
ENDBRANCH  30  32
ENDBRANCH  29  30
ENDBRANCH  28  29
ENDBRANCH  27  28
ENDBRANCH  26  27
ENDBRANCH  25  26
ENDBRANCH   1  25
TORSDOF 21
ENDMDL
