MODEL 1
REMARK VINA RESULT:     -10.2      0.000      0.000
REMARK SMILES O=C(OCCOCCOCCOC(=O)c1ccc(-c2c3nc(c(-c4ccccc4)c4ccc([nH]4)c(-c4ccccc4)c4nc(c(-c5ccccc5)c5ccc2[nH]5)C=C4)C=C3)cc1)c1ccc(NS(=O)(=O)Cc2c(Cl)cccc2Cl)cc1
REMARK SMILES IDX 7 1 6 2 5 3 4 4 3 5 2 6 1 7 63 8 64 9 81 10 65 11 80 12
REMARK SMILES IDX 66 13 67 14 68 16 69 17 70 18 71 19 72 20 73 21 78 22 74 23
REMARK SMILES IDX 75 24 77 25 79 26 76 27 8 28 9 29 10 30 11 31 12 32 13 33
REMARK SMILES IDX 14 34 15 35 16 36 62 37 17 38 61 39 18 40 19 41 20 42 55 43
REMARK SMILES IDX 21 44 60 45 54 46 56 47 22 48 59 49 53 50 52 51 23 53 45 54
REMARK SMILES IDX 30 55 44 56 31 57 34 58 43 59 57 60 32 61 33 62 42 64 58 65
REMARK SMILES IDX 35 66 24 67 25 68 29 69 26 70 28 71 27 72 46 73 47 74 51 75
REMARK SMILES IDX 48 76 50 77 49 78 36 79 37 80 41 81 38 82 40 83 39 84
REMARK H PARENT 67 15 56 52 34 63
REMARK Flexibility Score: inf
ROOT
ATOM      1  C   UNL A   1      42.252  21.620  26.884  1.00  0.00     0.188 C 
ENDROOT
BRANCH   1   2
ATOM      2  O   UNL A   1      41.449  22.689  26.385  1.00  0.00    -0.376 OA
BRANCH   2   3
ATOM      3  C   UNL A   1      40.265  22.928  27.144  1.00  0.00     0.202 C 
BRANCH   3   4
ATOM      4  C   UNL A   1      38.981  22.833  26.298  1.00  0.00     0.261 C 
BRANCH   4   5
ATOM      5  O   UNL A   1      38.781  21.506  25.751  1.00  0.00    -0.460 OA
BRANCH   5   6
ATOM      6  C   UNL A   1      37.735  20.978  25.064  1.00  0.00     0.338 C 
ATOM      7  O   UNL A   1      37.776  19.785  24.766  1.00  0.00    -0.246 OA
BRANCH   6   8
ATOM      8  C   UNL A   1      36.569  21.769  24.553  1.00  0.00     0.060 A 
ATOM      9  C   UNL A   1      36.633  22.592  23.448  1.00  0.00     0.018 A 
ATOM     10  C   UNL A   1      35.285  21.561  25.105  1.00  0.00     0.018 A 
ATOM     11  C   UNL A   1      35.488  23.129  22.883  1.00  0.00     0.027 A 
ATOM     12  C   UNL A   1      34.129  22.183  24.567  1.00  0.00     0.027 A 
ATOM     13  C   UNL A   1      34.244  22.996  23.446  1.00  0.00     0.049 A 
BRANCH  13  14
ATOM     14  N   UNL A   1      33.142  23.589  22.755  1.00  0.00    -0.283 N 
ATOM     15  H   UNL A   1      32.505  23.029  22.254  1.00  0.00     0.180 HD
BRANCH  14  16
ATOM     16  S   UNL A   1      32.948  25.277  22.811  1.00  0.00     0.237 S 
ATOM     17  O   UNL A   1      33.658  25.730  21.629  1.00  0.00    -0.206 OA
ATOM     18  O   UNL A   1      31.527  25.526  22.934  1.00  0.00    -0.206 OA
BRANCH  16  19
ATOM     19  C   UNL A   1      33.905  25.907  24.277  1.00  0.00     0.198 C 
BRANCH  19  20
ATOM     20  C   UNL A   1      33.122  26.969  25.034  1.00  0.00     0.006 A 
ATOM     21  C   UNL A   1      32.312  26.650  26.134  1.00  0.00     0.046 A 
ATOM     22  C   UNL A   1      33.192  28.335  24.698  1.00  0.00     0.046 A 
ATOM     23  Cl  UNL A   1      31.752  25.035  26.402  1.00  0.00    -0.084 Cl
ATOM     24  C   UNL A   1      31.863  27.641  27.016  1.00  0.00     0.021 A 
ATOM     25  C   UNL A   1      32.789  29.332  25.595  1.00  0.00     0.021 A 
ATOM     26  Cl  UNL A   1      33.713  28.857  23.133  1.00  0.00    -0.084 Cl
ATOM     27  C   UNL A   1      32.167  28.979  26.785  1.00  0.00     0.003 A 
ENDBRANCH  19  20
ENDBRANCH  16  19
ENDBRANCH  14  16
ENDBRANCH  13  14
ENDBRANCH   6   8
ENDBRANCH   5   6
ENDBRANCH   4   5
ENDBRANCH   3   4
ENDBRANCH   2   3
ENDBRANCH   1   2
BRANCH   1  28
ATOM     28  C   UNL A   1      43.338  21.163  25.905  1.00  0.00     0.188 C 
BRANCH  28  29
ATOM     29  O   UNL A   1      43.278  21.845  24.654  1.00  0.00    -0.376 OA
BRANCH  29  30
ATOM     30  C   UNL A   1      44.561  22.157  24.109  1.00  0.00     0.202 C 
BRANCH  30  31
ATOM     31  C   UNL A   1      45.165  23.470  24.619  1.00  0.00     0.261 C 
BRANCH  31  32
ATOM     32  O   UNL A   1      44.217  24.522  24.893  1.00  0.00    -0.460 OA
BRANCH  32  33
ATOM     33  C   UNL A   1      44.712  25.748  25.111  1.00  0.00     0.338 C 
ATOM     34  O   UNL A   1      45.729  26.242  24.625  1.00  0.00    -0.246 OA
BRANCH  33  35
ATOM     35  C   UNL A   1      43.868  26.433  26.102  1.00  0.00     0.060 A 
ATOM     36  C   UNL A   1      44.091  27.774  26.435  1.00  0.00     0.016 A 
ATOM     37  C   UNL A   1      42.903  25.685  26.780  1.00  0.00     0.016 A 
ATOM     38  C   UNL A   1      43.376  28.356  27.490  1.00  0.00     0.010 A 
ATOM     39  C   UNL A   1      42.187  26.271  27.826  1.00  0.00     0.010 A 
ATOM     40  C   UNL A   1      42.447  27.598  28.219  1.00  0.00    -0.014 A 
BRANCH  40  41
ATOM     41  C   UNL A   1      41.849  28.094  29.487  1.00  0.00     0.031 A 
ATOM     42  C   UNL A   1      40.579  28.902  29.424  1.00  0.00     0.074 A 
ATOM     43  C   UNL A   1      42.444  27.901  30.676  1.00  0.00     0.049 A 
ATOM     44  N   UNL A   1      39.976  29.577  30.368  1.00  0.00    -0.248 NA
ATOM     45  C   UNL A   1      39.911  28.959  28.115  1.00  0.00     0.031 C 
ATOM     46  C   UNL A   1      43.639  27.095  30.902  1.00  0.00     0.029 A 
ATOM     47  N   UNL A   1      42.135  28.404  31.918  1.00  0.00    -0.354 N 
ATOM     48  C   UNL A   1      38.869  30.160  29.763  1.00  0.00     0.074 A 
ATOM     49  C   UNL A   1      38.901  29.777  28.368  1.00  0.00     0.031 C 
ATOM     50  C   UNL A   1      43.991  27.193  32.195  1.00  0.00     0.029 A 
ATOM     51  C   UNL A   1      43.066  28.096  32.878  1.00  0.00     0.049 A 
ATOM     52  H   UNL A   1      41.324  28.933  32.100  1.00  0.00     0.167 HD
ATOM     53  C   UNL A   1      37.913  30.945  30.315  1.00  0.00     0.031 A 
ATOM     54  C   UNL A   1      43.185  28.520  34.153  1.00  0.00     0.031 A 
ATOM     55  C   UNL A   1      37.884  31.345  31.697  1.00  0.00     0.049 A 
ATOM     56  C   UNL A   1      42.162  29.460  34.732  1.00  0.00     0.074 A 
ATOM     57  C   UNL A   1      36.938  32.114  32.352  1.00  0.00     0.029 A 
ATOM     58  N   UNL A   1      38.852  31.019  32.634  1.00  0.00    -0.354 N 
ATOM     59  N   UNL A   1      41.103  29.981  34.161  1.00  0.00    -0.248 NA
ATOM     60  C   UNL A   1      42.343  29.859  36.136  1.00  0.00     0.031 C 
ATOM     61  C   UNL A   1      37.368  32.308  33.669  1.00  0.00     0.029 A 
ATOM     62  C   UNL A   1      38.544  31.600  33.853  1.00  0.00     0.049 A 
ATOM     63  H   UNL A   1      39.642  30.458  32.459  1.00  0.00     0.167 HD
ATOM     64  C   UNL A   1      40.475  30.740  35.142  1.00  0.00     0.074 A 
ATOM     65  C   UNL A   1      41.269  30.611  36.345  1.00  0.00     0.031 C 
ATOM     66  C   UNL A   1      39.334  31.468  35.051  1.00  0.00     0.031 A 
BRANCH  53  67
ATOM     67  C   UNL A   1      36.844  31.470  29.395  1.00  0.00    -0.014 A 
ATOM     68  C   UNL A   1      36.934  32.744  28.812  1.00  0.00     0.009 A 
ATOM     69  C   UNL A   1      35.727  30.670  29.106  1.00  0.00     0.009 A 
ATOM     70  C   UNL A   1      35.903  33.225  28.003  1.00  0.00     0.001 A 
ATOM     71  C   UNL A   1      34.715  31.140  28.269  1.00  0.00     0.001 A 
ATOM     72  C   UNL A   1      34.796  32.422  27.730  1.00  0.00     0.000 A 
ENDBRANCH  53  67
BRANCH  54  73
ATOM     73  C   UNL A   1      44.343  28.067  34.966  1.00  0.00    -0.014 A 
ATOM     74  C   UNL A   1      44.265  26.893  35.731  1.00  0.00     0.009 A 
ATOM     75  C   UNL A   1      45.542  28.799  34.966  1.00  0.00     0.009 A 
ATOM     76  C   UNL A   1      45.361  26.469  36.487  1.00  0.00     0.001 A 
ATOM     77  C   UNL A   1      46.643  28.358  35.701  1.00  0.00     0.001 A 
ATOM     78  C   UNL A   1      46.550  27.196  36.465  1.00  0.00     0.000 A 
ENDBRANCH  54  73
BRANCH  66  79
ATOM     79  C   UNL A   1      38.833  32.148  36.297  1.00  0.00    -0.014 A 
ATOM     80  C   UNL A   1      39.175  33.474  36.601  1.00  0.00     0.009 A 
ATOM     81  C   UNL A   1      37.940  31.467  37.141  1.00  0.00     0.009 A 
ATOM     82  C   UNL A   1      38.651  34.096  37.738  1.00  0.00     0.001 A 
ATOM     83  C   UNL A   1      37.396  32.099  38.260  1.00  0.00     0.001 A 
ATOM     84  C   UNL A   1      37.757  33.411  38.561  1.00  0.00     0.000 A 
ENDBRANCH  66  79
ENDBRANCH  40  41
ENDBRANCH  33  35
ENDBRANCH  32  33
ENDBRANCH  31  32
ENDBRANCH  30  31
ENDBRANCH  29  30
ENDBRANCH  28  29
ENDBRANCH   1  28
TORSDOF 21
ENDMDL
MODEL 2
REMARK VINA RESULT:      -9.9      3.872      7.758
REMARK SMILES O=C(OCCOCCOCCOC(=O)c1ccc(-c2c3nc(c(-c4ccccc4)c4ccc([nH]4)c(-c4ccccc4)c4nc(c(-c5ccccc5)c5ccc2[nH]5)C=C4)C=C3)cc1)c1ccc(NS(=O)(=O)Cc2c(Cl)cccc2Cl)cc1
REMARK SMILES IDX 7 1 6 2 5 3 4 4 3 5 2 6 1 7 63 8 64 9 81 10 65 11 80 12
REMARK SMILES IDX 66 13 67 14 68 16 69 17 70 18 71 19 72 20 73 21 78 22 74 23
REMARK SMILES IDX 75 24 77 25 79 26 76 27 8 28 9 29 10 30 11 31 12 32 13 33
REMARK SMILES IDX 14 34 15 35 16 36 62 37 17 38 61 39 18 40 19 41 20 42 55 43
REMARK SMILES IDX 21 44 60 45 54 46 56 47 22 48 59 49 53 50 52 51 23 53 45 54
REMARK SMILES IDX 30 55 44 56 31 57 34 58 43 59 57 60 32 61 33 62 42 64 58 65
REMARK SMILES IDX 35 66 24 67 25 68 29 69 26 70 28 71 27 72 46 73 47 74 51 75
REMARK SMILES IDX 48 76 50 77 49 78 36 79 37 80 41 81 38 82 40 83 39 84
REMARK H PARENT 67 15 56 52 34 63
REMARK Flexibility Score: inf
ROOT
ATOM      1  C   UNL A   1      36.174  22.777  24.995  1.00  0.00     0.188 C 
ENDROOT
BRANCH   1   2
ATOM      2  O   UNL A   1      34.931  22.392  25.582  1.00  0.00    -0.376 OA
BRANCH   2   3
ATOM      3  C   UNL A   1      34.005  21.825  24.658  1.00  0.00     0.202 C 
BRANCH   3   4
ATOM      4  C   UNL A   1      33.033  20.828  25.318  1.00  0.00     0.261 C 
BRANCH   4   5
ATOM      5  O   UNL A   1      31.769  21.444  25.667  1.00  0.00    -0.460 OA
BRANCH   5   6
ATOM      6  C   UNL A   1      31.494  22.652  26.225  1.00  0.00     0.338 C 
ATOM      7  O   UNL A   1      31.771  22.822  27.412  1.00  0.00    -0.246 OA
BRANCH   6   8
ATOM      8  C   UNL A   1      30.786  23.770  25.522  1.00  0.00     0.060 A 
ATOM      9  C   UNL A   1      30.146  24.799  26.182  1.00  0.00     0.018 A 
ATOM     10  C   UNL A   1      30.896  23.899  24.119  1.00  0.00     0.018 A 
ATOM     11  C   UNL A   1      29.696  25.919  25.503  1.00  0.00     0.027 A 
ATOM     12  C   UNL A   1      30.358  25.013  23.426  1.00  0.00     0.027 A 
ATOM     13  C   UNL A   1      29.732  26.029  24.136  1.00  0.00     0.049 A 
BRANCH  13  14
ATOM     14  N   UNL A   1      29.246  27.245  23.561  1.00  0.00    -0.283 N 
ATOM     15  H   UNL A   1      28.320  27.539  23.720  1.00  0.00     0.180 HD
BRANCH  14  16
ATOM     16  S   UNL A   1      30.294  28.175  22.599  1.00  0.00     0.237 S 
ATOM     17  O   UNL A   1      31.064  27.173  21.885  1.00  0.00    -0.206 OA
ATOM     18  O   UNL A   1      29.463  29.102  21.860  1.00  0.00    -0.206 OA
BRANCH  16  19
ATOM     19  C   UNL A   1      31.483  29.045  23.736  1.00  0.00     0.198 C 
BRANCH  19  20
ATOM     20  C   UNL A   1      32.491  28.073  24.330  1.00  0.00     0.006 A 
ATOM     21  C   UNL A   1      32.480  27.734  25.692  1.00  0.00     0.046 A 
ATOM     22  C   UNL A   1      33.469  27.433  23.546  1.00  0.00     0.046 A 
ATOM     23  Cl  UNL A   1      31.683  28.730  26.862  1.00  0.00    -0.084 Cl
ATOM     24  C   UNL A   1      33.177  26.616  26.167  1.00  0.00     0.021 A 
ATOM     25  C   UNL A   1      34.135  26.286  23.997  1.00  0.00     0.021 A 
ATOM     26  Cl  UNL A   1      33.955  28.064  22.010  1.00  0.00    -0.084 Cl
ATOM     27  C   UNL A   1      33.947  25.847  25.301  1.00  0.00     0.003 A 
ENDBRANCH  19  20
ENDBRANCH  16  19
ENDBRANCH  14  16
ENDBRANCH  13  14
ENDBRANCH   6   8
ENDBRANCH   5   6
ENDBRANCH   4   5
ENDBRANCH   3   4
ENDBRANCH   2   3
ENDBRANCH   1   2
BRANCH   1  28
ATOM     28  C   UNL A   1      37.320  22.884  26.005  1.00  0.00     0.188 C 
BRANCH  28  29
ATOM     29  O   UNL A   1      38.425  22.042  25.680  1.00  0.00    -0.376 OA
BRANCH  29  30
ATOM     30  C   UNL A   1      38.053  20.856  24.976  1.00  0.00     0.202 C 
BRANCH  30  31
ATOM     31  C   UNL A   1      38.914  19.630  25.300  1.00  0.00     0.261 C 
BRANCH  31  32
ATOM     32  O   UNL A   1      39.817  19.785  26.414  1.00  0.00    -0.460 OA
BRANCH  32  33
ATOM     33  C   UNL A   1      41.130  19.769  26.143  1.00  0.00     0.338 C 
ATOM     34  O   UNL A   1      41.773  18.863  25.612  1.00  0.00    -0.246 OA
BRANCH  33  35
ATOM     35  C   UNL A   1      41.735  21.011  26.643  1.00  0.00     0.060 A 
ATOM     36  C   UNL A   1      41.695  21.335  28.005  1.00  0.00     0.016 A 
ATOM     37  C   UNL A   1      42.259  21.914  25.715  1.00  0.00     0.016 A 
ATOM     38  C   UNL A   1      42.140  22.593  28.434  1.00  0.00     0.010 A 
ATOM     39  C   UNL A   1      42.708  23.163  26.148  1.00  0.00     0.010 A 
ATOM     40  C   UNL A   1      42.613  23.530  27.504  1.00  0.00    -0.014 A 
BRANCH  40  41
ATOM     41  C   UNL A   1      42.864  24.949  27.875  1.00  0.00     0.031 A 
ATOM     42  C   UNL A   1      44.260  25.364  28.256  1.00  0.00     0.074 A 
ATOM     43  C   UNL A   1      41.870  25.850  27.948  1.00  0.00     0.049 A 
ATOM     44  N   UNL A   1      44.681  26.489  28.776  1.00  0.00    -0.248 NA
ATOM     45  C   UNL A   1      45.318  24.369  28.025  1.00  0.00     0.031 C 
ATOM     46  C   UNL A   1      40.485  25.614  27.557  1.00  0.00     0.029 A 
ATOM     47  N   UNL A   1      41.875  27.145  28.412  1.00  0.00    -0.354 N 
ATOM     48  C   UNL A   1      46.050  26.329  28.957  1.00  0.00     0.074 A 
ATOM     49  C   UNL A   1      46.381  24.991  28.514  1.00  0.00     0.031 C 
ATOM     50  C   UNL A   1      39.760  26.710  27.839  1.00  0.00     0.029 A 
ATOM     51  C   UNL A   1      40.625  27.711  28.462  1.00  0.00     0.049 A 
ATOM     52  H   UNL A   1      42.695  27.619  28.682  1.00  0.00     0.167 HD
ATOM     53  C   UNL A   1      46.951  27.211  29.450  1.00  0.00     0.031 A 
ATOM     54  C   UNL A   1      40.215  28.885  28.982  1.00  0.00     0.031 A 
ATOM     55  C   UNL A   1      46.628  28.536  29.909  1.00  0.00     0.049 A 
ATOM     56  C   UNL A   1      41.214  29.824  29.604  1.00  0.00     0.074 A 
ATOM     57  C   UNL A   1      47.481  29.511  30.397  1.00  0.00     0.029 A 
ATOM     58  N   UNL A   1      45.348  29.067  29.952  1.00  0.00    -0.354 N 
ATOM     59  N   UNL A   1      42.509  29.676  29.743  1.00  0.00    -0.248 NA
ATOM     60  C   UNL A   1      40.696  31.097  30.128  1.00  0.00     0.031 C 
ATOM     61  C   UNL A   1      46.708  30.608  30.795  1.00  0.00     0.029 A 
ATOM     62  C   UNL A   1      45.384  30.343  30.489  1.00  0.00     0.049 A 
ATOM     63  H   UNL A   1      44.534  28.605  29.646  1.00  0.00     0.167 HD
ATOM     64  C   UNL A   1      42.965  30.848  30.337  1.00  0.00     0.074 A 
ATOM     65  C   UNL A   1      41.809  31.697  30.531  1.00  0.00     0.031 C 
ATOM     66  C   UNL A   1      44.232  31.189  30.679  1.00  0.00     0.031 A 
BRANCH  53  67
ATOM     67  C   UNL A   1      48.375  26.741  29.568  1.00  0.00    -0.014 A 
ATOM     68  C   UNL A   1      49.304  26.936  28.532  1.00  0.00     0.009 A 
ATOM     69  C   UNL A   1      48.794  26.092  30.740  1.00  0.00     0.009 A 
ATOM     70  C   UNL A   1      50.605  26.444  28.648  1.00  0.00     0.001 A 
ATOM     71  C   UNL A   1      50.106  25.632  30.868  1.00  0.00     0.001 A 
ATOM     72  C   UNL A   1      51.005  25.795  29.817  1.00  0.00     0.000 A 
ENDBRANCH  53  67
BRANCH  54  73
ATOM     73  C   UNL A   1      38.769  29.229  28.953  1.00  0.00    -0.014 A 
ATOM     74  C   UNL A   1      37.961  29.018  30.080  1.00  0.00     0.009 A 
ATOM     75  C   UNL A   1      38.195  29.788  27.800  1.00  0.00     0.009 A 
ATOM     76  C   UNL A   1      36.604  29.351  30.048  1.00  0.00     0.001 A 
ATOM     77  C   UNL A   1      36.845  30.144  27.780  1.00  0.00     0.001 A 
ATOM     78  C   UNL A   1      36.050  29.921  28.903  1.00  0.00     0.000 A 
ENDBRANCH  54  73
BRANCH  66  79
ATOM     79  C   UNL A   1      44.461  32.561  31.253  1.00  0.00    -0.014 A 
ATOM     80  C   UNL A   1      44.475  32.787  32.638  1.00  0.00     0.009 A 
ATOM     81  C   UNL A   1      44.740  33.632  30.388  1.00  0.00     0.009 A 
ATOM     82  C   UNL A   1      44.743  34.063  33.142  1.00  0.00     0.001 A 
ATOM     83  C   UNL A   1      45.036  34.898  30.895  1.00  0.00     0.001 A 
ATOM     84  C   UNL A   1      45.030  35.114  32.272  1.00  0.00     0.000 A 
ENDBRANCH  66  79
ENDBRANCH  40  41
ENDBRANCH  33  35
ENDBRANCH  32  33
ENDBRANCH  31  32
ENDBRANCH  30  31
ENDBRANCH  29  30
ENDBRANCH  28  29
ENDBRANCH   1  28
TORSDOF 21
ENDMDL
MODEL 3
REMARK VINA RESULT:      -9.8      2.215      6.823
REMARK SMILES O=C(OCCOCCOCCOC(=O)c1ccc(-c2c3nc(c(-c4ccccc4)c4ccc([nH]4)c(-c4ccccc4)c4nc(c(-c5ccccc5)c5ccc2[nH]5)C=C4)C=C3)cc1)c1ccc(NS(=O)(=O)Cc2c(Cl)cccc2Cl)cc1
REMARK SMILES IDX 7 1 6 2 5 3 4 4 3 5 2 6 1 7 63 8 64 9 81 10 65 11 80 12
REMARK SMILES IDX 66 13 67 14 68 16 69 17 70 18 71 19 72 20 73 21 78 22 74 23
REMARK SMILES IDX 75 24 77 25 79 26 76 27 8 28 9 29 10 30 11 31 12 32 13 33
REMARK SMILES IDX 14 34 15 35 16 36 62 37 17 38 61 39 18 40 19 41 20 42 55 43
REMARK SMILES IDX 21 44 60 45 54 46 56 47 22 48 59 49 53 50 52 51 23 53 45 54
REMARK SMILES IDX 30 55 44 56 31 57 34 58 43 59 57 60 32 61 33 62 42 64 58 65
REMARK SMILES IDX 35 66 24 67 25 68 29 69 26 70 28 71 27 72 46 73 47 74 51 75
REMARK SMILES IDX 48 76 50 77 49 78 36 79 37 80 41 81 38 82 40 83 39 84
REMARK H PARENT 67 15 56 52 34 63
REMARK Flexibility Score: inf
ROOT
ATOM      1  C   UNL A   1      35.203  20.843  25.342  1.00  0.00     0.188 C 
ENDROOT
BRANCH   1   2
ATOM      2  O   UNL A   1      33.820  20.708  25.665  1.00  0.00    -0.376 OA
BRANCH   2   3
ATOM      3  C   UNL A   1      33.046  20.073  24.648  1.00  0.00     0.202 C 
BRANCH   3   4
ATOM      4  C   UNL A   1      32.246  21.073  23.791  1.00  0.00     0.261 C 
BRANCH   4   5
ATOM      5  O   UNL A   1      33.070  21.720  22.791  1.00  0.00    -0.460 OA
BRANCH   5   6
ATOM      6  C   UNL A   1      33.455  23.017  22.662  1.00  0.00     0.338 C 
ATOM      7  O   UNL A   1      34.657  23.276  22.719  1.00  0.00    -0.246 OA
BRANCH   6   8
ATOM      8  C   UNL A   1      32.511  24.176  22.552  1.00  0.00     0.060 A 
ATOM      9  C   UNL A   1      31.411  24.341  23.368  1.00  0.00     0.018 A 
ATOM     10  C   UNL A   1      32.822  25.254  21.693  1.00  0.00     0.018 A 
ATOM     11  C   UNL A   1      30.696  25.528  23.378  1.00  0.00     0.027 A 
ATOM     12  C   UNL A   1      32.032  26.431  21.654  1.00  0.00     0.027 A 
ATOM     13  C   UNL A   1      30.939  26.555  22.503  1.00  0.00     0.049 A 
BRANCH  13  14
ATOM     14  N   UNL A   1      30.136  27.731  22.629  1.00  0.00    -0.283 N 
ATOM     15  H   UNL A   1      29.248  27.779  22.205  1.00  0.00     0.180 HD
BRANCH  14  16
ATOM     16  S   UNL A   1      30.736  29.046  23.524  1.00  0.00     0.237 S 
ATOM     17  O   UNL A   1      32.037  29.285  22.927  1.00  0.00    -0.206 OA
ATOM     18  O   UNL A   1      29.723  30.078  23.473  1.00  0.00    -0.206 OA
BRANCH  16  19
ATOM     19  C   UNL A   1      31.051  28.451  25.259  1.00  0.00     0.198 C 
BRANCH  19  20
ATOM     20  C   UNL A   1      32.336  29.040  25.821  1.00  0.00     0.006 A 
ATOM     21  C   UNL A   1      32.376  30.323  26.390  1.00  0.00     0.046 A 
ATOM     22  C   UNL A   1      33.547  28.323  25.836  1.00  0.00     0.046 A 
ATOM     23  Cl  UNL A   1      31.147  31.494  26.058  1.00  0.00    -0.084 Cl
ATOM     24  C   UNL A   1      33.454  30.729  27.188  1.00  0.00     0.021 A 
ATOM     25  C   UNL A   1      34.610  28.697  26.668  1.00  0.00     0.021 A 
ATOM     26  Cl  UNL A   1      33.819  26.982  24.778  1.00  0.00    -0.084 Cl
ATOM     27  C   UNL A   1      34.539  29.882  27.387  1.00  0.00     0.003 A 
ENDBRANCH  19  20
ENDBRANCH  16  19
ENDBRANCH  14  16
ENDBRANCH  13  14
ENDBRANCH   6   8
ENDBRANCH   5   6
ENDBRANCH   4   5
ENDBRANCH   3   4
ENDBRANCH   2   3
ENDBRANCH   1   2
BRANCH   1  28
ATOM     28  C   UNL A   1      35.801  22.188  25.765  1.00  0.00     0.188 C 
BRANCH  28  29
ATOM     29  O   UNL A   1      37.137  22.371  25.300  1.00  0.00    -0.376 OA
BRANCH  29  30
ATOM     30  C   UNL A   1      38.022  21.312  25.670  1.00  0.00     0.202 C 
BRANCH  30  31
ATOM     31  C   UNL A   1      39.486  21.736  25.831  1.00  0.00     0.261 C 
BRANCH  31  32
ATOM     32  O   UNL A   1      39.718  22.824  26.749  1.00  0.00    -0.460 OA
BRANCH  32  33
ATOM     33  C   UNL A   1      40.847  23.529  26.588  1.00  0.00     0.338 C 
ATOM     34  O   UNL A   1      41.903  23.145  26.084  1.00  0.00    -0.246 OA
BRANCH  33  35
ATOM     35  C   UNL A   1      40.663  24.863  27.176  1.00  0.00     0.060 A 
ATOM     36  C   UNL A   1      41.448  25.947  26.765  1.00  0.00     0.016 A 
ATOM     37  C   UNL A   1      39.756  25.004  28.230  1.00  0.00     0.016 A 
ATOM     38  C   UNL A   1      41.360  27.168  27.448  1.00  0.00     0.010 A 
ATOM     39  C   UNL A   1      39.666  26.224  28.902  1.00  0.00     0.010 A 
ATOM     40  C   UNL A   1      40.497  27.303  28.546  1.00  0.00    -0.014 A 
BRANCH  40  41
ATOM     41  C   UNL A   1      40.547  28.488  29.443  1.00  0.00     0.031 A 
ATOM     42  C   UNL A   1      41.579  28.527  30.539  1.00  0.00     0.074 A 
ATOM     43  C   UNL A   1      39.655  29.489  29.348  1.00  0.00     0.049 A 
ATOM     44  N   UNL A   1      41.700  29.363  31.538  1.00  0.00    -0.248 NA
ATOM     45  C   UNL A   1      42.604  27.473  30.502  1.00  0.00     0.031 C 
ATOM     46  C   UNL A   1      38.639  29.619  28.310  1.00  0.00     0.029 A 
ATOM     47  N   UNL A   1      39.444  30.574  30.167  1.00  0.00    -0.354 N 
ATOM     48  C   UNL A   1      42.801  28.923  32.264  1.00  0.00     0.074 A 
ATOM     49  C   UNL A   1      43.294  27.734  31.602  1.00  0.00     0.031 C 
ATOM     50  C   UNL A   1      37.880  30.697  28.576  1.00  0.00     0.029 A 
ATOM     51  C   UNL A   1      38.337  31.309  29.823  1.00  0.00     0.049 A 
ATOM     52  H   UNL A   1      40.029  30.800  30.926  1.00  0.00     0.167 HD
ATOM     53  C   UNL A   1      43.352  29.456  33.381  1.00  0.00     0.031 A 
ATOM     54  C   UNL A   1      37.735  32.336  30.456  1.00  0.00     0.031 A 
ATOM     55  C   UNL A   1      42.857  30.627  34.054  1.00  0.00     0.049 A 
ATOM     56  C   UNL A   1      38.308  32.868  31.742  1.00  0.00     0.074 A 
ATOM     57  C   UNL A   1      43.370  31.257  35.175  1.00  0.00     0.029 A 
ATOM     58  N   UNL A   1      41.728  31.337  33.678  1.00  0.00    -0.354 N 
ATOM     59  N   UNL A   1      39.365  32.464  32.404  1.00  0.00    -0.248 NA
ATOM     60  C   UNL A   1      37.612  34.006  32.362  1.00  0.00     0.031 C 
ATOM     61  C   UNL A   1      42.512  32.309  35.516  1.00  0.00     0.029 A 
ATOM     62  C   UNL A   1      41.507  32.378  34.565  1.00  0.00     0.049 A 
ATOM     63  H   UNL A   1      41.165  31.131  32.897  1.00  0.00     0.167 HD
ATOM     64  C   UNL A   1      39.482  33.317  33.496  1.00  0.00     0.074 A 
ATOM     65  C   UNL A   1      38.388  34.262  33.408  1.00  0.00     0.031 C 
ATOM     66  C   UNL A   1      40.420  33.320  34.474  1.00  0.00     0.031 A 
BRANCH  53  67
ATOM     67  C   UNL A   1      44.529  28.731  33.975  1.00  0.00    -0.014 A 
ATOM     68  C   UNL A   1      44.363  27.708  34.922  1.00  0.00     0.009 A 
ATOM     69  C   UNL A   1      45.829  29.080  33.574  1.00  0.00     0.009 A 
ATOM     70  C   UNL A   1      45.476  27.088  35.494  1.00  0.00     0.001 A 
ATOM     71  C   UNL A   1      46.938  28.435  34.122  1.00  0.00     0.001 A 
ATOM     72  C   UNL A   1      46.761  27.450  35.092  1.00  0.00     0.000 A 
ENDBRANCH  53  67
BRANCH  54  73
ATOM     73  C   UNL A   1      36.494  32.919  29.882  1.00  0.00    -0.014 A 
ATOM     74  C   UNL A   1      36.560  33.963  28.946  1.00  0.00     0.009 A 
ATOM     75  C   UNL A   1      35.236  32.419  30.254  1.00  0.00     0.009 A 
ATOM     76  C   UNL A   1      35.390  34.501  28.405  1.00  0.00     0.001 A 
ATOM     77  C   UNL A   1      34.070  32.941  29.691  1.00  0.00     0.001 A 
ATOM     78  C   UNL A   1      34.148  33.984  28.771  1.00  0.00     0.000 A 
ENDBRANCH  54  73
BRANCH  66  79
ATOM     79  C   UNL A   1      40.350  34.407  35.513  1.00  0.00    -0.014 A 
ATOM     80  C   UNL A   1      39.533  34.291  36.647  1.00  0.00     0.009 A 
ATOM     81  C   UNL A   1      41.177  35.535  35.385  1.00  0.00     0.009 A 
ATOM     82  C   UNL A   1      39.529  35.293  37.621  1.00  0.00     0.001 A 
ATOM     83  C   UNL A   1      41.193  36.522  36.373  1.00  0.00     0.001 A 
ATOM     84  C   UNL A   1      40.363  36.403  37.487  1.00  0.00     0.000 A 
ENDBRANCH  66  79
ENDBRANCH  40  41
ENDBRANCH  33  35
ENDBRANCH  32  33
ENDBRANCH  31  32
ENDBRANCH  30  31
ENDBRANCH  29  30
ENDBRANCH  28  29
ENDBRANCH   1  28
TORSDOF 21
ENDMDL
