MODEL 1
REMARK VINA RESULT:      -8.1      0.000      0.000
REMARK SMILES COc1ccc(-c2ncn(CC(=O)OCCOCCOCCOC(=O)c3ccc(-c4c5nc(c(-c6ccccc6)c6ccc([nH]6)c(-c6ccccc6)c6nc(c(-c7ccccc7)c7ccc4[nH]7)C=C6)C=C5)cc3)c2-c2ccc(OC)cc2)cc1
REMARK SMILES IDX 18 1 17 2 16 3 15 4 14 5 12 6 13 7 11 8 10 9 7 10 8 11 74 12
REMARK SMILES IDX 9 13 6 14 3 15 4 16 84 17 5 18 83 19 2 20 1 21 75 22 76 23
REMARK SMILES IDX 82 24 77 25 81 26 78 27 79 28 80 29 19 30 20 31 21 32 22 33
REMARK SMILES IDX 23 34 24 35 25 36 26 37 27 38 73 39 28 40 72 41 29 42 30 43
REMARK SMILES IDX 31 44 66 45 32 46 71 47 65 48 67 49 33 50 70 51 64 52 63 53
REMARK SMILES IDX 34 55 56 56 41 57 55 58 42 59 45 60 54 61 68 62 43 63 44 64
REMARK SMILES IDX 53 66 69 67 46 68 35 69 36 70 40 71 37 72 39 73 38 74 57 75
REMARK SMILES IDX 58 76 62 77 59 78 61 79 60 80 47 81 48 82 52 83 49 84 51 85
REMARK SMILES IDX 50 86
REMARK H PARENT 67 54 45 65
REMARK Flexibility Score: inf
ROOT
ATOM      1  C   UNL A   1      33.318  36.983  30.808  1.00  0.00     0.188 C 
ENDROOT
BRANCH   1   2
ATOM      2  O   UNL A   1      33.140  36.761  32.199  1.00  0.00    -0.376 OA
BRANCH   2   3
ATOM      3  C   UNL A   1      33.382  35.425  32.630  1.00  0.00     0.202 C 
BRANCH   3   4
ATOM      4  C   UNL A   1      34.840  35.074  33.005  1.00  0.00     0.261 C 
BRANCH   4   5
ATOM      5  O   UNL A   1      35.055  33.669  33.331  1.00  0.00    -0.462 OA
BRANCH   5   6
ATOM      6  C   UNL A   1      36.291  33.160  33.105  1.00  0.00     0.326 C 
ATOM      7  O   UNL A   1      36.484  31.967  32.880  1.00  0.00    -0.250 OA
BRANCH   6   8
ATOM      8  C   UNL A   1      37.457  34.140  33.092  1.00  0.00     0.246 C 
BRANCH   8   9
ATOM      9  N   UNL A   1      38.386  34.181  31.960  1.00  0.00    -0.319 N 
ATOM     10  C   UNL A   1      40.138  34.338  30.645  1.00  0.00     0.096 A 
ATOM     11  N   UNL A   1      39.052  34.773  29.923  1.00  0.00    -0.236 NA
ATOM     12  C   UNL A   1      39.782  34.031  31.967  1.00  0.00     0.076 A 
ATOM     13  C   UNL A   1      38.032  34.696  30.739  1.00  0.00     0.201 A 
BRANCH  10  14
ATOM     14  C   UNL A   1      41.413  34.101  29.977  1.00  0.00     0.003 A 
ATOM     15  C   UNL A   1      43.837  33.745  28.575  1.00  0.00     0.118 A 
ATOM     16  C   UNL A   1      43.207  34.987  28.586  1.00  0.00     0.047 A 
ATOM     17  C   UNL A   1      43.302  32.704  29.337  1.00  0.00     0.047 A 
ATOM     18  C   UNL A   1      42.019  35.166  29.300  1.00  0.00     0.014 A 
ATOM     19  C   UNL A   1      42.091  32.880  30.034  1.00  0.00     0.014 A 
BRANCH  15  20
ATOM     20  O   UNL A   1      44.980  33.680  27.827  1.00  0.00    -0.497 OA
ATOM     21  C   UNL A   1      44.846  34.074  26.465  1.00  0.00     0.278 C 
ENDBRANCH  15  20
ENDBRANCH  10  14
BRANCH  12  22
ATOM     22  C   UNL A   1      40.586  33.524  33.099  1.00  0.00     0.001 A 
ATOM     23  C   UNL A   1      41.189  34.420  33.986  1.00  0.00     0.014 A 
ATOM     24  C   UNL A   1      40.756  32.162  33.366  1.00  0.00     0.014 A 
ATOM     25  C   UNL A   1      41.876  34.015  35.132  1.00  0.00     0.047 A 
ATOM     26  C   UNL A   1      41.466  31.738  34.505  1.00  0.00     0.047 A 
ATOM     27  C   UNL A   1      41.985  32.663  35.411  1.00  0.00     0.118 A 
BRANCH  27  28
ATOM     28  O   UNL A   1      42.613  32.166  36.517  1.00  0.00    -0.497 OA
ATOM     29  C   UNL A   1      43.245  30.900  36.326  1.00  0.00     0.278 C 
ENDBRANCH  27  28
ENDBRANCH  12  22
ENDBRANCH   8   9
ENDBRANCH   6   8
ENDBRANCH   5   6
ENDBRANCH   4   5
ENDBRANCH   3   4
ENDBRANCH   2   3
ENDBRANCH   1   2
BRANCH   1  30
ATOM     30  C   UNL A   1      32.822  35.876  29.858  1.00  0.00     0.188 C 
BRANCH  30  31
ATOM     31  O   UNL A   1      33.670  35.530  28.774  1.00  0.00    -0.376 OA
BRANCH  31  32
ATOM     32  C   UNL A   1      34.736  34.641  29.060  1.00  0.00     0.202 C 
BRANCH  32  33
ATOM     33  C   UNL A   1      34.275  33.274  29.534  1.00  0.00     0.261 C 
BRANCH  33  34
ATOM     34  O   UNL A   1      35.390  32.383  29.647  1.00  0.00    -0.460 OA
BRANCH  34  35
ATOM     35  C   UNL A   1      35.601  31.652  28.541  1.00  0.00     0.338 C 
ATOM     36  O   UNL A   1      34.802  31.447  27.631  1.00  0.00    -0.246 OA
BRANCH  35  37
ATOM     37  C   UNL A   1      36.853  30.934  28.623  1.00  0.00     0.060 A 
ATOM     38  C   UNL A   1      36.816  29.552  28.398  1.00  0.00     0.016 A 
ATOM     39  C   UNL A   1      37.998  31.591  29.085  1.00  0.00     0.016 A 
ATOM     40  C   UNL A   1      37.931  28.808  28.694  1.00  0.00     0.010 A 
ATOM     41  C   UNL A   1      39.105  30.846  29.393  1.00  0.00     0.010 A 
ATOM     42  C   UNL A   1      39.048  29.463  29.219  1.00  0.00    -0.014 A 
BRANCH  42  43
ATOM     43  C   UNL A   1      40.242  28.684  29.435  1.00  0.00     0.031 A 
ATOM     44  C   UNL A   1      40.619  28.543  30.862  1.00  0.00     0.074 A 
ATOM     45  C   UNL A   1      40.826  27.985  28.450  1.00  0.00     0.049 A 
ATOM     46  N   UNL A   1      41.712  28.912  31.439  1.00  0.00    -0.248 NA
ATOM     47  C   UNL A   1      39.592  28.034  31.788  1.00  0.00     0.031 C 
ATOM     48  C   UNL A   1      40.342  27.761  27.086  1.00  0.00     0.029 A 
ATOM     49  N   UNL A   1      41.918  27.188  28.533  1.00  0.00    -0.354 N 
ATOM     50  C   UNL A   1      41.589  28.534  32.773  1.00  0.00     0.074 A 
ATOM     51  C   UNL A   1      40.216  28.144  32.959  1.00  0.00     0.031 C 
ATOM     52  C   UNL A   1      40.993  26.697  26.564  1.00  0.00     0.029 A 
ATOM     53  C   UNL A   1      42.014  26.266  27.506  1.00  0.00     0.049 A 
ATOM     54  H   UNL A   1      42.581  27.258  29.257  1.00  0.00     0.167 HD
ATOM     55  C   UNL A   1      42.681  28.353  33.567  1.00  0.00     0.031 A 
ATOM     56  C   UNL A   1      42.818  25.178  27.491  1.00  0.00     0.031 A 
ATOM     57  C   UNL A   1      43.851  28.979  33.008  1.00  0.00     0.049 A 
ATOM     58  C   UNL A   1      43.863  25.369  28.526  1.00  0.00     0.074 A 
ATOM     59  C   UNL A   1      44.183  30.270  32.648  1.00  0.00     0.029 A 
ATOM     60  N   UNL A   1      44.765  28.168  32.376  1.00  0.00    -0.354 N 
ATOM     61  N   UNL A   1      44.803  26.267  28.442  1.00  0.00    -0.248 NA
ATOM     62  C   UNL A   1      43.608  24.864  29.868  1.00  0.00     0.031 C 
ATOM     63  C   UNL A   1      44.945  30.132  31.449  1.00  0.00     0.029 A 
ATOM     64  C   UNL A   1      45.079  28.768  31.186  1.00  0.00     0.049 A 
ATOM     65  H   UNL A   1      45.125  27.316  32.715  1.00  0.00     0.167 HD
ATOM     66  C   UNL A   1      44.950  26.752  29.734  1.00  0.00     0.074 A 
ATOM     67  C   UNL A   1      44.274  25.774  30.584  1.00  0.00     0.031 C 
ATOM     68  C   UNL A   1      45.348  28.039  29.966  1.00  0.00     0.031 A 
BRANCH  55  69
ATOM     69  C   UNL A   1      42.774  27.256  34.603  1.00  0.00    -0.014 A 
ATOM     70  C   UNL A   1      43.164  25.972  34.179  1.00  0.00     0.009 A 
ATOM     71  C   UNL A   1      42.221  27.345  35.895  1.00  0.00     0.009 A 
ATOM     72  C   UNL A   1      42.897  24.834  34.949  1.00  0.00     0.001 A 
ATOM     73  C   UNL A   1      41.994  26.217  36.687  1.00  0.00     0.001 A 
ATOM     74  C   UNL A   1      42.295  24.956  36.197  1.00  0.00     0.000 A 
ENDBRANCH  55  69
BRANCH  56  75
ATOM     75  C   UNL A   1      42.572  23.881  26.830  1.00  0.00    -0.014 A 
ATOM     76  C   UNL A   1      43.622  23.177  26.227  1.00  0.00     0.009 A 
ATOM     77  C   UNL A   1      41.342  23.215  26.998  1.00  0.00     0.009 A 
ATOM     78  C   UNL A   1      43.455  21.844  25.830  1.00  0.00     0.001 A 
ATOM     79  C   UNL A   1      41.173  21.889  26.594  1.00  0.00     0.001 A 
ATOM     80  C   UNL A   1      42.235  21.198  26.023  1.00  0.00     0.000 A 
ENDBRANCH  56  75
BRANCH  68  81
ATOM     81  C   UNL A   1      45.835  28.858  28.796  1.00  0.00    -0.014 A 
ATOM     82  C   UNL A   1      44.965  29.539  27.927  1.00  0.00     0.009 A 
ATOM     83  C   UNL A   1      47.213  29.086  28.668  1.00  0.00     0.009 A 
ATOM     84  C   UNL A   1      45.460  30.395  26.939  1.00  0.00     0.001 A 
ATOM     85  C   UNL A   1      47.708  29.958  27.696  1.00  0.00     0.001 A 
ATOM     86  C   UNL A   1      46.832  30.608  26.828  1.00  0.00     0.000 A 
ENDBRANCH  68  81
ENDBRANCH  42  43
ENDBRANCH  35  37
ENDBRANCH  34  35
ENDBRANCH  33  34
ENDBRANCH  32  33
ENDBRANCH  31  32
ENDBRANCH  30  31
ENDBRANCH   1  30
TORSDOF 22
ENDMDL
MODEL 2
REMARK VINA RESULT:      -7.5      2.172      3.162
REMARK SMILES COc1ccc(-c2ncn(CC(=O)OCCOCCOCCOC(=O)c3ccc(-c4c5nc(c(-c6ccccc6)c6ccc([nH]6)c(-c6ccccc6)c6nc(c(-c7ccccc7)c7ccc4[nH]7)C=C6)C=C5)cc3)c2-c2ccc(OC)cc2)cc1
REMARK SMILES IDX 18 1 17 2 16 3 15 4 14 5 12 6 13 7 11 8 10 9 7 10 8 11 74 12
REMARK SMILES IDX 9 13 6 14 3 15 4 16 84 17 5 18 83 19 2 20 1 21 75 22 76 23
REMARK SMILES IDX 82 24 77 25 81 26 78 27 79 28 80 29 19 30 20 31 21 32 22 33
REMARK SMILES IDX 23 34 24 35 25 36 26 37 27 38 73 39 28 40 72 41 29 42 30 43
REMARK SMILES IDX 31 44 66 45 32 46 71 47 65 48 67 49 33 50 70 51 64 52 63 53
REMARK SMILES IDX 34 55 56 56 41 57 55 58 42 59 45 60 54 61 68 62 43 63 44 64
REMARK SMILES IDX 53 66 69 67 46 68 35 69 36 70 40 71 37 72 39 73 38 74 57 75
REMARK SMILES IDX 58 76 62 77 59 78 61 79 60 80 47 81 48 82 52 83 49 84 51 85
REMARK SMILES IDX 50 86
REMARK H PARENT 67 54 45 65
REMARK Flexibility Score: inf
ROOT
ATOM      1  C   UNL A   1      33.240  36.795  30.168  1.00  0.00     0.188 C 
ENDROOT
BRANCH   1   2
ATOM      2  O   UNL A   1      32.477  36.810  31.365  1.00  0.00    -0.376 OA
BRANCH   2   3
ATOM      3  C   UNL A   1      32.995  36.002  32.417  1.00  0.00     0.202 C 
BRANCH   3   4
ATOM      4  C   UNL A   1      34.407  36.361  32.931  1.00  0.00     0.261 C 
BRANCH   4   5
ATOM      5  O   UNL A   1      34.928  35.450  33.944  1.00  0.00    -0.462 OA
BRANCH   5   6
ATOM      6  C   UNL A   1      35.975  34.663  33.593  1.00  0.00     0.326 C 
ATOM      7  O   UNL A   1      36.819  35.015  32.771  1.00  0.00    -0.250 OA
BRANCH   6   8
ATOM      8  C   UNL A   1      36.105  33.320  34.298  1.00  0.00     0.246 C 
BRANCH   8   9
ATOM      9  N   UNL A   1      37.361  32.567  34.249  1.00  0.00    -0.319 N 
ATOM     10  C   UNL A   1      39.443  31.884  34.387  1.00  0.00     0.096 A 
ATOM     11  N   UNL A   1      38.883  31.252  33.303  1.00  0.00    -0.236 NA
ATOM     12  C   UNL A   1      38.545  32.790  34.970  1.00  0.00     0.076 A 
ATOM     13  C   UNL A   1      37.656  31.700  33.228  1.00  0.00     0.201 A 
BRANCH  10  14
ATOM     14  C   UNL A   1      40.749  31.465  34.884  1.00  0.00     0.003 A 
ATOM     15  C   UNL A   1      43.337  30.693  35.707  1.00  0.00     0.118 A 
ATOM     16  C   UNL A   1      43.168  31.756  34.825  1.00  0.00     0.047 A 
ATOM     17  C   UNL A   1      42.209  30.070  36.247  1.00  0.00     0.047 A 
ATOM     18  C   UNL A   1      41.885  32.151  34.437  1.00  0.00     0.014 A 
ATOM     19  C   UNL A   1      40.917  30.453  35.834  1.00  0.00     0.014 A 
BRANCH  15  20
ATOM     20  O   UNL A   1      44.636  30.380  35.999  1.00  0.00    -0.497 OA
ATOM     21  C   UNL A   1      45.502  31.490  36.213  1.00  0.00     0.278 C 
ENDBRANCH  15  20
ENDBRANCH  10  14
BRANCH  12  22
ATOM     22  C   UNL A   1      38.682  33.678  36.143  1.00  0.00     0.001 A 
ATOM     23  C   UNL A   1      38.296  33.229  37.409  1.00  0.00     0.014 A 
ATOM     24  C   UNL A   1      39.224  34.965  36.069  1.00  0.00     0.014 A 
ATOM     25  C   UNL A   1      38.490  33.972  38.576  1.00  0.00     0.047 A 
ATOM     26  C   UNL A   1      39.404  35.735  37.234  1.00  0.00     0.047 A 
ATOM     27  C   UNL A   1      39.081  35.221  38.490  1.00  0.00     0.118 A 
BRANCH  27  28
ATOM     28  O   UNL A   1      39.338  36.014  39.572  1.00  0.00    -0.497 OA
ATOM     29  C   UNL A   1      39.609  37.380  39.259  1.00  0.00     0.278 C 
ENDBRANCH  27  28
ENDBRANCH  12  22
ENDBRANCH   8   9
ENDBRANCH   6   8
ENDBRANCH   5   6
ENDBRANCH   4   5
ENDBRANCH   3   4
ENDBRANCH   2   3
ENDBRANCH   1   2
BRANCH   1  30
ATOM     30  C   UNL A   1      33.339  35.449  29.423  1.00  0.00     0.188 C 
BRANCH  30  31
ATOM     31  O   UNL A   1      34.526  35.207  28.683  1.00  0.00    -0.376 OA
BRANCH  31  32
ATOM     32  C   UNL A   1      35.460  34.310  29.257  1.00  0.00     0.202 C 
BRANCH  32  33
ATOM     33  C   UNL A   1      34.814  33.188  30.050  1.00  0.00     0.261 C 
BRANCH  33  34
ATOM     34  O   UNL A   1      35.656  32.029  30.052  1.00  0.00    -0.460 OA
BRANCH  34  35
ATOM     35  C   UNL A   1      36.002  31.621  28.822  1.00  0.00     0.338 C 
ATOM     36  O   UNL A   1      35.347  31.754  27.791  1.00  0.00    -0.246 OA
BRANCH  35  37
ATOM     37  C   UNL A   1      37.188  30.795  28.861  1.00  0.00     0.060 A 
ATOM     38  C   UNL A   1      37.017  29.417  28.678  1.00  0.00     0.016 A 
ATOM     39  C   UNL A   1      38.409  31.358  29.246  1.00  0.00     0.016 A 
ATOM     40  C   UNL A   1      38.075  28.584  28.939  1.00  0.00     0.010 A 
ATOM     41  C   UNL A   1      39.460  30.524  29.518  1.00  0.00     0.010 A 
ATOM     42  C   UNL A   1      39.272  29.148  29.388  1.00  0.00    -0.014 A 
BRANCH  42  43
ATOM     43  C   UNL A   1      40.402  28.270  29.566  1.00  0.00     0.031 A 
ATOM     44  C   UNL A   1      40.885  28.186  30.966  1.00  0.00     0.074 A 
ATOM     45  C   UNL A   1      40.831  27.453  28.593  1.00  0.00     0.049 A 
ATOM     46  N   UNL A   1      42.053  28.483  31.425  1.00  0.00    -0.248 NA
ATOM     47  C   UNL A   1      39.898  27.844  32.005  1.00  0.00     0.031 C 
ATOM     48  C   UNL A   1      40.214  27.189  27.291  1.00  0.00     0.029 A 
ATOM     49  N   UNL A   1      41.847  26.559  28.648  1.00  0.00    -0.354 N 
ATOM     50  C   UNL A   1      42.009  28.207  32.790  1.00  0.00     0.074 A 
ATOM     51  C   UNL A   1      40.627  27.968  33.112  1.00  0.00     0.031 C 
ATOM     52  C   UNL A   1      40.715  26.034  26.800  1.00  0.00     0.029 A 
ATOM     53  C   UNL A   1      41.769  25.567  27.687  1.00  0.00     0.049 A 
ATOM     54  H   UNL A   1      42.574  26.610  29.310  1.00  0.00     0.167 HD
ATOM     55  C   UNL A   1      43.143  27.971  33.507  1.00  0.00     0.031 A 
ATOM     56  C   UNL A   1      42.463  24.405  27.689  1.00  0.00     0.031 A 
ATOM     57  C   UNL A   1      44.315  28.440  32.812  1.00  0.00     0.049 A 
ATOM     58  C   UNL A   1      43.606  24.559  28.622  1.00  0.00     0.074 A 
ATOM     59  C   UNL A   1      44.735  29.665  32.333  1.00  0.00     0.029 A 
ATOM     60  N   UNL A   1      45.092  27.502  32.172  1.00  0.00    -0.354 N 
ATOM     61  N   UNL A   1      44.615  25.352  28.398  1.00  0.00    -0.248 NA
ATOM     62  C   UNL A   1      43.421  24.172  30.014  1.00  0.00     0.031 C 
ATOM     63  C   UNL A   1      45.374  29.373  31.091  1.00  0.00     0.029 A 
ATOM     64  C   UNL A   1      45.357  27.988  30.919  1.00  0.00     0.049 A 
ATOM     65  H   UNL A   1      45.398  26.643  32.543  1.00  0.00     0.167 HD
ATOM     66  C   UNL A   1      44.917  25.904  29.635  1.00  0.00     0.074 A 
ATOM     67  C   UNL A   1      44.228  25.056  30.606  1.00  0.00     0.031 C 
ATOM     68  C   UNL A   1      45.452  27.158  29.739  1.00  0.00     0.031 A 
BRANCH  55  69
ATOM     69  C   UNL A   1      43.222  26.941  34.610  1.00  0.00    -0.014 A 
ATOM     70  C   UNL A   1      44.320  26.990  35.489  1.00  0.00     0.009 A 
ATOM     71  C   UNL A   1      42.446  25.767  34.646  1.00  0.00     0.009 A 
ATOM     72  C   UNL A   1      44.691  25.882  36.260  1.00  0.00     0.001 A 
ATOM     73  C   UNL A   1      42.785  24.674  35.447  1.00  0.00     0.001 A 
ATOM     74  C   UNL A   1      43.932  24.717  36.225  1.00  0.00     0.000 A 
ENDBRANCH  55  69
BRANCH  56  75
ATOM     75  C   UNL A   1      42.041  23.099  27.147  1.00  0.00    -0.014 A 
ATOM     76  C   UNL A   1      42.915  22.336  26.362  1.00  0.00     0.009 A 
ATOM     77  C   UNL A   1      40.856  22.486  27.599  1.00  0.00     0.009 A 
ATOM     78  C   UNL A   1      42.626  20.998  26.062  1.00  0.00     0.001 A 
ATOM     79  C   UNL A   1      40.563  21.155  27.293  1.00  0.00     0.001 A 
ATOM     80  C   UNL A   1      41.456  20.406  26.536  1.00  0.00     0.000 A 
ENDBRANCH  56  75
BRANCH  68  81
ATOM     81  C   UNL A   1      45.911  27.846  28.477  1.00  0.00    -0.014 A 
ATOM     82  C   UNL A   1      45.068  28.054  27.372  1.00  0.00     0.009 A 
ATOM     83  C   UNL A   1      47.178  28.448  28.469  1.00  0.00     0.009 A 
ATOM     84  C   UNL A   1      45.492  28.814  26.278  1.00  0.00     0.001 A 
ATOM     85  C   UNL A   1      47.594  29.227  27.386  1.00  0.00     0.001 A 
ATOM     86  C   UNL A   1      46.754  29.404  26.289  1.00  0.00     0.000 A 
ENDBRANCH  68  81
ENDBRANCH  42  43
ENDBRANCH  35  37
ENDBRANCH  34  35
ENDBRANCH  33  34
ENDBRANCH  32  33
ENDBRANCH  31  32
ENDBRANCH  30  31
ENDBRANCH   1  30
TORSDOF 22
ENDMDL
MODEL 3
REMARK VINA RESULT:      -7.5      3.908      7.674
REMARK SMILES COc1ccc(-c2ncn(CC(=O)OCCOCCOCCOC(=O)c3ccc(-c4c5nc(c(-c6ccccc6)c6ccc([nH]6)c(-c6ccccc6)c6nc(c(-c7ccccc7)c7ccc4[nH]7)C=C6)C=C5)cc3)c2-c2ccc(OC)cc2)cc1
REMARK SMILES IDX 18 1 17 2 16 3 15 4 14 5 12 6 13 7 11 8 10 9 7 10 8 11 74 12
REMARK SMILES IDX 9 13 6 14 3 15 4 16 84 17 5 18 83 19 2 20 1 21 75 22 76 23
REMARK SMILES IDX 82 24 77 25 81 26 78 27 79 28 80 29 19 30 20 31 21 32 22 33
REMARK SMILES IDX 23 34 24 35 25 36 26 37 27 38 73 39 28 40 72 41 29 42 30 43
REMARK SMILES IDX 31 44 66 45 32 46 71 47 65 48 67 49 33 50 70 51 64 52 63 53
REMARK SMILES IDX 34 55 56 56 41 57 55 58 42 59 45 60 54 61 68 62 43 63 44 64
REMARK SMILES IDX 53 66 69 67 46 68 35 69 36 70 40 71 37 72 39 73 38 74 57 75
REMARK SMILES IDX 58 76 62 77 59 78 61 79 60 80 47 81 48 82 52 83 49 84 51 85
REMARK SMILES IDX 50 86
REMARK H PARENT 67 54 45 65
REMARK Flexibility Score: inf
ROOT
ATOM      1  C   UNL A   1      32.527  36.049  31.263  1.00  0.00     0.188 C 
ENDROOT
BRANCH   1   2
ATOM      2  O   UNL A   1      32.157  36.016  29.893  1.00  0.00    -0.376 OA
BRANCH   2   3
ATOM      3  C   UNL A   1      33.235  36.175  28.976  1.00  0.00     0.202 C 
BRANCH   3   4
ATOM      4  C   UNL A   1      33.900  34.879  28.461  1.00  0.00     0.261 C 
BRANCH   4   5
ATOM      5  O   UNL A   1      32.959  33.852  28.028  1.00  0.00    -0.462 OA
BRANCH   5   6
ATOM      6  C   UNL A   1      33.478  32.698  27.540  1.00  0.00     0.326 C 
ATOM      7  O   UNL A   1      34.672  32.421  27.631  1.00  0.00    -0.250 OA
BRANCH   6   8
ATOM      8  C   UNL A   1      32.509  31.712  26.904  1.00  0.00     0.246 C 
BRANCH   8   9
ATOM      9  N   UNL A   1      32.834  30.285  26.829  1.00  0.00    -0.319 N 
ATOM     10  C   UNL A   1      32.857  28.121  26.461  1.00  0.00     0.096 A 
ATOM     11  N   UNL A   1      33.540  28.337  27.634  1.00  0.00    -0.236 NA
ATOM     12  C   UNL A   1      32.320  29.314  25.956  1.00  0.00     0.076 A 
ATOM     13  C   UNL A   1      33.485  29.628  27.842  1.00  0.00     0.201 A 
BRANCH  10  14
ATOM     14  C   UNL A   1      32.896  26.809  25.823  1.00  0.00     0.003 A 
ATOM     15  C   UNL A   1      32.851  24.228  24.681  1.00  0.00     0.118 A 
ATOM     16  C   UNL A   1      31.670  24.828  25.108  1.00  0.00     0.047 A 
ATOM     17  C   UNL A   1      34.044  24.953  24.744  1.00  0.00     0.047 A 
ATOM     18  C   UNL A   1      31.691  26.115  25.652  1.00  0.00     0.014 A 
ATOM     19  C   UNL A   1      34.067  26.239  25.316  1.00  0.00     0.014 A 
BRANCH  15  20
ATOM     20  O   UNL A   1      32.713  22.961  24.186  1.00  0.00    -0.497 OA
ATOM     21  C   UNL A   1      31.518  22.713  23.453  1.00  0.00     0.278 C 
ENDBRANCH  15  20
ENDBRANCH  10  14
BRANCH  12  22
ATOM     22  C   UNL A   1      31.531  29.587  24.736  1.00  0.00     0.001 A 
ATOM     23  C   UNL A   1      31.907  29.015  23.517  1.00  0.00     0.014 A 
ATOM     24  C   UNL A   1      30.376  30.374  24.732  1.00  0.00     0.014 A 
ATOM     25  C   UNL A   1      31.155  29.144  22.347  1.00  0.00     0.047 A 
ATOM     26  C   UNL A   1      29.620  30.533  23.556  1.00  0.00     0.047 A 
ATOM     27  C   UNL A   1      29.984  29.881  22.377  1.00  0.00     0.118 A 
BRANCH  27  28
ATOM     28  O   UNL A   1      29.165  30.046  21.296  1.00  0.00    -0.497 OA
ATOM     29  C   UNL A   1      27.799  30.307  21.617  1.00  0.00     0.278 C 
ENDBRANCH  27  28
ENDBRANCH  12  22
ENDBRANCH   8   9
ENDBRANCH   6   8
ENDBRANCH   5   6
ENDBRANCH   4   5
ENDBRANCH   3   4
ENDBRANCH   2   3
ENDBRANCH   1   2
BRANCH   1  30
ATOM     30  C   UNL A   1      33.610  37.068  31.667  1.00  0.00     0.188 C 
BRANCH  30  31
ATOM     31  O   UNL A   1      34.248  36.868  32.919  1.00  0.00    -0.376 OA
BRANCH  31  32
ATOM     32  C   UNL A   1      34.372  35.528  33.361  1.00  0.00     0.202 C 
BRANCH  32  33
ATOM     33  C   UNL A   1      35.504  34.771  32.690  1.00  0.00     0.261 C 
BRANCH  33  34
ATOM     34  O   UNL A   1      35.370  33.364  32.920  1.00  0.00    -0.460 OA
BRANCH  34  35
ATOM     35  C   UNL A   1      35.346  32.640  31.791  1.00  0.00     0.338 C 
ATOM     36  O   UNL A   1      34.410  32.535  31.003  1.00  0.00    -0.246 OA
BRANCH  35  37
ATOM     37  C   UNL A   1      36.517  31.798  31.687  1.00  0.00     0.060 A 
ATOM     38  C   UNL A   1      37.749  32.434  31.482  1.00  0.00     0.016 A 
ATOM     39  C   UNL A   1      36.366  30.409  31.621  1.00  0.00     0.016 A 
ATOM     40  C   UNL A   1      38.836  31.667  31.148  1.00  0.00     0.010 A 
ATOM     41  C   UNL A   1      37.450  29.647  31.275  1.00  0.00     0.010 A 
ATOM     42  C   UNL A   1      38.662  30.286  31.018  1.00  0.00    -0.014 A 
BRANCH  42  43
ATOM     43  C   UNL A   1      39.833  29.484  30.761  1.00  0.00     0.031 A 
ATOM     44  C   UNL A   1      40.646  29.200  31.968  1.00  0.00     0.074 A 
ATOM     45  C   UNL A   1      40.039  28.882  29.580  1.00  0.00     0.049 A 
ATOM     46  N   UNL A   1      41.880  29.506  32.188  1.00  0.00    -0.248 NA
ATOM     47  C   UNL A   1      39.956  28.607  33.127  1.00  0.00     0.031 C 
ATOM     48  C   UNL A   1      39.132  28.797  28.433  1.00  0.00     0.029 A 
ATOM     49  N   UNL A   1      41.070  28.076  29.229  1.00  0.00    -0.354 N 
ATOM     50  C   UNL A   1      42.181  28.998  33.449  1.00  0.00     0.074 A 
ATOM     51  C   UNL A   1      40.929  28.598  34.036  1.00  0.00     0.031 C 
ATOM     52  C   UNL A   1      39.539  27.787  27.632  1.00  0.00     0.029 A 
ATOM     53  C   UNL A   1      40.794  27.260  28.146  1.00  0.00     0.049 A 
ATOM     54  H   UNL A   1      41.934  28.071  29.700  1.00  0.00     0.167 HD
ATOM     55  C   UNL A   1      43.463  28.734  33.824  1.00  0.00     0.031 A 
ATOM     56  C   UNL A   1      41.509  26.174  27.770  1.00  0.00     0.031 A 
ATOM     57  C   UNL A   1      44.412  29.407  32.974  1.00  0.00     0.049 A 
ATOM     58  C   UNL A   1      42.839  26.257  28.421  1.00  0.00     0.074 A 
ATOM     59  C   UNL A   1      44.657  30.725  32.645  1.00  0.00     0.029 A 
ATOM     60  N   UNL A   1      45.042  28.657  32.007  1.00  0.00    -0.354 N 
ATOM     61  N   UNL A   1      43.734  27.154  28.118  1.00  0.00    -0.248 NA
ATOM     62  C   UNL A   1      43.014  25.623  29.721  1.00  0.00     0.031 C 
ATOM     63  C   UNL A   1      44.984  30.702  31.257  1.00  0.00     0.029 A 
ATOM     64  C   UNL A   1      44.975  29.370  30.840  1.00  0.00     0.049 A 
ATOM     65  H   UNL A   1      45.460  27.775  32.130  1.00  0.00     0.167 HD
ATOM     66  C   UNL A   1      44.309  27.508  29.331  1.00  0.00     0.074 A 
ATOM     67  C   UNL A   1      43.910  26.455  30.261  1.00  0.00     0.031 C 
ATOM     68  C   UNL A   1      44.808  28.764  29.537  1.00  0.00     0.031 A 
BRANCH  55  69
ATOM     69  C   UNL A   1      43.847  27.539  34.668  1.00  0.00    -0.014 A 
ATOM     70  C   UNL A   1      43.807  26.265  34.073  1.00  0.00     0.009 A 
ATOM     71  C   UNL A   1      43.954  27.570  36.071  1.00  0.00     0.009 A 
ATOM     72  C   UNL A   1      43.747  25.098  34.844  1.00  0.00     0.001 A 
ATOM     73  C   UNL A   1      43.941  26.407  36.844  1.00  0.00     0.001 A 
ATOM     74  C   UNL A   1      43.797  25.172  36.232  1.00  0.00     0.000 A 
ENDBRANCH  55  69
BRANCH  56  75
ATOM     75  C   UNL A   1      41.015  24.950  27.110  1.00  0.00    -0.014 A 
ATOM     76  C   UNL A   1      41.905  24.066  26.488  1.00  0.00     0.009 A 
ATOM     77  C   UNL A   1      39.685  24.525  27.295  1.00  0.00     0.009 A 
ATOM     78  C   UNL A   1      41.486  22.789  26.089  1.00  0.00     0.001 A 
ATOM     79  C   UNL A   1      39.264  23.256  26.889  1.00  0.00     0.001 A 
ATOM     80  C   UNL A   1      40.170  22.382  26.300  1.00  0.00     0.000 A 
ENDBRANCH  56  75
BRANCH  68  81
ATOM     81  C   UNL A   1      44.919  29.693  28.353  1.00  0.00    -0.014 A 
ATOM     82  C   UNL A   1      43.847  30.478  27.896  1.00  0.00     0.009 A 
ATOM     83  C   UNL A   1      46.186  29.906  27.790  1.00  0.00     0.009 A 
ATOM     84  C   UNL A   1      44.029  31.424  26.882  1.00  0.00     0.001 A 
ATOM     85  C   UNL A   1      46.374  30.867  26.793  1.00  0.00     0.001 A 
ATOM     86  C   UNL A   1      45.295  31.620  26.336  1.00  0.00     0.000 A 
ENDBRANCH  68  81
ENDBRANCH  42  43
ENDBRANCH  35  37
ENDBRANCH  34  35
ENDBRANCH  33  34
ENDBRANCH  32  33
ENDBRANCH  31  32
ENDBRANCH  30  31
ENDBRANCH   1  30
TORSDOF 22
ENDMDL
