MODEL 1
REMARK VINA RESULT:      -7.3      0.000      0.000
REMARK SMILES COc1ccc([C@@H]2C(C#N)=C(N)N3C(=O)[C@H](CC(=O)OCCOCCOCCOC(=O)c4ccc(-c5c6nc(c(-c7ccccc7)c7ccc([nH]7)c(-c7ccccc7)c7nc(c(-c8ccccc8)c8ccc5[nH]8)C=C7)C=C6)cc4)SC3=C2C#N)cc1
REMARK SMILES IDX 24 1 23 2 22 3 21 4 20 5 18 6 19 7 17 8 16 9 7 10 8 11 82 12
REMARK SMILES IDX 11 13 81 14 13 15 80 16 14 17 15 18 6 19 3 20 4 21 86 22
REMARK SMILES IDX 5 23 85 24 2 25 1 26 9 27 10 28 83 29 84 30 12 31 25 34
REMARK SMILES IDX 26 35 27 36 28 37 29 38 30 39 31 40 32 41 33 42 79 43 34 44
REMARK SMILES IDX 78 45 35 46 36 47 37 48 72 49 38 50 77 51 71 52 73 53 39 54
REMARK SMILES IDX 76 55 70 56 69 57 40 59 62 60 47 61 61 62 48 63 51 64 60 65
REMARK SMILES IDX 74 66 49 67 50 68 59 70 75 71 52 72 41 73 42 74 46 75 43 76
REMARK SMILES IDX 45 77 44 78 63 79 64 80 68 81 65 82 67 83 66 84 53 85 54 86
REMARK SMILES IDX 58 87 55 88 57 89 56 90
REMARK H PARENT 12 32 12 33 73 58 51 69
REMARK Flexibility Score: inf
ROOT
ATOM      1  C   UNL A   1      40.362  21.365  26.864  1.00  0.00     0.188 C 
ENDROOT
BRANCH   1   2
ATOM      2  O   UNL A   1      40.715  22.636  27.402  1.00  0.00    -0.376 OA
BRANCH   2   3
ATOM      3  C   UNL A   1      39.708  23.648  27.355  1.00  0.00     0.202 C 
BRANCH   3   4
ATOM      4  C   UNL A   1      40.036  24.875  26.492  1.00  0.00     0.261 C 
BRANCH   4   5
ATOM      5  O   UNL A   1      39.789  26.132  27.160  1.00  0.00    -0.463 OA
BRANCH   5   6
ATOM      6  C   UNL A   1      40.839  26.988  27.255  1.00  0.00     0.307 C 
ATOM      7  O   UNL A   1      41.051  27.917  26.482  1.00  0.00    -0.252 OA
BRANCH   6   8
ATOM      8  C   UNL A   1      41.713  26.779  28.481  1.00  0.00     0.147 C 
BRANCH   8   9
ATOM      9  C   UNL A   1      41.462  27.679  29.682  1.00  0.00     0.154 C 
ATOM     10  C   UNL A   1      38.981  31.803  31.036  1.00  0.00     0.107 C 
ATOM     11  C   UNL A   1      40.318  32.234  30.470  1.00  0.00     0.083 C 
ATOM     12  C   UNL A   1      38.752  30.331  30.825  1.00  0.00     0.073 C 
ATOM     13  C   UNL A   1      41.262  31.394  29.998  1.00  0.00     0.126 C 
ATOM     14  C   UNL A   1      39.760  29.551  30.365  1.00  0.00     0.099 C 
ATOM     15  N   UNL A   1      41.007  30.025  29.984  1.00  0.00    -0.258 N 
ATOM     16  S   UNL A   1      39.661  27.840  30.065  1.00  0.00    -0.093 SA
ATOM     17  C   UNL A   1      41.917  29.102  29.445  1.00  0.00     0.247 C 
ATOM     18  O   UNL A   1      42.969  29.382  28.873  1.00  0.00    -0.273 OA
BRANCH  10  19
ATOM     19  C   UNL A   1      37.810  32.642  30.527  1.00  0.00    -0.034 A 
ATOM     20  C   UNL A   1      35.572  34.102  29.643  1.00  0.00     0.118 A 
ATOM     21  C   UNL A   1      35.885  34.048  31.000  1.00  0.00     0.047 A 
ATOM     22  C   UNL A   1      36.396  33.458  28.720  1.00  0.00     0.047 A 
ATOM     23  C   UNL A   1      36.988  33.316  31.443  1.00  0.00     0.008 A 
ATOM     24  C   UNL A   1      37.508  32.732  29.158  1.00  0.00     0.008 A 
BRANCH  20  25
ATOM     25  O   UNL A   1      34.473  34.848  29.320  1.00  0.00    -0.497 OA
ATOM     26  C   UNL A   1      33.567  35.081  30.395  1.00  0.00     0.278 C 
ENDBRANCH  20  25
ENDBRANCH  10  19
BRANCH  11  27
ATOM     27  C   UNL A   1      40.532  33.724  30.262  1.00  0.00     0.100 C 
ATOM     28  N   UNL A   1      40.709  34.961  30.090  1.00  0.00    -0.193 NA
ENDBRANCH  11  27
BRANCH  12  29
ATOM     29  C   UNL A   1      37.338  29.784  30.944  1.00  0.00     0.098 C 
ATOM     30  N   UNL A   1      36.167  29.330  31.042  1.00  0.00    -0.193 NA
ENDBRANCH  12  29
BRANCH  13  31
ATOM     31  N   UNL A   1      42.453  31.865  29.508  1.00  0.00    -0.384 N 
ATOM     32  H   UNL A   1      42.928  31.365  28.805  1.00  0.00     0.158 HD
ATOM     33  H   UNL A   1      42.834  32.702  29.859  1.00  0.00     0.158 HD
ENDBRANCH  13  31
ENDBRANCH   8   9
ENDBRANCH   6   8
ENDBRANCH   5   6
ENDBRANCH   4   5
ENDBRANCH   3   4
ENDBRANCH   2   3
ENDBRANCH   1   2
BRANCH   1  34
ATOM     34  C   UNL A   1      41.265  20.203  27.276  1.00  0.00     0.188 C 
BRANCH  34  35
ATOM     35  O   UNL A   1      42.640  20.354  26.964  1.00  0.00    -0.376 OA
BRANCH  35  36
ATOM     36  C   UNL A   1      42.977  20.605  25.595  1.00  0.00     0.202 C 
BRANCH  36  37
ATOM     37  C   UNL A   1      44.340  20.108  25.059  1.00  0.00     0.261 C 
BRANCH  37  38
ATOM     38  O   UNL A   1      45.308  21.123  24.707  1.00  0.00    -0.460 OA
BRANCH  38  39
ATOM     39  C   UNL A   1      44.883  22.205  24.015  1.00  0.00     0.338 C 
ATOM     40  O   UNL A   1      44.298  22.193  22.944  1.00  0.00    -0.246 OA
BRANCH  39  41
ATOM     41  C   UNL A   1      44.973  23.401  24.904  1.00  0.00     0.060 A 
ATOM     42  C   UNL A   1      46.224  23.709  25.462  1.00  0.00     0.016 A 
ATOM     43  C   UNL A   1      43.895  24.266  25.120  1.00  0.00     0.016 A 
ATOM     44  C   UNL A   1      46.390  24.846  26.260  1.00  0.00     0.010 A 
ATOM     45  C   UNL A   1      44.056  25.396  25.937  1.00  0.00     0.010 A 
ATOM     46  C   UNL A   1      45.296  25.674  26.540  1.00  0.00    -0.014 A 
BRANCH  46  47
ATOM     47  C   UNL A   1      45.396  26.679  27.633  1.00  0.00     0.031 A 
ATOM     48  C   UNL A   1      45.225  26.199  29.051  1.00  0.00     0.074 A 
ATOM     49  C   UNL A   1      45.676  27.975  27.404  1.00  0.00     0.049 A 
ATOM     50  N   UNL A   1      45.246  26.878  30.170  1.00  0.00    -0.248 NA
ATOM     51  C   UNL A   1      44.999  24.755  29.227  1.00  0.00     0.031 C 
ATOM     52  C   UNL A   1      45.931  28.576  26.097  1.00  0.00     0.029 A 
ATOM     53  N   UNL A   1      45.795  29.026  28.284  1.00  0.00    -0.354 N 
ATOM     54  C   UNL A   1      45.030  25.946  31.178  1.00  0.00     0.074 A 
ATOM     55  C   UNL A   1      44.849  24.662  30.538  1.00  0.00     0.031 C 
ATOM     56  C   UNL A   1      46.169  29.891  26.261  1.00  0.00     0.029 A 
ATOM     57  C   UNL A   1      46.051  30.232  27.678  1.00  0.00     0.049 A 
ATOM     58  H   UNL A   1      45.705  28.922  29.260  1.00  0.00     0.167 HD
ATOM     59  C   UNL A   1      44.991  26.133  32.519  1.00  0.00     0.031 A 
ATOM     60  C   UNL A   1      46.157  31.470  28.203  1.00  0.00     0.031 A 
ATOM     61  C   UNL A   1      45.152  27.405  33.168  1.00  0.00     0.049 A 
ATOM     62  C   UNL A   1      46.008  31.672  29.692  1.00  0.00     0.074 A 
ATOM     63  C   UNL A   1      45.134  27.687  34.524  1.00  0.00     0.029 A 
ATOM     64  N   UNL A   1      45.352  28.608  32.512  1.00  0.00    -0.354 N 
ATOM     65  N   UNL A   1      45.824  30.779  30.635  1.00  0.00    -0.248 NA
ATOM     66  C   UNL A   1      46.088  33.055  30.186  1.00  0.00     0.031 C 
ATOM     67  C   UNL A   1      45.256  29.071  34.683  1.00  0.00     0.029 A 
ATOM     68  C   UNL A   1      45.424  29.641  33.432  1.00  0.00     0.049 A 
ATOM     69  H   UNL A   1      45.431  28.713  31.536  1.00  0.00     0.167 HD
ATOM     70  C   UNL A   1      45.799  31.489  31.832  1.00  0.00     0.074 A 
ATOM     71  C   UNL A   1      46.001  32.882  31.498  1.00  0.00     0.031 C 
ATOM     72  C   UNL A   1      45.627  31.026  33.094  1.00  0.00     0.031 A 
BRANCH  59  73
ATOM     73  C   UNL A   1      44.716  24.927  33.373  1.00  0.00    -0.014 A 
ATOM     74  C   UNL A   1      45.745  24.056  33.766  1.00  0.00     0.009 A 
ATOM     75  C   UNL A   1      43.408  24.673  33.812  1.00  0.00     0.009 A 
ATOM     76  C   UNL A   1      45.462  22.937  34.550  1.00  0.00     0.001 A 
ATOM     77  C   UNL A   1      43.132  23.571  34.622  1.00  0.00     0.001 A 
ATOM     78  C   UNL A   1      44.157  22.698  34.981  1.00  0.00     0.000 A 
ENDBRANCH  59  73
BRANCH  60  79
ATOM     79  C   UNL A   1      46.389  32.646  27.316  1.00  0.00    -0.014 A 
ATOM     80  C   UNL A   1      45.311  33.344  26.749  1.00  0.00     0.009 A 
ATOM     81  C   UNL A   1      47.697  33.043  26.993  1.00  0.00     0.009 A 
ATOM     82  C   UNL A   1      45.539  34.397  25.858  1.00  0.00     0.001 A 
ATOM     83  C   UNL A   1      47.920  34.116  26.128  1.00  0.00     0.001 A 
ATOM     84  C   UNL A   1      46.843  34.785  25.552  1.00  0.00     0.000 A 
ENDBRANCH  60  79
BRANCH  72  85
ATOM     85  C   UNL A   1      45.693  32.022  34.221  1.00  0.00    -0.014 A 
ATOM     86  C   UNL A   1      44.538  32.644  34.721  1.00  0.00     0.009 A 
ATOM     87  C   UNL A   1      46.929  32.302  34.827  1.00  0.00     0.009 A 
ATOM     88  C   UNL A   1      44.626  33.551  35.781  1.00  0.00     0.001 A 
ATOM     89  C   UNL A   1      47.009  33.184  35.906  1.00  0.00     0.001 A 
ATOM     90  C   UNL A   1      45.860  33.815  36.376  1.00  0.00     0.000 A 
ENDBRANCH  72  85
ENDBRANCH  46  47
ENDBRANCH  39  41
ENDBRANCH  38  39
ENDBRANCH  37  38
ENDBRANCH  36  37
ENDBRANCH  35  36
ENDBRANCH  34  35
ENDBRANCH   1  34
TORSDOF 23
ENDMDL
MODEL 2
REMARK VINA RESULT:      -7.0      5.281      9.854
REMARK SMILES COc1ccc([C@@H]2C(C#N)=C(N)N3C(=O)[C@H](CC(=O)OCCOCCOCCOC(=O)c4ccc(-c5c6nc(c(-c7ccccc7)c7ccc([nH]7)c(-c7ccccc7)c7nc(c(-c8ccccc8)c8ccc5[nH]8)C=C7)C=C6)cc4)SC3=C2C#N)cc1
REMARK SMILES IDX 24 1 23 2 22 3 21 4 20 5 18 6 19 7 17 8 16 9 7 10 8 11 82 12
REMARK SMILES IDX 11 13 81 14 13 15 80 16 14 17 15 18 6 19 3 20 4 21 86 22
REMARK SMILES IDX 5 23 85 24 2 25 1 26 9 27 10 28 83 29 84 30 12 31 25 34
REMARK SMILES IDX 26 35 27 36 28 37 29 38 30 39 31 40 32 41 33 42 79 43 34 44
REMARK SMILES IDX 78 45 35 46 36 47 37 48 72 49 38 50 77 51 71 52 73 53 39 54
REMARK SMILES IDX 76 55 70 56 69 57 40 59 62 60 47 61 61 62 48 63 51 64 60 65
REMARK SMILES IDX 74 66 49 67 50 68 59 70 75 71 52 72 41 73 42 74 46 75 43 76
REMARK SMILES IDX 45 77 44 78 63 79 64 80 68 81 65 82 67 83 66 84 53 85 54 86
REMARK SMILES IDX 58 87 55 88 57 89 56 90
REMARK H PARENT 12 32 12 33 73 58 51 69
REMARK Flexibility Score: inf
ROOT
ATOM      1  C   UNL A   1      39.383  26.927  28.221  1.00  0.00     0.188 C 
ENDROOT
BRANCH   1   2
ATOM      2  O   UNL A   1      40.158  26.329  27.186  1.00  0.00    -0.376 OA
BRANCH   2   3
ATOM      3  C   UNL A   1      40.112  24.903  27.103  1.00  0.00     0.202 C 
BRANCH   3   4
ATOM      4  C   UNL A   1      38.898  24.318  26.365  1.00  0.00     0.261 C 
BRANCH   4   5
ATOM      5  O   UNL A   1      38.995  22.895  26.135  1.00  0.00    -0.463 OA
BRANCH   5   6
ATOM      6  C   UNL A   1      37.892  22.281  25.637  1.00  0.00     0.307 C 
ATOM      7  O   UNL A   1      37.906  21.445  24.739  1.00  0.00    -0.252 OA
BRANCH   6   8
ATOM      8  C   UNL A   1      36.597  22.632  26.354  1.00  0.00     0.147 C 
BRANCH   8   9
ATOM      9  C   UNL A   1      35.301  22.485  25.571  1.00  0.00     0.154 C 
ATOM     10  C   UNL A   1      31.312  25.100  24.073  1.00  0.00     0.107 C 
ATOM     11  C   UNL A   1      31.019  24.565  25.460  1.00  0.00     0.083 C 
ATOM     12  C   UNL A   1      32.746  24.853  23.688  1.00  0.00     0.073 C 
ATOM     13  C   UNL A   1      31.867  23.812  26.191  1.00  0.00     0.126 C 
ATOM     14  C   UNL A   1      33.527  24.066  24.467  1.00  0.00     0.099 C 
ATOM     15  N   UNL A   1      33.125  23.513  25.675  1.00  0.00    -0.258 N 
ATOM     16  S   UNL A   1      35.197  23.683  24.168  1.00  0.00    -0.093 SA
ATOM     17  C   UNL A   1      34.080  22.793  26.409  1.00  0.00     0.247 C 
ATOM     18  O   UNL A   1      33.957  22.421  27.575  1.00  0.00    -0.273 OA
BRANCH  10  19
ATOM     19  C   UNL A   1      30.917  26.565  23.893  1.00  0.00    -0.034 A 
ATOM     20  C   UNL A   1      30.114  29.253  23.666  1.00  0.00     0.118 A 
ATOM     21  C   UNL A   1      30.923  28.848  24.725  1.00  0.00     0.047 A 
ATOM     22  C   UNL A   1      29.732  28.325  22.697  1.00  0.00     0.047 A 
ATOM     23  C   UNL A   1      31.316  27.514  24.847  1.00  0.00     0.008 A 
ATOM     24  C   UNL A   1      30.130  26.989  22.809  1.00  0.00     0.008 A 
BRANCH  20  25
ATOM     25  O   UNL A   1      29.792  30.582  23.643  1.00  0.00    -0.497 OA
ATOM     26  C   UNL A   1      28.406  30.861  23.470  1.00  0.00     0.278 C 
ENDBRANCH  20  25
ENDBRANCH  10  19
BRANCH  11  27
ATOM     27  C   UNL A   1      29.753  25.062  26.138  1.00  0.00     0.100 C 
ATOM     28  N   UNL A   1      28.702  25.473  26.700  1.00  0.00    -0.193 NA
ENDBRANCH  11  27
BRANCH  12  29
ATOM     29  C   UNL A   1      33.344  25.649  22.540  1.00  0.00     0.098 C 
ATOM     30  N   UNL A   1      33.841  26.308  21.587  1.00  0.00    -0.193 NA
ENDBRANCH  12  29
BRANCH  13  31
ATOM     31  N   UNL A   1      31.522  23.360  27.439  1.00  0.00    -0.384 N 
ATOM     32  H   UNL A   1      31.986  22.583  27.825  1.00  0.00     0.158 HD
ATOM     33  H   UNL A   1      30.811  23.813  27.947  1.00  0.00     0.158 HD
ENDBRANCH  13  31
ENDBRANCH   8   9
ENDBRANCH   6   8
ENDBRANCH   5   6
ENDBRANCH   4   5
ENDBRANCH   3   4
ENDBRANCH   2   3
ENDBRANCH   1   2
BRANCH   1  34
ATOM     34  C   UNL A   1      39.114  28.423  28.059  1.00  0.00     0.188 C 
BRANCH  34  35
ATOM     35  O   UNL A   1      37.780  28.836  28.307  1.00  0.00    -0.376 OA
BRANCH  35  36
ATOM     36  C   UNL A   1      37.568  30.220  28.608  1.00  0.00     0.202 C 
BRANCH  36  37
ATOM     37  C   UNL A   1      36.389  30.612  29.528  1.00  0.00     0.261 C 
BRANCH  37  38
ATOM     38  O   UNL A   1      36.247  29.864  30.756  1.00  0.00    -0.460 OA
BRANCH  38  39
ATOM     39  C   UNL A   1      36.696  30.421  31.905  1.00  0.00     0.338 C 
ATOM     40  O   UNL A   1      36.051  31.125  32.665  1.00  0.00    -0.246 OA
BRANCH  39  41
ATOM     41  C   UNL A   1      38.007  29.797  32.254  1.00  0.00     0.060 A 
ATOM     42  C   UNL A   1      39.031  30.641  32.712  1.00  0.00     0.016 A 
ATOM     43  C   UNL A   1      38.216  28.414  32.233  1.00  0.00     0.016 A 
ATOM     44  C   UNL A   1      40.266  30.116  33.107  1.00  0.00     0.010 A 
ATOM     45  C   UNL A   1      39.461  27.889  32.611  1.00  0.00     0.010 A 
ATOM     46  C   UNL A   1      40.505  28.739  33.017  1.00  0.00    -0.014 A 
BRANCH  46  47
ATOM     47  C   UNL A   1      41.899  28.228  33.123  1.00  0.00     0.031 A 
ATOM     48  C   UNL A   1      42.650  27.953  31.846  1.00  0.00     0.074 A 
ATOM     49  C   UNL A   1      42.518  28.048  34.304  1.00  0.00     0.049 A 
ATOM     50  N   UNL A   1      43.860  27.486  31.673  1.00  0.00    -0.248 NA
ATOM     51  C   UNL A   1      41.933  28.247  30.593  1.00  0.00     0.031 C 
ATOM     52  C   UNL A   1      41.948  28.330  35.619  1.00  0.00     0.029 A 
ATOM     53  N   UNL A   1      43.783  27.581  34.581  1.00  0.00    -0.354 N 
ATOM     54  C   UNL A   1      44.045  27.424  30.297  1.00  0.00     0.074 A 
ATOM     55  C   UNL A   1      42.816  27.872  29.682  1.00  0.00     0.031 C 
ATOM     56  C   UNL A   1      42.857  28.023  36.563  1.00  0.00     0.029 A 
ATOM     57  C   UNL A   1      44.061  27.493  35.923  1.00  0.00     0.049 A 
ATOM     58  H   UNL A   1      44.429  27.333  33.880  1.00  0.00     0.167 HD
ATOM     59  C   UNL A   1      45.141  27.038  29.600  1.00  0.00     0.031 A 
ATOM     60  C   UNL A   1      45.150  27.019  36.562  1.00  0.00     0.031 A 
ATOM     61  C   UNL A   1      46.364  26.576  30.197  1.00  0.00     0.049 A 
ATOM     62  C   UNL A   1      46.322  26.497  35.766  1.00  0.00     0.074 A 
ATOM     63  C   UNL A   1      47.528  26.170  29.567  1.00  0.00     0.029 A 
ATOM     64  N   UNL A   1      46.580  26.448  31.559  1.00  0.00    -0.354 N 
ATOM     65  N   UNL A   1      46.491  26.464  34.466  1.00  0.00    -0.248 NA
ATOM     66  C   UNL A   1      47.455  25.952  36.530  1.00  0.00     0.031 C 
ATOM     67  C   UNL A   1      48.425  25.734  30.547  1.00  0.00     0.029 A 
ATOM     68  C   UNL A   1      47.847  25.937  31.789  1.00  0.00     0.049 A 
ATOM     69  H   UNL A   1      45.929  26.685  32.259  1.00  0.00     0.167 HD
ATOM     70  C   UNL A   1      47.759  25.927  34.261  1.00  0.00     0.074 A 
ATOM     71  C   UNL A   1      48.320  25.662  35.568  1.00  0.00     0.031 C 
ATOM     72  C   UNL A   1      48.400  25.678  33.093  1.00  0.00     0.031 A 
BRANCH  59  73
ATOM     73  C   UNL A   1      45.043  27.057  28.101  1.00  0.00    -0.014 A 
ATOM     74  C   UNL A   1      44.519  25.967  27.386  1.00  0.00     0.009 A 
ATOM     75  C   UNL A   1      45.457  28.196  27.393  1.00  0.00     0.009 A 
ATOM     76  C   UNL A   1      44.449  26.004  25.993  1.00  0.00     0.001 A 
ATOM     77  C   UNL A   1      45.356  28.243  26.002  1.00  0.00     0.001 A 
ATOM     78  C   UNL A   1      44.862  27.144  25.303  1.00  0.00     0.000 A 
ENDBRANCH  59  73
BRANCH  60  79
ATOM     79  C   UNL A   1      45.191  26.979  38.052  1.00  0.00    -0.014 A 
ATOM     80  C   UNL A   1      44.672  25.881  38.758  1.00  0.00     0.009 A 
ATOM     81  C   UNL A   1      45.705  28.066  38.777  1.00  0.00     0.009 A 
ATOM     82  C   UNL A   1      44.645  25.886  40.156  1.00  0.00     0.001 A 
ATOM     83  C   UNL A   1      45.706  28.053  40.173  1.00  0.00     0.001 A 
ATOM     84  C   UNL A   1      45.166  26.969  40.861  1.00  0.00     0.000 A 
ENDBRANCH  60  79
BRANCH  72  85
ATOM     85  C   UNL A   1      49.801  25.131  33.165  1.00  0.00    -0.014 A 
ATOM     86  C   UNL A   1      50.052  23.750  33.185  1.00  0.00     0.009 A 
ATOM     87  C   UNL A   1      50.892  26.017  33.161  1.00  0.00     0.009 A 
ATOM     88  C   UNL A   1      51.363  23.271  33.233  1.00  0.00     0.001 A 
ATOM     89  C   UNL A   1      52.202  25.534  33.177  1.00  0.00     0.001 A 
ATOM     90  C   UNL A   1      52.436  24.162  33.223  1.00  0.00     0.000 A 
ENDBRANCH  72  85
ENDBRANCH  46  47
ENDBRANCH  39  41
ENDBRANCH  38  39
ENDBRANCH  37  38
ENDBRANCH  36  37
ENDBRANCH  35  36
ENDBRANCH  34  35
ENDBRANCH   1  34
TORSDOF 23
ENDMDL
MODEL 3
REMARK VINA RESULT:      -6.9      5.840      9.184
REMARK SMILES COc1ccc([C@@H]2C(C#N)=C(N)N3C(=O)[C@H](CC(=O)OCCOCCOCCOC(=O)c4ccc(-c5c6nc(c(-c7ccccc7)c7ccc([nH]7)c(-c7ccccc7)c7nc(c(-c8ccccc8)c8ccc5[nH]8)C=C7)C=C6)cc4)SC3=C2C#N)cc1
REMARK SMILES IDX 24 1 23 2 22 3 21 4 20 5 18 6 19 7 17 8 16 9 7 10 8 11 82 12
REMARK SMILES IDX 11 13 81 14 13 15 80 16 14 17 15 18 6 19 3 20 4 21 86 22
REMARK SMILES IDX 5 23 85 24 2 25 1 26 9 27 10 28 83 29 84 30 12 31 25 34
REMARK SMILES IDX 26 35 27 36 28 37 29 38 30 39 31 40 32 41 33 42 79 43 34 44
REMARK SMILES IDX 78 45 35 46 36 47 37 48 72 49 38 50 77 51 71 52 73 53 39 54
REMARK SMILES IDX 76 55 70 56 69 57 40 59 62 60 47 61 61 62 48 63 51 64 60 65
REMARK SMILES IDX 74 66 49 67 50 68 59 70 75 71 52 72 41 73 42 74 46 75 43 76
REMARK SMILES IDX 45 77 44 78 63 79 64 80 68 81 65 82 67 83 66 84 53 85 54 86
REMARK SMILES IDX 58 87 55 88 57 89 56 90
REMARK H PARENT 12 32 12 33 73 58 51 69
REMARK Flexibility Score: inf
ROOT
ATOM      1  C   UNL A   1      38.362  30.379  28.817  1.00  0.00     0.188 C 
ENDROOT
BRANCH   1   2
ATOM      2  O   UNL A   1      37.342  30.701  27.875  1.00  0.00    -0.376 OA
BRANCH   2   3
ATOM      3  C   UNL A   1      36.215  31.419  28.380  1.00  0.00     0.202 C 
BRANCH   3   4
ATOM      4  C   UNL A   1      34.871  30.678  28.320  1.00  0.00     0.261 C 
BRANCH   4   5
ATOM      5  O   UNL A   1      33.782  31.498  27.841  1.00  0.00    -0.463 OA
BRANCH   5   6
ATOM      6  C   UNL A   1      32.965  30.942  26.911  1.00  0.00     0.307 C 
ATOM      7  O   UNL A   1      31.928  31.454  26.501  1.00  0.00    -0.252 OA
BRANCH   6   8
ATOM      8  C   UNL A   1      33.484  29.645  26.310  1.00  0.00     0.147 C 
BRANCH   8   9
ATOM      9  C   UNL A   1      32.467  28.716  25.662  1.00  0.00     0.154 C 
ATOM     10  C   UNL A   1      31.963  24.052  23.934  1.00  0.00     0.107 C 
ATOM     11  C   UNL A   1      32.519  24.904  22.812  1.00  0.00     0.083 C 
ATOM     12  C   UNL A   1      31.937  24.816  25.231  1.00  0.00     0.073 C 
ATOM     13  C   UNL A   1      32.791  26.222  22.905  1.00  0.00     0.126 C 
ATOM     14  C   UNL A   1      32.203  26.144  25.237  1.00  0.00     0.099 C 
ATOM     15  N   UNL A   1      32.588  26.871  24.119  1.00  0.00    -0.258 N 
ATOM     16  S   UNL A   1      32.216  27.170  26.642  1.00  0.00    -0.093 SA
ATOM     17  C   UNL A   1      32.915  28.224  24.305  1.00  0.00     0.247 C 
ATOM     18  O   UNL A   1      33.466  28.949  23.478  1.00  0.00    -0.273 OA
BRANCH  10  19
ATOM     19  C   UNL A   1      32.670  22.705  24.080  1.00  0.00    -0.034 A 
ATOM     20  C   UNL A   1      33.892  20.197  24.445  1.00  0.00     0.118 A 
ATOM     21  C   UNL A   1      32.588  20.279  23.961  1.00  0.00     0.047 A 
ATOM     22  C   UNL A   1      34.602  21.367  24.715  1.00  0.00     0.047 A 
ATOM     23  C   UNL A   1      31.975  21.521  23.788  1.00  0.00     0.008 A 
ATOM     24  C   UNL A   1      33.996  22.614  24.534  1.00  0.00     0.008 A 
BRANCH  20  25
ATOM     25  O   UNL A   1      34.395  18.932  24.574  1.00  0.00    -0.497 OA
ATOM     26  C   UNL A   1      33.475  17.886  24.277  1.00  0.00     0.278 C 
ENDBRANCH  20  25
ENDBRANCH  10  19
BRANCH  11  27
ATOM     27  C   UNL A   1      32.962  24.179  21.551  1.00  0.00     0.100 C 
ATOM     28  N   UNL A   1      33.329  23.578  20.505  1.00  0.00    -0.193 NA
ENDBRANCH  11  27
BRANCH  12  29
ATOM     29  C   UNL A   1      31.805  24.044  26.534  1.00  0.00     0.098 C 
ATOM     30  N   UNL A   1      31.697  23.405  27.615  1.00  0.00    -0.193 NA
ENDBRANCH  12  29
BRANCH  13  31
ATOM     31  N   UNL A   1      33.287  26.923  21.836  1.00  0.00    -0.384 N 
ATOM     32  H   UNL A   1      34.248  27.129  21.786  1.00  0.00     0.158 HD
ATOM     33  H   UNL A   1      32.681  27.222  21.119  1.00  0.00     0.158 HD
ENDBRANCH  13  31
ENDBRANCH   8   9
ENDBRANCH   6   8
ENDBRANCH   5   6
ENDBRANCH   4   5
ENDBRANCH   3   4
ENDBRANCH   2   3
ENDBRANCH   1   2
BRANCH   1  34
ATOM     34  C   UNL A   1      37.876  30.092  30.237  1.00  0.00     0.188 C 
BRANCH  34  35
ATOM     35  O   UNL A   1      37.754  28.720  30.578  1.00  0.00    -0.376 OA
BRANCH  35  36
ATOM     36  C   UNL A   1      38.914  27.898  30.408  1.00  0.00     0.202 C 
BRANCH  36  37
ATOM     37  C   UNL A   1      38.917  26.835  29.285  1.00  0.00     0.261 C 
BRANCH  37  38
ATOM     38  O   UNL A   1      39.751  27.108  28.136  1.00  0.00    -0.460 OA
BRANCH  38  39
ATOM     39  C   UNL A   1      40.429  26.081  27.573  1.00  0.00     0.338 C 
ATOM     40  O   UNL A   1      40.163  25.536  26.514  1.00  0.00    -0.246 OA
BRANCH  39  41
ATOM     41  C   UNL A   1      41.724  25.914  28.296  1.00  0.00     0.060 A 
ATOM     42  C   UNL A   1      42.303  27.055  28.873  1.00  0.00     0.016 A 
ATOM     43  C   UNL A   1      42.323  24.665  28.498  1.00  0.00     0.016 A 
ATOM     44  C   UNL A   1      43.487  26.961  29.611  1.00  0.00     0.010 A 
ATOM     45  C   UNL A   1      43.521  24.573  29.222  1.00  0.00     0.010 A 
ATOM     46  C   UNL A   1      44.130  25.724  29.753  1.00  0.00    -0.014 A 
BRANCH  46  47
ATOM     47  C   UNL A   1      45.532  25.678  30.248  1.00  0.00     0.031 A 
ATOM     48  C   UNL A   1      45.758  25.369  31.706  1.00  0.00     0.074 A 
ATOM     49  C   UNL A   1      46.594  25.856  29.440  1.00  0.00     0.049 A 
ATOM     50  N   UNL A   1      46.877  25.294  32.379  1.00  0.00    -0.248 NA
ATOM     51  C   UNL A   1      44.552  25.109  32.510  1.00  0.00     0.031 C 
ATOM     52  C   UNL A   1      46.539  26.100  28.000  1.00  0.00     0.029 A 
ATOM     53  N   UNL A   1      47.939  25.856  29.729  1.00  0.00    -0.354 N 
ATOM     54  C   UNL A   1      46.509  24.986  33.684  1.00  0.00     0.074 A 
ATOM     55  C   UNL A   1      45.065  24.919  33.714  1.00  0.00     0.031 C 
ATOM     56  C   UNL A   1      47.795  26.232  27.533  1.00  0.00     0.029 A 
ATOM     57  C   UNL A   1      48.740  26.116  28.643  1.00  0.00     0.049 A 
ATOM     58  H   UNL A   1      48.294  25.685  30.632  1.00  0.00     0.167 HD
ATOM     59  C   UNL A   1      47.298  24.770  34.764  1.00  0.00     0.031 A 
ATOM     60  C   UNL A   1      50.078  26.265  28.559  1.00  0.00     0.031 A 
ATOM     61  C   UNL A   1      48.733  24.849  34.754  1.00  0.00     0.049 A 
ATOM     62  C   UNL A   1      50.931  26.121  29.796  1.00  0.00     0.074 A 
ATOM     63  C   UNL A   1      49.613  24.638  35.801  1.00  0.00     0.029 A 
ATOM     64  N   UNL A   1      49.498  25.172  33.646  1.00  0.00    -0.354 N 
ATOM     65  N   UNL A   1      50.572  25.810  31.019  1.00  0.00    -0.248 NA
ATOM     66  C   UNL A   1      52.376  26.344  29.637  1.00  0.00     0.031 C 
ATOM     67  C   UNL A   1      50.908  24.899  35.342  1.00  0.00     0.029 A 
ATOM     68  C   UNL A   1      50.839  25.200  33.992  1.00  0.00     0.049 A 
ATOM     69  H   UNL A   1      49.142  25.354  32.746  1.00  0.00     0.167 HD
ATOM     70  C   UNL A   1      51.748  25.769  31.763  1.00  0.00     0.074 A 
ATOM     71  C   UNL A   1      52.831  26.073  30.853  1.00  0.00     0.031 C 
ATOM     72  C   UNL A   1      51.913  25.501  33.081  1.00  0.00     0.031 A 
BRANCH  59  73
ATOM     73  C   UNL A   1      46.610  24.471  36.067  1.00  0.00    -0.014 A 
ATOM     74  C   UNL A   1      46.364  23.151  36.480  1.00  0.00     0.009 A 
ATOM     75  C   UNL A   1      46.225  25.527  36.906  1.00  0.00     0.009 A 
ATOM     76  C   UNL A   1      45.714  22.900  37.689  1.00  0.00     0.001 A 
ATOM     77  C   UNL A   1      45.604  25.273  38.129  1.00  0.00     0.001 A 
ATOM     78  C   UNL A   1      45.339  23.960  38.515  1.00  0.00     0.000 A 
ENDBRANCH  59  73
BRANCH  60  79
ATOM     79  C   UNL A   1      50.717  26.603  27.255  1.00  0.00    -0.014 A 
ATOM     80  C   UNL A   1      51.232  25.597  26.423  1.00  0.00     0.009 A 
ATOM     81  C   UNL A   1      50.858  27.944  26.861  1.00  0.00     0.009 A 
ATOM     82  C   UNL A   1      51.898  25.928  25.239  1.00  0.00     0.001 A 
ATOM     83  C   UNL A   1      51.495  28.269  25.662  1.00  0.00     0.001 A 
ATOM     84  C   UNL A   1      52.024  27.263  24.857  1.00  0.00     0.000 A 
ENDBRANCH  60  79
BRANCH  72  85
ATOM     85  C   UNL A   1      53.319  25.477  33.620  1.00  0.00    -0.014 A 
ATOM     86  C   UNL A   1      54.058  24.286  33.696  1.00  0.00     0.009 A 
ATOM     87  C   UNL A   1      53.931  26.680  34.010  1.00  0.00     0.009 A 
ATOM     88  C   UNL A   1      55.367  24.296  34.184  1.00  0.00     0.001 A 
ATOM     89  C   UNL A   1      55.251  26.691  34.466  1.00  0.00     0.001 A 
ATOM     90  C   UNL A   1      55.964  25.499  34.562  1.00  0.00     0.000 A 
ENDBRANCH  72  85
ENDBRANCH  46  47
ENDBRANCH  39  41
ENDBRANCH  38  39
ENDBRANCH  37  38
ENDBRANCH  36  37
ENDBRANCH  35  36
ENDBRANCH  34  35
ENDBRANCH   1  34
TORSDOF 23
ENDMDL
