MODEL 1
REMARK VINA RESULT:      -9.2      0.000      0.000
REMARK SMILES CCc1ncc(CC(=O)OCCOCCOCCOC(=O)c2ccc(-c3c4nc(c(-c5ccccc5)c5ccc([nH]5)c(-c5ccccc5)c5nc(c(-c6ccccc6)c6ccc3[nH]6)C=C5)C=C4)cc2)c(=O)[nH]1
REMARK SMILES IDX 14 1 13 2 12 3 11 4 10 5 8 6 9 7 7 8 6 9 3 10 4 11 72 12
REMARK SMILES IDX 5 13 70 14 71 16 2 17 1 18 15 19 16 20 17 21 18 22 19 23
REMARK SMILES IDX 20 24 21 25 22 26 23 27 69 28 24 29 68 30 25 31 26 32 27 33
REMARK SMILES IDX 62 34 28 35 67 36 61 37 63 38 29 39 66 40 60 41 59 42 30 44
REMARK SMILES IDX 52 45 37 46 51 47 38 48 41 49 50 50 64 51 39 52 40 53 49 55
REMARK SMILES IDX 65 56 42 57 31 58 32 59 36 60 33 61 35 62 34 63 53 64 54 65
REMARK SMILES IDX 58 66 55 67 57 68 56 69 43 70 44 71 48 72 45 73 47 74 46 75
REMARK H PARENT 72 15 63 43 41 54
REMARK Flexibility Score: inf
ROOT
ATOM      1  C   UNL A   1      34.545  32.613  28.064  1.00  0.00     0.188 C 
ENDROOT
BRANCH   1   2
ATOM      2  O   UNL A   1      33.782  31.504  27.591  1.00  0.00    -0.376 OA
BRANCH   2   3
ATOM      3  C   UNL A   1      34.459  30.291  27.291  1.00  0.00     0.202 C 
BRANCH   3   4
ATOM      4  C   UNL A   1      33.579  29.041  27.250  1.00  0.00     0.261 C 
BRANCH   4   5
ATOM      5  O   UNL A   1      32.217  29.313  26.862  1.00  0.00    -0.463 OA
BRANCH   5   6
ATOM      6  C   UNL A   1      31.721  28.534  25.871  1.00  0.00     0.310 C 
ATOM      7  O   UNL A   1      31.537  28.915  24.718  1.00  0.00    -0.252 OA
BRANCH   6   8
ATOM      8  C   UNL A   1      31.419  27.094  26.261  1.00  0.00     0.165 C 
BRANCH   8   9
ATOM      9  C   UNL A   1      32.464  26.023  26.176  1.00  0.00     0.047 A 
ATOM     10  C   UNL A   1      34.218  23.962  25.683  1.00  0.00     0.108 A 
ATOM     11  N   UNL A   1      34.548  25.157  25.308  1.00  0.00    -0.243 NA
ATOM     12  N   UNL A   1      33.040  23.690  26.322  1.00  0.00    -0.310 N 
ATOM     13  C   UNL A   1      33.641  26.157  25.546  1.00  0.00     0.123 A 
ATOM     14  C   UNL A   1      32.121  24.656  26.624  1.00  0.00     0.254 A 
ATOM     15  H   UNL A   1      32.844  22.759  26.576  1.00  0.00     0.171 HD
ATOM     16  O   UNL A   1      31.065  24.402  27.191  1.00  0.00    -0.269 OA
BRANCH  10  17
ATOM     17  C   UNL A   1      35.094  22.762  25.375  1.00  0.00     0.072 C 
ATOM     18  C   UNL A   1      35.055  22.361  23.911  1.00  0.00     0.012 C 
ENDBRANCH  10  17
ENDBRANCH   8   9
ENDBRANCH   6   8
ENDBRANCH   5   6
ENDBRANCH   4   5
ENDBRANCH   3   4
ENDBRANCH   2   3
ENDBRANCH   1   2
BRANCH   1  19
ATOM     19  C   UNL A   1      33.833  33.938  28.382  1.00  0.00     0.188 C 
BRANCH  19  20
ATOM     20  O   UNL A   1      34.484  34.651  29.426  1.00  0.00    -0.376 OA
BRANCH  20  21
ATOM     21  C   UNL A   1      33.645  35.002  30.513  1.00  0.00     0.202 C 
BRANCH  21  22
ATOM     22  C   UNL A   1      34.224  34.441  31.812  1.00  0.00     0.261 C 
BRANCH  22  23
ATOM     23  O   UNL A   1      34.671  33.077  31.714  1.00  0.00    -0.460 OA
BRANCH  23  24
ATOM     24  C   UNL A   1      35.529  32.651  32.667  1.00  0.00     0.338 C 
ATOM     25  O   UNL A   1      35.417  32.787  33.871  1.00  0.00    -0.246 OA
BRANCH  24  26
ATOM     26  C   UNL A   1      36.582  31.855  32.004  1.00  0.00     0.060 A 
ATOM     27  C   UNL A   1      37.476  31.110  32.783  1.00  0.00     0.016 A 
ATOM     28  C   UNL A   1      36.699  31.870  30.612  1.00  0.00     0.016 A 
ATOM     29  C   UNL A   1      38.508  30.394  32.168  1.00  0.00     0.010 A 
ATOM     30  C   UNL A   1      37.739  31.168  30.000  1.00  0.00     0.010 A 
ATOM     31  C   UNL A   1      38.667  30.449  30.776  1.00  0.00    -0.014 A 
BRANCH  31  32
ATOM     32  C   UNL A   1      39.887  29.914  30.122  1.00  0.00     0.031 A 
ATOM     33  C   UNL A   1      41.073  30.824  29.958  1.00  0.00     0.074 A 
ATOM     34  C   UNL A   1      39.936  28.661  29.637  1.00  0.00     0.049 A 
ATOM     35  N   UNL A   1      42.190  30.628  29.307  1.00  0.00    -0.248 NA
ATOM     36  C   UNL A   1      40.976  32.139  30.614  1.00  0.00     0.031 C 
ATOM     37  C   UNL A   1      38.876  27.663  29.755  1.00  0.00     0.029 A 
ATOM     38  N   UNL A   1      40.922  28.026  28.921  1.00  0.00    -0.354 N 
ATOM     39  C   UNL A   1      42.923  31.799  29.458  1.00  0.00     0.074 A 
ATOM     40  C   UNL A   1      42.113  32.706  30.243  1.00  0.00     0.031 C 
ATOM     41  C   UNL A   1      39.258  26.547  29.110  1.00  0.00     0.029 A 
ATOM     42  C   UNL A   1      40.570  26.767  28.503  1.00  0.00     0.049 A 
ATOM     43  H   UNL A   1      41.797  28.435  28.727  1.00  0.00     0.167 HD
ATOM     44  C   UNL A   1      44.156  32.096  28.986  1.00  0.00     0.031 A 
ATOM     45  C   UNL A   1      41.214  25.905  27.690  1.00  0.00     0.031 A 
ATOM     46  C   UNL A   1      44.955  31.207  28.187  1.00  0.00     0.049 A 
ATOM     47  C   UNL A   1      42.552  26.282  27.110  1.00  0.00     0.074 A 
ATOM     48  C   UNL A   1      46.224  31.413  27.672  1.00  0.00     0.029 A 
ATOM     49  N   UNL A   1      44.555  29.946  27.774  1.00  0.00    -0.354 N 
ATOM     50  N   UNL A   1      43.246  27.382  27.277  1.00  0.00    -0.248 NA
ATOM     51  C   UNL A   1      43.196  25.295  26.229  1.00  0.00     0.031 C 
ATOM     52  C   UNL A   1      46.568  30.297  26.902  1.00  0.00     0.029 A 
ATOM     53  C   UNL A   1      45.540  29.373  26.987  1.00  0.00     0.049 A 
ATOM     54  H   UNL A   1      43.698  29.521  28.005  1.00  0.00     0.167 HD
ATOM     55  C   UNL A   1      44.415  27.210  26.544  1.00  0.00     0.074 A 
ATOM     56  C   UNL A   1      44.343  25.896  25.940  1.00  0.00     0.031 C 
ATOM     57  C   UNL A   1      45.456  28.065  26.389  1.00  0.00     0.031 A 
BRANCH  44  58
ATOM     58  C   UNL A   1      44.692  33.466  29.292  1.00  0.00    -0.014 A 
ATOM     59  C   UNL A   1      44.456  34.552  28.435  1.00  0.00     0.009 A 
ATOM     60  C   UNL A   1      45.448  33.672  30.457  1.00  0.00     0.009 A 
ATOM     61  C   UNL A   1      45.004  35.806  28.715  1.00  0.00     0.001 A 
ATOM     62  C   UNL A   1      45.969  34.933  30.750  1.00  0.00     0.001 A 
ATOM     63  C   UNL A   1      45.758  35.995  29.872  1.00  0.00     0.000 A 
ENDBRANCH  44  58
BRANCH  45  64
ATOM     64  C   UNL A   1      40.579  24.607  27.341  1.00  0.00    -0.014 A 
ATOM     65  C   UNL A   1      41.069  23.402  27.866  1.00  0.00     0.009 A 
ATOM     66  C   UNL A   1      39.474  24.570  26.474  1.00  0.00     0.009 A 
ATOM     67  C   UNL A   1      40.475  22.186  27.518  1.00  0.00     0.001 A 
ATOM     68  C   UNL A   1      38.866  23.356  26.150  1.00  0.00     0.001 A 
ATOM     69  C   UNL A   1      39.372  22.164  26.666  1.00  0.00     0.000 A 
ENDBRANCH  45  64
BRANCH  57  70
ATOM     70  C   UNL A   1      46.622  27.599  25.561  1.00  0.00    -0.014 A 
ATOM     71  C   UNL A   1      46.724  27.918  24.198  1.00  0.00     0.009 A 
ATOM     72  C   UNL A   1      47.663  26.882  26.172  1.00  0.00     0.009 A 
ATOM     73  C   UNL A   1      47.837  27.506  23.459  1.00  0.00     0.001 A 
ATOM     74  C   UNL A   1      48.785  26.496  25.437  1.00  0.00     0.001 A 
ATOM     75  C   UNL A   1      48.868  26.802  24.080  1.00  0.00     0.000 A 
ENDBRANCH  57  70
ENDBRANCH  31  32
ENDBRANCH  24  26
ENDBRANCH  23  24
ENDBRANCH  22  23
ENDBRANCH  21  22
ENDBRANCH  20  21
ENDBRANCH  19  20
ENDBRANCH   1  19
TORSDOF 19
ENDMDL
MODEL 2
REMARK VINA RESULT:      -9.1      4.431      6.759
REMARK SMILES CCc1ncc(CC(=O)OCCOCCOCCOC(=O)c2ccc(-c3c4nc(c(-c5ccccc5)c5ccc([nH]5)c(-c5ccccc5)c5nc(c(-c6ccccc6)c6ccc3[nH]6)C=C5)C=C4)cc2)c(=O)[nH]1
REMARK SMILES IDX 14 1 13 2 12 3 11 4 10 5 8 6 9 7 7 8 6 9 3 10 4 11 72 12
REMARK SMILES IDX 5 13 70 14 71 16 2 17 1 18 15 19 16 20 17 21 18 22 19 23
REMARK SMILES IDX 20 24 21 25 22 26 23 27 69 28 24 29 68 30 25 31 26 32 27 33
REMARK SMILES IDX 62 34 28 35 67 36 61 37 63 38 29 39 66 40 60 41 59 42 30 44
REMARK SMILES IDX 52 45 37 46 51 47 38 48 41 49 50 50 64 51 39 52 40 53 49 55
REMARK SMILES IDX 65 56 42 57 31 58 32 59 36 60 33 61 35 62 34 63 53 64 54 65
REMARK SMILES IDX 58 66 55 67 57 68 56 69 43 70 44 71 48 72 45 73 47 74 46 75
REMARK H PARENT 72 15 63 43 41 54
REMARK Flexibility Score: inf
ROOT
ATOM      1  C   UNL A   1      34.696  31.999  28.939  1.00  0.00     0.188 C 
ENDROOT
BRANCH   1   2
ATOM      2  O   UNL A   1      34.994  31.508  27.632  1.00  0.00    -0.376 OA
BRANCH   2   3
ATOM      3  C   UNL A   1      35.020  30.103  27.423  1.00  0.00     0.202 C 
BRANCH   3   4
ATOM      4  C   UNL A   1      33.702  29.485  26.953  1.00  0.00     0.261 C 
BRANCH   4   5
ATOM      5  O   UNL A   1      33.334  29.872  25.613  1.00  0.00    -0.463 OA
BRANCH   5   6
ATOM      6  C   UNL A   1      32.793  28.896  24.846  1.00  0.00     0.310 C 
ATOM      7  O   UNL A   1      33.370  28.357  23.904  1.00  0.00    -0.252 OA
BRANCH   6   8
ATOM      8  C   UNL A   1      31.391  28.455  25.242  1.00  0.00     0.165 C 
BRANCH   8   9
ATOM      9  C   UNL A   1      31.088  27.032  25.599  1.00  0.00     0.047 A 
ATOM     10  C   UNL A   1      30.801  24.325  25.998  1.00  0.00     0.108 A 
ATOM     11  N   UNL A   1      31.614  24.980  26.764  1.00  0.00    -0.243 NA
ATOM     12  N   UNL A   1      30.074  24.930  25.009  1.00  0.00    -0.310 N 
ATOM     13  C   UNL A   1      31.753  26.322  26.524  1.00  0.00     0.123 A 
ATOM     14  C   UNL A   1      30.141  26.272  24.756  1.00  0.00     0.254 A 
ATOM     15  H   UNL A   1      29.478  24.376  24.455  1.00  0.00     0.171 HD
ATOM     16  O   UNL A   1      29.492  26.804  23.864  1.00  0.00    -0.269 OA
BRANCH  10  17
ATOM     17  C   UNL A   1      30.649  22.820  26.101  1.00  0.00     0.072 C 
ATOM     18  C   UNL A   1      31.793  22.063  25.450  1.00  0.00     0.012 C 
ENDBRANCH  10  17
ENDBRANCH   8   9
ENDBRANCH   6   8
ENDBRANCH   5   6
ENDBRANCH   4   5
ENDBRANCH   3   4
ENDBRANCH   2   3
ENDBRANCH   1   2
BRANCH   1  19
ATOM     19  C   UNL A   1      34.835  33.502  29.229  1.00  0.00     0.188 C 
BRANCH  19  20
ATOM     20  O   UNL A   1      33.652  34.216  28.896  1.00  0.00    -0.376 OA
BRANCH  20  21
ATOM     21  C   UNL A   1      33.815  35.622  28.810  1.00  0.00     0.202 C 
BRANCH  21  22
ATOM     22  C   UNL A   1      32.780  36.315  29.696  1.00  0.00     0.261 C 
BRANCH  22  23
ATOM     23  O   UNL A   1      33.227  36.556  31.042  1.00  0.00    -0.460 OA
BRANCH  23  24
ATOM     24  C   UNL A   1      32.776  35.705  31.991  1.00  0.00     0.338 C 
ATOM     25  O   UNL A   1      31.616  35.471  32.277  1.00  0.00    -0.246 OA
BRANCH  24  26
ATOM     26  C   UNL A   1      33.942  34.986  32.544  1.00  0.00     0.060 A 
ATOM     27  C   UNL A   1      35.220  35.542  32.412  1.00  0.00     0.016 A 
ATOM     28  C   UNL A   1      33.768  33.749  33.170  1.00  0.00     0.016 A 
ATOM     29  C   UNL A   1      36.336  34.845  32.887  1.00  0.00     0.010 A 
ATOM     30  C   UNL A   1      34.885  33.048  33.629  1.00  0.00     0.010 A 
ATOM     31  C   UNL A   1      36.177  33.578  33.465  1.00  0.00    -0.014 A 
BRANCH  31  32
ATOM     32  C   UNL A   1      37.350  32.711  33.746  1.00  0.00     0.031 A 
ATOM     33  C   UNL A   1      38.137  32.953  35.003  1.00  0.00     0.074 A 
ATOM     34  C   UNL A   1      37.744  31.757  32.885  1.00  0.00     0.049 A 
ATOM     35  N   UNL A   1      39.266  32.421  35.395  1.00  0.00    -0.248 NA
ATOM     36  C   UNL A   1      37.575  33.939  35.941  1.00  0.00     0.031 C 
ATOM     37  C   UNL A   1      37.057  31.393  31.648  1.00  0.00     0.029 A 
ATOM     38  N   UNL A   1      38.844  30.934  32.918  1.00  0.00    -0.354 N 
ATOM     39  C   UNL A   1      39.559  33.018  36.615  1.00  0.00     0.074 A 
ATOM     40  C   UNL A   1      38.501  33.968  36.886  1.00  0.00     0.031 C 
ATOM     41  C   UNL A   1      37.766  30.435  31.025  1.00  0.00     0.029 A 
ATOM     42  C   UNL A   1      38.973  30.149  31.798  1.00  0.00     0.049 A 
ATOM     43  H   UNL A   1      39.478  30.910  33.670  1.00  0.00     0.167 HD
ATOM     44  C   UNL A   1      40.612  32.798  37.437  1.00  0.00     0.031 A 
ATOM     45  C   UNL A   1      39.970  29.323  31.423  1.00  0.00     0.031 A 
ATOM     46  C   UNL A   1      41.678  31.873  37.161  1.00  0.00     0.049 A 
ATOM     47  C   UNL A   1      41.173  29.150  32.312  1.00  0.00     0.074 A 
ATOM     48  C   UNL A   1      42.783  31.572  37.939  1.00  0.00     0.029 A 
ATOM     49  N   UNL A   1      41.778  31.107  36.010  1.00  0.00    -0.354 N 
ATOM     50  N   UNL A   1      41.430  29.701  33.473  1.00  0.00    -0.248 NA
ATOM     51  C   UNL A   1      42.224  28.235  31.837  1.00  0.00     0.031 C 
ATOM     52  C   UNL A   1      43.578  30.664  37.233  1.00  0.00     0.029 A 
ATOM     53  C   UNL A   1      42.939  30.356  36.043  1.00  0.00     0.049 A 
ATOM     54  H   UNL A   1      41.120  31.100  35.277  1.00  0.00     0.167 HD
ATOM     55  C   UNL A   1      42.656  29.185  33.878  1.00  0.00     0.074 A 
ATOM     56  C   UNL A   1      43.088  28.268  32.844  1.00  0.00     0.031 C 
ATOM     57  C   UNL A   1      43.359  29.447  35.007  1.00  0.00     0.031 A 
BRANCH  44  58
ATOM     58  C   UNL A   1      40.678  33.618  38.695  1.00  0.00    -0.014 A 
ATOM     59  C   UNL A   1      41.325  34.864  38.723  1.00  0.00     0.009 A 
ATOM     60  C   UNL A   1      40.085  33.134  39.870  1.00  0.00     0.009 A 
ATOM     61  C   UNL A   1      41.416  35.586  39.915  1.00  0.00     0.001 A 
ATOM     62  C   UNL A   1      40.151  33.871  41.054  1.00  0.00     0.001 A 
ATOM     63  C   UNL A   1      40.827  35.090  41.078  1.00  0.00     0.000 A 
ENDBRANCH  44  58
BRANCH  45  64
ATOM     64  C   UNL A   1      39.892  28.623  30.113  1.00  0.00    -0.014 A 
ATOM     65  C   UNL A   1      39.334  27.340  30.016  1.00  0.00     0.009 A 
ATOM     66  C   UNL A   1      40.381  29.240  28.950  1.00  0.00     0.009 A 
ATOM     67  C   UNL A   1      39.280  26.683  28.784  1.00  0.00     0.001 A 
ATOM     68  C   UNL A   1      40.302  28.593  27.716  1.00  0.00     0.001 A 
ATOM     69  C   UNL A   1      39.758  27.312  27.634  1.00  0.00     0.000 A 
ENDBRANCH  45  64
BRANCH  57  70
ATOM     70  C   UNL A   1      44.654  28.709  35.207  1.00  0.00    -0.014 A 
ATOM     71  C   UNL A   1      44.689  27.449  35.825  1.00  0.00     0.009 A 
ATOM     72  C   UNL A   1      45.848  29.257  34.712  1.00  0.00     0.009 A 
ATOM     73  C   UNL A   1      45.901  26.766  35.964  1.00  0.00     0.001 A 
ATOM     74  C   UNL A   1      47.052  28.560  34.829  1.00  0.00     0.001 A 
ATOM     75  C   UNL A   1      47.078  27.318  35.461  1.00  0.00     0.000 A 
ENDBRANCH  57  70
ENDBRANCH  31  32
ENDBRANCH  24  26
ENDBRANCH  23  24
ENDBRANCH  22  23
ENDBRANCH  21  22
ENDBRANCH  20  21
ENDBRANCH  19  20
ENDBRANCH   1  19
TORSDOF 19
ENDMDL
MODEL 3
REMARK VINA RESULT:      -9.1      3.929      8.829
REMARK SMILES CCc1ncc(CC(=O)OCCOCCOCCOC(=O)c2ccc(-c3c4nc(c(-c5ccccc5)c5ccc([nH]5)c(-c5ccccc5)c5nc(c(-c6ccccc6)c6ccc3[nH]6)C=C5)C=C4)cc2)c(=O)[nH]1
REMARK SMILES IDX 14 1 13 2 12 3 11 4 10 5 8 6 9 7 7 8 6 9 3 10 4 11 72 12
REMARK SMILES IDX 5 13 70 14 71 16 2 17 1 18 15 19 16 20 17 21 18 22 19 23
REMARK SMILES IDX 20 24 21 25 22 26 23 27 69 28 24 29 68 30 25 31 26 32 27 33
REMARK SMILES IDX 62 34 28 35 67 36 61 37 63 38 29 39 66 40 60 41 59 42 30 44
REMARK SMILES IDX 52 45 37 46 51 47 38 48 41 49 50 50 64 51 39 52 40 53 49 55
REMARK SMILES IDX 65 56 42 57 31 58 32 59 36 60 33 61 35 62 34 63 53 64 54 65
REMARK SMILES IDX 58 66 55 67 57 68 56 69 43 70 44 71 48 72 45 73 47 74 46 75
REMARK H PARENT 72 15 63 43 41 54
REMARK Flexibility Score: inf
ROOT
ATOM      1  C   UNL A   1      35.940  23.117  26.076  1.00  0.00     0.188 C 
ENDROOT
BRANCH   1   2
ATOM      2  O   UNL A   1      34.863  22.289  26.515  1.00  0.00    -0.376 OA
BRANCH   2   3
ATOM      3  C   UNL A   1      33.670  22.910  26.974  1.00  0.00     0.202 C 
BRANCH   3   4
ATOM      4  C   UNL A   1      32.842  23.615  25.899  1.00  0.00     0.261 C 
BRANCH   4   5
ATOM      5  O   UNL A   1      31.878  22.751  25.260  1.00  0.00    -0.463 OA
BRANCH   5   6
ATOM      6  C   UNL A   1      32.126  22.452  23.963  1.00  0.00     0.310 C 
ATOM      7  O   UNL A   1      31.702  23.103  23.011  1.00  0.00    -0.252 OA
BRANCH   6   8
ATOM      8  C   UNL A   1      33.017  21.241  23.730  1.00  0.00     0.165 C 
BRANCH   8   9
ATOM      9  C   UNL A   1      32.661  19.889  24.269  1.00  0.00     0.047 A 
ATOM     10  C   UNL A   1      32.377  17.317  25.204  1.00  0.00     0.108 A 
ATOM     11  N   UNL A   1      32.625  18.260  26.055  1.00  0.00    -0.243 NA
ATOM     12  N   UNL A   1      32.240  17.553  23.863  1.00  0.00    -0.310 N 
ATOM     13  C   UNL A   1      32.785  19.526  25.556  1.00  0.00     0.123 A 
ATOM     14  C   UNL A   1      32.345  18.803  23.317  1.00  0.00     0.254 A 
ATOM     15  H   UNL A   1      32.058  16.792  23.265  1.00  0.00     0.171 HD
ATOM     16  O   UNL A   1      32.228  19.004  22.115  1.00  0.00    -0.269 OA
BRANCH  10  17
ATOM     17  C   UNL A   1      32.287  15.864  25.629  1.00  0.00     0.072 C 
ATOM     18  C   UNL A   1      33.534  15.068  25.284  1.00  0.00     0.012 C 
ENDBRANCH  10  17
ENDBRANCH   8   9
ENDBRANCH   6   8
ENDBRANCH   5   6
ENDBRANCH   4   5
ENDBRANCH   3   4
ENDBRANCH   2   3
ENDBRANCH   1   2
BRANCH   1  19
ATOM     19  C   UNL A   1      36.756  22.702  24.842  1.00  0.00     0.188 C 
BRANCH  19  20
ATOM     20  O   UNL A   1      37.811  21.812  25.181  1.00  0.00    -0.376 OA
BRANCH  20  21
ATOM     21  C   UNL A   1      37.519  20.441  24.965  1.00  0.00     0.202 C 
BRANCH  21  22
ATOM     22  C   UNL A   1      38.821  19.649  24.850  1.00  0.00     0.261 C 
BRANCH  22  23
ATOM     23  O   UNL A   1      39.504  19.458  26.103  1.00  0.00    -0.460 OA
BRANCH  23  24
ATOM     24  C   UNL A   1      40.845  19.627  26.093  1.00  0.00     0.338 C 
ATOM     25  O   UNL A   1      41.679  18.862  25.646  1.00  0.00    -0.246 OA
BRANCH  24  26
ATOM     26  C   UNL A   1      41.133  20.984  26.601  1.00  0.00     0.060 A 
ATOM     27  C   UNL A   1      41.498  21.994  25.702  1.00  0.00     0.016 A 
ATOM     28  C   UNL A   1      41.067  21.246  27.972  1.00  0.00     0.016 A 
ATOM     29  C   UNL A   1      41.823  23.268  26.178  1.00  0.00     0.010 A 
ATOM     30  C   UNL A   1      41.406  22.515  28.447  1.00  0.00     0.010 A 
ATOM     31  C   UNL A   1      41.814  23.525  27.556  1.00  0.00    -0.014 A 
BRANCH  31  32
ATOM     32  C   UNL A   1      42.391  24.777  28.106  1.00  0.00     0.031 A 
ATOM     33  C   UNL A   1      41.462  25.912  28.437  1.00  0.00     0.074 A 
ATOM     34  C   UNL A   1      43.716  24.931  28.269  1.00  0.00     0.049 A 
ATOM     35  N   UNL A   1      41.740  27.137  28.798  1.00  0.00    -0.248 NA
ATOM     36  C   UNL A   1      40.022  25.622  28.335  1.00  0.00     0.031 C 
ATOM     37  C   UNL A   1      44.727  23.905  28.022  1.00  0.00     0.029 A 
ATOM     38  N   UNL A   1      44.438  26.032  28.662  1.00  0.00    -0.354 N 
ATOM     39  C   UNL A   1      40.512  27.771  28.951  1.00  0.00     0.074 A 
ATOM     40  C   UNL A   1      39.491  26.800  28.620  1.00  0.00     0.031 C 
ATOM     41  C   UNL A   1      45.943  24.433  28.244  1.00  0.00     0.029 A 
ATOM     42  C   UNL A   1      45.797  25.841  28.610  1.00  0.00     0.049 A 
ATOM     43  H   UNL A   1      44.022  26.876  28.951  1.00  0.00     0.167 HD
ATOM     44  C   UNL A   1      40.255  29.045  29.329  1.00  0.00     0.031 A 
ATOM     45  C   UNL A   1      46.808  26.713  28.798  1.00  0.00     0.031 A 
ATOM     46  C   UNL A   1      41.266  30.020  29.636  1.00  0.00     0.049 A 
ATOM     47  C   UNL A   1      46.504  28.148  29.143  1.00  0.00     0.074 A 
ATOM     48  C   UNL A   1      41.104  31.334  30.041  1.00  0.00     0.029 A 
ATOM     49  N   UNL A   1      42.631  29.791  29.558  1.00  0.00    -0.354 N 
ATOM     50  N   UNL A   1      45.341  28.731  29.306  1.00  0.00    -0.248 NA
ATOM     51  C   UNL A   1      47.656  29.045  29.331  1.00  0.00     0.031 C 
ATOM     52  C   UNL A   1      42.371  31.914  30.156  1.00  0.00     0.029 A 
ATOM     53  C   UNL A   1      43.323  30.946  29.880  1.00  0.00     0.049 A 
ATOM     54  H   UNL A   1      43.047  28.934  29.310  1.00  0.00     0.167 HD
ATOM     55  C   UNL A   1      45.621  30.052  29.638  1.00  0.00     0.074 A 
ATOM     56  C   UNL A   1      47.063  30.183  29.664  1.00  0.00     0.031 C 
ATOM     57  C   UNL A   1      44.758  31.065  29.900  1.00  0.00     0.031 A 
BRANCH  44  58
ATOM     58  C   UNL A   1      38.812  29.462  29.384  1.00  0.00    -0.014 A 
ATOM     59  C   UNL A   1      38.044  29.288  30.546  1.00  0.00     0.009 A 
ATOM     60  C   UNL A   1      38.213  30.037  28.253  1.00  0.00     0.009 A 
ATOM     61  C   UNL A   1      36.692  29.639  30.559  1.00  0.00     0.001 A 
ATOM     62  C   UNL A   1      36.869  30.415  28.277  1.00  0.00     0.001 A 
ATOM     63  C   UNL A   1      36.107  30.204  29.426  1.00  0.00     0.000 A 
ENDBRANCH  44  58
BRANCH  45  64
ATOM     64  C   UNL A   1      48.213  26.261  28.623  1.00  0.00    -0.014 A 
ATOM     65  C   UNL A   1      48.841  26.332  27.371  1.00  0.00     0.009 A 
ATOM     66  C   UNL A   1      48.935  25.752  29.716  1.00  0.00     0.009 A 
ATOM     67  C   UNL A   1      50.156  25.889  27.213  1.00  0.00     0.001 A 
ATOM     68  C   UNL A   1      50.258  25.335  29.561  1.00  0.00     0.001 A 
ATOM     69  C   UNL A   1      50.866  25.397  28.308  1.00  0.00     0.000 A 
ENDBRANCH  45  64
BRANCH  57  70
ATOM     70  C   UNL A   1      45.344  32.399  30.274  1.00  0.00    -0.014 A 
ATOM     71  C   UNL A   1      45.560  33.397  29.311  1.00  0.00     0.009 A 
ATOM     72  C   UNL A   1      45.624  32.681  31.620  1.00  0.00     0.009 A 
ATOM     73  C   UNL A   1      46.069  34.643  29.689  1.00  0.00     0.001 A 
ATOM     74  C   UNL A   1      46.106  33.935  31.997  1.00  0.00     0.001 A 
ATOM     75  C   UNL A   1      46.335  34.912  31.031  1.00  0.00     0.000 A 
ENDBRANCH  57  70
ENDBRANCH  31  32
ENDBRANCH  24  26
ENDBRANCH  23  24
ENDBRANCH  22  23
ENDBRANCH  21  22
ENDBRANCH  20  21
ENDBRANCH  19  20
ENDBRANCH   1  19
TORSDOF 19
ENDMDL
