MODEL 1
REMARK VINA RESULT:     -10.9      0.000      0.000
REMARK SMILES CS(=O)(=O)N1C[C@@H]2CN(C(=O)C3CCOCC3)C[C@@]2(C(=O)OCCOCCOCCOC(=O)c2ccc(-c3c4nc(c(-c5ccccc5)c5ccc([nH]5)c(-c5ccccc5)c5nc(c(-c6ccccc6)c6ccc3[nH]6)C=C5)C=C4)cc2)C1
REMARK SMILES IDX 26 1 25 2 24 3 23 4 22 5 20 6 21 7 19 8 5 9 6 10 82 11 7 12
REMARK SMILES IDX 8 13 18 14 9 15 2 16 1 17 3 18 4 19 10 20 11 21 12 22 13 23
REMARK SMILES IDX 17 24 14 25 16 26 15 27 27 28 28 29 29 30 30 31 31 32 32 33
REMARK SMILES IDX 33 34 34 35 35 36 81 37 36 38 80 39 37 40 38 41 39 42 74 43
REMARK SMILES IDX 40 44 79 45 73 46 75 47 41 48 78 49 72 50 71 51 42 53 64 54
REMARK SMILES IDX 49 55 63 56 50 57 53 58 62 59 76 60 51 61 52 62 61 64 77 65
REMARK SMILES IDX 54 66 43 67 44 68 48 69 45 70 47 71 46 72 65 73 66 74 70 75
REMARK SMILES IDX 67 76 69 77 68 78 55 79 56 80 60 81 57 82 59 83 58 84
REMARK H PARENT 75 52 53 63
REMARK Flexibility Score: inf
ROOT
ATOM      1  C   UNL A   1      39.649  22.017  26.730  1.00  0.00     0.188 C 
ENDROOT
BRANCH   1   2
ATOM      2  O   UNL A   1      38.568  22.586  26.005  1.00  0.00    -0.376 OA
BRANCH   2   3
ATOM      3  C   UNL A   1      37.845  21.752  25.100  1.00  0.00     0.202 C 
BRANCH   3   4
ATOM      4  C   UNL A   1      36.979  22.420  24.016  1.00  0.00     0.261 C 
BRANCH   4   5
ATOM      5  O   UNL A   1      36.367  23.587  24.579  1.00  0.00    -0.463 OA
BRANCH   5   6
ATOM      6  C   UNL A   1      35.042  23.707  24.892  1.00  0.00     0.315 C 
ATOM      7  O   UNL A   1      34.592  24.249  25.885  1.00  0.00    -0.251 OA
BRANCH   6   8
ATOM      8  C   UNL A   1      34.303  22.912  23.742  1.00  0.00     0.105 C 
ATOM      9  N   UNL A   1      33.216  24.975  22.921  1.00  0.00    -0.201 NA
ATOM     10  C   UNL A   1      32.154  23.986  23.177  1.00  0.00     0.109 C 
ATOM     11  C   UNL A   1      34.518  24.228  22.924  1.00  0.00     0.123 C 
ATOM     12  C   UNL A   1      32.909  22.687  23.093  1.00  0.00     0.044 C 
ATOM     13  C   UNL A   1      32.208  21.449  23.607  1.00  0.00     0.125 C 
ATOM     14  C   UNL A   1      34.119  21.869  24.886  1.00  0.00     0.140 C 
ATOM     15  N   UNL A   1      33.147  20.875  24.520  1.00  0.00    -0.341 N 
BRANCH   9  16
ATOM     16  S   UNL A   1      33.014  26.052  21.629  1.00  0.00     0.211 S 
ATOM     17  C   UNL A   1      31.356  26.642  21.907  1.00  0.00     0.176 C 
ATOM     18  O   UNL A   1      33.048  25.272  20.411  1.00  0.00    -0.213 OA
ATOM     19  O   UNL A   1      33.932  27.150  21.839  1.00  0.00    -0.213 OA
ENDBRANCH   9  16
BRANCH  15  20
ATOM     20  C   UNL A   1      32.902  19.661  25.128  1.00  0.00     0.225 C 
ATOM     21  O   UNL A   1      31.997  19.567  25.966  1.00  0.00    -0.275 OA
BRANCH  20  22
ATOM     22  C   UNL A   1      33.649  18.375  24.713  1.00  0.00     0.083 C 
ATOM     23  C   UNL A   1      33.630  17.959  23.236  1.00  0.00     0.042 C 
ATOM     24  C   UNL A   1      33.269  17.238  25.665  1.00  0.00     0.042 C 
ATOM     25  C   UNL A   1      34.241  16.580  23.021  1.00  0.00     0.161 C 
ATOM     26  C   UNL A   1      33.896  15.915  25.258  1.00  0.00     0.161 C 
ATOM     27  O   UNL A   1      33.639  15.623  23.887  1.00  0.00    -0.381 OA
ENDBRANCH  20  22
ENDBRANCH  15  20
ENDBRANCH   6   8
ENDBRANCH   5   6
ENDBRANCH   4   5
ENDBRANCH   3   4
ENDBRANCH   2   3
ENDBRANCH   1   2
BRANCH   1  28
ATOM     28  C   UNL A   1      40.018  20.599  26.259  1.00  0.00     0.188 C 
BRANCH  28  29
ATOM     29  O   UNL A   1      41.226  20.017  26.716  1.00  0.00    -0.376 OA
BRANCH  29  30
ATOM     30  C   UNL A   1      42.323  19.960  25.807  1.00  0.00     0.202 C 
BRANCH  30  31
ATOM     31  C   UNL A   1      43.308  21.137  25.797  1.00  0.00     0.261 C 
BRANCH  31  32
ATOM     32  O   UNL A   1      42.778  22.319  25.176  1.00  0.00    -0.460 OA
BRANCH  32  33
ATOM     33  C   UNL A   1      43.619  23.383  25.116  1.00  0.00     0.338 C 
ATOM     34  O   UNL A   1      44.540  23.565  24.335  1.00  0.00    -0.246 OA
BRANCH  33  35
ATOM     35  C   UNL A   1      43.082  24.441  25.998  1.00  0.00     0.060 A 
ATOM     36  C   UNL A   1      43.435  25.779  25.750  1.00  0.00     0.016 A 
ATOM     37  C   UNL A   1      42.215  24.116  27.037  1.00  0.00     0.016 A 
ATOM     38  C   UNL A   1      42.923  26.801  26.548  1.00  0.00     0.010 A 
ATOM     39  C   UNL A   1      41.730  25.132  27.855  1.00  0.00     0.010 A 
ATOM     40  C   UNL A   1      42.100  26.472  27.630  1.00  0.00    -0.014 A 
BRANCH  40  41
ATOM     41  C   UNL A   1      41.791  27.460  28.687  1.00  0.00     0.031 A 
ATOM     42  C   UNL A   1      42.586  27.378  29.957  1.00  0.00     0.074 A 
ATOM     43  C   UNL A   1      40.770  28.325  28.564  1.00  0.00     0.049 A 
ATOM     44  N   UNL A   1      42.352  27.922  31.121  1.00  0.00    -0.248 NA
ATOM     45  C   UNL A   1      43.800  26.542  29.913  1.00  0.00     0.031 C 
ATOM     46  C   UNL A   1      39.966  28.532  27.362  1.00  0.00     0.029 A 
ATOM     47  N   UNL A   1      40.210  29.165  29.496  1.00  0.00    -0.354 N 
ATOM     48  C   UNL A   1      43.361  27.460  31.956  1.00  0.00     0.074 A 
ATOM     49  C   UNL A   1      44.208  26.592  31.171  1.00  0.00     0.031 C 
ATOM     50  C   UNL A   1      38.986  29.411  27.641  1.00  0.00     0.029 A 
ATOM     51  C   UNL A   1      39.066  29.783  29.053  1.00  0.00     0.049 A 
ATOM     52  H   UNL A   1      40.591  29.309  30.392  1.00  0.00     0.167 HD
ATOM     53  C   UNL A   1      43.550  27.728  33.267  1.00  0.00     0.031 A 
ATOM     54  C   UNL A   1      38.160  30.517  29.729  1.00  0.00     0.031 A 
ATOM     55  C   UNL A   1      42.699  28.591  34.035  1.00  0.00     0.049 A 
ATOM     56  C   UNL A   1      38.361  30.751  31.208  1.00  0.00     0.074 A 
ATOM     57  C   UNL A   1      42.820  28.959  35.363  1.00  0.00     0.029 A 
ATOM     58  N   UNL A   1      41.563  29.216  33.543  1.00  0.00    -0.354 N 
ATOM     59  N   UNL A   1      39.330  30.335  31.988  1.00  0.00    -0.248 NA
ATOM     60  C   UNL A   1      37.342  31.556  31.899  1.00  0.00     0.031 C 
ATOM     61  C   UNL A   1      41.723  29.755  35.692  1.00  0.00     0.029 A 
ATOM     62  C   UNL A   1      40.959  29.943  34.550  1.00  0.00     0.049 A 
ATOM     63  H   UNL A   1      41.238  29.151  32.616  1.00  0.00     0.167 HD
ATOM     64  C   UNL A   1      39.060  30.862  33.245  1.00  0.00     0.074 A 
ATOM     65  C   UNL A   1      37.840  31.630  33.126  1.00  0.00     0.031 C 
ATOM     66  C   UNL A   1      39.761  30.726  34.397  1.00  0.00     0.031 A 
BRANCH  53  67
ATOM     67  C   UNL A   1      44.692  27.048  33.965  1.00  0.00    -0.014 A 
ATOM     68  C   UNL A   1      45.956  27.648  34.062  1.00  0.00     0.009 A 
ATOM     69  C   UNL A   1      44.476  25.808  34.587  1.00  0.00     0.009 A 
ATOM     70  C   UNL A   1      46.987  27.009  34.754  1.00  0.00     0.001 A 
ATOM     71  C   UNL A   1      45.500  25.186  35.300  1.00  0.00     0.001 A 
ATOM     72  C   UNL A   1      46.756  25.784  35.379  1.00  0.00     0.000 A 
ENDBRANCH  53  67
BRANCH  54  73
ATOM     73  C   UNL A   1      36.947  31.043  29.045  1.00  0.00    -0.014 A 
ATOM     74  C   UNL A   1      35.877  30.192  28.729  1.00  0.00     0.009 A 
ATOM     75  C   UNL A   1      36.874  32.390  28.657  1.00  0.00     0.009 A 
ATOM     76  C   UNL A   1      34.780  30.668  28.006  1.00  0.00     0.001 A 
ATOM     77  C   UNL A   1      35.761  32.873  27.964  1.00  0.00     0.001 A 
ATOM     78  C   UNL A   1      34.722  32.008  27.626  1.00  0.00     0.000 A 
ENDBRANCH  54  73
BRANCH  66  79
ATOM     79  C   UNL A   1      39.278  31.478  35.606  1.00  0.00    -0.014 A 
ATOM     80  C   UNL A   1      39.743  32.765  35.907  1.00  0.00     0.009 A 
ATOM     81  C   UNL A   1      38.262  30.916  36.398  1.00  0.00     0.009 A 
ATOM     82  C   UNL A   1      39.214  33.469  36.990  1.00  0.00     0.001 A 
ATOM     83  C   UNL A   1      37.714  31.634  37.460  1.00  0.00     0.001 A 
ATOM     84  C   UNL A   1      38.194  32.908  37.759  1.00  0.00     0.000 A 
ENDBRANCH  66  79
ENDBRANCH  40  41
ENDBRANCH  33  35
ENDBRANCH  32  33
ENDBRANCH  31  32
ENDBRANCH  30  31
ENDBRANCH  29  30
ENDBRANCH  28  29
ENDBRANCH   1  28
TORSDOF 20
ENDMDL
MODEL 2
REMARK VINA RESULT:     -10.6      1.591      3.765
REMARK SMILES CS(=O)(=O)N1C[C@@H]2CN(C(=O)C3CCOCC3)C[C@@]2(C(=O)OCCOCCOCCOC(=O)c2ccc(-c3c4nc(c(-c5ccccc5)c5ccc([nH]5)c(-c5ccccc5)c5nc(c(-c6ccccc6)c6ccc3[nH]6)C=C5)C=C4)cc2)C1
REMARK SMILES IDX 26 1 25 2 24 3 23 4 22 5 20 6 21 7 19 8 5 9 6 10 82 11 7 12
REMARK SMILES IDX 8 13 18 14 9 15 2 16 1 17 3 18 4 19 10 20 11 21 12 22 13 23
REMARK SMILES IDX 17 24 14 25 16 26 15 27 27 28 28 29 29 30 30 31 31 32 32 33
REMARK SMILES IDX 33 34 34 35 35 36 81 37 36 38 80 39 37 40 38 41 39 42 74 43
REMARK SMILES IDX 40 44 79 45 73 46 75 47 41 48 78 49 72 50 71 51 42 53 64 54
REMARK SMILES IDX 49 55 63 56 50 57 53 58 62 59 76 60 51 61 52 62 61 64 77 65
REMARK SMILES IDX 54 66 43 67 44 68 48 69 45 70 47 71 46 72 65 73 66 74 70 75
REMARK SMILES IDX 67 76 69 77 68 78 55 79 56 80 60 81 57 82 59 83 58 84
REMARK H PARENT 75 52 53 63
REMARK Flexibility Score: inf
ROOT
ATOM      1  C   UNL A   1      39.850  21.403  26.772  1.00  0.00     0.188 C 
ENDROOT
BRANCH   1   2
ATOM      2  O   UNL A   1      39.489  22.101  25.589  1.00  0.00    -0.376 OA
BRANCH   2   3
ATOM      3  C   UNL A   1      38.176  22.657  25.505  1.00  0.00     0.202 C 
BRANCH   3   4
ATOM      4  C   UNL A   1      36.989  21.823  26.022  1.00  0.00     0.261 C 
BRANCH   4   5
ATOM      5  O   UNL A   1      36.267  21.314  24.894  1.00  0.00    -0.463 OA
BRANCH   5   6
ATOM      6  C   UNL A   1      35.140  21.876  24.362  1.00  0.00     0.315 C 
ATOM      7  O   UNL A   1      35.104  22.632  23.409  1.00  0.00    -0.251 OA
BRANCH   6   8
ATOM      8  C   UNL A   1      33.981  21.389  25.322  1.00  0.00     0.105 C 
ATOM      9  N   UNL A   1      33.593  19.375  23.941  1.00  0.00    -0.201 NA
ATOM     10  C   UNL A   1      32.304  20.077  24.072  1.00  0.00     0.109 C 
ATOM     11  C   UNL A   1      34.516  19.961  24.968  1.00  0.00     0.123 C 
ATOM     12  C   UNL A   1      32.512  20.881  25.327  1.00  0.00     0.044 C 
ATOM     13  C   UNL A   1      31.507  21.974  25.618  1.00  0.00     0.125 C 
ATOM     14  C   UNL A   1      33.627  22.907  25.299  1.00  0.00     0.140 C 
ATOM     15  N   UNL A   1      32.315  23.135  25.840  1.00  0.00    -0.341 N 
BRANCH   9  16
ATOM     16  S   UNL A   1      33.579  17.682  23.878  1.00  0.00     0.211 S 
ATOM     17  C   UNL A   1      32.558  17.277  25.281  1.00  0.00     0.176 C 
ATOM     18  O   UNL A   1      34.932  17.232  24.123  1.00  0.00    -0.213 OA
ATOM     19  O   UNL A   1      32.872  17.304  22.674  1.00  0.00    -0.213 OA
ENDBRANCH   9  16
BRANCH  15  20
ATOM     20  C   UNL A   1      31.753  24.331  26.235  1.00  0.00     0.225 C 
ATOM     21  O   UNL A   1      31.094  24.382  27.280  1.00  0.00    -0.275 OA
BRANCH  20  22
ATOM     22  C   UNL A   1      32.013  25.646  25.470  1.00  0.00     0.083 C 
ATOM     23  C   UNL A   1      31.126  25.983  24.264  1.00  0.00     0.042 C 
ATOM     24  C   UNL A   1      33.510  25.770  25.172  1.00  0.00     0.042 C 
ATOM     25  C   UNL A   1      31.629  27.204  23.505  1.00  0.00     0.161 C 
ATOM     26  C   UNL A   1      33.828  26.999  24.334  1.00  0.00     0.161 C 
ATOM     27  O   UNL A   1      33.006  27.057  23.172  1.00  0.00    -0.381 OA
ENDBRANCH  20  22
ENDBRANCH  15  20
ENDBRANCH   6   8
ENDBRANCH   5   6
ENDBRANCH   4   5
ENDBRANCH   3   4
ENDBRANCH   2   3
ENDBRANCH   1   2
BRANCH   1  28
ATOM     28  C   UNL A   1      40.482  20.026  26.498  1.00  0.00     0.188 C 
BRANCH  28  29
ATOM     29  O   UNL A   1      41.864  19.844  26.746  1.00  0.00    -0.376 OA
BRANCH  29  30
ATOM     30  C   UNL A   1      42.749  19.853  25.628  1.00  0.00     0.202 C 
BRANCH  30  31
ATOM     31  C   UNL A   1      43.901  20.866  25.633  1.00  0.00     0.261 C 
BRANCH  31  32
ATOM     32  O   UNL A   1      43.583  22.089  26.316  1.00  0.00    -0.460 OA
BRANCH  32  33
ATOM     33  C   UNL A   1      43.527  23.202  25.540  1.00  0.00     0.338 C 
ATOM     34  O   UNL A   1      43.671  23.277  24.330  1.00  0.00    -0.246 OA
BRANCH  33  35
ATOM     35  C   UNL A   1      42.996  24.309  26.365  1.00  0.00     0.060 A 
ATOM     36  C   UNL A   1      43.435  25.620  26.109  1.00  0.00     0.016 A 
ATOM     37  C   UNL A   1      42.054  24.055  27.357  1.00  0.00     0.016 A 
ATOM     38  C   UNL A   1      42.932  26.687  26.853  1.00  0.00     0.010 A 
ATOM     39  C   UNL A   1      41.576  25.116  28.122  1.00  0.00     0.010 A 
ATOM     40  C   UNL A   1      42.031  26.428  27.891  1.00  0.00    -0.014 A 
BRANCH  40  41
ATOM     41  C   UNL A   1      41.714  27.457  28.904  1.00  0.00     0.031 A 
ATOM     42  C   UNL A   1      42.463  27.395  30.203  1.00  0.00     0.074 A 
ATOM     43  C   UNL A   1      40.721  28.345  28.720  1.00  0.00     0.049 A 
ATOM     44  N   UNL A   1      42.204  27.981  31.341  1.00  0.00    -0.248 NA
ATOM     45  C   UNL A   1      43.654  26.526  30.227  1.00  0.00     0.031 C 
ATOM     46  C   UNL A   1      39.964  28.534  27.486  1.00  0.00     0.029 A 
ATOM     47  N   UNL A   1      40.154  29.228  29.605  1.00  0.00    -0.354 N 
ATOM     48  C   UNL A   1      43.172  27.520  32.224  1.00  0.00     0.074 A 
ATOM     49  C   UNL A   1      44.021  26.605  31.496  1.00  0.00     0.031 C 
ATOM     50  C   UNL A   1      39.000  29.447  27.703  1.00  0.00     0.029 A 
ATOM     51  C   UNL A   1      39.042  29.861  29.104  1.00  0.00     0.049 A 
ATOM     52  H   UNL A   1      40.508  29.391  30.509  1.00  0.00     0.167 HD
ATOM     53  C   UNL A   1      43.325  27.825  33.532  1.00  0.00     0.031 A 
ATOM     54  C   UNL A   1      38.135  30.640  29.726  1.00  0.00     0.031 A 
ATOM     55  C   UNL A   1      42.472  28.734  34.243  1.00  0.00     0.049 A 
ATOM     56  C   UNL A   1      38.292  30.916  31.203  1.00  0.00     0.074 A 
ATOM     57  C   UNL A   1      42.558  29.141  35.562  1.00  0.00     0.029 A 
ATOM     58  N   UNL A   1      41.371  29.372  33.693  1.00  0.00    -0.354 N 
ATOM     59  N   UNL A   1      39.223  30.499  32.028  1.00  0.00    -0.248 NA
ATOM     60  C   UNL A   1      37.273  31.769  31.833  1.00  0.00     0.031 C 
ATOM     61  C   UNL A   1      41.473  29.976  35.829  1.00  0.00     0.029 A 
ATOM     62  C   UNL A   1      40.754  30.147  34.656  1.00  0.00     0.049 A 
ATOM     63  H   UNL A   1      41.075  29.286  32.758  1.00  0.00     0.167 HD
ATOM     64  C   UNL A   1      38.926  31.073  33.259  1.00  0.00     0.074 A 
ATOM     65  C   UNL A   1      37.731  31.869  33.073  1.00  0.00     0.031 C 
ATOM     66  C   UNL A   1      39.583  30.956  34.438  1.00  0.00     0.031 A 
BRANCH  53  67
ATOM     67  C   UNL A   1      44.423  27.138  34.290  1.00  0.00    -0.014 A 
ATOM     68  C   UNL A   1      45.699  27.707  34.412  1.00  0.00     0.009 A 
ATOM     69  C   UNL A   1      44.153  25.924  34.942  1.00  0.00     0.009 A 
ATOM     70  C   UNL A   1      46.689  27.063  35.158  1.00  0.00     0.001 A 
ATOM     71  C   UNL A   1      45.135  25.298  35.709  1.00  0.00     0.001 A 
ATOM     72  C   UNL A   1      46.403  25.865  35.812  1.00  0.00     0.000 A 
ENDBRANCH  53  67
BRANCH  54  73
ATOM     73  C   UNL A   1      36.960  31.176  28.985  1.00  0.00    -0.014 A 
ATOM     74  C   UNL A   1      36.931  32.512  28.557  1.00  0.00     0.009 A 
ATOM     75  C   UNL A   1      35.838  30.366  28.745  1.00  0.00     0.009 A 
ATOM     76  C   UNL A   1      35.790  33.036  27.942  1.00  0.00     0.001 A 
ATOM     77  C   UNL A   1      34.712  30.883  28.099  1.00  0.00     0.001 A 
ATOM     78  C   UNL A   1      34.683  32.221  27.712  1.00  0.00     0.000 A 
ENDBRANCH  54  73
BRANCH  66  79
ATOM     79  C   UNL A   1      39.080  31.758  35.605  1.00  0.00    -0.014 A 
ATOM     80  C   UNL A   1      38.187  31.217  36.541  1.00  0.00     0.009 A 
ATOM     81  C   UNL A   1      39.594  33.049  35.818  1.00  0.00     0.009 A 
ATOM     82  C   UNL A   1      37.804  31.961  37.658  1.00  0.00     0.001 A 
ATOM     83  C   UNL A   1      39.234  33.777  36.951  1.00  0.00     0.001 A 
ATOM     84  C   UNL A   1      38.334  33.235  37.868  1.00  0.00     0.000 A 
ENDBRANCH  66  79
ENDBRANCH  40  41
ENDBRANCH  33  35
ENDBRANCH  32  33
ENDBRANCH  31  32
ENDBRANCH  30  31
ENDBRANCH  29  30
ENDBRANCH  28  29
ENDBRANCH   1  28
TORSDOF 20
ENDMDL
MODEL 3
REMARK VINA RESULT:     -10.5      1.815      6.977
REMARK SMILES CS(=O)(=O)N1C[C@@H]2CN(C(=O)C3CCOCC3)C[C@@]2(C(=O)OCCOCCOCCOC(=O)c2ccc(-c3c4nc(c(-c5ccccc5)c5ccc([nH]5)c(-c5ccccc5)c5nc(c(-c6ccccc6)c6ccc3[nH]6)C=C5)C=C4)cc2)C1
REMARK SMILES IDX 26 1 25 2 24 3 23 4 22 5 20 6 21 7 19 8 5 9 6 10 82 11 7 12
REMARK SMILES IDX 8 13 18 14 9 15 2 16 1 17 3 18 4 19 10 20 11 21 12 22 13 23
REMARK SMILES IDX 17 24 14 25 16 26 15 27 27 28 28 29 29 30 30 31 31 32 32 33
REMARK SMILES IDX 33 34 34 35 35 36 81 37 36 38 80 39 37 40 38 41 39 42 74 43
REMARK SMILES IDX 40 44 79 45 73 46 75 47 41 48 78 49 72 50 71 51 42 53 64 54
REMARK SMILES IDX 49 55 63 56 50 57 53 58 62 59 76 60 51 61 52 62 61 64 77 65
REMARK SMILES IDX 54 66 43 67 44 68 48 69 45 70 47 71 46 72 65 73 66 74 70 75
REMARK SMILES IDX 67 76 69 77 68 78 55 79 56 80 60 81 57 82 59 83 58 84
REMARK H PARENT 75 52 53 63
REMARK Flexibility Score: inf
ROOT
ATOM      1  C   UNL A   1      39.836  22.070  26.880  1.00  0.00     0.188 C 
ENDROOT
BRANCH   1   2
ATOM      2  O   UNL A   1      38.677  22.047  26.059  1.00  0.00    -0.376 OA
BRANCH   2   3
ATOM      3  C   UNL A   1      38.143  23.291  25.604  1.00  0.00     0.202 C 
BRANCH   3   4
ATOM      4  C   UNL A   1      36.712  23.675  26.023  1.00  0.00     0.261 C 
BRANCH   4   5
ATOM      5  O   UNL A   1      35.829  22.611  25.650  1.00  0.00    -0.463 OA
BRANCH   5   6
ATOM      6  C   UNL A   1      34.838  22.702  24.713  1.00  0.00     0.315 C 
ATOM      7  O   UNL A   1      34.982  23.059  23.558  1.00  0.00    -0.251 OA
BRANCH   6   8
ATOM      8  C   UNL A   1      33.522  22.340  25.511  1.00  0.00     0.105 C 
ATOM      9  N   UNL A   1      33.286  20.204  24.288  1.00  0.00    -0.201 NA
ATOM     10  C   UNL A   1      32.021  20.944  24.136  1.00  0.00     0.109 C 
ATOM     11  C   UNL A   1      34.053  20.873  25.391  1.00  0.00     0.123 C 
ATOM     12  C   UNL A   1      32.054  21.867  25.325  1.00  0.00     0.044 C 
ATOM     13  C   UNL A   1      31.057  23.005  25.339  1.00  0.00     0.125 C 
ATOM     14  C   UNL A   1      33.234  23.855  25.284  1.00  0.00     0.140 C 
ATOM     15  N   UNL A   1      31.861  24.164  25.577  1.00  0.00    -0.341 N 
BRANCH   9  16
ATOM     16  S   UNL A   1      33.219  18.514  24.389  1.00  0.00     0.211 S 
ATOM     17  C   UNL A   1      32.606  18.081  22.773  1.00  0.00     0.176 C 
ATOM     18  O   UNL A   1      32.223  18.182  25.385  1.00  0.00    -0.213 OA
ATOM     19  O   UNL A   1      34.580  18.038  24.505  1.00  0.00    -0.213 OA
ENDBRANCH   9  16
BRANCH  15  20
ATOM     20  C   UNL A   1      31.288  25.407  25.756  1.00  0.00     0.225 C 
ATOM     21  O   UNL A   1      30.652  25.643  26.789  1.00  0.00    -0.275 OA
BRANCH  20  22
ATOM     22  C   UNL A   1      31.509  26.559  24.753  1.00  0.00     0.083 C 
ATOM     23  C   UNL A   1      31.144  27.987  25.183  1.00  0.00     0.042 C 
ATOM     24  C   UNL A   1      30.921  26.168  23.395  1.00  0.00     0.042 C 
ATOM     25  C   UNL A   1      31.235  28.974  24.026  1.00  0.00     0.161 C 
ATOM     26  C   UNL A   1      31.018  27.297  22.381  1.00  0.00     0.161 C 
ATOM     27  O   UNL A   1      30.486  28.510  22.908  1.00  0.00    -0.381 OA
ENDBRANCH  20  22
ENDBRANCH  15  20
ENDBRANCH   6   8
ENDBRANCH   5   6
ENDBRANCH   4   5
ENDBRANCH   3   4
ENDBRANCH   2   3
ENDBRANCH   1   2
BRANCH   1  28
ATOM     28  C   UNL A   1      40.915  21.066  26.439  1.00  0.00     0.188 C 
BRANCH  28  29
ATOM     29  O   UNL A   1      42.272  21.345  26.731  1.00  0.00    -0.376 OA
BRANCH  29  30
ATOM     30  C   UNL A   1      43.221  21.213  25.674  1.00  0.00     0.202 C 
BRANCH  30  31
ATOM     31  C   UNL A   1      43.944  22.479  25.197  1.00  0.00     0.261 C 
BRANCH  31  32
ATOM     32  O   UNL A   1      43.124  23.658  25.247  1.00  0.00    -0.460 OA
BRANCH  32  33
ATOM     33  C   UNL A   1      43.788  24.836  25.375  1.00  0.00     0.338 C 
ATOM     34  O   UNL A   1      44.634  25.301  24.628  1.00  0.00    -0.246 OA
BRANCH  33  35
ATOM     35  C   UNL A   1      43.133  25.616  26.446  1.00  0.00     0.060 A 
ATOM     36  C   UNL A   1      43.491  26.964  26.623  1.00  0.00     0.016 A 
ATOM     37  C   UNL A   1      42.155  25.029  27.244  1.00  0.00     0.016 A 
ATOM     38  C   UNL A   1      42.871  27.733  27.608  1.00  0.00     0.010 A 
ATOM     39  C   UNL A   1      41.560  25.787  28.250  1.00  0.00     0.010 A 
ATOM     40  C   UNL A   1      41.933  27.130  28.451  1.00  0.00    -0.014 A 
BRANCH  40  41
ATOM     41  C   UNL A   1      41.485  27.791  29.696  1.00  0.00     0.031 A 
ATOM     42  C   UNL A   1      40.287  28.689  29.604  1.00  0.00     0.074 A 
ATOM     43  C   UNL A   1      42.183  27.683  30.840  1.00  0.00     0.049 A 
ATOM     44  N   UNL A   1      39.852  29.584  30.450  1.00  0.00    -0.248 NA
ATOM     45  C   UNL A   1      39.485  28.581  28.372  1.00  0.00     0.031 C 
ATOM     46  C   UNL A   1      43.326  26.802  31.062  1.00  0.00     0.029 A 
ATOM     47  N   UNL A   1      42.046  28.366  32.023  1.00  0.00    -0.354 N 
ATOM     48  C   UNL A   1      38.754  30.173  29.835  1.00  0.00     0.074 A 
ATOM     49  C   UNL A   1      38.589  29.540  28.547  1.00  0.00     0.031 C 
ATOM     50  C   UNL A   1      43.816  27.027  32.295  1.00  0.00     0.029 A 
ATOM     51  C   UNL A   1      43.052  28.105  32.922  1.00  0.00     0.049 A 
ATOM     52  H   UNL A   1      41.300  28.981  32.210  1.00  0.00     0.167 HD
ATOM     53  C   UNL A   1      37.966  31.166  30.303  1.00  0.00     0.031 A 
ATOM     54  C   UNL A   1      43.350  28.710  34.089  1.00  0.00     0.031 A 
ATOM     55  C   UNL A   1      38.143  31.788  31.585  1.00  0.00     0.049 A 
ATOM     56  C   UNL A   1      42.491  29.859  34.560  1.00  0.00     0.074 A 
ATOM     57  C   UNL A   1      37.380  32.781  32.171  1.00  0.00     0.029 A 
ATOM     58  N   UNL A   1      39.161  31.479  32.474  1.00  0.00    -0.354 N 
ATOM     59  N   UNL A   1      41.439  30.396  33.989  1.00  0.00    -0.248 NA
ATOM     60  C   UNL A   1      42.861  30.487  35.838  1.00  0.00     0.031 C 
ATOM     61  C   UNL A   1      37.973  33.117  33.389  1.00  0.00     0.029 A 
ATOM     62  C   UNL A   1      39.061  32.283  33.593  1.00  0.00     0.049 A 
ATOM     63  H   UNL A   1      39.850  30.791  32.329  1.00  0.00     0.167 HD
ATOM     64  C   UNL A   1      41.000  31.390  34.856  1.00  0.00     0.074 A 
ATOM     65  C   UNL A   1      41.895  31.382  35.992  1.00  0.00     0.031 C 
ATOM     66  C   UNL A   1      39.947  32.234  34.726  1.00  0.00     0.031 A 
BRANCH  53  67
ATOM     67  C   UNL A   1      36.872  31.675  29.410  1.00  0.00    -0.014 A 
ATOM     68  C   UNL A   1      35.676  30.963  29.235  1.00  0.00     0.009 A 
ATOM     69  C   UNL A   1      37.023  32.919  28.778  1.00  0.00     0.009 A 
ATOM     70  C   UNL A   1      34.660  31.481  28.431  1.00  0.00     0.001 A 
ATOM     71  C   UNL A   1      35.996  33.447  27.997  1.00  0.00     0.001 A 
ATOM     72  C   UNL A   1      34.817  32.725  27.820  1.00  0.00     0.000 A 
ENDBRANCH  53  67
BRANCH  54  73
ATOM     73  C   UNL A   1      44.542  28.293  34.876  1.00  0.00    -0.014 A 
ATOM     74  C   UNL A   1      45.795  28.883  34.646  1.00  0.00     0.009 A 
ATOM     75  C   UNL A   1      44.446  27.266  35.828  1.00  0.00     0.009 A 
ATOM     76  C   UNL A   1      46.930  28.425  35.321  1.00  0.00     0.001 A 
ATOM     77  C   UNL A   1      45.575  26.834  36.528  1.00  0.00     0.001 A 
ATOM     78  C   UNL A   1      46.819  27.403  36.263  1.00  0.00     0.000 A 
ENDBRANCH  54  73
BRANCH  66  79
ATOM     79  C   UNL A   1      39.651  33.168  35.865  1.00  0.00    -0.014 A 
ATOM     80  C   UNL A   1      40.153  34.476  35.894  1.00  0.00     0.009 A 
ATOM     81  C   UNL A   1      38.770  32.753  36.878  1.00  0.00     0.009 A 
ATOM     82  C   UNL A   1      39.792  35.346  36.925  1.00  0.00     0.001 A 
ATOM     83  C   UNL A   1      38.387  33.633  37.889  1.00  0.00     0.001 A 
ATOM     84  C   UNL A   1      38.903  34.927  37.915  1.00  0.00     0.000 A 
ENDBRANCH  66  79
ENDBRANCH  40  41
ENDBRANCH  33  35
ENDBRANCH  32  33
ENDBRANCH  31  32
ENDBRANCH  30  31
ENDBRANCH  29  30
ENDBRANCH  28  29
ENDBRANCH   1  28
TORSDOF 20
ENDMDL
