MODEL 1
REMARK VINA RESULT:      -9.2      0.000      0.000
REMARK SMILES Cc1nc(Nc2ccc(F)cc2)nc(OCC(=O)OCCOCCOCCOC(=O)c2ccc(-c3c4nc(c(-c5ccccc5)c5ccc([nH]5)c(-c5ccccc5)c5nc(c(-c6ccccc6)c6ccc3[nH]6)C=C5)C=C4)cc2)c1CCO
REMARK SMILES IDX 22 1 21 2 20 3 19 4 17 5 18 6 16 7 15 8 14 9 1 10 2 11 3 12
REMARK SMILES IDX 79 13 4 14 13 15 80 16 81 17 82 18 5 20 6 22 7 23 12 24 8 25
REMARK SMILES IDX 11 26 9 27 10 28 23 29 24 30 25 31 26 32 27 33 28 34 29 35
REMARK SMILES IDX 30 36 31 37 32 38 78 39 33 40 77 41 34 42 35 43 36 44 71 45
REMARK SMILES IDX 37 46 76 47 70 48 72 49 38 50 75 51 69 52 68 53 39 55 61 56
REMARK SMILES IDX 46 57 60 58 47 59 50 60 59 61 73 62 48 63 49 64 58 66 74 67
REMARK SMILES IDX 51 68 40 69 41 70 45 71 42 72 44 73 43 74 62 75 63 76 67 77
REMARK SMILES IDX 64 78 66 79 65 80 52 81 53 82 57 83 54 84 56 85 55 86
REMARK H PARENT 82 19 5 21 72 54 50 65
REMARK Flexibility Score: inf
ROOT
ATOM      1  O   UNL A   1      39.966  21.390  25.647  1.00  0.00    -0.376 OA
ENDROOT
BRANCH   1   2
ATOM      2  C   UNL A   1      38.818  22.180  25.954  1.00  0.00     0.202 C 
BRANCH   2   3
ATOM      3  C   UNL A   1      37.480  21.531  25.595  1.00  0.00     0.261 C 
BRANCH   3   4
ATOM      4  O   UNL A   1      37.237  21.621  24.174  1.00  0.00    -0.461 OA
BRANCH   4   5
ATOM      5  C   UNL A   1      36.634  22.749  23.709  1.00  0.00     0.344 C 
ATOM      6  O   UNL A   1      36.735  23.169  22.563  1.00  0.00    -0.248 OA
BRANCH   5   7
ATOM      7  C   UNL A   1      35.814  23.446  24.800  1.00  0.00     0.353 C 
BRANCH   7   8
ATOM      8  O   UNL A   1      34.950  24.456  24.321  1.00  0.00    -0.465 OA
BRANCH   8   9
ATOM      9  C   UNL A   1      33.607  24.333  24.161  1.00  0.00     0.222 A 
ATOM     10  C   UNL A   1      30.137  25.800  23.799  1.00  0.00     0.067 C 
ATOM     11  C   UNL A   1      31.349  24.919  23.870  1.00  0.00     0.050 A 
ATOM     12  N   UNL A   1      31.105  23.709  23.341  1.00  0.00    -0.218 NA
ATOM     13  C   UNL A   1      32.623  25.314  24.293  1.00  0.00     0.038 A 
ATOM     14  C   UNL A   1      32.114  22.856  23.191  1.00  0.00     0.230 A 
ATOM     15  N   UNL A   1      33.349  23.123  23.614  1.00  0.00    -0.177 NA
BRANCH  13  16
ATOM     16  C   UNL A   1      32.850  26.726  24.757  1.00  0.00     0.071 C 
BRANCH  16  17
ATOM     17  C   UNL A   1      33.571  27.620  23.744  1.00  0.00     0.161 C 
BRANCH  17  18
ATOM     18  O   UNL A   1      34.081  28.796  24.351  1.00  0.00    -0.396 OA
ATOM     19  H   UNL A   1      33.433  29.140  24.985  1.00  0.00     0.210 HD
ENDBRANCH  17  18
ENDBRANCH  16  17
ENDBRANCH  13  16
BRANCH  14  20
ATOM     20  N   UNL A   1      31.913  21.695  22.436  1.00  0.00    -0.324 N 
ATOM     21  H   UNL A   1      31.540  21.782  21.529  1.00  0.00     0.170 HD
BRANCH  20  22
ATOM     22  C   UNL A   1      32.221  20.409  22.914  1.00  0.00     0.041 A 
ATOM     23  C   UNL A   1      32.196  19.307  22.045  1.00  0.00     0.029 A 
ATOM     24  C   UNL A   1      32.449  20.193  24.279  1.00  0.00     0.029 A 
ATOM     25  C   UNL A   1      32.377  18.012  22.536  1.00  0.00     0.041 A 
ATOM     26  C   UNL A   1      32.646  18.899  24.769  1.00  0.00     0.041 A 
ATOM     27  C   UNL A   1      32.601  17.820  23.894  1.00  0.00     0.123 A 
ATOM     28  F   UNL A   1      32.760  16.578  24.368  1.00  0.00    -0.207 F 
ENDBRANCH  20  22
ENDBRANCH  14  20
ENDBRANCH   8   9
ENDBRANCH   7   8
ENDBRANCH   5   7
ENDBRANCH   4   5
ENDBRANCH   3   4
ENDBRANCH   2   3
ENDBRANCH   1   2
BRANCH   1  29
ATOM     29  C   UNL A   1      40.233  20.262  26.470  1.00  0.00     0.188 C 
BRANCH  29  30
ATOM     30  C   UNL A   1      41.401  19.349  26.067  1.00  0.00     0.188 C 
BRANCH  30  31
ATOM     31  O   UNL A   1      42.721  19.756  26.395  1.00  0.00    -0.376 OA
BRANCH  31  32
ATOM     32  C   UNL A   1      43.441  20.466  25.397  1.00  0.00     0.202 C 
BRANCH  32  33
ATOM     33  C   UNL A   1      43.961  21.820  25.866  1.00  0.00     0.261 C 
BRANCH  33  34
ATOM     34  O   UNL A   1      43.089  22.872  25.416  1.00  0.00    -0.460 OA
BRANCH  34  35
ATOM     35  C   UNL A   1      42.597  23.636  26.410  1.00  0.00     0.338 C 
ATOM     36  O   UNL A   1      41.704  23.317  27.196  1.00  0.00    -0.246 OA
BRANCH  35  37
ATOM     37  C   UNL A   1      43.291  24.940  26.467  1.00  0.00     0.060 A 
ATOM     38  C   UNL A   1      43.696  25.606  25.307  1.00  0.00     0.016 A 
ATOM     39  C   UNL A   1      43.661  25.448  27.714  1.00  0.00     0.016 A 
ATOM     40  C   UNL A   1      44.540  26.718  25.394  1.00  0.00     0.010 A 
ATOM     41  C   UNL A   1      44.471  26.585  27.797  1.00  0.00     0.010 A 
ATOM     42  C   UNL A   1      44.969  27.200  26.635  1.00  0.00    -0.014 A 
BRANCH  42  43
ATOM     43  C   UNL A   1      46.032  28.241  26.741  1.00  0.00     0.031 A 
ATOM     44  C   UNL A   1      45.634  29.690  26.871  1.00  0.00     0.074 A 
ATOM     45  C   UNL A   1      47.343  27.933  26.769  1.00  0.00     0.049 A 
ATOM     46  N   UNL A   1      46.351  30.768  26.681  1.00  0.00    -0.248 NA
ATOM     47  C   UNL A   1      44.243  29.957  27.276  1.00  0.00     0.031 C 
ATOM     48  C   UNL A   1      47.910  26.586  26.804  1.00  0.00     0.029 A 
ATOM     49  N   UNL A   1      48.445  28.758  26.767  1.00  0.00    -0.354 N 
ATOM     50  C   UNL A   1      45.485  31.838  26.876  1.00  0.00     0.074 A 
ATOM     51  C   UNL A   1      44.195  31.282  27.221  1.00  0.00     0.031 C 
ATOM     52  C   UNL A   1      49.249  26.676  26.837  1.00  0.00     0.029 A 
ATOM     53  C   UNL A   1      49.636  28.076  26.705  1.00  0.00     0.049 A 
ATOM     54  H   UNL A   1      48.385  29.740  26.807  1.00  0.00     0.167 HD
ATOM     55  C   UNL A   1      45.738  33.164  26.762  1.00  0.00     0.031 A 
ATOM     56  C   UNL A   1      50.891  28.514  26.484  1.00  0.00     0.031 A 
ATOM     57  C   UNL A   1      47.027  33.722  26.452  1.00  0.00     0.049 A 
ATOM     58  C   UNL A   1      51.135  29.973  26.216  1.00  0.00     0.074 A 
ATOM     59  C   UNL A   1      47.374  35.051  26.275  1.00  0.00     0.029 A 
ATOM     60  N   UNL A   1      48.186  32.983  26.293  1.00  0.00    -0.354 N 
ATOM     61  N   UNL A   1      50.287  30.971  26.252  1.00  0.00    -0.248 NA
ATOM     62  C   UNL A   1      52.504  30.357  25.840  1.00  0.00     0.031 C 
ATOM     63  C   UNL A   1      48.738  35.110  25.967  1.00  0.00     0.029 A 
ATOM     64  C   UNL A   1      49.246  33.823  26.001  1.00  0.00     0.049 A 
ATOM     65  H   UNL A   1      48.247  32.003  26.375  1.00  0.00     0.167 HD
ATOM     66  C   UNL A   1      51.019  32.101  25.905  1.00  0.00     0.074 A 
ATOM     67  C   UNL A   1      52.383  31.668  25.685  1.00  0.00     0.031 C 
ATOM     68  C   UNL A   1      50.596  33.381  25.774  1.00  0.00     0.031 A 
BRANCH  55  69
ATOM     69  C   UNL A   1      44.579  34.107  26.903  1.00  0.00    -0.014 A 
ATOM     70  C   UNL A   1      44.307  34.768  28.109  1.00  0.00     0.009 A 
ATOM     71  C   UNL A   1      43.776  34.375  25.782  1.00  0.00     0.009 A 
ATOM     72  C   UNL A   1      43.238  35.665  28.195  1.00  0.00     0.001 A 
ATOM     73  C   UNL A   1      42.724  35.288  25.864  1.00  0.00     0.001 A 
ATOM     74  C   UNL A   1      42.452  35.927  27.072  1.00  0.00     0.000 A 
ENDBRANCH  55  69
BRANCH  56  75
ATOM     75  C   UNL A   1      52.006  27.535  26.383  1.00  0.00    -0.014 A 
ATOM     76  C   UNL A   1      52.307  26.912  25.164  1.00  0.00     0.009 A 
ATOM     77  C   UNL A   1      52.773  27.217  27.516  1.00  0.00     0.009 A 
ATOM     78  C   UNL A   1      53.351  25.987  25.084  1.00  0.00     0.001 A 
ATOM     79  C   UNL A   1      53.836  26.318  27.426  1.00  0.00     0.001 A 
ATOM     80  C   UNL A   1      54.120  25.699  26.211  1.00  0.00     0.000 A 
ENDBRANCH  56  75
BRANCH  68  81
ATOM     81  C   UNL A   1      51.624  34.409  25.399  1.00  0.00    -0.014 A 
ATOM     82  C   UNL A   1      51.858  34.743  24.057  1.00  0.00     0.009 A 
ATOM     83  C   UNL A   1      52.348  35.070  26.404  1.00  0.00     0.009 A 
ATOM     84  C   UNL A   1      52.821  35.700  23.726  1.00  0.00     0.001 A 
ATOM     85  C   UNL A   1      53.293  36.041  26.071  1.00  0.00     0.001 A 
ATOM     86  C   UNL A   1      53.534  36.349  24.733  1.00  0.00     0.000 A 
ENDBRANCH  68  81
ENDBRANCH  42  43
ENDBRANCH  35  37
ENDBRANCH  34  35
ENDBRANCH  33  34
ENDBRANCH  32  33
ENDBRANCH  31  32
ENDBRANCH  30  31
ENDBRANCH  29  30
ENDBRANCH   1  29
TORSDOF 24
ENDMDL
MODEL 2
REMARK VINA RESULT:      -9.1      6.128      9.467
REMARK SMILES Cc1nc(Nc2ccc(F)cc2)nc(OCC(=O)OCCOCCOCCOC(=O)c2ccc(-c3c4nc(c(-c5ccccc5)c5ccc([nH]5)c(-c5ccccc5)c5nc(c(-c6ccccc6)c6ccc3[nH]6)C=C5)C=C4)cc2)c1CCO
REMARK SMILES IDX 22 1 21 2 20 3 19 4 17 5 18 6 16 7 15 8 14 9 1 10 2 11 3 12
REMARK SMILES IDX 79 13 4 14 13 15 80 16 81 17 82 18 5 20 6 22 7 23 12 24 8 25
REMARK SMILES IDX 11 26 9 27 10 28 23 29 24 30 25 31 26 32 27 33 28 34 29 35
REMARK SMILES IDX 30 36 31 37 32 38 78 39 33 40 77 41 34 42 35 43 36 44 71 45
REMARK SMILES IDX 37 46 76 47 70 48 72 49 38 50 75 51 69 52 68 53 39 55 61 56
REMARK SMILES IDX 46 57 60 58 47 59 50 60 59 61 73 62 48 63 49 64 58 66 74 67
REMARK SMILES IDX 51 68 40 69 41 70 45 71 42 72 44 73 43 74 62 75 63 76 67 77
REMARK SMILES IDX 64 78 66 79 65 80 52 81 53 82 57 83 54 84 56 85 55 86
REMARK H PARENT 82 19 5 21 72 54 50 65
REMARK Flexibility Score: inf
ROOT
ATOM      1  O   UNL A   1      40.283  23.091  27.843  1.00  0.00    -0.376 OA
ENDROOT
BRANCH   1   2
ATOM      2  C   UNL A   1      39.980  23.821  26.655  1.00  0.00     0.202 C 
BRANCH   2   3
ATOM      3  C   UNL A   1      38.504  24.185  26.487  1.00  0.00     0.261 C 
BRANCH   3   4
ATOM      4  O   UNL A   1      37.721  23.007  26.195  1.00  0.00    -0.461 OA
BRANCH   4   5
ATOM      5  C   UNL A   1      36.948  23.027  25.075  1.00  0.00     0.344 C 
ATOM      6  O   UNL A   1      37.168  22.369  24.065  1.00  0.00    -0.248 OA
BRANCH   5   7
ATOM      7  C   UNL A   1      35.761  23.987  25.220  1.00  0.00     0.353 C 
BRANCH   7   8
ATOM      8  O   UNL A   1      34.752  23.816  24.247  1.00  0.00    -0.465 OA
BRANCH   8   9
ATOM      9  C   UNL A   1      33.415  23.834  24.487  1.00  0.00     0.222 A 
ATOM     10  C   UNL A   1      30.335  22.640  26.332  1.00  0.00     0.067 C 
ATOM     11  C   UNL A   1      31.335  23.347  25.465  1.00  0.00     0.050 A 
ATOM     12  N   UNL A   1      30.850  24.515  25.013  1.00  0.00    -0.218 NA
ATOM     13  C   UNL A   1      32.657  22.944  25.248  1.00  0.00     0.038 A 
ATOM     14  C   UNL A   1      31.660  25.335  24.351  1.00  0.00     0.230 A 
ATOM     15  N   UNL A   1      32.917  25.014  24.049  1.00  0.00    -0.177 NA
BRANCH  13  16
ATOM     16  C   UNL A   1      33.168  21.684  25.891  1.00  0.00     0.071 C 
BRANCH  16  17
ATOM     17  C   UNL A   1      32.518  20.398  25.371  1.00  0.00     0.161 C 
BRANCH  17  18
ATOM     18  O   UNL A   1      33.314  19.257  25.652  1.00  0.00    -0.396 OA
ATOM     19  H   UNL A   1      33.154  18.968  26.564  1.00  0.00     0.210 HD
ENDBRANCH  17  18
ENDBRANCH  16  17
ENDBRANCH  13  16
BRANCH  14  20
ATOM     20  N   UNL A   1      31.231  26.639  24.081  1.00  0.00    -0.324 N 
ATOM     21  H   UNL A   1      30.801  26.823  23.215  1.00  0.00     0.170 HD
BRANCH  20  22
ATOM     22  C   UNL A   1      31.386  27.699  24.992  1.00  0.00     0.041 A 
ATOM     23  C   UNL A   1      31.391  29.027  24.538  1.00  0.00     0.029 A 
ATOM     24  C   UNL A   1      31.647  27.443  26.345  1.00  0.00     0.029 A 
ATOM     25  C   UNL A   1      31.669  30.076  25.416  1.00  0.00     0.041 A 
ATOM     26  C   UNL A   1      31.910  28.494  27.227  1.00  0.00     0.041 A 
ATOM     27  C   UNL A   1      31.926  29.800  26.753  1.00  0.00     0.123 A 
ATOM     28  F   UNL A   1      32.207  30.805  27.593  1.00  0.00    -0.207 F 
ENDBRANCH  20  22
ENDBRANCH  14  20
ENDBRANCH   8   9
ENDBRANCH   7   8
ENDBRANCH   5   7
ENDBRANCH   4   5
ENDBRANCH   3   4
ENDBRANCH   2   3
ENDBRANCH   1   2
BRANCH   1  29
ATOM     29  C   UNL A   1      41.075  21.917  27.714  1.00  0.00     0.188 C 
BRANCH  29  30
ATOM     30  C   UNL A   1      41.739  21.653  26.354  1.00  0.00     0.188 C 
BRANCH  30  31
ATOM     31  O   UNL A   1      43.085  22.064  26.168  1.00  0.00    -0.376 OA
BRANCH  31  32
ATOM     32  C   UNL A   1      43.573  22.082  24.833  1.00  0.00     0.202 C 
BRANCH  32  33
ATOM     33  C   UNL A   1      44.477  23.270  24.528  1.00  0.00     0.261 C 
BRANCH  33  34
ATOM     34  O   UNL A   1      43.806  24.502  24.849  1.00  0.00    -0.460 OA
BRANCH  34  35
ATOM     35  C   UNL A   1      44.628  25.471  25.294  1.00  0.00     0.338 C 
ATOM     36  O   UNL A   1      45.549  25.988  24.660  1.00  0.00    -0.246 OA
BRANCH  35  37
ATOM     37  C   UNL A   1      44.272  25.875  26.671  1.00  0.00     0.060 A 
ATOM     38  C   UNL A   1      43.507  25.052  27.501  1.00  0.00     0.016 A 
ATOM     39  C   UNL A   1      44.601  27.163  27.097  1.00  0.00     0.016 A 
ATOM     40  C   UNL A   1      43.001  25.548  28.708  1.00  0.00     0.010 A 
ATOM     41  C   UNL A   1      44.126  27.640  28.322  1.00  0.00     0.010 A 
ATOM     42  C   UNL A   1      43.271  26.857  29.117  1.00  0.00    -0.014 A 
BRANCH  42  43
ATOM     43  C   UNL A   1      42.569  27.469  30.282  1.00  0.00     0.031 A 
ATOM     44  C   UNL A   1      41.225  28.123  30.072  1.00  0.00     0.074 A 
ATOM     45  C   UNL A   1      43.069  27.422  31.532  1.00  0.00     0.049 A 
ATOM     46  N   UNL A   1      40.580  28.960  30.844  1.00  0.00    -0.248 NA
ATOM     47  C   UNL A   1      40.514  27.782  28.828  1.00  0.00     0.031 C 
ATOM     48  C   UNL A   1      44.274  26.708  31.949  1.00  0.00     0.029 A 
ATOM     49  N   UNL A   1      42.609  28.007  32.690  1.00  0.00    -0.354 N 
ATOM     50  C   UNL A   1      39.422  29.297  30.153  1.00  0.00     0.074 A 
ATOM     51  C   UNL A   1      39.441  28.558  28.908  1.00  0.00     0.031 C 
ATOM     52  C   UNL A   1      44.449  26.881  33.270  1.00  0.00     0.029 A 
ATOM     53  C   UNL A   1      43.441  27.813  33.765  1.00  0.00     0.049 A 
ATOM     54  H   UNL A   1      41.767  28.514  32.742  1.00  0.00     0.167 HD
ATOM     55  C   UNL A   1      38.440  30.157  30.514  1.00  0.00     0.031 A 
ATOM     56  C   UNL A   1      43.448  28.379  34.988  1.00  0.00     0.031 A 
ATOM     57  C   UNL A   1      38.401  30.868  31.763  1.00  0.00     0.049 A 
ATOM     58  C   UNL A   1      42.435  29.439  35.322  1.00  0.00     0.074 A 
ATOM     59  C   UNL A   1      37.468  31.792  32.204  1.00  0.00     0.029 A 
ATOM     60  N   UNL A   1      39.326  30.718  32.782  1.00  0.00    -0.354 N 
ATOM     61  N   UNL A   1      41.424  29.870  34.609  1.00  0.00    -0.248 NA
ATOM     62  C   UNL A   1      42.591  30.117  36.619  1.00  0.00     0.031 C 
ATOM     63  C   UNL A   1      37.855  32.233  33.475  1.00  0.00     0.029 A 
ATOM     64  C   UNL A   1      38.999  31.546  33.843  1.00  0.00     0.049 A 
ATOM     65  H   UNL A   1      40.102  30.113  32.756  1.00  0.00     0.167 HD
ATOM     66  C   UNL A   1      40.823  30.867  35.369  1.00  0.00     0.074 A 
ATOM     67  C   UNL A   1      41.568  30.960  36.607  1.00  0.00     0.031 C 
ATOM     68  C   UNL A   1      39.752  31.638  35.064  1.00  0.00     0.031 A 
BRANCH  55  69
ATOM     69  C   UNL A   1      37.357  30.435  29.513  1.00  0.00    -0.014 A 
ATOM     70  C   UNL A   1      36.312  29.529  29.284  1.00  0.00     0.009 A 
ATOM     71  C   UNL A   1      37.361  31.659  28.823  1.00  0.00     0.009 A 
ATOM     72  C   UNL A   1      35.302  29.836  28.368  1.00  0.00     0.001 A 
ATOM     73  C   UNL A   1      36.340  31.973  27.926  1.00  0.00     0.001 A 
ATOM     74  C   UNL A   1      35.314  31.058  27.695  1.00  0.00     0.000 A 
ENDBRANCH  55  69
BRANCH  56  75
ATOM     75  C   UNL A   1      44.530  28.044  35.950  1.00  0.00    -0.014 A 
ATOM     76  C   UNL A   1      45.690  28.827  36.028  1.00  0.00     0.009 A 
ATOM     77  C   UNL A   1      44.405  26.928  36.794  1.00  0.00     0.009 A 
ATOM     78  C   UNL A   1      46.705  28.496  36.930  1.00  0.00     0.001 A 
ATOM     79  C   UNL A   1      45.406  26.619  37.717  1.00  0.00     0.001 A 
ATOM     80  C   UNL A   1      46.557  27.399  37.780  1.00  0.00     0.000 A 
ENDBRANCH  56  75
BRANCH  68  81
ATOM     81  C   UNL A   1      39.308  32.635  36.096  1.00  0.00    -0.014 A 
ATOM     82  C   UNL A   1      38.360  32.293  37.071  1.00  0.00     0.009 A 
ATOM     83  C   UNL A   1      39.868  33.922  36.107  1.00  0.00     0.009 A 
ATOM     84  C   UNL A   1      37.957  33.234  38.022  1.00  0.00     0.001 A 
ATOM     85  C   UNL A   1      39.479  34.853  37.072  1.00  0.00     0.001 A 
ATOM     86  C   UNL A   1      38.519  34.511  38.023  1.00  0.00     0.000 A 
ENDBRANCH  68  81
ENDBRANCH  42  43
ENDBRANCH  35  37
ENDBRANCH  34  35
ENDBRANCH  33  34
ENDBRANCH  32  33
ENDBRANCH  31  32
ENDBRANCH  30  31
ENDBRANCH  29  30
ENDBRANCH   1  29
TORSDOF 24
ENDMDL
MODEL 3
REMARK VINA RESULT:      -8.9      4.675      8.104
REMARK SMILES Cc1nc(Nc2ccc(F)cc2)nc(OCC(=O)OCCOCCOCCOC(=O)c2ccc(-c3c4nc(c(-c5ccccc5)c5ccc([nH]5)c(-c5ccccc5)c5nc(c(-c6ccccc6)c6ccc3[nH]6)C=C5)C=C4)cc2)c1CCO
REMARK SMILES IDX 22 1 21 2 20 3 19 4 17 5 18 6 16 7 15 8 14 9 1 10 2 11 3 12
REMARK SMILES IDX 79 13 4 14 13 15 80 16 81 17 82 18 5 20 6 22 7 23 12 24 8 25
REMARK SMILES IDX 11 26 9 27 10 28 23 29 24 30 25 31 26 32 27 33 28 34 29 35
REMARK SMILES IDX 30 36 31 37 32 38 78 39 33 40 77 41 34 42 35 43 36 44 71 45
REMARK SMILES IDX 37 46 76 47 70 48 72 49 38 50 75 51 69 52 68 53 39 55 61 56
REMARK SMILES IDX 46 57 60 58 47 59 50 60 59 61 73 62 48 63 49 64 58 66 74 67
REMARK SMILES IDX 51 68 40 69 41 70 45 71 42 72 44 73 43 74 62 75 63 76 67 77
REMARK SMILES IDX 64 78 66 79 65 80 52 81 53 82 57 83 54 84 56 85 55 86
REMARK H PARENT 82 19 5 21 72 54 50 65
REMARK Flexibility Score: inf
ROOT
ATOM      1  O   UNL A   1      42.145  19.697  25.393  1.00  0.00    -0.376 OA
ENDROOT
BRANCH   1   2
ATOM      2  C   UNL A   1      41.272  20.068  26.459  1.00  0.00     0.202 C 
BRANCH   2   3
ATOM      3  C   UNL A   1      41.770  21.232  27.317  1.00  0.00     0.261 C 
BRANCH   3   4
ATOM      4  O   UNL A   1      43.098  21.631  26.911  1.00  0.00    -0.461 OA
BRANCH   4   5
ATOM      5  C   UNL A   1      43.337  22.963  26.764  1.00  0.00     0.344 C 
ATOM      6  O   UNL A   1      43.909  23.662  27.591  1.00  0.00    -0.248 OA
BRANCH   5   7
ATOM      7  C   UNL A   1      42.794  23.494  25.432  1.00  0.00     0.353 C 
BRANCH   7   8
ATOM      8  O   UNL A   1      42.209  24.777  25.515  1.00  0.00    -0.465 OA
BRANCH   8   9
ATOM      9  C   UNL A   1      41.208  25.133  26.361  1.00  0.00     0.222 A 
ATOM     10  C   UNL A   1      39.191  27.718  28.250  1.00  0.00     0.067 C 
ATOM     11  C   UNL A   1      39.745  26.475  27.620  1.00  0.00     0.050 A 
ATOM     12  N   UNL A   1      38.852  25.472  27.649  1.00  0.00    -0.218 NA
ATOM     13  C   UNL A   1      40.971  26.374  26.954  1.00  0.00     0.038 A 
ATOM     14  C   UNL A   1      39.130  24.344  27.002  1.00  0.00     0.230 A 
ATOM     15  N   UNL A   1      40.293  24.136  26.387  1.00  0.00    -0.177 NA
BRANCH  13  16
ATOM     16  C   UNL A   1      41.868  27.577  26.855  1.00  0.00     0.071 C 
BRANCH  16  17
ATOM     17  C   UNL A   1      41.729  28.367  25.550  1.00  0.00     0.161 C 
BRANCH  17  18
ATOM     18  O   UNL A   1      42.463  27.769  24.493  1.00  0.00    -0.396 OA
ATOM     19  H   UNL A   1      42.064  28.013  23.644  1.00  0.00     0.210 HD
ENDBRANCH  17  18
ENDBRANCH  16  17
ENDBRANCH  13  16
BRANCH  14  20
ATOM     20  N   UNL A   1      38.117  23.393  26.835  1.00  0.00    -0.324 N 
ATOM     21  H   UNL A   1      38.016  22.690  27.517  1.00  0.00     0.170 HD
BRANCH  20  22
ATOM     22  C   UNL A   1      37.238  23.395  25.738  1.00  0.00     0.041 A 
ATOM     23  C   UNL A   1      36.047  24.136  25.787  1.00  0.00     0.029 A 
ATOM     24  C   UNL A   1      37.483  22.577  24.627  1.00  0.00     0.029 A 
ATOM     25  C   UNL A   1      35.111  24.045  24.755  1.00  0.00     0.041 A 
ATOM     26  C   UNL A   1      36.555  22.497  23.587  1.00  0.00     0.041 A 
ATOM     27  C   UNL A   1      35.374  23.226  23.664  1.00  0.00     0.123 A 
ATOM     28  F   UNL A   1      34.470  23.126  22.680  1.00  0.00    -0.207 F 
ENDBRANCH  20  22
ENDBRANCH  14  20
ENDBRANCH   8   9
ENDBRANCH   7   8
ENDBRANCH   5   7
ENDBRANCH   4   5
ENDBRANCH   3   4
ENDBRANCH   2   3
ENDBRANCH   1   2
BRANCH   1  29
ATOM     29  C   UNL A   1      43.167  18.749  25.673  1.00  0.00     0.188 C 
BRANCH  29  30
ATOM     30  C   UNL A   1      44.564  19.018  25.093  1.00  0.00     0.188 C 
BRANCH  30  31
ATOM     31  O   UNL A   1      44.833  20.299  24.544  1.00  0.00    -0.376 OA
BRANCH  31  32
ATOM     32  C   UNL A   1      46.024  20.944  24.971  1.00  0.00     0.202 C 
BRANCH  32  33
ATOM     33  C   UNL A   1      46.242  22.311  24.333  1.00  0.00     0.261 C 
BRANCH  33  34
ATOM     34  O   UNL A   1      46.670  23.262  25.324  1.00  0.00    -0.460 OA
BRANCH  34  35
ATOM     35  C   UNL A   1      47.054  24.448  24.813  1.00  0.00     0.338 C 
ATOM     36  O   UNL A   1      47.616  24.623  23.732  1.00  0.00    -0.246 OA
BRANCH  35  37
ATOM     37  C   UNL A   1      46.691  25.556  25.721  1.00  0.00     0.060 A 
ATOM     38  C   UNL A   1      47.537  25.963  26.757  1.00  0.00     0.016 A 
ATOM     39  C   UNL A   1      45.417  26.117  25.617  1.00  0.00     0.016 A 
ATOM     40  C   UNL A   1      47.076  26.856  27.730  1.00  0.00     0.010 A 
ATOM     41  C   UNL A   1      44.975  27.041  26.570  1.00  0.00     0.010 A 
ATOM     42  C   UNL A   1      45.780  27.377  27.672  1.00  0.00    -0.014 A 
BRANCH  42  43
ATOM     43  C   UNL A   1      45.202  28.153  28.807  1.00  0.00     0.031 A 
ATOM     44  C   UNL A   1      45.004  29.642  28.657  1.00  0.00     0.074 A 
ATOM     45  C   UNL A   1      44.805  27.568  29.954  1.00  0.00     0.049 A 
ATOM     46  N   UNL A   1      44.807  30.550  29.579  1.00  0.00    -0.248 NA
ATOM     47  C   UNL A   1      45.026  30.174  27.284  1.00  0.00     0.031 C 
ATOM     48  C   UNL A   1      44.779  26.131  30.222  1.00  0.00     0.029 A 
ATOM     49  N   UNL A   1      44.345  28.133  31.121  1.00  0.00    -0.354 N 
ATOM     50  C   UNL A   1      44.749  31.765  28.906  1.00  0.00     0.074 A 
ATOM     51  C   UNL A   1      44.909  31.478  27.497  1.00  0.00     0.031 C 
ATOM     52  C   UNL A   1      44.313  25.927  31.465  1.00  0.00     0.029 A 
ATOM     53  C   UNL A   1      44.121  27.216  32.119  1.00  0.00     0.049 A 
ATOM     54  H   UNL A   1      44.191  29.100  31.230  1.00  0.00     0.167 HD
ATOM     55  C   UNL A   1      44.593  33.009  29.418  1.00  0.00     0.031 A 
ATOM     56  C   UNL A   1      43.873  27.387  33.433  1.00  0.00     0.031 A 
ATOM     57  C   UNL A   1      44.401  33.296  30.814  1.00  0.00     0.049 A 
ATOM     58  C   UNL A   1      43.846  28.774  34.012  1.00  0.00     0.074 A 
ATOM     59  C   UNL A   1      44.274  34.528  31.434  1.00  0.00     0.029 A 
ATOM     60  N   UNL A   1      44.287  32.337  31.805  1.00  0.00    -0.354 N 
ATOM     61  N   UNL A   1      43.942  29.926  33.397  1.00  0.00    -0.248 NA
ATOM     62  C   UNL A   1      43.715  28.878  35.473  1.00  0.00     0.031 C 
ATOM     63  C   UNL A   1      44.125  34.312  32.810  1.00  0.00     0.029 A 
ATOM     64  C   UNL A   1      44.111  32.946  33.035  1.00  0.00     0.049 A 
ATOM     65  H   UNL A   1      44.327  31.364  31.657  1.00  0.00     0.167 HD
ATOM     66  C   UNL A   1      43.881  30.893  34.395  1.00  0.00     0.074 A 
ATOM     67  C   UNL A   1      43.717  30.192  35.651  1.00  0.00     0.031 C 
ATOM     68  C   UNL A   1      43.960  32.241  34.278  1.00  0.00     0.031 A 
BRANCH  55  69
ATOM     69  C   UNL A   1      44.696  34.168  28.470  1.00  0.00    -0.014 A 
ATOM     70  C   UNL A   1      43.561  34.744  27.881  1.00  0.00     0.009 A 
ATOM     71  C   UNL A   1      45.959  34.725  28.204  1.00  0.00     0.009 A 
ATOM     72  C   UNL A   1      43.692  35.844  27.029  1.00  0.00     0.001 A 
ATOM     73  C   UNL A   1      46.084  35.836  27.371  1.00  0.00     0.001 A 
ATOM     74  C   UNL A   1      44.951  36.391  26.779  1.00  0.00     0.000 A 
ENDBRANCH  55  69
BRANCH  56  75
ATOM     75  C   UNL A   1      43.752  26.200  34.320  1.00  0.00    -0.014 A 
ATOM     76  C   UNL A   1      44.893  25.549  34.810  1.00  0.00     0.009 A 
ATOM     77  C   UNL A   1      42.485  25.710  34.677  1.00  0.00     0.009 A 
ATOM     78  C   UNL A   1      44.766  24.429  35.635  1.00  0.00     0.001 A 
ATOM     79  C   UNL A   1      42.361  24.611  35.528  1.00  0.00     0.001 A 
ATOM     80  C   UNL A   1      43.502  23.968  36.001  1.00  0.00     0.000 A 
ENDBRANCH  56  75
BRANCH  68  81
ATOM     81  C   UNL A   1      43.845  33.046  35.541  1.00  0.00    -0.014 A 
ATOM     82  C   UNL A   1      44.987  33.441  36.253  1.00  0.00     0.009 A 
ATOM     83  C   UNL A   1      42.580  33.434  36.007  1.00  0.00     0.009 A 
ATOM     84  C   UNL A   1      44.862  34.188  37.427  1.00  0.00     0.001 A 
ATOM     85  C   UNL A   1      42.460  34.199  37.169  1.00  0.00     0.001 A 
ATOM     86  C   UNL A   1      43.599  34.568  37.881  1.00  0.00     0.000 A 
ENDBRANCH  68  81
ENDBRANCH  42  43
ENDBRANCH  35  37
ENDBRANCH  34  35
ENDBRANCH  33  34
ENDBRANCH  32  33
ENDBRANCH  31  32
ENDBRANCH  30  31
ENDBRANCH  29  30
ENDBRANCH   1  29
TORSDOF 24
ENDMDL
