MODEL 1
REMARK VINA RESULT:     -10.1      0.000      0.000
REMARK SMILES COc1ccc(Cn2c(SCCC(=O)OCCOCCOCCOC(=O)c3ccc(-c4c5nc(c(-c6ccccc6)c6ccc([nH]6)c(-c6ccccc6)c6nc(c(-c7ccccc7)c7ccc4[nH]7)C=C6)C=C5)cc3)nc3ccc(Cl)cc3c2=O)cc1
REMARK SMILES IDX 17 1 16 2 15 3 13 4 14 5 12 6 11 7 10 8 9 9 8 10 83 11 75 12
REMARK SMILES IDX 82 13 84 14 76 15 81 16 77 17 79 18 78 19 80 20 7 21 6 22
REMARK SMILES IDX 3 23 4 24 86 25 5 26 85 27 2 28 1 29 18 30 19 31 20 32 21 33
REMARK SMILES IDX 22 34 23 35 24 36 25 37 26 38 27 39 28 40 74 41 29 42 73 43
REMARK SMILES IDX 30 44 31 45 32 46 67 47 33 48 72 49 66 50 68 51 34 52 71 53
REMARK SMILES IDX 65 54 64 55 35 57 57 58 42 59 56 60 43 61 46 62 55 63 69 64
REMARK SMILES IDX 44 65 45 66 54 68 70 69 47 70 36 71 37 72 41 73 38 74 40 75
REMARK SMILES IDX 39 76 58 77 59 78 63 79 60 80 62 81 61 82 48 83 49 84 53 85
REMARK SMILES IDX 50 86 52 87 51 88
REMARK H PARENT 68 56 46 67
REMARK Flexibility Score: inf
ROOT
ATOM      1  C   UNL A   1      34.097  32.073  28.569  1.00  0.00     0.202 C 
ENDROOT
BRANCH   1   2
ATOM      2  C   UNL A   1      34.215  31.056  27.429  1.00  0.00     0.261 C 
BRANCH   2   3
ATOM      3  O   UNL A   1      33.278  29.969  27.616  1.00  0.00    -0.463 OA
BRANCH   3   4
ATOM      4  C   UNL A   1      32.230  29.888  26.761  1.00  0.00     0.306 C 
ATOM      5  O   UNL A   1      31.757  30.840  26.153  1.00  0.00    -0.252 OA
BRANCH   4   6
ATOM      6  C   UNL A   1      31.699  28.478  26.563  1.00  0.00     0.134 C 
BRANCH   6   7
ATOM      7  C   UNL A   1      32.592  27.257  26.753  1.00  0.00     0.090 C 
BRANCH   7   8
ATOM      8  S   UNL A   1      31.970  25.779  26.015  1.00  0.00    -0.087 SA
BRANCH   8   9
ATOM      9  C   UNL A   1      33.116  25.056  24.907  1.00  0.00     0.171 A 
ATOM     10  N   UNL A   1      32.891  24.436  23.673  1.00  0.00    -0.283 N 
ATOM     11  C   UNL A   1      33.943  23.661  23.156  1.00  0.00     0.262 A 
ATOM     12  N   UNL A   1      34.267  25.064  25.505  1.00  0.00    -0.224 NA
ATOM     13  C   UNL A   1      35.045  23.320  24.053  1.00  0.00     0.067 A 
ATOM     14  O   UNL A   1      34.093  23.321  21.986  1.00  0.00    -0.269 OA
ATOM     15  C   UNL A   1      35.256  24.186  25.106  1.00  0.00     0.079 A 
ATOM     16  C   UNL A   1      35.850  22.198  23.865  1.00  0.00     0.036 A 
ATOM     17  C   UNL A   1      36.363  24.010  25.934  1.00  0.00     0.031 A 
ATOM     18  C   UNL A   1      36.884  21.963  24.767  1.00  0.00     0.042 A 
ATOM     19  C   UNL A   1      37.171  22.886  25.776  1.00  0.00     0.023 A 
ATOM     20  Cl  UNL A   1      37.778  20.498  24.678  1.00  0.00    -0.084 Cl
BRANCH  10  21
ATOM     21  C   UNL A   1      31.939  24.906  22.643  1.00  0.00     0.163 C 
BRANCH  21  22
ATOM     22  C   UNL A   1      31.267  26.275  22.780  1.00  0.00    -0.028 A 
ATOM     23  C   UNL A   1      30.149  28.857  23.281  1.00  0.00     0.118 A 
ATOM     24  C   UNL A   1      31.463  28.719  22.850  1.00  0.00     0.047 A 
ATOM     25  C   UNL A   1      29.386  27.708  23.459  1.00  0.00     0.047 A 
ATOM     26  C   UNL A   1      32.017  27.452  22.629  1.00  0.00     0.009 A 
ATOM     27  C   UNL A   1      29.940  26.436  23.210  1.00  0.00     0.009 A 
BRANCH  23  28
ATOM     28  O   UNL A   1      29.750  30.142  23.510  1.00  0.00    -0.497 OA
ATOM     29  C   UNL A   1      29.020  30.791  22.479  1.00  0.00     0.278 C 
ENDBRANCH  23  28
ENDBRANCH  21  22
ENDBRANCH  10  21
ENDBRANCH   8   9
ENDBRANCH   7   8
ENDBRANCH   6   7
ENDBRANCH   4   6
ENDBRANCH   3   4
ENDBRANCH   2   3
ENDBRANCH   1   2
BRANCH   1  30
ATOM     30  O   UNL A   1      35.369  32.601  28.967  1.00  0.00    -0.376 OA
BRANCH  30  31
ATOM     31  C   UNL A   1      35.774  33.753  28.239  1.00  0.00     0.188 C 
BRANCH  31  32
ATOM     32  C   UNL A   1      34.622  34.647  27.791  1.00  0.00     0.188 C 
BRANCH  32  33
ATOM     33  O   UNL A   1      34.428  35.802  28.604  1.00  0.00    -0.376 OA
BRANCH  33  34
ATOM     34  C   UNL A   1      33.061  35.995  28.988  1.00  0.00     0.202 C 
BRANCH  34  35
ATOM     35  C   UNL A   1      32.928  36.851  30.257  1.00  0.00     0.261 C 
BRANCH  35  36
ATOM     36  O   UNL A   1      32.430  36.046  31.341  1.00  0.00    -0.460 OA
BRANCH  36  37
ATOM     37  C   UNL A   1      33.101  36.184  32.515  1.00  0.00     0.338 C 
ATOM     38  O   UNL A   1      32.834  36.915  33.437  1.00  0.00    -0.246 OA
BRANCH  37  39
ATOM     39  C   UNL A   1      34.148  35.138  32.575  1.00  0.00     0.060 A 
ATOM     40  C   UNL A   1      33.849  33.945  33.247  1.00  0.00     0.016 A 
ATOM     41  C   UNL A   1      35.402  35.326  31.995  1.00  0.00     0.016 A 
ATOM     42  C   UNL A   1      34.811  32.944  33.374  1.00  0.00     0.010 A 
ATOM     43  C   UNL A   1      36.374  34.334  32.140  1.00  0.00     0.010 A 
ATOM     44  C   UNL A   1      36.094  33.156  32.858  1.00  0.00    -0.014 A 
BRANCH  44  45
ATOM     45  C   UNL A   1      37.220  32.274  33.240  1.00  0.00     0.031 A 
ATOM     46  C   UNL A   1      37.932  32.571  34.529  1.00  0.00     0.074 A 
ATOM     47  C   UNL A   1      37.637  31.274  32.446  1.00  0.00     0.049 A 
ATOM     48  N   UNL A   1      39.072  32.113  34.974  1.00  0.00    -0.248 NA
ATOM     49  C   UNL A   1      37.267  33.527  35.431  1.00  0.00     0.031 C 
ATOM     50  C   UNL A   1      36.989  30.839  31.211  1.00  0.00     0.029 A 
ATOM     51  N   UNL A   1      38.738  30.461  32.557  1.00  0.00    -0.354 N 
ATOM     52  C   UNL A   1      39.283  32.757  36.188  1.00  0.00     0.074 A 
ATOM     53  C   UNL A   1      38.153  33.633  36.410  1.00  0.00     0.031 C 
ATOM     54  C   UNL A   1      37.723  29.856  30.659  1.00  0.00     0.029 A 
ATOM     55  C   UNL A   1      38.916  29.635  31.474  1.00  0.00     0.049 A 
ATOM     56  H   UNL A   1      39.340  30.469  33.336  1.00  0.00     0.167 HD
ATOM     57  C   UNL A   1      40.332  32.640  37.033  1.00  0.00     0.031 A 
ATOM     58  C   UNL A   1      39.952  28.834  31.155  1.00  0.00     0.031 A 
ATOM     59  C   UNL A   1      41.458  31.778  36.799  1.00  0.00     0.049 A 
ATOM     60  C   UNL A   1      41.145  28.773  32.072  1.00  0.00     0.074 A 
ATOM     61  C   UNL A   1      42.577  31.584  37.588  1.00  0.00     0.029 A 
ATOM     62  N   UNL A   1      41.604  30.965  35.686  1.00  0.00    -0.354 N 
ATOM     63  N   UNL A   1      41.352  29.401  33.206  1.00  0.00    -0.248 NA
ATOM     64  C   UNL A   1      42.254  27.900  31.660  1.00  0.00     0.031 C 
ATOM     65  C   UNL A   1      43.422  30.684  36.929  1.00  0.00     0.029 A 
ATOM     66  C   UNL A   1      42.802  30.279  35.757  1.00  0.00     0.049 A 
ATOM     67  H   UNL A   1      40.951  30.888  34.952  1.00  0.00     0.167 HD
ATOM     68  C   UNL A   1      42.599  28.980  33.653  1.00  0.00     0.074 A 
ATOM     69  C   UNL A   1      43.097  28.035  32.674  1.00  0.00     0.031 C 
ATOM     70  C   UNL A   1      43.273  29.341  34.772  1.00  0.00     0.031 A 
BRANCH  57  71
ATOM     71  C   UNL A   1      40.330  33.512  38.257  1.00  0.00    -0.014 A 
ATOM     72  C   UNL A   1      40.926  34.783  38.253  1.00  0.00     0.009 A 
ATOM     73  C   UNL A   1      39.719  33.051  39.433  1.00  0.00     0.009 A 
ATOM     74  C   UNL A   1      40.938  35.561  39.412  1.00  0.00     0.001 A 
ATOM     75  C   UNL A   1      39.708  33.842  40.583  1.00  0.00     0.001 A 
ATOM     76  C   UNL A   1      40.326  35.091  40.575  1.00  0.00     0.000 A 
ENDBRANCH  57  71
BRANCH  58  77
ATOM     77  C   UNL A   1      39.935  28.060  29.887  1.00  0.00    -0.014 A 
ATOM     78  C   UNL A   1      39.372  26.776  29.841  1.00  0.00     0.009 A 
ATOM     79  C   UNL A   1      40.497  28.595  28.717  1.00  0.00     0.009 A 
ATOM     80  C   UNL A   1      39.389  26.037  28.654  1.00  0.00     0.001 A 
ATOM     81  C   UNL A   1      40.488  27.865  27.526  1.00  0.00     0.001 A 
ATOM     82  C   UNL A   1      39.941  26.584  27.497  1.00  0.00     0.000 A 
ENDBRANCH  58  77
BRANCH  70  83
ATOM     83  C   UNL A   1      44.598  28.676  35.021  1.00  0.00    -0.014 A 
ATOM     84  C   UNL A   1      45.798  29.251  34.576  1.00  0.00     0.009 A 
ATOM     85  C   UNL A   1      44.644  27.481  35.754  1.00  0.00     0.009 A 
ATOM     86  C   UNL A   1      47.017  28.622  34.835  1.00  0.00     0.001 A 
ATOM     87  C   UNL A   1      45.866  26.868  36.033  1.00  0.00     0.001 A 
ATOM     88  C   UNL A   1      47.050  27.435  35.567  1.00  0.00     0.000 A 
ENDBRANCH  70  83
ENDBRANCH  44  45
ENDBRANCH  37  39
ENDBRANCH  36  37
ENDBRANCH  35  36
ENDBRANCH  34  35
ENDBRANCH  33  34
ENDBRANCH  32  33
ENDBRANCH  31  32
ENDBRANCH  30  31
ENDBRANCH   1  30
TORSDOF 23
ENDMDL
MODEL 2
REMARK VINA RESULT:      -9.8      4.360      7.753
REMARK SMILES COc1ccc(Cn2c(SCCC(=O)OCCOCCOCCOC(=O)c3ccc(-c4c5nc(c(-c6ccccc6)c6ccc([nH]6)c(-c6ccccc6)c6nc(c(-c7ccccc7)c7ccc4[nH]7)C=C6)C=C5)cc3)nc3ccc(Cl)cc3c2=O)cc1
REMARK SMILES IDX 17 1 16 2 15 3 13 4 14 5 12 6 11 7 10 8 9 9 8 10 83 11 75 12
REMARK SMILES IDX 82 13 84 14 76 15 81 16 77 17 79 18 78 19 80 20 7 21 6 22
REMARK SMILES IDX 3 23 4 24 86 25 5 26 85 27 2 28 1 29 18 30 19 31 20 32 21 33
REMARK SMILES IDX 22 34 23 35 24 36 25 37 26 38 27 39 28 40 74 41 29 42 73 43
REMARK SMILES IDX 30 44 31 45 32 46 67 47 33 48 72 49 66 50 68 51 34 52 71 53
REMARK SMILES IDX 65 54 64 55 35 57 57 58 42 59 56 60 43 61 46 62 55 63 69 64
REMARK SMILES IDX 44 65 45 66 54 68 70 69 47 70 36 71 37 72 41 73 38 74 40 75
REMARK SMILES IDX 39 76 58 77 59 78 63 79 60 80 62 81 61 82 48 83 49 84 53 85
REMARK SMILES IDX 50 86 52 87 51 88
REMARK H PARENT 68 56 46 67
REMARK Flexibility Score: inf
ROOT
ATOM      1  C   UNL A   1      34.933  30.911  27.933  1.00  0.00     0.202 C 
ENDROOT
BRANCH   1   2
ATOM      2  C   UNL A   1      33.569  31.075  27.255  1.00  0.00     0.261 C 
BRANCH   2   3
ATOM      3  O   UNL A   1      33.320  29.984  26.337  1.00  0.00    -0.463 OA
BRANCH   3   4
ATOM      4  C   UNL A   1      32.041  29.769  25.947  1.00  0.00     0.306 C 
ATOM      5  O   UNL A   1      31.378  30.557  25.284  1.00  0.00    -0.252 OA
BRANCH   4   6
ATOM      6  C   UNL A   1      31.485  28.417  26.361  1.00  0.00     0.134 C 
BRANCH   6   7
ATOM      7  C   UNL A   1      32.405  27.248  26.700  1.00  0.00     0.090 C 
BRANCH   7   8
ATOM      8  S   UNL A   1      31.672  25.658  26.478  1.00  0.00    -0.087 SA
BRANCH   8   9
ATOM      9  C   UNL A   1      32.538  24.685  25.310  1.00  0.00     0.171 A 
ATOM     10  N   UNL A   1      32.041  23.810  24.337  1.00  0.00    -0.283 N 
ATOM     11  C   UNL A   1      32.962  22.919  23.761  1.00  0.00     0.262 A 
ATOM     12  N   UNL A   1      33.799  24.803  25.589  1.00  0.00    -0.224 NA
ATOM     13  C   UNL A   1      34.262  22.765  24.411  1.00  0.00     0.067 A 
ATOM     14  O   UNL A   1      32.834  22.324  22.695  1.00  0.00    -0.269 OA
ATOM     15  C   UNL A   1      34.692  23.839  25.163  1.00  0.00     0.079 A 
ATOM     16  C   UNL A   1      35.037  21.613  24.283  1.00  0.00     0.036 A 
ATOM     17  C   UNL A   1      35.973  23.830  25.710  1.00  0.00     0.031 A 
ATOM     18  C   UNL A   1      36.268  21.565  24.932  1.00  0.00     0.042 A 
ATOM     19  C   UNL A   1      36.759  22.683  25.609  1.00  0.00     0.023 A 
ATOM     20  Cl  UNL A   1      37.166  20.100  24.951  1.00  0.00    -0.084 Cl
BRANCH  10  21
ATOM     21  C   UNL A   1      30.850  24.057  23.496  1.00  0.00     0.163 C 
BRANCH  21  22
ATOM     22  C   UNL A   1      30.329  25.483  23.295  1.00  0.00    -0.028 A 
ATOM     23  C   UNL A   1      29.542  28.225  23.116  1.00  0.00     0.118 A 
ATOM     24  C   UNL A   1      30.727  27.782  22.540  1.00  0.00     0.047 A 
ATOM     25  C   UNL A   1      28.743  27.300  23.781  1.00  0.00     0.047 A 
ATOM     26  C   UNL A   1      31.123  26.444  22.649  1.00  0.00     0.009 A 
ATOM     27  C   UNL A   1      29.133  25.948  23.866  1.00  0.00     0.009 A 
BRANCH  23  28
ATOM     28  O   UNL A   1      29.300  29.561  22.982  1.00  0.00    -0.497 OA
ATOM     29  C   UNL A   1      29.342  30.102  21.670  1.00  0.00     0.278 C 
ENDBRANCH  23  28
ENDBRANCH  21  22
ENDBRANCH  10  21
ENDBRANCH   8   9
ENDBRANCH   7   8
ENDBRANCH   6   7
ENDBRANCH   4   6
ENDBRANCH   3   4
ENDBRANCH   2   3
ENDBRANCH   1   2
BRANCH   1  30
ATOM     30  O   UNL A   1      35.168  31.903  28.940  1.00  0.00    -0.376 OA
BRANCH  30  31
ATOM     31  C   UNL A   1      34.634  33.184  28.631  1.00  0.00     0.188 C 
BRANCH  31  32
ATOM     32  C   UNL A   1      34.695  34.182  29.783  1.00  0.00     0.188 C 
BRANCH  32  33
ATOM     33  O   UNL A   1      34.140  33.700  31.005  1.00  0.00    -0.376 OA
BRANCH  33  34
ATOM     34  C   UNL A   1      35.020  33.866  32.125  1.00  0.00     0.202 C 
BRANCH  34  35
ATOM     35  C   UNL A   1      34.886  32.725  33.144  1.00  0.00     0.261 C 
BRANCH  35  36
ATOM     36  O   UNL A   1      35.759  31.639  32.781  1.00  0.00    -0.460 OA
BRANCH  36  37
ATOM     37  C   UNL A   1      37.008  31.703  33.312  1.00  0.00     0.338 C 
ATOM     38  O   UNL A   1      37.320  32.039  34.428  1.00  0.00    -0.246 OA
BRANCH  37  39
ATOM     39  C   UNL A   1      37.955  31.109  32.341  1.00  0.00     0.060 A 
ATOM     40  C   UNL A   1      39.015  30.340  32.841  1.00  0.00     0.016 A 
ATOM     41  C   UNL A   1      37.816  31.310  30.968  1.00  0.00     0.016 A 
ATOM     42  C   UNL A   1      39.963  29.794  31.977  1.00  0.00     0.010 A 
ATOM     43  C   UNL A   1      38.776  30.783  30.102  1.00  0.00     0.010 A 
ATOM     44  C   UNL A   1      39.870  30.053  30.605  1.00  0.00    -0.014 A 
BRANCH  44  45
ATOM     45  C   UNL A   1      41.008  29.769  29.701  1.00  0.00     0.031 A 
ATOM     46  C   UNL A   1      41.112  28.387  29.122  1.00  0.00     0.074 A 
ATOM     47  C   UNL A   1      41.953  30.688  29.442  1.00  0.00     0.049 A 
ATOM     48  N   UNL A   1      42.112  27.816  28.506  1.00  0.00    -0.248 NA
ATOM     49  C   UNL A   1      39.923  27.529  29.274  1.00  0.00     0.031 C 
ATOM     50  C   UNL A   1      41.929  32.082  29.882  1.00  0.00     0.029 A 
ATOM     51  N   UNL A   1      43.140  30.566  28.765  1.00  0.00    -0.354 N 
ATOM     52  C   UNL A   1      41.691  26.519  28.235  1.00  0.00     0.074 A 
ATOM     53  C   UNL A   1      40.345  26.389  28.749  1.00  0.00     0.031 C 
ATOM     54  C   UNL A   1      43.068  32.680  29.488  1.00  0.00     0.029 A 
ATOM     55  C   UNL A   1      43.918  31.696  28.820  1.00  0.00     0.049 A 
ATOM     56  H   UNL A   1      43.407  29.748  28.285  1.00  0.00     0.167 HD
ATOM     57  C   UNL A   1      42.372  25.522  27.625  1.00  0.00     0.031 A 
ATOM     58  C   UNL A   1      45.191  31.893  28.423  1.00  0.00     0.031 A 
ATOM     59  C   UNL A   1      43.714  25.654  27.129  1.00  0.00     0.049 A 
ATOM     60  C   UNL A   1      45.958  30.749  27.814  1.00  0.00     0.074 A 
ATOM     61  C   UNL A   1      44.499  24.706  26.497  1.00  0.00     0.029 A 
ATOM     62  N   UNL A   1      44.470  26.813  27.213  1.00  0.00    -0.354 N 
ATOM     63  N   UNL A   1      45.565  29.520  27.580  1.00  0.00    -0.248 NA
ATOM     64  C   UNL A   1      47.350  31.019  27.422  1.00  0.00     0.031 C 
ATOM     65  C   UNL A   1      45.748  25.281  26.238  1.00  0.00     0.029 A 
ATOM     66  C   UNL A   1      45.719  26.601  26.660  1.00  0.00     0.049 A 
ATOM     67  H   UNL A   1      44.163  27.661  27.608  1.00  0.00     0.167 HD
ATOM     68  C   UNL A   1      46.649  28.878  26.993  1.00  0.00     0.074 A 
ATOM     69  C   UNL A   1      47.712  29.857  26.895  1.00  0.00     0.031 C 
ATOM     70  C   UNL A   1      46.758  27.594  26.572  1.00  0.00     0.031 A 
BRANCH  57  71
ATOM     71  C   UNL A   1      41.689  24.188  27.519  1.00  0.00    -0.014 A 
ATOM     72  C   UNL A   1      40.696  23.947  26.557  1.00  0.00     0.009 A 
ATOM     73  C   UNL A   1      42.050  23.155  28.398  1.00  0.00     0.009 A 
ATOM     74  C   UNL A   1      40.054  22.708  26.499  1.00  0.00     0.001 A 
ATOM     75  C   UNL A   1      41.426  21.908  28.320  1.00  0.00     0.001 A 
ATOM     76  C   UNL A   1      40.423  21.690  27.379  1.00  0.00     0.000 A 
ENDBRANCH  57  71
BRANCH  58  77
ATOM     77  C   UNL A   1      45.843  33.212  28.633  1.00  0.00    -0.014 A 
ATOM     78  C   UNL A   1      46.457  33.519  29.856  1.00  0.00     0.009 A 
ATOM     79  C   UNL A   1      45.839  34.180  27.616  1.00  0.00     0.009 A 
ATOM     80  C   UNL A   1      47.038  34.773  30.062  1.00  0.00     0.001 A 
ATOM     81  C   UNL A   1      46.445  35.423  27.815  1.00  0.00     0.001 A 
ATOM     82  C   UNL A   1      47.037  35.721  29.040  1.00  0.00     0.000 A 
ENDBRANCH  58  77
BRANCH  70  83
ATOM     83  C   UNL A   1      48.053  27.191  25.924  1.00  0.00    -0.014 A 
ATOM     84  C   UNL A   1      49.121  26.684  26.681  1.00  0.00     0.009 A 
ATOM     85  C   UNL A   1      48.184  27.276  24.530  1.00  0.00     0.009 A 
ATOM     86  C   UNL A   1      50.307  26.300  26.053  1.00  0.00     0.001 A 
ATOM     87  C   UNL A   1      49.362  26.867  23.903  1.00  0.00     0.001 A 
ATOM     88  C   UNL A   1      50.424  26.387  24.665  1.00  0.00     0.000 A 
ENDBRANCH  70  83
ENDBRANCH  44  45
ENDBRANCH  37  39
ENDBRANCH  36  37
ENDBRANCH  35  36
ENDBRANCH  34  35
ENDBRANCH  33  34
ENDBRANCH  32  33
ENDBRANCH  31  32
ENDBRANCH  30  31
ENDBRANCH   1  30
TORSDOF 23
ENDMDL
MODEL 3
REMARK VINA RESULT:      -9.6      1.027      5.648
REMARK SMILES COc1ccc(Cn2c(SCCC(=O)OCCOCCOCCOC(=O)c3ccc(-c4c5nc(c(-c6ccccc6)c6ccc([nH]6)c(-c6ccccc6)c6nc(c(-c7ccccc7)c7ccc4[nH]7)C=C6)C=C5)cc3)nc3ccc(Cl)cc3c2=O)cc1
REMARK SMILES IDX 17 1 16 2 15 3 13 4 14 5 12 6 11 7 10 8 9 9 8 10 83 11 75 12
REMARK SMILES IDX 82 13 84 14 76 15 81 16 77 17 79 18 78 19 80 20 7 21 6 22
REMARK SMILES IDX 3 23 4 24 86 25 5 26 85 27 2 28 1 29 18 30 19 31 20 32 21 33
REMARK SMILES IDX 22 34 23 35 24 36 25 37 26 38 27 39 28 40 74 41 29 42 73 43
REMARK SMILES IDX 30 44 31 45 32 46 67 47 33 48 72 49 66 50 68 51 34 52 71 53
REMARK SMILES IDX 65 54 64 55 35 57 57 58 42 59 56 60 43 61 46 62 55 63 69 64
REMARK SMILES IDX 44 65 45 66 54 68 70 69 47 70 36 71 37 72 41 73 38 74 40 75
REMARK SMILES IDX 39 76 58 77 59 78 63 79 60 80 62 81 61 82 48 83 49 84 53 85
REMARK SMILES IDX 50 86 52 87 51 88
REMARK H PARENT 68 56 46 67
REMARK Flexibility Score: inf
ROOT
ATOM      1  C   UNL A   1      34.522  30.473  27.936  1.00  0.00     0.202 C 
ENDROOT
BRANCH   1   2
ATOM      2  C   UNL A   1      33.406  30.990  27.023  1.00  0.00     0.261 C 
BRANCH   2   3
ATOM      3  O   UNL A   1      33.162  30.063  25.939  1.00  0.00    -0.463 OA
BRANCH   3   4
ATOM      4  C   UNL A   1      31.878  29.711  25.690  1.00  0.00     0.306 C 
ATOM      5  O   UNL A   1      31.031  30.465  25.225  1.00  0.00    -0.252 OA
BRANCH   4   6
ATOM      6  C   UNL A   1      31.564  28.254  25.989  1.00  0.00     0.134 C 
BRANCH   6   7
ATOM      7  C   UNL A   1      32.586  27.341  26.658  1.00  0.00     0.090 C 
BRANCH   7   8
ATOM      8  S   UNL A   1      32.142  25.633  26.659  1.00  0.00    -0.087 SA
BRANCH   8   9
ATOM      9  C   UNL A   1      32.997  24.724  25.432  1.00  0.00     0.171 A 
ATOM     10  N   UNL A   1      32.491  23.889  24.430  1.00  0.00    -0.283 N 
ATOM     11  C   UNL A   1      33.410  23.035  23.796  1.00  0.00     0.262 A 
ATOM     12  N   UNL A   1      34.261  24.844  25.692  1.00  0.00    -0.224 NA
ATOM     13  C   UNL A   1      34.724  22.867  24.414  1.00  0.00     0.067 A 
ATOM     14  O   UNL A   1      33.269  22.488  22.706  1.00  0.00    -0.269 OA
ATOM     15  C   UNL A   1      35.157  23.911  25.206  1.00  0.00     0.079 A 
ATOM     16  C   UNL A   1      35.509  21.731  24.219  1.00  0.00     0.036 A 
ATOM     17  C   UNL A   1      36.448  23.892  25.728  1.00  0.00     0.031 A 
ATOM     18  C   UNL A   1      36.752  21.669  24.842  1.00  0.00     0.042 A 
ATOM     19  C   UNL A   1      37.244  22.760  25.561  1.00  0.00     0.023 A 
ATOM     20  Cl  UNL A   1      37.666  20.214  24.777  1.00  0.00    -0.084 Cl
BRANCH  10  21
ATOM     21  C   UNL A   1      31.281  24.159  23.623  1.00  0.00     0.163 C 
BRANCH  21  22
ATOM     22  C   UNL A   1      30.812  25.599  23.394  1.00  0.00    -0.028 A 
ATOM     23  C   UNL A   1      29.761  28.183  22.773  1.00  0.00     0.118 A 
ATOM     24  C   UNL A   1      29.037  27.285  23.548  1.00  0.00     0.047 A 
ATOM     25  C   UNL A   1      31.014  27.798  22.309  1.00  0.00     0.047 A 
ATOM     26  C   UNL A   1      29.543  26.010  23.830  1.00  0.00     0.009 A 
ATOM     27  C   UNL A   1      31.531  26.523  22.617  1.00  0.00     0.009 A 
BRANCH  23  28
ATOM     28  O   UNL A   1      29.132  29.370  22.529  1.00  0.00    -0.497 OA
ATOM     29  C   UNL A   1      27.714  29.352  22.457  1.00  0.00     0.278 C 
ENDBRANCH  23  28
ENDBRANCH  21  22
ENDBRANCH  10  21
ENDBRANCH   8   9
ENDBRANCH   7   8
ENDBRANCH   6   7
ENDBRANCH   4   6
ENDBRANCH   3   4
ENDBRANCH   2   3
ENDBRANCH   1   2
BRANCH   1  30
ATOM     30  O   UNL A   1      35.074  31.503  28.766  1.00  0.00    -0.376 OA
BRANCH  30  31
ATOM     31  C   UNL A   1      36.079  32.284  28.133  1.00  0.00     0.188 C 
BRANCH  31  32
ATOM     32  C   UNL A   1      35.928  33.787  28.343  1.00  0.00     0.188 C 
BRANCH  32  33
ATOM     33  O   UNL A   1      34.627  34.291  28.047  1.00  0.00    -0.376 OA
BRANCH  33  34
ATOM     34  C   UNL A   1      34.378  35.577  28.629  1.00  0.00     0.202 C 
BRANCH  34  35
ATOM     35  C   UNL A   1      33.084  35.600  29.457  1.00  0.00     0.261 C 
BRANCH  35  36
ATOM     36  O   UNL A   1      33.090  34.518  30.406  1.00  0.00    -0.460 OA
BRANCH  36  37
ATOM     37  C   UNL A   1      33.099  34.896  31.711  1.00  0.00     0.338 C 
ATOM     38  O   UNL A   1      32.205  35.409  32.337  1.00  0.00    -0.246 OA
BRANCH  37  39
ATOM     39  C   UNL A   1      34.356  34.410  32.325  1.00  0.00     0.060 A 
ATOM     40  C   UNL A   1      35.438  35.298  32.401  1.00  0.00     0.016 A 
ATOM     41  C   UNL A   1      34.476  33.107  32.809  1.00  0.00     0.016 A 
ATOM     42  C   UNL A   1      36.659  34.881  32.928  1.00  0.00     0.010 A 
ATOM     43  C   UNL A   1      35.705  32.682  33.318  1.00  0.00     0.010 A 
ATOM     44  C   UNL A   1      36.809  33.555  33.349  1.00  0.00    -0.014 A 
BRANCH  44  45
ATOM     45  C   UNL A   1      38.152  32.991  33.612  1.00  0.00     0.031 A 
ATOM     46  C   UNL A   1      38.699  32.001  32.625  1.00  0.00     0.074 A 
ATOM     47  C   UNL A   1      38.846  33.302  34.720  1.00  0.00     0.049 A 
ATOM     48  N   UNL A   1      39.723  31.196  32.734  1.00  0.00    -0.248 NA
ATOM     49  C   UNL A   1      37.980  31.898  31.343  1.00  0.00     0.031 C 
ATOM     50  C   UNL A   1      38.459  34.300  35.715  1.00  0.00     0.029 A 
ATOM     51  N   UNL A   1      40.017  32.775  35.205  1.00  0.00    -0.354 N 
ATOM     52  C   UNL A   1      39.746  30.461  31.553  1.00  0.00     0.074 A 
ATOM     53  C   UNL A   1      38.639  30.918  30.743  1.00  0.00     0.031 C 
ATOM     54  C   UNL A   1      39.363  34.292  36.712  1.00  0.00     0.029 A 
ATOM     55  C   UNL A   1      40.356  33.251  36.447  1.00  0.00     0.049 A 
ATOM     56  H   UNL A   1      40.561  32.120  34.709  1.00  0.00     0.167 HD
ATOM     57  C   UNL A   1      40.605  29.483  31.186  1.00  0.00     0.031 A 
ATOM     58  C   UNL A   1      41.327  32.853  37.294  1.00  0.00     0.031 A 
ATOM     59  C   UNL A   1      41.695  29.025  32.003  1.00  0.00     0.049 A 
ATOM     60  C   UNL A   1      42.226  31.712  36.898  1.00  0.00     0.074 A 
ATOM     61  C   UNL A   1      42.624  28.038  31.729  1.00  0.00     0.029 A 
ATOM     62  N   UNL A   1      41.998  29.527  33.258  1.00  0.00    -0.354 N 
ATOM     63  N   UNL A   1      42.230  31.005  35.793  1.00  0.00    -0.248 NA
ATOM     64  C   UNL A   1      43.251  31.307  37.873  1.00  0.00     0.031 C 
ATOM     65  C   UNL A   1      43.465  27.913  32.841  1.00  0.00     0.029 A 
ATOM     66  C   UNL A   1      43.091  28.860  33.781  1.00  0.00     0.049 A 
ATOM     67  H   UNL A   1      41.508  30.252  33.711  1.00  0.00     0.167 HD
ATOM     68  C   UNL A   1      43.269  30.091  35.929  1.00  0.00     0.074 A 
ATOM     69  C   UNL A   1      43.880  30.341  37.218  1.00  0.00     0.031 C 
ATOM     70  C   UNL A   1      43.682  29.131  35.065  1.00  0.00     0.031 A 
BRANCH  57  71
ATOM     71  C   UNL A   1      40.355  28.809  29.867  1.00  0.00    -0.014 A 
ATOM     72  C   UNL A   1      40.942  29.277  28.681  1.00  0.00     0.009 A 
ATOM     73  C   UNL A   1      39.519  27.683  29.813  1.00  0.00     0.009 A 
ATOM     74  C   UNL A   1      40.669  28.651  27.463  1.00  0.00     0.001 A 
ATOM     75  C   UNL A   1      39.269  27.043  28.598  1.00  0.00     0.001 A 
ATOM     76  C   UNL A   1      39.836  27.533  27.424  1.00  0.00     0.000 A 
ENDBRANCH  57  71
BRANCH  58  77
ATOM     77  C   UNL A   1      41.470  33.502  38.623  1.00  0.00    -0.014 A 
ATOM     78  C   UNL A   1      42.283  34.634  38.781  1.00  0.00     0.009 A 
ATOM     79  C   UNL A   1      40.808  32.981  39.746  1.00  0.00     0.009 A 
ATOM     80  C   UNL A   1      42.443  35.221  40.040  1.00  0.00     0.001 A 
ATOM     81  C   UNL A   1      40.948  33.586  40.997  1.00  0.00     0.001 A 
ATOM     82  C   UNL A   1      41.772  34.700  41.145  1.00  0.00     0.000 A 
ENDBRANCH  58  77
BRANCH  70  83
ATOM     83  C   UNL A   1      44.878  28.314  35.467  1.00  0.00    -0.014 A 
ATOM     84  C   UNL A   1      46.171  28.655  35.040  1.00  0.00     0.009 A 
ATOM     85  C   UNL A   1      44.709  27.216  36.324  1.00  0.00     0.009 A 
ATOM     86  C   UNL A   1      47.268  27.890  35.442  1.00  0.00     0.001 A 
ATOM     87  C   UNL A   1      45.810  26.469  36.744  1.00  0.00     0.001 A 
ATOM     88  C   UNL A   1      47.087  26.802  36.296  1.00  0.00     0.000 A 
ENDBRANCH  70  83
ENDBRANCH  44  45
ENDBRANCH  37  39
ENDBRANCH  36  37
ENDBRANCH  35  36
ENDBRANCH  34  35
ENDBRANCH  33  34
ENDBRANCH  32  33
ENDBRANCH  31  32
ENDBRANCH  30  31
ENDBRANCH   1  30
TORSDOF 23
ENDMDL
