MODEL 1
REMARK VINA RESULT:     -10.0      0.000      0.000
REMARK SMILES O=C(C[C@H]1C[C@H]2CC[C@@H](C1)[N@H+]2C[C@@H]1CNC(=O)O1)OCCOCCOCCOC(=O)c1ccc(-c2c3nc(c(-c4ccccc4)c4ccc([nH]4)c(-c4ccccc4)c4nc(c(-c5ccccc5)c5ccc2[nH]5)C=C4)C=C3)cc1
REMARK SMILES IDX 23 1 22 2 21 3 20 4 19 5 2 6 1 7 3 8 4 9 5 10 10 11 6 12
REMARK SMILES IDX 9 13 7 14 11 15 8 16 12 18 13 19 14 20 18 21 15 22 16 23
REMARK SMILES IDX 17 25 24 26 25 27 26 28 27 29 28 30 29 31 30 32 31 33 32 34
REMARK SMILES IDX 78 35 33 36 77 37 34 38 35 39 36 40 71 41 37 42 76 43 70 44
REMARK SMILES IDX 72 45 38 46 75 47 69 48 68 49 39 51 61 52 46 53 60 54 47 55
REMARK SMILES IDX 50 56 59 57 73 58 48 59 49 60 58 62 74 63 51 64 40 65 41 66
REMARK SMILES IDX 45 67 42 68 44 69 43 70 62 71 63 72 67 73 64 74 66 75 65 76
REMARK SMILES IDX 52 77 53 78 57 79 54 80 56 81 55 82
REMARK H PARENT 11 17 15 24 72 50 50 61
REMARK Flexibility Score: inf
ROOT
ATOM      1  C   UNL A   1      40.937  22.235  26.334  1.00  0.00     0.188 C 
ENDROOT
BRANCH   1   2
ATOM      2  O   UNL A   1      39.670  21.962  26.893  1.00  0.00    -0.376 OA
BRANCH   2   3
ATOM      3  C   UNL A   1      38.600  22.148  25.986  1.00  0.00     0.202 C 
BRANCH   3   4
ATOM      4  C   UNL A   1      37.881  23.519  26.026  1.00  0.00     0.261 C 
BRANCH   4   5
ATOM      5  O   UNL A   1      36.785  23.904  25.077  1.00  0.00    -0.463 OA
BRANCH   5   6
ATOM      6  C   UNL A   1      35.494  24.125  24.780  1.00  0.00     0.306 C 
ATOM      7  O   UNL A   1      34.922  25.039  25.384  1.00  0.00    -0.252 OA
BRANCH   6   8
ATOM      8  C   UNL A   1      34.635  23.272  23.862  1.00  0.00     0.126 C 
BRANCH   8   9
ATOM      9  C   UNL A   1      34.362  21.787  24.128  1.00  0.00     0.012 C 
ATOM     10  C   UNL A   1      34.837  21.267  25.502  1.00  0.00     0.069 C 
ATOM     11  C   UNL A   1      32.927  21.403  23.831  1.00  0.00     0.069 C 
ATOM     12  C   UNL A   1      33.691  21.006  26.486  1.00  0.00     0.184 C 
ATOM     13  C   UNL A   1      31.962  21.240  24.981  1.00  0.00     0.184 C 
ATOM     14  C   UNL A   1      33.047  22.370  26.824  1.00  0.00     0.071 C 
ATOM     15  N   UNL A   1      32.569  20.292  25.886  1.00  0.00    -0.327 N 
ATOM     16  C   UNL A   1      31.833  22.455  25.901  1.00  0.00     0.071 C 
ATOM     17  H   UNL A   1      32.011  19.983  26.681  1.00  0.00     0.348 HD
BRANCH  15  18
ATOM     18  C   UNL A   1      32.525  18.874  25.538  1.00  0.00     0.310 C 
BRANCH  18  19
ATOM     19  C   UNL A   1      33.645  17.812  25.262  1.00  0.00     0.252 C 
ATOM     20  C   UNL A   1      33.972  17.443  23.834  1.00  0.00     0.170 C 
ATOM     21  O   UNL A   1      33.518  16.553  25.953  1.00  0.00    -0.438 OA
ATOM     22  N   UNL A   1      33.683  16.052  23.781  1.00  0.00    -0.318 N 
ATOM     23  C   UNL A   1      33.512  15.545  25.029  1.00  0.00     0.407 C 
ATOM     24  H   UNL A   1      33.616  15.527  22.951  1.00  0.00     0.167 HD
ATOM     25  O   UNL A   1      33.318  14.361  25.285  1.00  0.00    -0.225 OA
ENDBRANCH  18  19
ENDBRANCH  15  18
ENDBRANCH   8   9
ENDBRANCH   6   8
ENDBRANCH   5   6
ENDBRANCH   4   5
ENDBRANCH   3   4
ENDBRANCH   2   3
ENDBRANCH   1   2
BRANCH   1  26
ATOM     26  C   UNL A   1      41.971  21.107  26.538  1.00  0.00     0.188 C 
BRANCH  26  27
ATOM     27  O   UNL A   1      42.034  20.044  25.602  1.00  0.00    -0.376 OA
BRANCH  27  28
ATOM     28  C   UNL A   1      42.617  18.817  26.015  1.00  0.00     0.202 C 
BRANCH  28  29
ATOM     29  C   UNL A   1      43.976  18.375  25.431  1.00  0.00     0.261 C 
BRANCH  29  30
ATOM     30  O   UNL A   1      44.418  19.022  24.218  1.00  0.00    -0.460 OA
BRANCH  30  31
ATOM     31  C   UNL A   1      45.573  19.739  24.293  1.00  0.00     0.338 C 
ATOM     32  O   UNL A   1      46.670  19.397  23.887  1.00  0.00    -0.246 OA
BRANCH  31  33
ATOM     33  C   UNL A   1      45.287  21.125  24.754  1.00  0.00     0.060 A 
ATOM     34  C   UNL A   1      44.785  22.072  23.842  1.00  0.00     0.016 A 
ATOM     35  C   UNL A   1      45.546  21.505  26.069  1.00  0.00     0.016 A 
ATOM     36  C   UNL A   1      44.559  23.397  24.234  1.00  0.00     0.010 A 
ATOM     37  C   UNL A   1      45.364  22.842  26.447  1.00  0.00     0.010 A 
ATOM     38  C   UNL A   1      44.896  23.802  25.528  1.00  0.00    -0.014 A 
BRANCH  38  39
ATOM     39  C   UNL A   1      44.959  25.244  25.885  1.00  0.00     0.031 A 
ATOM     40  C   UNL A   1      46.307  25.915  25.903  1.00  0.00     0.074 A 
ATOM     41  C   UNL A   1      43.862  25.941  26.237  1.00  0.00     0.049 A 
ATOM     42  N   UNL A   1      46.643  27.093  26.363  1.00  0.00    -0.248 NA
ATOM     43  C   UNL A   1      47.427  25.148  25.332  1.00  0.00     0.031 C 
ATOM     44  C   UNL A   1      42.489  25.442  26.203  1.00  0.00     0.029 A 
ATOM     45  N   UNL A   1      43.744  27.220  26.729  1.00  0.00    -0.354 N 
ATOM     46  C   UNL A   1      48.016  27.193  26.172  1.00  0.00     0.074 A 
ATOM     47  C   UNL A   1      48.451  25.961  25.552  1.00  0.00     0.031 C 
ATOM     48  C   UNL A   1      41.670  26.391  26.694  1.00  0.00     0.029 A 
ATOM     49  C   UNL A   1      42.466  27.540  27.125  1.00  0.00     0.049 A 
ATOM     50  H   UNL A   1      44.501  27.846  26.793  1.00  0.00     0.167 HD
ATOM     51  C   UNL A   1      48.843  28.214  26.497  1.00  0.00     0.031 A 
ATOM     52  C   UNL A   1      42.003  28.609  27.805  1.00  0.00     0.031 A 
ATOM     53  C   UNL A   1      48.414  29.441  27.112  1.00  0.00     0.049 A 
ATOM     54  C   UNL A   1      42.961  29.693  28.238  1.00  0.00     0.074 A 
ATOM     55  C   UNL A   1      49.176  30.550  27.436  1.00  0.00     0.029 A 
ATOM     56  N   UNL A   1      47.116  29.715  27.509  1.00  0.00    -0.354 N 
ATOM     57  N   UNL A   1      44.249  29.798  28.014  1.00  0.00    -0.248 NA
ATOM     58  C   UNL A   1      42.401  30.805  29.024  1.00  0.00     0.031 C 
ATOM     59  C   UNL A   1      48.354  31.464  28.103  1.00  0.00     0.029 A 
ATOM     60  C   UNL A   1      47.067  30.954  28.124  1.00  0.00     0.049 A 
ATOM     61  H   UNL A   1      46.344  29.118  27.375  1.00  0.00     0.167 HD
ATOM     62  C   UNL A   1      44.643  30.993  28.610  1.00  0.00     0.074 A 
ATOM     63  C   UNL A   1      43.456  31.590  29.181  1.00  0.00     0.031 C 
ATOM     64  C   UNL A   1      45.879  31.544  28.682  1.00  0.00     0.031 A 
BRANCH  51  65
ATOM     65  C   UNL A   1      50.314  28.042  26.246  1.00  0.00    -0.014 A 
ATOM     66  C   UNL A   1      51.176  27.542  27.233  1.00  0.00     0.009 A 
ATOM     67  C   UNL A   1      50.825  28.301  24.963  1.00  0.00     0.009 A 
ATOM     68  C   UNL A   1      52.524  27.317  26.942  1.00  0.00     0.001 A 
ATOM     69  C   UNL A   1      52.165  28.049  24.668  1.00  0.00     0.001 A 
ATOM     70  C   UNL A   1      53.014  27.561  25.659  1.00  0.00     0.000 A 
ENDBRANCH  51  65
BRANCH  52  71
ATOM     71  C   UNL A   1      40.568  28.689  28.204  1.00  0.00    -0.014 A 
ATOM     72  C   UNL A   1      39.628  29.344  27.393  1.00  0.00     0.009 A 
ATOM     73  C   UNL A   1      40.147  28.174  29.441  1.00  0.00     0.009 A 
ATOM     74  C   UNL A   1      38.312  29.520  27.830  1.00  0.00     0.001 A 
ATOM     75  C   UNL A   1      38.822  28.316  29.860  1.00  0.00     0.001 A 
ATOM     76  C   UNL A   1      37.909  29.003  29.060  1.00  0.00     0.000 A 
ENDBRANCH  52  71
BRANCH  64  77
ATOM     77  C   UNL A   1      46.015  32.873  29.373  1.00  0.00    -0.014 A 
ATOM     78  C   UNL A   1      45.839  34.079  28.678  1.00  0.00     0.009 A 
ATOM     79  C   UNL A   1      46.256  32.917  30.756  1.00  0.00     0.009 A 
ATOM     80  C   UNL A   1      45.930  35.302  29.347  1.00  0.00     0.001 A 
ATOM     81  C   UNL A   1      46.314  34.139  31.429  1.00  0.00     0.001 A 
ATOM     82  C   UNL A   1      46.160  35.331  30.723  1.00  0.00     0.000 A 
ENDBRANCH  64  77
ENDBRANCH  38  39
ENDBRANCH  31  33
ENDBRANCH  30  31
ENDBRANCH  29  30
ENDBRANCH  28  29
ENDBRANCH  27  28
ENDBRANCH  26  27
ENDBRANCH   1  26
TORSDOF 20
ENDMDL
MODEL 2
REMARK VINA RESULT:      -9.9      4.231      6.355
REMARK SMILES O=C(C[C@H]1C[C@H]2CC[C@@H](C1)[N@H+]2C[C@@H]1CNC(=O)O1)OCCOCCOCCOC(=O)c1ccc(-c2c3nc(c(-c4ccccc4)c4ccc([nH]4)c(-c4ccccc4)c4nc(c(-c5ccccc5)c5ccc2[nH]5)C=C4)C=C3)cc1
REMARK SMILES IDX 23 1 22 2 21 3 20 4 19 5 2 6 1 7 3 8 4 9 5 10 10 11 6 12
REMARK SMILES IDX 9 13 7 14 11 15 8 16 12 18 13 19 14 20 18 21 15 22 16 23
REMARK SMILES IDX 17 25 24 26 25 27 26 28 27 29 28 30 29 31 30 32 31 33 32 34
REMARK SMILES IDX 78 35 33 36 77 37 34 38 35 39 36 40 71 41 37 42 76 43 70 44
REMARK SMILES IDX 72 45 38 46 75 47 69 48 68 49 39 51 61 52 46 53 60 54 47 55
REMARK SMILES IDX 50 56 59 57 73 58 48 59 49 60 58 62 74 63 51 64 40 65 41 66
REMARK SMILES IDX 45 67 42 68 44 69 43 70 62 71 63 72 67 73 64 74 66 75 65 76
REMARK SMILES IDX 52 77 53 78 57 79 54 80 56 81 55 82
REMARK H PARENT 11 17 15 24 72 50 50 61
REMARK Flexibility Score: inf
ROOT
ATOM      1  C   UNL A   1      42.627  19.663  26.030  1.00  0.00     0.188 C 
ENDROOT
BRANCH   1   2
ATOM      2  O   UNL A   1      41.454  18.879  26.085  1.00  0.00    -0.376 OA
BRANCH   2   3
ATOM      3  C   UNL A   1      40.262  19.642  26.069  1.00  0.00     0.202 C 
BRANCH   3   4
ATOM      4  C   UNL A   1      40.412  21.177  26.209  1.00  0.00     0.261 C 
BRANCH   4   5
ATOM      5  O   UNL A   1      39.270  22.090  26.541  1.00  0.00    -0.463 OA
BRANCH   5   6
ATOM      6  C   UNL A   1      38.599  23.247  26.415  1.00  0.00     0.306 C 
ATOM      7  O   UNL A   1      38.959  24.192  27.124  1.00  0.00    -0.252 OA
BRANCH   6   8
ATOM      8  C   UNL A   1      37.353  23.462  25.572  1.00  0.00     0.126 C 
BRANCH   8   9
ATOM      9  C   UNL A   1      36.166  22.493  25.586  1.00  0.00     0.012 C 
ATOM     10  C   UNL A   1      35.066  22.814  26.621  1.00  0.00     0.069 C 
ATOM     11  C   UNL A   1      35.602  22.251  24.201  1.00  0.00     0.069 C 
ATOM     12  C   UNL A   1      33.786  23.380  25.995  1.00  0.00     0.184 C 
ATOM     13  C   UNL A   1      34.332  22.961  23.797  1.00  0.00     0.184 C 
ATOM     14  C   UNL A   1      34.130  24.763  25.397  1.00  0.00     0.071 C 
ATOM     15  N   UNL A   1      33.353  22.646  24.810  1.00  0.00    -0.327 N 
ATOM     16  C   UNL A   1      34.372  24.486  23.915  1.00  0.00     0.071 C 
ATOM     17  H   UNL A   1      32.398  22.965  24.650  1.00  0.00     0.348 HD
BRANCH  15  18
ATOM     18  C   UNL A   1      32.725  21.328  24.782  1.00  0.00     0.310 C 
BRANCH  18  19
ATOM     19  C   UNL A   1      33.240  19.913  24.347  1.00  0.00     0.252 C 
ATOM     20  C   UNL A   1      32.481  19.149  23.288  1.00  0.00     0.170 C 
ATOM     21  O   UNL A   1      33.466  18.959  25.404  1.00  0.00    -0.438 OA
ATOM     22  N   UNL A   1      32.075  17.967  23.964  1.00  0.00    -0.318 N 
ATOM     23  C   UNL A   1      32.727  17.838  25.148  1.00  0.00     0.407 C 
ATOM     24  H   UNL A   1      31.410  17.328  23.620  1.00  0.00     0.167 HD
ATOM     25  O   UNL A   1      32.621  16.880  25.907  1.00  0.00    -0.225 OA
ENDBRANCH  18  19
ENDBRANCH  15  18
ENDBRANCH   8   9
ENDBRANCH   6   8
ENDBRANCH   5   6
ENDBRANCH   4   5
ENDBRANCH   3   4
ENDBRANCH   2   3
ENDBRANCH   1   2
BRANCH   1  26
ATOM     26  C   UNL A   1      43.759  19.043  25.184  1.00  0.00     0.188 C 
BRANCH  26  27
ATOM     27  O   UNL A   1      44.493  19.867  24.295  1.00  0.00    -0.376 OA
BRANCH  27  28
ATOM     28  C   UNL A   1      45.217  20.963  24.835  1.00  0.00     0.202 C 
BRANCH  28  29
ATOM     29  C   UNL A   1      45.318  22.285  24.043  1.00  0.00     0.261 C 
BRANCH  29  30
ATOM     30  O   UNL A   1      44.874  23.489  24.705  1.00  0.00    -0.460 OA
BRANCH  30  31
ATOM     31  C   UNL A   1      43.557  23.553  25.040  1.00  0.00     0.338 C 
ATOM     32  O   UNL A   1      42.658  22.856  24.600  1.00  0.00    -0.246 OA
BRANCH  31  33
ATOM     33  C   UNL A   1      43.367  24.464  26.202  1.00  0.00     0.060 A 
ATOM     34  C   UNL A   1      42.551  24.061  27.276  1.00  0.00     0.016 A 
ATOM     35  C   UNL A   1      43.958  25.725  26.222  1.00  0.00     0.016 A 
ATOM     36  C   UNL A   1      42.310  24.918  28.356  1.00  0.00     0.010 A 
ATOM     37  C   UNL A   1      43.679  26.599  27.281  1.00  0.00     0.010 A 
ATOM     38  C   UNL A   1      42.833  26.214  28.340  1.00  0.00    -0.014 A 
BRANCH  38  39
ATOM     39  C   UNL A   1      42.357  27.242  29.303  1.00  0.00     0.031 A 
ATOM     40  C   UNL A   1      43.055  27.347  30.634  1.00  0.00     0.074 A 
ATOM     41  C   UNL A   1      41.302  28.034  29.040  1.00  0.00     0.049 A 
ATOM     42  N   UNL A   1      42.711  28.017  31.703  1.00  0.00    -0.248 NA
ATOM     43  C   UNL A   1      44.307  26.584  30.778  1.00  0.00     0.031 C 
ATOM     44  C   UNL A   1      40.573  28.089  27.774  1.00  0.00     0.029 A 
ATOM     45  N   UNL A   1      40.639  28.928  29.849  1.00  0.00    -0.354 N 
ATOM     46  C   UNL A   1      43.679  27.728  32.657  1.00  0.00     0.074 A 
ATOM     47  C   UNL A   1      44.627  26.826  32.042  1.00  0.00     0.031 C 
ATOM     48  C   UNL A   1      39.538  28.939  27.906  1.00  0.00     0.029 A 
ATOM     49  C   UNL A   1      39.501  29.446  29.277  1.00  0.00     0.049 A 
ATOM     50  H   UNL A   1      40.949  29.171  30.752  1.00  0.00     0.167 HD
ATOM     51  C   UNL A   1      43.764  28.165  33.935  1.00  0.00     0.031 A 
ATOM     52  C   UNL A   1      38.516  30.195  29.814  1.00  0.00     0.031 A 
ATOM     53  C   UNL A   1      42.824  29.064  34.549  1.00  0.00     0.049 A 
ATOM     54  C   UNL A   1      38.586  30.593  31.269  1.00  0.00     0.074 A 
ATOM     55  C   UNL A   1      42.856  29.595  35.827  1.00  0.00     0.029 A 
ATOM     56  N   UNL A   1      41.681  29.550  33.940  1.00  0.00    -0.354 N 
ATOM     57  N   UNL A   1      39.527  30.351  32.150  1.00  0.00    -0.248 NA
ATOM     58  C   UNL A   1      37.453  31.364  31.807  1.00  0.00     0.031 C 
ATOM     59  C   UNL A   1      41.689  30.340  36.018  1.00  0.00     0.029 A 
ATOM     60  C   UNL A   1      40.971  30.332  34.834  1.00  0.00     0.049 A 
ATOM     61  H   UNL A   1      41.412  29.366  33.010  1.00  0.00     0.167 HD
ATOM     62  C   UNL A   1      39.110  30.958  33.330  1.00  0.00     0.074 A 
ATOM     63  C   UNL A   1      37.846  31.601  33.050  1.00  0.00     0.031 C 
ATOM     64  C   UNL A   1      39.717  30.976  34.542  1.00  0.00     0.031 A 
BRANCH  51  65
ATOM     65  C   UNL A   1      44.884  27.642  34.790  1.00  0.00    -0.014 A 
ATOM     66  C   UNL A   1      46.061  28.376  34.992  1.00  0.00     0.009 A 
ATOM     67  C   UNL A   1      44.711  26.429  35.478  1.00  0.00     0.009 A 
ATOM     68  C   UNL A   1      47.049  27.898  35.857  1.00  0.00     0.001 A 
ATOM     69  C   UNL A   1      45.686  25.969  36.363  1.00  0.00     0.001 A 
ATOM     70  C   UNL A   1      46.856  26.703  36.548  1.00  0.00     0.000 A 
ENDBRANCH  51  65
BRANCH  52  71
ATOM     71  C   UNL A   1      37.319  30.565  29.005  1.00  0.00    -0.014 A 
ATOM     72  C   UNL A   1      37.096  31.893  28.609  1.00  0.00     0.009 A 
ATOM     73  C   UNL A   1      36.351  29.597  28.690  1.00  0.00     0.009 A 
ATOM     74  C   UNL A   1      35.913  32.250  27.956  1.00  0.00     0.001 A 
ATOM     75  C   UNL A   1      35.186  29.949  28.003  1.00  0.00     0.001 A 
ATOM     76  C   UNL A   1      34.961  31.279  27.650  1.00  0.00     0.000 A 
ENDBRANCH  52  71
BRANCH  64  77
ATOM     77  C   UNL A   1      39.046  31.739  35.651  1.00  0.00    -0.014 A 
ATOM     78  C   UNL A   1      39.176  33.132  35.763  1.00  0.00     0.009 A 
ATOM     79  C   UNL A   1      38.216  31.060  36.559  1.00  0.00     0.009 A 
ATOM     80  C   UNL A   1      38.513  33.825  36.776  1.00  0.00     0.001 A 
ATOM     81  C   UNL A   1      37.528  31.761  37.552  1.00  0.00     0.001 A 
ATOM     82  C   UNL A   1      37.683  33.141  37.666  1.00  0.00     0.000 A 
ENDBRANCH  64  77
ENDBRANCH  38  39
ENDBRANCH  31  33
ENDBRANCH  30  31
ENDBRANCH  29  30
ENDBRANCH  28  29
ENDBRANCH  27  28
ENDBRANCH  26  27
ENDBRANCH   1  26
TORSDOF 20
ENDMDL
MODEL 3
REMARK VINA RESULT:      -9.8      4.301      7.003
REMARK SMILES O=C(C[C@H]1C[C@H]2CC[C@@H](C1)[N@H+]2C[C@@H]1CNC(=O)O1)OCCOCCOCCOC(=O)c1ccc(-c2c3nc(c(-c4ccccc4)c4ccc([nH]4)c(-c4ccccc4)c4nc(c(-c5ccccc5)c5ccc2[nH]5)C=C4)C=C3)cc1
REMARK SMILES IDX 23 1 22 2 21 3 20 4 19 5 2 6 1 7 3 8 4 9 5 10 10 11 6 12
REMARK SMILES IDX 9 13 7 14 11 15 8 16 12 18 13 19 14 20 18 21 15 22 16 23
REMARK SMILES IDX 17 25 24 26 25 27 26 28 27 29 28 30 29 31 30 32 31 33 32 34
REMARK SMILES IDX 78 35 33 36 77 37 34 38 35 39 36 40 71 41 37 42 76 43 70 44
REMARK SMILES IDX 72 45 38 46 75 47 69 48 68 49 39 51 61 52 46 53 60 54 47 55
REMARK SMILES IDX 50 56 59 57 73 58 48 59 49 60 58 62 74 63 51 64 40 65 41 66
REMARK SMILES IDX 45 67 42 68 44 69 43 70 62 71 63 72 67 73 64 74 66 75 65 76
REMARK SMILES IDX 52 77 53 78 57 79 54 80 56 81 55 82
REMARK H PARENT 11 17 15 24 72 50 50 61
REMARK Flexibility Score: inf
ROOT
ATOM      1  C   UNL A   1      43.673  18.401  25.903  1.00  0.00     0.188 C 
ENDROOT
BRANCH   1   2
ATOM      2  O   UNL A   1      42.277  18.221  25.797  1.00  0.00    -0.376 OA
BRANCH   2   3
ATOM      3  C   UNL A   1      41.527  19.143  26.565  1.00  0.00     0.202 C 
BRANCH   3   4
ATOM      4  C   UNL A   1      40.295  19.784  25.882  1.00  0.00     0.261 C 
BRANCH   4   5
ATOM      5  O   UNL A   1      39.810  21.170  26.187  1.00  0.00    -0.463 OA
BRANCH   5   6
ATOM      6  C   UNL A   1      38.916  22.166  26.079  1.00  0.00     0.306 C 
ATOM      7  O   UNL A   1      39.163  23.217  26.681  1.00  0.00    -0.252 OA
BRANCH   6   8
ATOM      8  C   UNL A   1      37.566  22.077  25.388  1.00  0.00     0.126 C 
BRANCH   8   9
ATOM      9  C   UNL A   1      36.851  23.302  24.807  1.00  0.00     0.012 C 
ATOM     10  C   UNL A   1      36.129  23.066  23.463  1.00  0.00     0.069 C 
ATOM     11  C   UNL A   1      35.964  23.988  25.826  1.00  0.00     0.069 C 
ATOM     12  C   UNL A   1      34.602  23.020  23.590  1.00  0.00     0.184 C 
ATOM     13  C   UNL A   1      34.472  23.754  25.769  1.00  0.00     0.184 C 
ATOM     14  C   UNL A   1      34.239  21.764  24.415  1.00  0.00     0.071 C 
ATOM     15  N   UNL A   1      34.062  24.088  24.426  1.00  0.00    -0.327 N 
ATOM     16  C   UNL A   1      34.039  22.289  25.835  1.00  0.00     0.071 C 
ATOM     17  H   UNL A   1      33.062  24.082  24.229  1.00  0.00     0.348 HD
BRANCH  15  18
ATOM     18  C   UNL A   1      33.940  25.498  24.067  1.00  0.00     0.310 C 
BRANCH  18  19
ATOM     19  C   UNL A   1      33.149  26.243  22.937  1.00  0.00     0.252 C 
ATOM     20  C   UNL A   1      31.685  25.930  22.737  1.00  0.00     0.170 C 
ATOM     21  O   UNL A   1      33.723  26.198  21.615  1.00  0.00    -0.438 OA
ATOM     22  N   UNL A   1      31.635  25.430  21.408  1.00  0.00    -0.318 N 
ATOM     23  C   UNL A   1      32.799  25.677  20.753  1.00  0.00     0.407 C 
ATOM     24  H   UNL A   1      30.861  24.966  21.014  1.00  0.00     0.167 HD
ATOM     25  O   UNL A   1      33.011  25.416  19.573  1.00  0.00    -0.225 OA
ENDBRANCH  18  19
ENDBRANCH  15  18
ENDBRANCH   8   9
ENDBRANCH   6   8
ENDBRANCH   5   6
ENDBRANCH   4   5
ENDBRANCH   3   4
ENDBRANCH   2   3
ENDBRANCH   1   2
BRANCH   1  26
ATOM     26  C   UNL A   1      44.263  19.377  24.864  1.00  0.00     0.188 C 
BRANCH  26  27
ATOM     27  O   UNL A   1      43.938  20.755  24.941  1.00  0.00    -0.376 OA
BRANCH  27  28
ATOM     28  C   UNL A   1      44.729  21.676  24.203  1.00  0.00     0.202 C 
BRANCH  28  29
ATOM     29  C   UNL A   1      44.313  23.160  24.125  1.00  0.00     0.261 C 
BRANCH  29  30
ATOM     30  O   UNL A   1      45.244  24.137  24.638  1.00  0.00    -0.460 OA
BRANCH  30  31
ATOM     31  C   UNL A   1      45.515  24.084  25.971  1.00  0.00     0.338 C 
ATOM     32  O   UNL A   1      46.424  23.474  26.507  1.00  0.00    -0.246 OA
BRANCH  31  33
ATOM     33  C   UNL A   1      44.668  25.064  26.706  1.00  0.00     0.060 A 
ATOM     34  C   UNL A   1      44.844  26.442  26.481  1.00  0.00     0.016 A 
ATOM     35  C   UNL A   1      43.728  24.633  27.640  1.00  0.00     0.016 A 
ATOM     36  C   UNL A   1      44.101  27.388  27.197  1.00  0.00     0.010 A 
ATOM     37  C   UNL A   1      43.018  25.581  28.389  1.00  0.00     0.010 A 
ATOM     38  C   UNL A   1      43.218  26.962  28.194  1.00  0.00    -0.014 A 
BRANCH  38  39
ATOM     39  C   UNL A   1      42.647  27.926  29.171  1.00  0.00     0.031 A 
ATOM     40  C   UNL A   1      43.378  28.140  30.470  1.00  0.00     0.074 A 
ATOM     41  C   UNL A   1      41.483  28.564  28.947  1.00  0.00     0.049 A 
ATOM     42  N   UNL A   1      42.989  28.770  31.549  1.00  0.00    -0.248 NA
ATOM     43  C   UNL A   1      44.727  27.557  30.566  1.00  0.00     0.031 C 
ATOM     44  C   UNL A   1      40.702  28.504  27.713  1.00  0.00     0.029 A 
ATOM     45  N   UNL A   1      40.737  29.368  29.779  1.00  0.00    -0.354 N 
ATOM     46  C   UNL A   1      44.026  28.627  32.462  1.00  0.00     0.074 A 
ATOM     47  C   UNL A   1      45.062  27.855  31.813  1.00  0.00     0.031 C 
ATOM     48  C   UNL A   1      39.566  29.207  27.884  1.00  0.00     0.029 A 
ATOM     49  C   UNL A   1      39.517  29.719  29.253  1.00  0.00     0.049 A 
ATOM     50  H   UNL A   1      41.048  29.661  30.666  1.00  0.00     0.167 HD
ATOM     51  C   UNL A   1      44.103  29.085  33.733  1.00  0.00     0.031 A 
ATOM     52  C   UNL A   1      38.461  30.334  29.826  1.00  0.00     0.031 A 
ATOM     53  C   UNL A   1      43.075  29.854  34.382  1.00  0.00     0.049 A 
ATOM     54  C   UNL A   1      38.537  30.754  31.275  1.00  0.00     0.074 A 
ATOM     55  C   UNL A   1      43.086  30.399  35.654  1.00  0.00     0.029 A 
ATOM     56  N   UNL A   1      41.851  30.173  33.818  1.00  0.00    -0.354 N 
ATOM     57  N   UNL A   1      39.537  30.652  32.116  1.00  0.00    -0.248 NA
ATOM     58  C   UNL A   1      37.331  31.369  31.855  1.00  0.00     0.031 C 
ATOM     59  C   UNL A   1      41.836  30.980  35.890  1.00  0.00     0.029 A 
ATOM     60  C   UNL A   1      41.079  30.862  34.737  1.00  0.00     0.049 A 
ATOM     61  H   UNL A   1      41.572  29.944  32.902  1.00  0.00     0.167 HD
ATOM     62  C   UNL A   1      39.089  31.210  33.310  1.00  0.00     0.074 A 
ATOM     63  C   UNL A   1      37.739  31.672  33.079  1.00  0.00     0.031 C 
ATOM     64  C   UNL A   1      39.737  31.324  34.495  1.00  0.00     0.031 A 
BRANCH  51  65
ATOM     65  C   UNL A   1      45.317  28.729  34.543  1.00  0.00    -0.014 A 
ATOM     66  C   UNL A   1      46.438  29.570  34.599  1.00  0.00     0.009 A 
ATOM     67  C   UNL A   1      45.295  27.571  35.338  1.00  0.00     0.009 A 
ATOM     68  C   UNL A   1      47.518  29.250  35.424  1.00  0.00     0.001 A 
ATOM     69  C   UNL A   1      46.363  27.269  36.183  1.00  0.00     0.001 A 
ATOM     70  C   UNL A   1      47.476  28.107  36.222  1.00  0.00     0.000 A 
ENDBRANCH  51  65
BRANCH  52  71
ATOM     71  C   UNL A   1      37.193  30.527  29.066  1.00  0.00    -0.014 A 
ATOM     72  C   UNL A   1      36.339  29.445  28.799  1.00  0.00     0.009 A 
ATOM     73  C   UNL A   1      36.868  31.788  28.539  1.00  0.00     0.009 A 
ATOM     74  C   UNL A   1      35.215  29.612  27.985  1.00  0.00     0.001 A 
ATOM     75  C   UNL A   1      35.723  31.961  27.757  1.00  0.00     0.001 A 
ATOM     76  C   UNL A   1      34.905  30.869  27.468  1.00  0.00     0.000 A 
ENDBRANCH  52  71
BRANCH  64  77
ATOM     77  C   UNL A   1      39.015  32.001  35.627  1.00  0.00    -0.014 A 
ATOM     78  C   UNL A   1      38.306  31.263  36.587  1.00  0.00     0.009 A 
ATOM     79  C   UNL A   1      39.102  33.396  35.773  1.00  0.00     0.009 A 
ATOM     80  C   UNL A   1      37.675  31.908  37.652  1.00  0.00     0.001 A 
ATOM     81  C   UNL A   1      38.498  34.036  36.858  1.00  0.00     0.001 A 
ATOM     82  C   UNL A   1      37.778  33.292  37.792  1.00  0.00     0.000 A 
ENDBRANCH  64  77
ENDBRANCH  38  39
ENDBRANCH  31  33
ENDBRANCH  30  31
ENDBRANCH  29  30
ENDBRANCH  28  29
ENDBRANCH  27  28
ENDBRANCH  26  27
ENDBRANCH   1  26
TORSDOF 20
ENDMDL
