MODEL 1
REMARK VINA RESULT:     -10.1      0.000      0.000
REMARK SMILES CC(C)(C)OC(=O)N1CCC[C@H]1C(=O)N[C@@H](Cc1ccccc1)C(=O)OCCOCCOCCOC(=O)c1ccc(-c2c3nc(c(-c4ccccc4)c4ccc([nH]4)c(-c4ccccc4)c4nc(c(-c5ccccc5)c5ccc2[nH]5)C=C4)C=C3)cc1
REMARK SMILES IDX 29 1 28 2 27 3 26 4 24 5 25 6 16 7 15 8 13 9 14 10 12 12
REMARK SMILES IDX 8 13 9 14 10 15 11 16 6 17 7 18 5 19 2 20 1 21 3 22 4 23
REMARK SMILES IDX 17 24 18 25 19 26 23 27 20 28 22 29 21 30 30 31 31 32 32 33
REMARK SMILES IDX 33 34 34 35 35 36 36 37 37 38 38 39 39 40 85 41 40 42 84 43
REMARK SMILES IDX 41 44 42 45 43 46 78 47 44 48 83 49 77 50 79 51 45 52 82 53
REMARK SMILES IDX 76 54 75 55 46 57 68 58 53 59 67 60 54 61 57 62 66 63 80 64
REMARK SMILES IDX 55 65 56 66 65 68 81 69 58 70 47 71 48 72 52 73 49 74 51 75
REMARK SMILES IDX 50 76 69 77 70 78 74 79 71 80 73 81 72 82 59 83 60 84 64 85
REMARK SMILES IDX 61 86 63 87 62 88
REMARK H PARENT 15 11 79 56 57 67
REMARK Flexibility Score: inf
ROOT
ATOM      1  O   UNL A   1      39.213  21.832  26.019  1.00  0.00    -0.376 OA
ENDROOT
BRANCH   1   2
ATOM      2  C   UNL A   1      38.750  23.161  26.127  1.00  0.00     0.202 C 
BRANCH   2   3
ATOM      3  C   UNL A   1      37.278  23.410  25.802  1.00  0.00     0.261 C 
BRANCH   3   4
ATOM      4  O   UNL A   1      36.355  22.410  26.280  1.00  0.00    -0.462 OA
BRANCH   4   5
ATOM      5  C   UNL A   1      35.024  22.627  26.088  1.00  0.00     0.329 C 
ATOM      6  O   UNL A   1      34.343  23.333  26.822  1.00  0.00    -0.250 OA
BRANCH   5   7
ATOM      7  C   UNL A   1      34.444  21.700  24.993  1.00  0.00     0.196 C 
BRANCH   7   8
ATOM      8  N   UNL A   1      34.409  22.287  23.645  1.00  0.00    -0.341 N 
ATOM      9  C   UNL A   1      33.784  23.399  23.160  1.00  0.00     0.243 C 
ATOM     10  O   UNL A   1      34.094  23.751  22.017  1.00  0.00    -0.273 OA
ATOM     11  H   UNL A   1      34.928  21.789  22.973  1.00  0.00     0.164 HD
BRANCH   9  12
ATOM     12  C   UNL A   1      32.801  24.235  24.017  1.00  0.00     0.178 C 
ATOM     13  N   UNL A   1      32.569  25.568  23.421  1.00  0.00    -0.296 N 
ATOM     14  C   UNL A   1      31.314  25.544  22.696  1.00  0.00     0.124 C 
ATOM     15  C   UNL A   1      30.443  24.539  23.426  1.00  0.00     0.024 C 
ATOM     16  C   UNL A   1      31.418  23.538  24.019  1.00  0.00     0.037 C 
BRANCH  13  17
ATOM     17  C   UNL A   1      33.331  26.665  23.839  1.00  0.00     0.410 C 
ATOM     18  O   UNL A   1      33.916  27.327  22.993  1.00  0.00    -0.224 OA
BRANCH  17  19
ATOM     19  O   UNL A   1      33.340  27.000  25.182  1.00  0.00    -0.444 OA
BRANCH  19  20
ATOM     20  C   UNL A   1      32.146  27.617  25.866  1.00  0.00     0.106 C 
ATOM     21  C   UNL A   1      31.381  28.593  24.963  1.00  0.00     0.056 C 
ATOM     22  C   UNL A   1      32.634  28.507  27.007  1.00  0.00     0.056 C 
ATOM     23  C   UNL A   1      31.088  26.641  26.393  1.00  0.00     0.056 C 
ENDBRANCH  19  20
ENDBRANCH  17  19
ENDBRANCH  13  17
ENDBRANCH   9  12
ENDBRANCH   7   8
BRANCH   7  24
ATOM     24  C   UNL A   1      35.225  20.370  25.018  1.00  0.00     0.072 C 
BRANCH  24  25
ATOM     25  C   UNL A   1      34.424  19.160  24.587  1.00  0.00    -0.045 A 
ATOM     26  C   UNL A   1      35.045  17.921  24.365  1.00  0.00     0.004 A 
ATOM     27  C   UNL A   1      33.047  19.266  24.367  1.00  0.00     0.004 A 
ATOM     28  C   UNL A   1      34.334  16.850  23.828  1.00  0.00     0.000 A 
ATOM     29  C   UNL A   1      32.323  18.176  23.881  1.00  0.00     0.000 A 
ATOM     30  C   UNL A   1      32.971  16.979  23.584  1.00  0.00     0.000 A 
ENDBRANCH  24  25
ENDBRANCH   7  24
ENDBRANCH   5   7
ENDBRANCH   4   5
ENDBRANCH   3   4
ENDBRANCH   2   3
ENDBRANCH   1   2
BRANCH   1  31
ATOM     31  C   UNL A   1      40.220  21.404  26.915  1.00  0.00     0.188 C 
BRANCH  31  32
ATOM     32  C   UNL A   1      40.782  20.010  26.602  1.00  0.00     0.188 C 
BRANCH  32  33
ATOM     33  O   UNL A   1      42.187  19.829  26.653  1.00  0.00    -0.376 OA
BRANCH  33  34
ATOM     34  C   UNL A   1      42.942  20.363  25.573  1.00  0.00     0.202 C 
BRANCH  34  35
ATOM     35  C   UNL A   1      44.098  21.317  25.926  1.00  0.00     0.261 C 
BRANCH  35  36
ATOM     36  O   UNL A   1      43.700  22.540  26.594  1.00  0.00    -0.460 OA
BRANCH  36  37
ATOM     37  C   UNL A   1      43.274  23.544  25.781  1.00  0.00     0.338 C 
ATOM     38  O   UNL A   1      43.464  23.625  24.579  1.00  0.00    -0.246 OA
BRANCH  37  39
ATOM     39  C   UNL A   1      42.480  24.575  26.511  1.00  0.00     0.060 A 
ATOM     40  C   UNL A   1      42.685  25.922  26.273  1.00  0.00     0.016 A 
ATOM     41  C   UNL A   1      41.659  24.229  27.589  1.00  0.00     0.016 A 
ATOM     42  C   UNL A   1      42.123  26.892  27.111  1.00  0.00     0.010 A 
ATOM     43  C   UNL A   1      41.102  25.227  28.434  1.00  0.00     0.010 A 
ATOM     44  C   UNL A   1      41.378  26.594  28.244  1.00  0.00    -0.014 A 
BRANCH  44  45
ATOM     45  C   UNL A   1      41.100  27.663  29.286  1.00  0.00     0.031 A 
ATOM     46  C   UNL A   1      42.026  27.782  30.465  1.00  0.00     0.074 A 
ATOM     47  C   UNL A   1      40.218  28.688  29.177  1.00  0.00     0.049 A 
ATOM     48  N   UNL A   1      41.866  28.448  31.579  1.00  0.00    -0.248 NA
ATOM     49  C   UNL A   1      43.330  27.115  30.339  1.00  0.00     0.031 C 
ATOM     50  C   UNL A   1      39.491  29.033  27.977  1.00  0.00     0.029 A 
ATOM     51  N   UNL A   1      39.796  29.659  30.068  1.00  0.00    -0.354 N 
ATOM     52  C   UNL A   1      43.021  28.230  32.313  1.00  0.00     0.074 A 
ATOM     53  C   UNL A   1      43.877  27.378  31.514  1.00  0.00     0.031 C 
ATOM     54  C   UNL A   1      38.686  30.080  28.190  1.00  0.00     0.029 A 
ATOM     55  C   UNL A   1      38.764  30.440  29.584  1.00  0.00     0.049 A 
ATOM     56  H   UNL A   1      40.192  29.782  30.960  1.00  0.00     0.167 HD
ATOM     57  C   UNL A   1      43.331  28.692  33.547  1.00  0.00     0.031 A 
ATOM     58  C   UNL A   1      37.912  31.309  30.163  1.00  0.00     0.031 A 
ATOM     59  C   UNL A   1      42.506  29.584  34.320  1.00  0.00     0.049 A 
ATOM     60  C   UNL A   1      38.111  31.622  31.606  1.00  0.00     0.074 A 
ATOM     61  C   UNL A   1      42.703  30.031  35.615  1.00  0.00     0.029 A 
ATOM     62  N   UNL A   1      41.344  30.186  33.864  1.00  0.00    -0.354 N 
ATOM     63  N   UNL A   1      39.087  31.236  32.385  1.00  0.00    -0.248 NA
ATOM     64  C   UNL A   1      37.115  32.485  32.252  1.00  0.00     0.031 C 
ATOM     65  C   UNL A   1      41.625  30.851  35.965  1.00  0.00     0.029 A 
ATOM     66  C   UNL A   1      40.793  30.971  34.866  1.00  0.00     0.049 A 
ATOM     67  H   UNL A   1      40.964  30.073  32.963  1.00  0.00     0.167 HD
ATOM     68  C   UNL A   1      38.847  31.835  33.607  1.00  0.00     0.074 A 
ATOM     69  C   UNL A   1      37.637  32.620  33.463  1.00  0.00     0.031 C 
ATOM     70  C   UNL A   1      39.583  31.741  34.739  1.00  0.00     0.031 A 
BRANCH  57  71
ATOM     71  C   UNL A   1      44.568  28.125  34.180  1.00  0.00    -0.014 A 
ATOM     72  C   UNL A   1      45.827  28.726  34.048  1.00  0.00     0.009 A 
ATOM     73  C   UNL A   1      44.450  26.935  34.915  1.00  0.00     0.009 A 
ATOM     74  C   UNL A   1      46.953  28.121  34.613  1.00  0.00     0.001 A 
ATOM     75  C   UNL A   1      45.570  26.352  35.506  1.00  0.00     0.001 A 
ATOM     76  C   UNL A   1      46.823  26.939  35.344  1.00  0.00     0.000 A 
ENDBRANCH  57  71
BRANCH  58  77
ATOM     77  C   UNL A   1      36.735  31.851  29.414  1.00  0.00    -0.014 A 
ATOM     78  C   UNL A   1      35.560  31.106  29.244  1.00  0.00     0.009 A 
ATOM     79  C   UNL A   1      36.809  33.126  28.824  1.00  0.00     0.009 A 
ATOM     80  C   UNL A   1      34.500  31.613  28.481  1.00  0.00     0.001 A 
ATOM     81  C   UNL A   1      35.739  33.643  28.088  1.00  0.00     0.001 A 
ATOM     82  C   UNL A   1      34.589  32.882  27.908  1.00  0.00     0.000 A 
ENDBRANCH  58  77
BRANCH  70  83
ATOM     83  C   UNL A   1      39.112  32.548  35.910  1.00  0.00    -0.014 A 
ATOM     84  C   UNL A   1      39.673  33.799  36.209  1.00  0.00     0.009 A 
ATOM     85  C   UNL A   1      38.088  32.044  36.727  1.00  0.00     0.009 A 
ATOM     86  C   UNL A   1      39.242  34.514  37.327  1.00  0.00     0.001 A 
ATOM     87  C   UNL A   1      37.636  32.777  37.824  1.00  0.00     0.001 A 
ATOM     88  C   UNL A   1      38.221  34.005  38.129  1.00  0.00     0.000 A 
ENDBRANCH  70  83
ENDBRANCH  44  45
ENDBRANCH  37  39
ENDBRANCH  36  37
ENDBRANCH  35  36
ENDBRANCH  34  35
ENDBRANCH  33  34
ENDBRANCH  32  33
ENDBRANCH  31  32
ENDBRANCH   1  31
TORSDOF 24
ENDMDL
MODEL 2
REMARK VINA RESULT:      -9.5      4.509     10.238
REMARK SMILES CC(C)(C)OC(=O)N1CCC[C@H]1C(=O)N[C@@H](Cc1ccccc1)C(=O)OCCOCCOCCOC(=O)c1ccc(-c2c3nc(c(-c4ccccc4)c4ccc([nH]4)c(-c4ccccc4)c4nc(c(-c5ccccc5)c5ccc2[nH]5)C=C4)C=C3)cc1
REMARK SMILES IDX 29 1 28 2 27 3 26 4 24 5 25 6 16 7 15 8 13 9 14 10 12 12
REMARK SMILES IDX 8 13 9 14 10 15 11 16 6 17 7 18 5 19 2 20 1 21 3 22 4 23
REMARK SMILES IDX 17 24 18 25 19 26 23 27 20 28 22 29 21 30 30 31 31 32 32 33
REMARK SMILES IDX 33 34 34 35 35 36 36 37 37 38 38 39 39 40 85 41 40 42 84 43
REMARK SMILES IDX 41 44 42 45 43 46 78 47 44 48 83 49 77 50 79 51 45 52 82 53
REMARK SMILES IDX 76 54 75 55 46 57 68 58 53 59 67 60 54 61 57 62 66 63 80 64
REMARK SMILES IDX 55 65 56 66 65 68 81 69 58 70 47 71 48 72 52 73 49 74 51 75
REMARK SMILES IDX 50 76 69 77 70 78 74 79 71 80 73 81 72 82 59 83 60 84 64 85
REMARK SMILES IDX 61 86 63 87 62 88
REMARK H PARENT 15 11 79 56 57 67
REMARK Flexibility Score: inf
ROOT
ATOM      1  O   UNL A   1      34.949  32.775  27.846  1.00  0.00    -0.376 OA
ENDROOT
BRANCH   1   2
ATOM      2  C   UNL A   1      33.802  31.953  27.863  1.00  0.00     0.202 C 
BRANCH   2   3
ATOM      3  C   UNL A   1      33.983  30.503  27.418  1.00  0.00     0.261 C 
BRANCH   3   4
ATOM      4  O   UNL A   1      33.491  30.190  26.098  1.00  0.00    -0.462 OA
BRANCH   4   5
ATOM      5  C   UNL A   1      33.257  28.883  25.798  1.00  0.00     0.329 C 
ATOM      6  O   UNL A   1      34.118  28.013  25.852  1.00  0.00    -0.250 OA
BRANCH   5   7
ATOM      7  C   UNL A   1      31.859  28.681  25.165  1.00  0.00     0.196 C 
BRANCH   7   8
ATOM      8  N   UNL A   1      31.004  27.705  25.857  1.00  0.00    -0.341 N 
ATOM      9  C   UNL A   1      30.995  26.341  25.842  1.00  0.00     0.243 C 
ATOM     10  O   UNL A   1      30.277  25.785  26.680  1.00  0.00    -0.273 OA
ATOM     11  H   UNL A   1      30.316  28.108  26.433  1.00  0.00     0.164 HD
BRANCH   9  12
ATOM     12  C   UNL A   1      31.897  25.519  24.888  1.00  0.00     0.178 C 
ATOM     13  N   UNL A   1      31.743  24.067  25.123  1.00  0.00    -0.296 N 
ATOM     14  C   UNL A   1      30.847  23.524  24.122  1.00  0.00     0.124 C 
ATOM     15  C   UNL A   1      31.043  24.388  22.889  1.00  0.00     0.024 C 
ATOM     16  C   UNL A   1      31.432  25.752  23.430  1.00  0.00     0.037 C 
BRANCH  13  17
ATOM     17  C   UNL A   1      32.624  23.399  25.980  1.00  0.00     0.410 C 
ATOM     18  O   UNL A   1      32.499  23.558  27.187  1.00  0.00    -0.224 OA
BRANCH  17  19
ATOM     19  O   UNL A   1      33.556  22.532  25.438  1.00  0.00    -0.444 OA
BRANCH  19  20
ATOM     20  C   UNL A   1      34.857  23.014  24.848  1.00  0.00     0.106 C 
ATOM     21  C   UNL A   1      35.260  24.406  25.352  1.00  0.00     0.056 C 
ATOM     22  C   UNL A   1      34.673  23.226  23.346  1.00  0.00     0.056 C 
ATOM     23  C   UNL A   1      36.082  22.125  25.093  1.00  0.00     0.056 C 
ENDBRANCH  19  20
ENDBRANCH  17  19
ENDBRANCH  13  17
ENDBRANCH   9  12
ENDBRANCH   7   8
BRANCH   7  24
ATOM     24  C   UNL A   1      31.176  30.059  25.046  1.00  0.00     0.072 C 
BRANCH  24  25
ATOM     25  C   UNL A   1      30.027  30.111  24.061  1.00  0.00    -0.045 A 
ATOM     26  C   UNL A   1      29.176  31.226  23.998  1.00  0.00     0.004 A 
ATOM     27  C   UNL A   1      29.772  29.027  23.216  1.00  0.00     0.004 A 
ATOM     28  C   UNL A   1      28.036  31.211  23.198  1.00  0.00     0.000 A 
ATOM     29  C   UNL A   1      28.659  29.035  22.373  1.00  0.00     0.000 A 
ATOM     30  C   UNL A   1      27.777  30.113  22.386  1.00  0.00     0.000 A 
ENDBRANCH  24  25
ENDBRANCH   7  24
ENDBRANCH   5   7
ENDBRANCH   4   5
ENDBRANCH   3   4
ENDBRANCH   2   3
ENDBRANCH   1   2
BRANCH   1  31
ATOM     31  C   UNL A   1      35.774  32.790  28.995  1.00  0.00     0.188 C 
BRANCH  31  32
ATOM     32  C   UNL A   1      35.141  33.486  30.208  1.00  0.00     0.188 C 
BRANCH  32  33
ATOM     33  O   UNL A   1      34.349  32.707  31.088  1.00  0.00    -0.376 OA
BRANCH  33  34
ATOM     34  C   UNL A   1      34.746  32.677  32.453  1.00  0.00     0.202 C 
BRANCH  34  35
ATOM     35  C   UNL A   1      36.255  32.579  32.746  1.00  0.00     0.261 C 
BRANCH  35  36
ATOM     36  O   UNL A   1      36.718  31.262  33.138  1.00  0.00    -0.460 OA
BRANCH  36  37
ATOM     37  C   UNL A   1      36.952  30.392  32.119  1.00  0.00     0.338 C 
ATOM     38  O   UNL A   1      36.146  29.609  31.643  1.00  0.00    -0.246 OA
BRANCH  37  39
ATOM     39  C   UNL A   1      38.337  30.505  31.575  1.00  0.00     0.060 A 
ATOM     40  C   UNL A   1      38.549  30.795  30.240  1.00  0.00     0.016 A 
ATOM     41  C   UNL A   1      39.447  30.126  32.336  1.00  0.00     0.016 A 
ATOM     42  C   UNL A   1      39.822  30.671  29.673  1.00  0.00     0.010 A 
ATOM     43  C   UNL A   1      40.732  29.998  31.742  1.00  0.00     0.010 A 
ATOM     44  C   UNL A   1      40.934  30.212  30.366  1.00  0.00    -0.014 A 
BRANCH  44  45
ATOM     45  C   UNL A   1      42.180  29.772  29.618  1.00  0.00     0.031 A 
ATOM     46  C   UNL A   1      42.238  28.374  29.067  1.00  0.00     0.074 A 
ATOM     47  C   UNL A   1      43.190  30.571  29.193  1.00  0.00     0.049 A 
ATOM     48  N   UNL A   1      43.265  27.708  28.606  1.00  0.00    -0.248 NA
ATOM     49  C   UNL A   1      40.956  27.662  28.964  1.00  0.00     0.031 C 
ATOM     50  C   UNL A   1      43.185  32.015  29.243  1.00  0.00     0.029 A 
ATOM     51  N   UNL A   1      44.412  30.300  28.600  1.00  0.00    -0.354 N 
ATOM     52  C   UNL A   1      42.765  26.476  28.215  1.00  0.00     0.074 A 
ATOM     53  C   UNL A   1      41.343  26.491  28.484  1.00  0.00     0.031 C 
ATOM     54  C   UNL A   1      44.331  32.514  28.766  1.00  0.00     0.029 A 
ATOM     55  C   UNL A   1      45.212  31.417  28.452  1.00  0.00     0.049 A 
ATOM     56  H   UNL A   1      44.684  29.400  28.311  1.00  0.00     0.167 HD
ATOM     57  C   UNL A   1      43.437  25.426  27.689  1.00  0.00     0.031 A 
ATOM     58  C   UNL A   1      46.516  31.587  28.160  1.00  0.00     0.031 A 
ATOM     59  C   UNL A   1      44.842  25.429  27.368  1.00  0.00     0.049 A 
ATOM     60  C   UNL A   1      47.319  30.378  27.824  1.00  0.00     0.074 A 
ATOM     61  C   UNL A   1      45.622  24.379  26.915  1.00  0.00     0.029 A 
ATOM     62  N   UNL A   1      45.671  26.537  27.441  1.00  0.00    -0.354 N 
ATOM     63  N   UNL A   1      46.896  29.151  27.670  1.00  0.00    -0.248 NA
ATOM     64  C   UNL A   1      48.760  30.562  27.613  1.00  0.00     0.031 C 
ATOM     65  C   UNL A   1      46.937  24.837  26.777  1.00  0.00     0.029 A 
ATOM     66  C   UNL A   1      46.962  26.188  27.077  1.00  0.00     0.049 A 
ATOM     67  H   UNL A   1      45.386  27.440  27.712  1.00  0.00     0.167 HD
ATOM     68  C   UNL A   1      48.010  28.416  27.310  1.00  0.00     0.074 A 
ATOM     69  C   UNL A   1      49.127  29.339  27.257  1.00  0.00     0.031 C 
ATOM     70  C   UNL A   1      48.082  27.093  27.038  1.00  0.00     0.031 A 
BRANCH  57  71
ATOM     71  C   UNL A   1      42.671  24.144  27.552  1.00  0.00    -0.014 A 
ATOM     72  C   UNL A   1      41.938  23.821  26.402  1.00  0.00     0.009 A 
ATOM     73  C   UNL A   1      42.679  23.247  28.632  1.00  0.00     0.009 A 
ATOM     74  C   UNL A   1      41.197  22.637  26.354  1.00  0.00     0.001 A 
ATOM     75  C   UNL A   1      41.966  22.052  28.569  1.00  0.00     0.001 A 
ATOM     76  C   UNL A   1      41.215  21.753  27.434  1.00  0.00     0.000 A 
ENDBRANCH  57  71
BRANCH  58  77
ATOM     77  C   UNL A   1      47.166  32.930  28.284  1.00  0.00    -0.014 A 
ATOM     78  C   UNL A   1      47.332  33.777  27.178  1.00  0.00     0.009 A 
ATOM     79  C   UNL A   1      47.666  33.353  29.529  1.00  0.00     0.009 A 
ATOM     80  C   UNL A   1      48.004  34.999  27.312  1.00  0.00     0.001 A 
ATOM     81  C   UNL A   1      48.310  34.586  29.667  1.00  0.00     0.001 A 
ATOM     82  C   UNL A   1      48.487  35.404  28.556  1.00  0.00     0.000 A 
ENDBRANCH  58  77
BRANCH  70  83
ATOM     83  C   UNL A   1      49.421  26.569  26.617  1.00  0.00    -0.014 A 
ATOM     84  C   UNL A   1      49.838  26.620  25.279  1.00  0.00     0.009 A 
ATOM     85  C   UNL A   1      50.278  26.017  27.581  1.00  0.00     0.009 A 
ATOM     86  C   UNL A   1      51.076  26.092  24.908  1.00  0.00     0.001 A 
ATOM     87  C   UNL A   1      51.528  25.520  27.212  1.00  0.00     0.001 A 
ATOM     88  C   UNL A   1      51.920  25.548  25.874  1.00  0.00     0.000 A 
ENDBRANCH  70  83
ENDBRANCH  44  45
ENDBRANCH  37  39
ENDBRANCH  36  37
ENDBRANCH  35  36
ENDBRANCH  34  35
ENDBRANCH  33  34
ENDBRANCH  32  33
ENDBRANCH  31  32
ENDBRANCH   1  31
TORSDOF 24
ENDMDL
MODEL 3
REMARK VINA RESULT:      -9.3      1.440      4.249
REMARK SMILES CC(C)(C)OC(=O)N1CCC[C@H]1C(=O)N[C@@H](Cc1ccccc1)C(=O)OCCOCCOCCOC(=O)c1ccc(-c2c3nc(c(-c4ccccc4)c4ccc([nH]4)c(-c4ccccc4)c4nc(c(-c5ccccc5)c5ccc2[nH]5)C=C4)C=C3)cc1
REMARK SMILES IDX 29 1 28 2 27 3 26 4 24 5 25 6 16 7 15 8 13 9 14 10 12 12
REMARK SMILES IDX 8 13 9 14 10 15 11 16 6 17 7 18 5 19 2 20 1 21 3 22 4 23
REMARK SMILES IDX 17 24 18 25 19 26 23 27 20 28 22 29 21 30 30 31 31 32 32 33
REMARK SMILES IDX 33 34 34 35 35 36 36 37 37 38 38 39 39 40 85 41 40 42 84 43
REMARK SMILES IDX 41 44 42 45 43 46 78 47 44 48 83 49 77 50 79 51 45 52 82 53
REMARK SMILES IDX 76 54 75 55 46 57 68 58 53 59 67 60 54 61 57 62 66 63 80 64
REMARK SMILES IDX 55 65 56 66 65 68 81 69 58 70 47 71 48 72 52 73 49 74 51 75
REMARK SMILES IDX 50 76 69 77 70 78 74 79 71 80 73 81 72 82 59 83 60 84 64 85
REMARK SMILES IDX 61 86 63 87 62 88
REMARK H PARENT 15 11 79 56 57 67
REMARK Flexibility Score: inf
ROOT
ATOM      1  O   UNL A   1      39.545  22.386  26.205  1.00  0.00    -0.376 OA
ENDROOT
BRANCH   1   2
ATOM      2  C   UNL A   1      38.585  23.201  26.842  1.00  0.00     0.202 C 
BRANCH   2   3
ATOM      3  C   UNL A   1      37.657  24.012  25.939  1.00  0.00     0.261 C 
BRANCH   3   4
ATOM      4  O   UNL A   1      36.486  23.316  25.462  1.00  0.00    -0.462 OA
BRANCH   4   5
ATOM      5  C   UNL A   1      35.336  23.436  26.180  1.00  0.00     0.329 C 
ATOM      6  O   UNL A   1      35.130  22.837  27.230  1.00  0.00    -0.250 OA
BRANCH   5   7
ATOM      7  C   UNL A   1      34.252  24.219  25.402  1.00  0.00     0.196 C 
BRANCH   7   8
ATOM      8  N   UNL A   1      32.901  23.641  25.475  1.00  0.00    -0.341 N 
ATOM      9  C   UNL A   1      32.353  22.548  24.870  1.00  0.00     0.243 C 
ATOM     10  O   UNL A   1      31.240  22.195  25.274  1.00  0.00    -0.273 OA
ATOM     11  H   UNL A   1      32.284  24.129  26.065  1.00  0.00     0.164 HD
BRANCH   9  12
ATOM     12  C   UNL A   1      33.110  21.733  23.791  1.00  0.00     0.178 C 
ATOM     13  N   UNL A   1      32.836  20.286  23.922  1.00  0.00    -0.296 N 
ATOM     14  C   UNL A   1      31.829  19.911  22.950  1.00  0.00     0.124 C 
ATOM     15  C   UNL A   1      32.026  20.855  21.777  1.00  0.00     0.024 C 
ATOM     16  C   UNL A   1      32.575  22.129  22.394  1.00  0.00     0.037 C 
BRANCH  13  17
ATOM     17  C   UNL A   1      33.704  19.472  24.659  1.00  0.00     0.410 C 
ATOM     18  O   UNL A   1      34.802  19.916  24.967  1.00  0.00    -0.224 OA
BRANCH  17  19
ATOM     19  O   UNL A   1      33.265  18.226  25.070  1.00  0.00    -0.444 OA
BRANCH  19  20
ATOM     20  C   UNL A   1      33.942  16.950  24.637  1.00  0.00     0.106 C 
ATOM     21  C   UNL A   1      33.995  16.791  23.113  1.00  0.00     0.056 C 
ATOM     22  C   UNL A   1      33.094  15.762  25.084  1.00  0.00     0.056 C 
ATOM     23  C   UNL A   1      35.387  16.757  25.114  1.00  0.00     0.056 C 
ENDBRANCH  19  20
ENDBRANCH  17  19
ENDBRANCH  13  17
ENDBRANCH   9  12
ENDBRANCH   7   8
BRANCH   7  24
ATOM     24  C   UNL A   1      34.274  25.686  25.881  1.00  0.00     0.072 C 
BRANCH  24  25
ATOM     25  C   UNL A   1      33.834  26.695  24.841  1.00  0.00    -0.045 A 
ATOM     26  C   UNL A   1      33.585  28.032  25.189  1.00  0.00     0.004 A 
ATOM     27  C   UNL A   1      33.635  26.301  23.515  1.00  0.00     0.004 A 
ATOM     28  C   UNL A   1      33.041  28.922  24.266  1.00  0.00     0.000 A 
ATOM     29  C   UNL A   1      33.141  27.208  22.575  1.00  0.00     0.000 A 
ATOM     30  C   UNL A   1      32.817  28.508  22.958  1.00  0.00     0.000 A 
ENDBRANCH  24  25
ENDBRANCH   7  24
ENDBRANCH   5   7
ENDBRANCH   4   5
ENDBRANCH   3   4
ENDBRANCH   2   3
ENDBRANCH   1   2
BRANCH   1  31
ATOM     31  C   UNL A   1      40.300  21.498  27.006  1.00  0.00     0.188 C 
BRANCH  31  32
ATOM     32  C   UNL A   1      40.757  20.230  26.271  1.00  0.00     0.188 C 
BRANCH  32  33
ATOM     33  O   UNL A   1      42.055  20.218  25.701  1.00  0.00    -0.376 OA
BRANCH  33  34
ATOM     34  C   UNL A   1      42.732  21.465  25.623  1.00  0.00     0.202 C 
BRANCH  34  35
ATOM     35  C   UNL A   1      44.222  21.485  26.012  1.00  0.00     0.261 C 
BRANCH  35  36
ATOM     36  O   UNL A   1      44.752  22.793  26.339  1.00  0.00    -0.460 OA
BRANCH  36  37
ATOM     37  C   UNL A   1      44.308  23.820  25.565  1.00  0.00     0.338 C 
ATOM     38  O   UNL A   1      44.584  24.006  24.391  1.00  0.00    -0.246 OA
BRANCH  37  39
ATOM     39  C   UNL A   1      43.376  24.727  26.295  1.00  0.00     0.060 A 
ATOM     40  C   UNL A   1      43.411  26.094  26.083  1.00  0.00     0.016 A 
ATOM     41  C   UNL A   1      42.588  24.260  27.351  1.00  0.00     0.016 A 
ATOM     42  C   UNL A   1      42.715  26.968  26.925  1.00  0.00     0.010 A 
ATOM     43  C   UNL A   1      41.892  25.163  28.200  1.00  0.00     0.010 A 
ATOM     44  C   UNL A   1      41.994  26.557  28.038  1.00  0.00    -0.014 A 
BRANCH  44  45
ATOM     45  C   UNL A   1      41.564  27.563  29.091  1.00  0.00     0.031 A 
ATOM     46  C   UNL A   1      42.428  27.752  30.306  1.00  0.00     0.074 A 
ATOM     47  C   UNL A   1      40.578  28.487  28.971  1.00  0.00     0.049 A 
ATOM     48  N   UNL A   1      42.157  28.368  31.428  1.00  0.00    -0.248 NA
ATOM     49  C   UNL A   1      43.802  27.235  30.215  1.00  0.00     0.031 C 
ATOM     50  C   UNL A   1      39.860  28.780  27.752  1.00  0.00     0.029 A 
ATOM     51  N   UNL A   1      40.020  29.383  29.866  1.00  0.00    -0.354 N 
ATOM     52  C   UNL A   1      43.302  28.260  32.200  1.00  0.00     0.074 A 
ATOM     53  C   UNL A   1      44.275  27.528  31.416  1.00  0.00     0.031 C 
ATOM     54  C   UNL A   1      38.937  29.727  27.957  1.00  0.00     0.029 A 
ATOM     55  C   UNL A   1      38.925  30.058  29.360  1.00  0.00     0.049 A 
ATOM     56  H   UNL A   1      40.369  29.526  30.775  1.00  0.00     0.167 HD
ATOM     57  C   UNL A   1      43.516  28.722  33.454  1.00  0.00     0.031 A 
ATOM     58  C   UNL A   1      37.964  30.813  29.925  1.00  0.00     0.031 A 
ATOM     59  C   UNL A   1      42.571  29.498  34.214  1.00  0.00     0.049 A 
ATOM     60  C   UNL A   1      38.075  31.110  31.380  1.00  0.00     0.074 A 
ATOM     61  C   UNL A   1      42.671  29.931  35.525  1.00  0.00     0.029 A 
ATOM     62  N   UNL A   1      41.366  29.980  33.728  1.00  0.00    -0.354 N 
ATOM     63  N   UNL A   1      39.061  30.814  32.187  1.00  0.00    -0.248 NA
ATOM     64  C   UNL A   1      36.968  31.842  32.007  1.00  0.00     0.031 C 
ATOM     65  C   UNL A   1      41.498  30.619  35.852  1.00  0.00     0.029 A 
ATOM     66  C   UNL A   1      40.697  30.675  34.725  1.00  0.00     0.049 A 
ATOM     67  H   UNL A   1      41.033  29.850  32.811  1.00  0.00     0.167 HD
ATOM     68  C   UNL A   1      38.713  31.352  33.412  1.00  0.00     0.074 A 
ATOM     69  C   UNL A   1      37.429  32.003  33.239  1.00  0.00     0.031 C 
ATOM     70  C   UNL A   1      39.414  31.311  34.568  1.00  0.00     0.031 A 
BRANCH  57  71
ATOM     71  C   UNL A   1      44.785  28.279  34.121  1.00  0.00    -0.014 A 
ATOM     72  C   UNL A   1      44.843  27.165  34.970  1.00  0.00     0.009 A 
ATOM     73  C   UNL A   1      45.951  29.027  33.893  1.00  0.00     0.009 A 
ATOM     74  C   UNL A   1      46.041  26.834  35.609  1.00  0.00     0.001 A 
ATOM     75  C   UNL A   1      47.152  28.675  34.505  1.00  0.00     0.001 A 
ATOM     76  C   UNL A   1      47.193  27.585  35.372  1.00  0.00     0.000 A 
ENDBRANCH  57  71
BRANCH  58  77
ATOM     77  C   UNL A   1      36.761  31.242  29.144  1.00  0.00    -0.014 A 
ATOM     78  C   UNL A   1      35.756  30.336  28.776  1.00  0.00     0.009 A 
ATOM     79  C   UNL A   1      36.640  32.579  28.723  1.00  0.00     0.009 A 
ATOM     80  C   UNL A   1      34.675  30.753  27.988  1.00  0.00     0.001 A 
ATOM     81  C   UNL A   1      35.546  33.000  27.962  1.00  0.00     0.001 A 
ATOM     82  C   UNL A   1      34.569  32.084  27.586  1.00  0.00     0.000 A 
ENDBRANCH  58  77
BRANCH  70  83
ATOM     83  C   UNL A   1      38.817  32.032  35.738  1.00  0.00    -0.014 A 
ATOM     84  C   UNL A   1      38.876  33.429  35.844  1.00  0.00     0.009 A 
ATOM     85  C   UNL A   1      38.182  31.294  36.750  1.00  0.00     0.009 A 
ATOM     86  C   UNL A   1      38.344  34.072  36.961  1.00  0.00     0.001 A 
ATOM     87  C   UNL A   1      37.621  31.944  37.849  1.00  0.00     0.001 A 
ATOM     88  C   UNL A   1      37.713  33.331  37.959  1.00  0.00     0.000 A 
ENDBRANCH  70  83
ENDBRANCH  44  45
ENDBRANCH  37  39
ENDBRANCH  36  37
ENDBRANCH  35  36
ENDBRANCH  34  35
ENDBRANCH  33  34
ENDBRANCH  32  33
ENDBRANCH  31  32
ENDBRANCH   1  31
TORSDOF 24
ENDMDL
