MODEL 1
REMARK VINA RESULT:      -9.5      0.000      0.000
REMARK SMILES O=C(C[C@H](c1ccc(C2CC2)cc1)[NH+]1CCOCC1)OCCOCCOCCOC(=O)c1ccc(-c2c3nc(c(-c4ccccc4)c4ccc([nH]4)c(-c4ccccc4)c4nc(c(-c5ccccc5)c5ccc2[nH]5)C=C4)C=C3)cc1
REMARK SMILES IDX 24 1 23 2 22 3 21 4 20 5 2 6 1 7 3 8 4 9 14 10 15 11 19 12
REMARK SMILES IDX 16 14 18 15 17 16 5 17 6 18 13 19 7 20 12 21 8 22 9 23 10 24
REMARK SMILES IDX 11 25 25 26 26 27 27 28 28 29 29 30 30 31 31 32 32 33 33 34
REMARK SMILES IDX 79 35 34 36 78 37 35 38 36 39 37 40 72 41 38 42 77 43 71 44
REMARK SMILES IDX 73 45 39 46 76 47 70 48 69 49 40 51 62 52 47 53 61 54 48 55
REMARK SMILES IDX 51 56 60 57 74 58 49 59 50 60 59 62 75 63 52 64 41 65 42 66
REMARK SMILES IDX 46 67 43 68 45 69 44 70 63 71 64 72 68 73 65 74 67 75 66 76
REMARK SMILES IDX 53 77 54 78 58 79 55 80 57 81 56 82
REMARK H PARENT 14 13 73 50 51 61
REMARK Flexibility Score: inf
ROOT
ATOM      1  C   UNL A   1      34.845  31.237  27.616  1.00  0.00     0.188 C 
ENDROOT
BRANCH   1   2
ATOM      2  O   UNL A   1      33.459  31.010  27.791  1.00  0.00    -0.376 OA
BRANCH   2   3
ATOM      3  C   UNL A   1      32.846  29.926  27.113  1.00  0.00     0.202 C 
BRANCH   3   4
ATOM      4  C   UNL A   1      33.617  28.608  27.158  1.00  0.00     0.261 C 
BRANCH   4   5
ATOM      5  O   UNL A   1      33.329  27.593  26.171  1.00  0.00    -0.463 OA
BRANCH   5   6
ATOM      6  C   UNL A   1      33.777  27.398  24.922  1.00  0.00     0.312 C 
ATOM      7  O   UNL A   1      33.902  28.367  24.170  1.00  0.00    -0.252 OA
BRANCH   6   8
ATOM      8  C   UNL A   1      34.006  26.011  24.374  1.00  0.00     0.192 C 
BRANCH   8   9
ATOM      9  C   UNL A   1      32.802  25.068  24.237  1.00  0.00     0.226 C 
BRANCH   9  10
ATOM     10  N   UNL A   1      32.569  24.103  25.337  1.00  0.00    -0.324 N 
ATOM     11  C   UNL A   1      33.648  23.871  26.315  1.00  0.00     0.291 C 
ATOM     12  C   UNL A   1      32.057  22.790  24.894  1.00  0.00     0.291 C 
ATOM     13  H   UNL A   1      31.851  24.626  25.841  1.00  0.00     0.348 HD
ATOM     14  C   UNL A   1      34.714  22.833  25.918  1.00  0.00     0.221 C 
ATOM     15  C   UNL A   1      33.132  21.758  24.518  1.00  0.00     0.221 C 
ATOM     16  O   UNL A   1      34.117  21.589  25.539  1.00  0.00    -0.370 OA
ENDBRANCH   9  10
BRANCH   9  17
ATOM     17  C   UNL A   1      31.560  25.792  23.730  1.00  0.00     0.010 A 
ATOM     18  C   UNL A   1      30.455  26.013  24.559  1.00  0.00     0.010 A 
ATOM     19  C   UNL A   1      31.618  26.483  22.512  1.00  0.00     0.010 A 
ATOM     20  C   UNL A   1      29.537  27.020  24.259  1.00  0.00     0.004 A 
ATOM     21  C   UNL A   1      30.694  27.493  22.224  1.00  0.00     0.004 A 
ATOM     22  C   UNL A   1      29.669  27.830  23.122  1.00  0.00    -0.045 A 
BRANCH  22  23
ATOM     23  C   UNL A   1      28.757  29.027  22.960  1.00  0.00     0.019 C 
ATOM     24  C   UNL A   1      29.146  30.413  23.413  1.00  0.00     0.009 C 
ATOM     25  C   UNL A   1      29.072  30.093  21.947  1.00  0.00     0.009 C 
ENDBRANCH  22  23
ENDBRANCH   9  17
ENDBRANCH   8   9
ENDBRANCH   6   8
ENDBRANCH   5   6
ENDBRANCH   4   5
ENDBRANCH   3   4
ENDBRANCH   2   3
ENDBRANCH   1   2
BRANCH   1  26
ATOM     26  C   UNL A   1      35.355  32.537  28.257  1.00  0.00     0.188 C 
BRANCH  26  27
ATOM     27  O   UNL A   1      34.433  33.339  28.976  1.00  0.00    -0.376 OA
BRANCH  27  28
ATOM     28  C   UNL A   1      34.068  34.602  28.423  1.00  0.00     0.202 C 
BRANCH  28  29
ATOM     29  C   UNL A   1      33.238  35.568  29.286  1.00  0.00     0.261 C 
BRANCH  29  30
ATOM     30  O   UNL A   1      32.529  34.961  30.392  1.00  0.00    -0.460 OA
BRANCH  30  31
ATOM     31  C   UNL A   1      32.688  35.573  31.588  1.00  0.00     0.338 C 
ATOM     32  O   UNL A   1      31.970  36.442  32.072  1.00  0.00    -0.246 OA
BRANCH  31  33
ATOM     33  C   UNL A   1      33.801  34.994  32.365  1.00  0.00     0.060 A 
ATOM     34  C   UNL A   1      35.045  35.640  32.327  1.00  0.00     0.016 A 
ATOM     35  C   UNL A   1      33.686  33.728  32.942  1.00  0.00     0.016 A 
ATOM     36  C   UNL A   1      36.187  34.996  32.811  1.00  0.00     0.010 A 
ATOM     37  C   UNL A   1      34.835  33.079  33.415  1.00  0.00     0.010 A 
ATOM     38  C   UNL A   1      36.100  33.688  33.307  1.00  0.00    -0.014 A 
BRANCH  38  39
ATOM     39  C   UNL A   1      37.343  32.901  33.532  1.00  0.00     0.031 A 
ATOM     40  C   UNL A   1      38.133  33.123  34.793  1.00  0.00     0.074 A 
ATOM     41  C   UNL A   1      37.754  31.964  32.659  1.00  0.00     0.049 A 
ATOM     42  N   UNL A   1      39.241  32.548  35.186  1.00  0.00    -0.248 NA
ATOM     43  C   UNL A   1      37.600  34.119  35.735  1.00  0.00     0.031 C 
ATOM     44  C   UNL A   1      37.052  31.604  31.435  1.00  0.00     0.029 A 
ATOM     45  N   UNL A   1      38.854  31.143  32.669  1.00  0.00    -0.354 N 
ATOM     46  C   UNL A   1      39.532  33.102  36.425  1.00  0.00     0.074 A 
ATOM     47  C   UNL A   1      38.508  34.087  36.700  1.00  0.00     0.031 C 
ATOM     48  C   UNL A   1      37.740  30.640  30.798  1.00  0.00     0.029 A 
ATOM     49  C   UNL A   1      38.947  30.332  31.562  1.00  0.00     0.049 A 
ATOM     50  H   UNL A   1      39.514  31.134  33.400  1.00  0.00     0.167 HD
ATOM     51  C   UNL A   1      40.553  32.813  37.267  1.00  0.00     0.031 A 
ATOM     52  C   UNL A   1      39.899  29.450  31.201  1.00  0.00     0.031 A 
ATOM     53  C   UNL A   1      41.593  31.858  36.994  1.00  0.00     0.049 A 
ATOM     54  C   UNL A   1      41.076  29.215  32.111  1.00  0.00     0.074 A 
ATOM     55  C   UNL A   1      42.681  31.518  37.781  1.00  0.00     0.029 A 
ATOM     56  N   UNL A   1      41.680  31.093  35.842  1.00  0.00    -0.354 N 
ATOM     57  N   UNL A   1      41.332  29.743  33.283  1.00  0.00    -0.248 NA
ATOM     58  C   UNL A   1      42.087  28.252  31.651  1.00  0.00     0.031 C 
ATOM     59  C   UNL A   1      43.449  30.579  37.086  1.00  0.00     0.029 A 
ATOM     60  C   UNL A   1      42.812  30.296  35.889  1.00  0.00     0.049 A 
ATOM     61  H   UNL A   1      41.033  31.114  35.100  1.00  0.00     0.167 HD
ATOM     62  C   UNL A   1      42.515  29.155  33.713  1.00  0.00     0.074 A 
ATOM     63  C   UNL A   1      42.918  28.219  32.684  1.00  0.00     0.031 C 
ATOM     64  C   UNL A   1      43.205  29.370  34.860  1.00  0.00     0.031 A 
BRANCH  51  65
ATOM     65  C   UNL A   1      40.601  33.571  38.562  1.00  0.00    -0.014 A 
ATOM     66  C   UNL A   1      39.898  33.118  39.691  1.00  0.00     0.009 A 
ATOM     67  C   UNL A   1      41.368  34.741  38.661  1.00  0.00     0.009 A 
ATOM     68  C   UNL A   1      39.937  33.843  40.883  1.00  0.00     0.001 A 
ATOM     69  C   UNL A   1      41.425  35.450  39.861  1.00  0.00     0.001 A 
ATOM     70  C   UNL A   1      40.703  35.006  40.968  1.00  0.00     0.000 A 
ENDBRANCH  51  65
BRANCH  52  71
ATOM     71  C   UNL A   1      39.805  28.730  29.902  1.00  0.00    -0.014 A 
ATOM     72  C   UNL A   1      39.282  27.430  29.836  1.00  0.00     0.009 A 
ATOM     73  C   UNL A   1      40.289  29.326  28.727  1.00  0.00     0.009 A 
ATOM     74  C   UNL A   1      39.277  26.728  28.628  1.00  0.00     0.001 A 
ATOM     75  C   UNL A   1      40.256  28.633  27.515  1.00  0.00     0.001 A 
ATOM     76  C   UNL A   1      39.761  27.332  27.468  1.00  0.00     0.000 A 
ENDBRANCH  52  71
BRANCH  64  77
ATOM     77  C   UNL A   1      44.447  28.552  35.078  1.00  0.00    -0.014 A 
ATOM     78  C   UNL A   1      45.705  29.009  34.656  1.00  0.00     0.009 A 
ATOM     79  C   UNL A   1      44.359  27.317  35.740  1.00  0.00     0.009 A 
ATOM     80  C   UNL A   1      46.846  28.230  34.863  1.00  0.00     0.001 A 
ATOM     81  C   UNL A   1      45.504  26.553  35.968  1.00  0.00     0.001 A 
ATOM     82  C   UNL A   1      46.745  27.004  35.521  1.00  0.00     0.000 A 
ENDBRANCH  64  77
ENDBRANCH  38  39
ENDBRANCH  31  33
ENDBRANCH  30  31
ENDBRANCH  29  30
ENDBRANCH  28  29
ENDBRANCH  27  28
ENDBRANCH  26  27
ENDBRANCH   1  26
TORSDOF 21
ENDMDL
MODEL 2
REMARK VINA RESULT:      -9.4      1.070      3.287
REMARK SMILES O=C(C[C@H](c1ccc(C2CC2)cc1)[NH+]1CCOCC1)OCCOCCOCCOC(=O)c1ccc(-c2c3nc(c(-c4ccccc4)c4ccc([nH]4)c(-c4ccccc4)c4nc(c(-c5ccccc5)c5ccc2[nH]5)C=C4)C=C3)cc1
REMARK SMILES IDX 24 1 23 2 22 3 21 4 20 5 2 6 1 7 3 8 4 9 14 10 15 11 19 12
REMARK SMILES IDX 16 14 18 15 17 16 5 17 6 18 13 19 7 20 12 21 8 22 9 23 10 24
REMARK SMILES IDX 11 25 25 26 26 27 27 28 28 29 29 30 30 31 31 32 32 33 33 34
REMARK SMILES IDX 79 35 34 36 78 37 35 38 36 39 37 40 72 41 38 42 77 43 71 44
REMARK SMILES IDX 73 45 39 46 76 47 70 48 69 49 40 51 62 52 47 53 61 54 48 55
REMARK SMILES IDX 51 56 60 57 74 58 49 59 50 60 59 62 75 63 52 64 41 65 42 66
REMARK SMILES IDX 46 67 43 68 45 69 44 70 63 71 64 72 68 73 65 74 67 75 66 76
REMARK SMILES IDX 53 77 54 78 58 79 55 80 57 81 56 82
REMARK H PARENT 14 13 73 50 51 61
REMARK Flexibility Score: inf
ROOT
ATOM      1  C   UNL A   1      35.283  31.587  27.804  1.00  0.00     0.188 C 
ENDROOT
BRANCH   1   2
ATOM      2  O   UNL A   1      33.958  31.599  27.308  1.00  0.00    -0.376 OA
BRANCH   2   3
ATOM      3  C   UNL A   1      33.235  30.382  27.241  1.00  0.00     0.202 C 
BRANCH   3   4
ATOM      4  C   UNL A   1      34.063  29.149  26.888  1.00  0.00     0.261 C 
BRANCH   4   5
ATOM      5  O   UNL A   1      33.574  28.241  25.877  1.00  0.00    -0.463 OA
BRANCH   5   6
ATOM      6  C   UNL A   1      33.661  28.250  24.539  1.00  0.00     0.312 C 
ATOM      7  O   UNL A   1      33.643  29.329  23.942  1.00  0.00    -0.252 OA
BRANCH   6   8
ATOM      8  C   UNL A   1      33.648  26.971  23.739  1.00  0.00     0.192 C 
BRANCH   8   9
ATOM      9  C   UNL A   1      32.581  25.914  24.061  1.00  0.00     0.226 C 
BRANCH   9  10
ATOM     10  N   UNL A   1      31.452  25.782  23.112  1.00  0.00    -0.324 N 
ATOM     11  C   UNL A   1      31.217  26.862  22.135  1.00  0.00     0.291 C 
ATOM     12  C   UNL A   1      30.162  25.447  23.749  1.00  0.00     0.291 C 
ATOM     13  H   UNL A   1      31.808  24.994  22.569  1.00  0.00     0.348 HD
ATOM     14  C   UNL A   1      30.382  28.057  22.630  1.00  0.00     0.221 C 
ATOM     15  C   UNL A   1      29.329  26.650  24.221  1.00  0.00     0.221 C 
ATOM     16  O   UNL A   1      29.140  27.628  23.197  1.00  0.00    -0.370 OA
ENDBRANCH   9  10
BRANCH   9  17
ATOM     17  C   UNL A   1      33.198  24.601  24.530  1.00  0.00     0.010 A 
ATOM     18  C   UNL A   1      33.237  23.477  23.699  1.00  0.00     0.010 A 
ATOM     19  C   UNL A   1      33.973  24.586  25.698  1.00  0.00     0.010 A 
ATOM     20  C   UNL A   1      34.156  22.454  23.939  1.00  0.00     0.004 A 
ATOM     21  C   UNL A   1      34.892  23.556  25.925  1.00  0.00     0.004 A 
ATOM     22  C   UNL A   1      35.052  22.498  25.017  1.00  0.00    -0.045 A 
BRANCH  22  23
ATOM     23  C   UNL A   1      36.149  21.459  25.106  1.00  0.00     0.019 C 
ATOM     24  C   UNL A   1      37.399  21.522  24.263  1.00  0.00     0.009 C 
ATOM     25  C   UNL A   1      37.471  21.800  25.737  1.00  0.00     0.009 C 
ENDBRANCH  22  23
ENDBRANCH   9  17
ENDBRANCH   8   9
ENDBRANCH   6   8
ENDBRANCH   5   6
ENDBRANCH   4   5
ENDBRANCH   3   4
ENDBRANCH   2   3
ENDBRANCH   1   2
BRANCH   1  26
ATOM     26  C   UNL A   1      35.782  32.953  28.301  1.00  0.00     0.188 C 
BRANCH  26  27
ATOM     27  O   UNL A   1      34.894  33.758  29.060  1.00  0.00    -0.376 OA
BRANCH  27  28
ATOM     28  C   UNL A   1      34.303  34.888  28.425  1.00  0.00     0.202 C 
BRANCH  28  29
ATOM     29  C   UNL A   1      33.310  35.745  29.229  1.00  0.00     0.261 C 
BRANCH  29  30
ATOM     30  O   UNL A   1      32.598  35.050  30.280  1.00  0.00    -0.460 OA
BRANCH  30  31
ATOM     31  C   UNL A   1      32.699  35.601  31.511  1.00  0.00     0.338 C 
ATOM     32  O   UNL A   1      31.948  36.432  32.011  1.00  0.00    -0.246 OA
BRANCH  31  33
ATOM     33  C   UNL A   1      33.791  34.998  32.301  1.00  0.00     0.060 A 
ATOM     34  C   UNL A   1      35.029  35.655  32.332  1.00  0.00     0.016 A 
ATOM     35  C   UNL A   1      33.668  33.709  32.821  1.00  0.00     0.016 A 
ATOM     36  C   UNL A   1      36.160  35.001  32.828  1.00  0.00     0.010 A 
ATOM     37  C   UNL A   1      34.807  33.049  33.305  1.00  0.00     0.010 A 
ATOM     38  C   UNL A   1      36.068  33.673  33.266  1.00  0.00    -0.014 A 
BRANCH  38  39
ATOM     39  C   UNL A   1      37.311  32.887  33.500  1.00  0.00     0.031 A 
ATOM     40  C   UNL A   1      38.108  33.131  34.752  1.00  0.00     0.074 A 
ATOM     41  C   UNL A   1      37.714  31.931  32.644  1.00  0.00     0.049 A 
ATOM     42  N   UNL A   1      39.216  32.560  35.152  1.00  0.00    -0.248 NA
ATOM     43  C   UNL A   1      37.582  34.146  35.677  1.00  0.00     0.031 C 
ATOM     44  C   UNL A   1      37.006  31.549  31.430  1.00  0.00     0.029 A 
ATOM     45  N   UNL A   1      38.812  31.107  32.665  1.00  0.00    -0.354 N 
ATOM     46  C   UNL A   1      39.515  33.138  36.378  1.00  0.00     0.074 A 
ATOM     47  C   UNL A   1      38.494  34.131  36.638  1.00  0.00     0.031 C 
ATOM     48  C   UNL A   1      37.687  30.571  30.809  1.00  0.00     0.029 A 
ATOM     49  C   UNL A   1      38.897  30.275  31.574  1.00  0.00     0.049 A 
ATOM     50  H   UNL A   1      39.476  31.111  33.392  1.00  0.00     0.167 HD
ATOM     51  C   UNL A   1      40.539  32.863  37.220  1.00  0.00     0.031 A 
ATOM     52  C   UNL A   1      39.845  29.383  31.225  1.00  0.00     0.031 A 
ATOM     53  C   UNL A   1      41.575  31.899  36.961  1.00  0.00     0.049 A 
ATOM     54  C   UNL A   1      41.026  29.162  32.133  1.00  0.00     0.074 A 
ATOM     55  C   UNL A   1      42.665  31.572  37.750  1.00  0.00     0.029 A 
ATOM     56  N   UNL A   1      41.654  31.112  35.824  1.00  0.00    -0.354 N 
ATOM     57  N   UNL A   1      41.290  29.712  33.294  1.00  0.00    -0.248 NA
ATOM     58  C   UNL A   1      42.032  28.187  31.688  1.00  0.00     0.031 C 
ATOM     59  C   UNL A   1      43.428  30.617  37.069  1.00  0.00     0.029 A 
ATOM     60  C   UNL A   1      42.784  30.312  35.881  1.00  0.00     0.049 A 
ATOM     61  H   UNL A   1      41.003  31.120  35.085  1.00  0.00     0.167 HD
ATOM     62  C   UNL A   1      42.473  29.129  33.729  1.00  0.00     0.074 A 
ATOM     63  C   UNL A   1      42.868  28.173  32.717  1.00  0.00     0.031 C 
ATOM     64  C   UNL A   1      43.169  29.365  34.868  1.00  0.00     0.031 A 
BRANCH  51  65
ATOM     65  C   UNL A   1      40.596  33.646  38.500  1.00  0.00    -0.014 A 
ATOM     66  C   UNL A   1      41.115  34.950  38.528  1.00  0.00     0.009 A 
ATOM     67  C   UNL A   1      40.113  33.079  39.689  1.00  0.00     0.009 A 
ATOM     68  C   UNL A   1      41.179  35.659  39.728  1.00  0.00     0.001 A 
ATOM     69  C   UNL A   1      40.156  33.799  40.884  1.00  0.00     0.001 A 
ATOM     70  C   UNL A   1      40.697  35.084  40.904  1.00  0.00     0.000 A 
ENDBRANCH  51  65
BRANCH  52  71
ATOM     71  C   UNL A   1      39.743  28.638  29.942  1.00  0.00    -0.014 A 
ATOM     72  C   UNL A   1      39.296  27.308  29.915  1.00  0.00     0.009 A 
ATOM     73  C   UNL A   1      40.143  29.242  28.739  1.00  0.00     0.009 A 
ATOM     74  C   UNL A   1      39.285  26.588  28.717  1.00  0.00     0.001 A 
ATOM     75  C   UNL A   1      40.103  28.529  27.539  1.00  0.00     0.001 A 
ATOM     76  C   UNL A   1      39.686  27.200  27.530  1.00  0.00     0.000 A 
ENDBRANCH  52  71
BRANCH  64  77
ATOM     77  C   UNL A   1      44.410  28.548  35.096  1.00  0.00    -0.014 A 
ATOM     78  C   UNL A   1      45.670  29.003  34.678  1.00  0.00     0.009 A 
ATOM     79  C   UNL A   1      44.319  27.316  35.764  1.00  0.00     0.009 A 
ATOM     80  C   UNL A   1      46.809  28.224  34.894  1.00  0.00     0.001 A 
ATOM     81  C   UNL A   1      45.462  26.553  36.002  1.00  0.00     0.001 A 
ATOM     82  C   UNL A   1      46.705  27.002  35.558  1.00  0.00     0.000 A 
ENDBRANCH  64  77
ENDBRANCH  38  39
ENDBRANCH  31  33
ENDBRANCH  30  31
ENDBRANCH  29  30
ENDBRANCH  28  29
ENDBRANCH  27  28
ENDBRANCH  26  27
ENDBRANCH   1  26
TORSDOF 21
ENDMDL
MODEL 3
REMARK VINA RESULT:      -8.8      5.387     10.527
REMARK SMILES O=C(C[C@H](c1ccc(C2CC2)cc1)[NH+]1CCOCC1)OCCOCCOCCOC(=O)c1ccc(-c2c3nc(c(-c4ccccc4)c4ccc([nH]4)c(-c4ccccc4)c4nc(c(-c5ccccc5)c5ccc2[nH]5)C=C4)C=C3)cc1
REMARK SMILES IDX 24 1 23 2 22 3 21 4 20 5 2 6 1 7 3 8 4 9 14 10 15 11 19 12
REMARK SMILES IDX 16 14 18 15 17 16 5 17 6 18 13 19 7 20 12 21 8 22 9 23 10 24
REMARK SMILES IDX 11 25 25 26 26 27 27 28 28 29 29 30 30 31 31 32 32 33 33 34
REMARK SMILES IDX 79 35 34 36 78 37 35 38 36 39 37 40 72 41 38 42 77 43 71 44
REMARK SMILES IDX 73 45 39 46 76 47 70 48 69 49 40 51 62 52 47 53 61 54 48 55
REMARK SMILES IDX 51 56 60 57 74 58 49 59 50 60 59 62 75 63 52 64 41 65 42 66
REMARK SMILES IDX 46 67 43 68 45 69 44 70 63 71 64 72 68 73 65 74 67 75 66 76
REMARK SMILES IDX 53 77 54 78 58 79 55 80 57 81 56 82
REMARK H PARENT 14 13 73 50 51 61
REMARK Flexibility Score: inf
ROOT
ATOM      1  C   UNL A   1      35.845  22.155  26.496  1.00  0.00     0.188 C 
ENDROOT
BRANCH   1   2
ATOM      2  O   UNL A   1      34.811  23.044  26.873  1.00  0.00    -0.376 OA
BRANCH   2   3
ATOM      3  C   UNL A   1      33.708  22.546  27.611  1.00  0.00     0.202 C 
BRANCH   3   4
ATOM      4  C   UNL A   1      32.333  22.893  27.044  1.00  0.00     0.261 C 
BRANCH   4   5
ATOM      5  O   UNL A   1      31.794  24.215  27.270  1.00  0.00    -0.463 OA
BRANCH   5   6
ATOM      6  C   UNL A   1      31.569  25.250  26.447  1.00  0.00     0.312 C 
ATOM      7  O   UNL A   1      30.493  25.848  26.514  1.00  0.00    -0.252 OA
BRANCH   6   8
ATOM      8  C   UNL A   1      32.544  25.616  25.357  1.00  0.00     0.192 C 
BRANCH   8   9
ATOM      9  C   UNL A   1      32.188  25.265  23.905  1.00  0.00     0.226 C 
BRANCH   9  10
ATOM     10  N   UNL A   1      32.544  26.255  22.862  1.00  0.00    -0.324 N 
ATOM     11  C   UNL A   1      33.406  27.394  23.232  1.00  0.00     0.291 C 
ATOM     12  C   UNL A   1      31.389  26.777  22.103  1.00  0.00     0.291 C 
ATOM     13  H   UNL A   1      33.124  25.651  22.278  1.00  0.00     0.348 HD
ATOM     14  C   UNL A   1      32.694  28.613  23.845  1.00  0.00     0.221 C 
ATOM     15  C   UNL A   1      30.700  28.007  22.717  1.00  0.00     0.221 C 
ATOM     16  O   UNL A   1      31.616  29.061  23.018  1.00  0.00    -0.370 OA
ENDBRANCH   9  10
BRANCH   9  17
ATOM     17  C   UNL A   1      32.518  23.815  23.568  1.00  0.00     0.010 A 
ATOM     18  C   UNL A   1      33.836  23.350  23.559  1.00  0.00     0.010 A 
ATOM     19  C   UNL A   1      31.484  22.868  23.529  1.00  0.00     0.010 A 
ATOM     20  C   UNL A   1      34.106  21.987  23.688  1.00  0.00     0.004 A 
ATOM     21  C   UNL A   1      31.767  21.505  23.663  1.00  0.00     0.004 A 
ATOM     22  C   UNL A   1      33.082  21.036  23.811  1.00  0.00    -0.045 A 
BRANCH  22  23
ATOM     23  C   UNL A   1      33.442  19.605  24.144  1.00  0.00     0.019 C 
ATOM     24  C   UNL A   1      32.810  18.853  25.290  1.00  0.00     0.009 C 
ATOM     25  C   UNL A   1      32.468  18.491  23.873  1.00  0.00     0.009 C 
ENDBRANCH  22  23
ENDBRANCH   9  17
ENDBRANCH   8   9
ENDBRANCH   6   8
ENDBRANCH   5   6
ENDBRANCH   4   5
ENDBRANCH   3   4
ENDBRANCH   2   3
ENDBRANCH   1   2
BRANCH   1  26
ATOM     26  C   UNL A   1      37.033  22.833  25.796  1.00  0.00     0.188 C 
BRANCH  26  27
ATOM     27  O   UNL A   1      38.189  22.056  25.529  1.00  0.00    -0.376 OA
BRANCH  27  28
ATOM     28  C   UNL A   1      38.010  20.742  25.007  1.00  0.00     0.202 C 
BRANCH  28  29
ATOM     29  C   UNL A   1      38.891  19.608  25.557  1.00  0.00     0.261 C 
BRANCH  29  30
ATOM     30  O   UNL A   1      40.317  19.847  25.505  1.00  0.00    -0.460 OA
BRANCH  30  31
ATOM     31  C   UNL A   1      40.936  19.924  26.706  1.00  0.00     0.338 C 
ATOM     32  O   UNL A   1      40.969  19.060  27.575  1.00  0.00    -0.246 OA
BRANCH  31  33
ATOM     33  C   UNL A   1      41.715  21.169  26.849  1.00  0.00     0.060 A 
ATOM     34  C   UNL A   1      42.204  21.505  28.120  1.00  0.00     0.016 A 
ATOM     35  C   UNL A   1      41.781  22.094  25.806  1.00  0.00     0.016 A 
ATOM     36  C   UNL A   1      42.702  22.788  28.365  1.00  0.00     0.010 A 
ATOM     37  C   UNL A   1      42.269  23.385  26.058  1.00  0.00     0.010 A 
ATOM     38  C   UNL A   1      42.686  23.754  27.351  1.00  0.00    -0.014 A 
BRANCH  38  39
ATOM     39  C   UNL A   1      42.926  25.184  27.691  1.00  0.00     0.031 A 
ATOM     40  C   UNL A   1      44.296  25.768  27.482  1.00  0.00     0.074 A 
ATOM     41  C   UNL A   1      41.937  25.978  28.138  1.00  0.00     0.049 A 
ATOM     42  N   UNL A   1      44.720  26.985  27.712  1.00  0.00    -0.248 NA
ATOM     43  C   UNL A   1      45.318  24.864  26.935  1.00  0.00     0.031 C 
ATOM     44  C   UNL A   1      40.555  25.560  28.326  1.00  0.00     0.029 A 
ATOM     45  N   UNL A   1      41.941  27.300  28.510  1.00  0.00    -0.354 N 
ATOM     46  C   UNL A   1      46.054  26.996  27.329  1.00  0.00     0.074 A 
ATOM     47  C   UNL A   1      46.380  25.656  26.888  1.00  0.00     0.031 C 
ATOM     48  C   UNL A   1      39.837  26.598  28.789  1.00  0.00     0.029 A 
ATOM     49  C   UNL A   1      40.720  27.751  28.953  1.00  0.00     0.049 A 
ATOM     50  H   UNL A   1      42.742  27.871  28.464  1.00  0.00     0.167 HD
ATOM     51  C   UNL A   1      46.930  28.028  27.330  1.00  0.00     0.031 A 
ATOM     52  C   UNL A   1      40.356  28.952  29.444  1.00  0.00     0.031 A 
ATOM     53  C   UNL A   1      46.628  29.357  27.791  1.00  0.00     0.049 A 
ATOM     54  C   UNL A   1      41.375  30.059  29.525  1.00  0.00     0.074 A 
ATOM     55  C   UNL A   1      47.463  30.460  27.851  1.00  0.00     0.029 A 
ATOM     56  N   UNL A   1      45.396  29.762  28.279  1.00  0.00    -0.354 N 
ATOM     57  N   UNL A   1      42.631  30.055  29.151  1.00  0.00    -0.248 NA
ATOM     58  C   UNL A   1      40.918  31.340  30.085  1.00  0.00     0.031 C 
ATOM     59  C   UNL A   1      46.748  31.522  28.414  1.00  0.00     0.029 A 
ATOM     60  C   UNL A   1      45.453  31.094  28.657  1.00  0.00     0.049 A 
ATOM     61  H   UNL A   1      44.599  29.189  28.345  1.00  0.00     0.167 HD
ATOM     62  C   UNL A   1      43.105  31.337  29.402  1.00  0.00     0.074 A 
ATOM     63  C   UNL A   1      41.999  32.096  29.945  1.00  0.00     0.031 C 
ATOM     64  C   UNL A   1      44.347  31.840  29.197  1.00  0.00     0.031 A 
BRANCH  51  65
ATOM     65  C   UNL A   1      48.319  27.743  26.836  1.00  0.00    -0.014 A 
ATOM     66  C   UNL A   1      49.352  27.416  27.729  1.00  0.00     0.009 A 
ATOM     67  C   UNL A   1      48.595  27.788  25.461  1.00  0.00     0.009 A 
ATOM     68  C   UNL A   1      50.642  27.171  27.257  1.00  0.00     0.001 A 
ATOM     69  C   UNL A   1      49.881  27.519  24.990  1.00  0.00     0.001 A 
ATOM     70  C   UNL A   1      50.904  27.220  25.888  1.00  0.00     0.000 A 
ENDBRANCH  51  65
BRANCH  52  71
ATOM     71  C   UNL A   1      38.968  29.180  29.927  1.00  0.00    -0.014 A 
ATOM     72  C   UNL A   1      37.974  29.657  29.059  1.00  0.00     0.009 A 
ATOM     73  C   UNL A   1      38.644  28.968  31.276  1.00  0.00     0.009 A 
ATOM     74  C   UNL A   1      36.694  29.950  29.540  1.00  0.00     0.001 A 
ATOM     75  C   UNL A   1      37.357  29.234  31.748  1.00  0.00     0.001 A 
ATOM     76  C   UNL A   1      36.387  29.736  30.883  1.00  0.00     0.000 A 
ENDBRANCH  52  71
BRANCH  64  77
ATOM     77  C   UNL A   1      44.565  33.289  29.530  1.00  0.00    -0.014 A 
ATOM     78  C   UNL A   1      44.997  33.690  30.803  1.00  0.00     0.009 A 
ATOM     79  C   UNL A   1      44.358  34.267  28.543  1.00  0.00     0.009 A 
ATOM     80  C   UNL A   1      45.186  35.044  31.092  1.00  0.00     0.001 A 
ATOM     81  C   UNL A   1      44.572  35.616  28.827  1.00  0.00     0.001 A 
ATOM     82  C   UNL A   1      44.976  36.005  30.103  1.00  0.00     0.000 A 
ENDBRANCH  64  77
ENDBRANCH  38  39
ENDBRANCH  31  33
ENDBRANCH  30  31
ENDBRANCH  29  30
ENDBRANCH  28  29
ENDBRANCH  27  28
ENDBRANCH  26  27
ENDBRANCH   1  26
TORSDOF 21
ENDMDL
