MODEL 1
REMARK VINA RESULT:      -9.2      0.000      0.000
REMARK SMILES NS(=O)(=O)c1ccc(C#Cc2cc(Cl)cc3c2O[C@H](C(F)(F)F)C(C(=O)OCCOCCOCCOC(=O)c2ccc(-c4c5nc(c(-c6ccccc6)c6ccc([nH]6)c(-c6ccccc6)c6nc(c(-c7ccccc7)c7ccc4[nH]7)C=C6)C=C5)cc2)=C3)cc1
REMARK SMILES IDX 31 1 30 2 29 3 28 4 27 5 25 6 26 7 24 8 11 9 12 10 17 11
REMARK SMILES IDX 13 12 16 13 18 14 14 15 15 16 87 17 19 18 10 19 9 20 8 21
REMARK SMILES IDX 5 22 6 23 89 24 7 25 88 26 2 27 3 28 4 29 1 30 20 33 21 34
REMARK SMILES IDX 22 35 23 36 32 37 33 38 34 39 35 40 36 41 37 42 38 43 39 44
REMARK SMILES IDX 40 45 86 46 41 47 85 48 42 49 43 50 44 51 79 52 45 53 84 54
REMARK SMILES IDX 78 55 80 56 46 57 83 58 77 59 76 60 47 62 69 63 54 64 68 65
REMARK SMILES IDX 55 66 58 67 67 68 81 69 56 70 57 71 66 73 82 74 59 75 48 76
REMARK SMILES IDX 49 77 53 78 50 79 52 80 51 81 70 82 71 83 75 84 72 85 74 86
REMARK SMILES IDX 73 87 60 88 61 89 65 90 62 91 64 92 63 93
REMARK H PARENT 1 31 1 32 80 61 58 72
REMARK Flexibility Score: inf
ROOT
ATOM      1  C   UNL A   1      43.797  19.017  25.450  1.00  0.00     0.188 C 
ENDROOT
BRANCH   1   2
ATOM      2  O   UNL A   1      44.217  19.514  24.202  1.00  0.00    -0.376 OA
BRANCH   2   3
ATOM      3  C   UNL A   1      45.128  20.597  24.115  1.00  0.00     0.202 C 
BRANCH   3   4
ATOM      4  C   UNL A   1      44.742  22.073  23.892  1.00  0.00     0.261 C 
BRANCH   4   5
ATOM      5  O   UNL A   1      45.484  23.068  24.604  1.00  0.00    -0.460 OA
BRANCH   5   6
ATOM      6  C   UNL A   1      44.759  24.097  25.105  1.00  0.00     0.338 C 
ATOM      7  O   UNL A   1      43.699  24.519  24.674  1.00  0.00    -0.246 OA
BRANCH   6   8
ATOM      8  C   UNL A   1      45.352  24.540  26.387  1.00  0.00     0.087 C 
ATOM      9  C   UNL A   1      47.132  25.476  30.056  1.00  0.00     0.069 A 
ATOM     10  C   UNL A   1      48.523  25.605  30.126  1.00  0.00     0.041 A 
ATOM     11  C   UNL A   1      46.509  25.254  28.815  1.00  0.00     0.143 A 
ATOM     12  C   UNL A   1      49.283  25.544  28.962  1.00  0.00     0.043 A 
ATOM     13  C   UNL A   1      47.286  25.154  27.655  1.00  0.00     0.020 A 
ATOM     14  O   UNL A   1      45.144  25.146  28.798  1.00  0.00    -0.474 OA
ATOM     15  Cl  UNL A   1      50.994  25.704  29.049  1.00  0.00    -0.084 Cl
ATOM     16  C   UNL A   1      48.674  25.329  27.727  1.00  0.00     0.032 A 
ATOM     17  C   UNL A   1      46.665  24.801  26.389  1.00  0.00     0.027 C 
ATOM     18  C   UNL A   1      44.471  24.682  27.596  1.00  0.00     0.316 C 
BRANCH   9  19
ATOM     19  C   UNL A   1      46.377  25.536  31.272  1.00  0.00    -0.058 C 
ATOM     20  C   UNL A   1      45.717  25.601  32.279  1.00  0.00    -0.062 C 
BRANCH  20  21
ATOM     21  C   UNL A   1      44.899  25.735  33.442  1.00  0.00     0.025 A 
ATOM     22  C   UNL A   1      43.199  25.918  35.650  1.00  0.00     0.082 A 
ATOM     23  C   UNL A   1      42.937  26.678  34.505  1.00  0.00     0.023 A 
ATOM     24  C   UNL A   1      44.326  25.094  35.712  1.00  0.00     0.023 A 
ATOM     25  C   UNL A   1      43.787  26.582  33.402  1.00  0.00     0.018 A 
ATOM     26  C   UNL A   1      45.175  25.003  34.603  1.00  0.00     0.018 A 
BRANCH  22  27
ATOM     27  S   UNL A   1      42.025  25.997  36.968  1.00  0.00     0.238 S 
ATOM     28  O   UNL A   1      40.904  26.792  36.525  1.00  0.00    -0.207 OA
ATOM     29  O   UNL A   1      42.733  26.263  38.197  1.00  0.00    -0.207 OA
BRANCH  27  30
ATOM     30  N   UNL A   1      41.428  24.433  37.125  1.00  0.00    -0.225 NA
ATOM     31  H   UNL A   1      40.935  24.170  36.272  1.00  0.00     0.137 HD
ATOM     32  H   UNL A   1      40.786  24.393  37.916  1.00  0.00     0.137 HD
ENDBRANCH  27  30
ENDBRANCH  22  27
ENDBRANCH  20  21
ENDBRANCH   9  19
BRANCH  18  33
ATOM     33  C   UNL A   1      43.735  23.376  27.916  1.00  0.00     0.430 C 
ATOM     34  F   UNL A   1      44.377  22.304  27.393  1.00  0.00    -0.167 F 
ATOM     35  F   UNL A   1      43.650  23.166  29.250  1.00  0.00    -0.167 F 
ATOM     36  F   UNL A   1      42.475  23.378  27.425  1.00  0.00    -0.167 F 
ENDBRANCH  18  33
ENDBRANCH   6   8
ENDBRANCH   5   6
ENDBRANCH   4   5
ENDBRANCH   3   4
ENDBRANCH   2   3
ENDBRANCH   1   2
BRANCH   1  37
ATOM     37  C   UNL A   1      42.339  19.260  25.892  1.00  0.00     0.188 C 
BRANCH  37  38
ATOM     38  O   UNL A   1      42.087  19.571  27.241  1.00  0.00    -0.376 OA
BRANCH  38  39
ATOM     39  C   UNL A   1      40.999  20.418  27.578  1.00  0.00     0.202 C 
BRANCH  39  40
ATOM     40  C   UNL A   1      40.034  21.088  26.573  1.00  0.00     0.261 C 
BRANCH  40  41
ATOM     41  O   UNL A   1      40.263  22.455  26.211  1.00  0.00    -0.460 OA
BRANCH  41  42
ATOM     42  C   UNL A   1      39.178  23.274  26.231  1.00  0.00     0.338 C 
ATOM     43  O   UNL A   1      38.035  22.993  25.920  1.00  0.00    -0.246 OA
BRANCH  42  44
ATOM     44  C   UNL A   1      39.567  24.529  26.908  1.00  0.00     0.060 A 
ATOM     45  C   UNL A   1      40.314  25.487  26.226  1.00  0.00     0.016 A 
ATOM     46  C   UNL A   1      39.215  24.730  28.252  1.00  0.00     0.016 A 
ATOM     47  C   UNL A   1      40.703  26.653  26.891  1.00  0.00     0.010 A 
ATOM     48  C   UNL A   1      39.622  25.890  28.922  1.00  0.00     0.010 A 
ATOM     49  C   UNL A   1      40.354  26.870  28.239  1.00  0.00    -0.014 A 
BRANCH  49  50
ATOM     50  C   UNL A   1      40.618  28.197  28.856  1.00  0.00     0.031 A 
ATOM     51  C   UNL A   1      39.572  29.269  28.936  1.00  0.00     0.074 A 
ATOM     52  C   UNL A   1      41.840  28.414  29.378  1.00  0.00     0.049 A 
ATOM     53  N   UNL A   1      39.630  30.418  29.564  1.00  0.00    -0.248 NA
ATOM     54  C   UNL A   1      38.308  29.036  28.225  1.00  0.00     0.031 C 
ATOM     55  C   UNL A   1      42.945  27.455  29.333  1.00  0.00     0.029 A 
ATOM     56  N   UNL A   1      42.354  29.484  30.067  1.00  0.00    -0.354 N 
ATOM     57  C   UNL A   1      38.407  31.037  29.346  1.00  0.00     0.074 A 
ATOM     58  C   UNL A   1      37.643  30.158  28.483  1.00  0.00     0.031 C 
ATOM     59  C   UNL A   1      43.986  27.955  30.011  1.00  0.00     0.029 A 
ATOM     60  C   UNL A   1      43.644  29.288  30.500  1.00  0.00     0.049 A 
ATOM     61  H   UNL A   1      41.848  30.312  30.233  1.00  0.00     0.167 HD
ATOM     62  C   UNL A   1      37.961  32.218  29.841  1.00  0.00     0.031 A 
ATOM     63  C   UNL A   1      44.465  30.080  31.219  1.00  0.00     0.031 A 
ATOM     64  C   UNL A   1      38.737  33.090  30.690  1.00  0.00     0.049 A 
ATOM     65  C   UNL A   1      43.956  31.404  31.720  1.00  0.00     0.074 A 
ATOM     66  C   UNL A   1      38.345  34.282  31.275  1.00  0.00     0.029 A 
ATOM     67  N   UNL A   1      40.056  32.880  31.065  1.00  0.00    -0.354 N 
ATOM     68  N   UNL A   1      42.764  31.931  31.585  1.00  0.00    -0.248 NA
ATOM     69  C   UNL A   1      44.895  32.233  32.489  1.00  0.00     0.031 C 
ATOM     70  C   UNL A   1      39.448  34.840  31.921  1.00  0.00     0.029 A 
ATOM     71  C   UNL A   1      40.501  33.944  31.835  1.00  0.00     0.049 A 
ATOM     72  H   UNL A   1      40.595  32.093  30.822  1.00  0.00     0.167 HD
ATOM     73  C   UNL A   1      42.800  33.137  32.274  1.00  0.00     0.074 A 
ATOM     74  C   UNL A   1      44.125  33.252  32.846  1.00  0.00     0.031 C 
ATOM     75  C   UNL A   1      41.819  34.062  32.413  1.00  0.00     0.031 A 
BRANCH  62  76
ATOM     76  C   UNL A   1      36.558  32.660  29.507  1.00  0.00    -0.014 A 
ATOM     77  C   UNL A   1      36.277  33.199  28.239  1.00  0.00     0.009 A 
ATOM     78  C   UNL A   1      35.559  32.701  30.492  1.00  0.00     0.009 A 
ATOM     79  C   UNL A   1      35.042  33.799  27.977  1.00  0.00     0.001 A 
ATOM     80  C   UNL A   1      34.312  33.268  30.215  1.00  0.00     0.001 A 
ATOM     81  C   UNL A   1      34.061  33.831  28.965  1.00  0.00     0.000 A 
ENDBRANCH  62  76
BRANCH  63  82
ATOM     82  C   UNL A   1      45.841  29.605  31.533  1.00  0.00    -0.014 A 
ATOM     83  C   UNL A   1      46.830  29.576  30.535  1.00  0.00     0.009 A 
ATOM     84  C   UNL A   1      46.161  29.122  32.811  1.00  0.00     0.009 A 
ATOM     85  C   UNL A   1      48.092  29.040  30.795  1.00  0.00     0.001 A 
ATOM     86  C   UNL A   1      47.440  28.625  33.081  1.00  0.00     0.001 A 
ATOM     87  C   UNL A   1      48.398  28.571  32.070  1.00  0.00     0.000 A 
ENDBRANCH  63  82
BRANCH  75  88
ATOM     88  C   UNL A   1      42.106  35.295  33.233  1.00  0.00    -0.014 A 
ATOM     89  C   UNL A   1      42.931  36.305  32.707  1.00  0.00     0.009 A 
ATOM     90  C   UNL A   1      41.671  35.408  34.563  1.00  0.00     0.009 A 
ATOM     91  C   UNL A   1      43.337  37.380  33.500  1.00  0.00     0.001 A 
ATOM     92  C   UNL A   1      42.045  36.507  35.341  1.00  0.00     0.001 A 
ATOM     93  C   UNL A   1      42.890  37.483  34.816  1.00  0.00     0.000 A 
ENDBRANCH  75  88
ENDBRANCH  49  50
ENDBRANCH  42  44
ENDBRANCH  41  42
ENDBRANCH  40  41
ENDBRANCH  39  40
ENDBRANCH  38  39
ENDBRANCH  37  38
ENDBRANCH   1  37
TORSDOF 22
ENDMDL
MODEL 2
REMARK VINA RESULT:      -9.1      2.992      4.379
REMARK SMILES NS(=O)(=O)c1ccc(C#Cc2cc(Cl)cc3c2O[C@H](C(F)(F)F)C(C(=O)OCCOCCOCCOC(=O)c2ccc(-c4c5nc(c(-c6ccccc6)c6ccc([nH]6)c(-c6ccccc6)c6nc(c(-c7ccccc7)c7ccc4[nH]7)C=C6)C=C5)cc2)=C3)cc1
REMARK SMILES IDX 31 1 30 2 29 3 28 4 27 5 25 6 26 7 24 8 11 9 12 10 17 11
REMARK SMILES IDX 13 12 16 13 18 14 14 15 15 16 87 17 19 18 10 19 9 20 8 21
REMARK SMILES IDX 5 22 6 23 89 24 7 25 88 26 2 27 3 28 4 29 1 30 20 33 21 34
REMARK SMILES IDX 22 35 23 36 32 37 33 38 34 39 35 40 36 41 37 42 38 43 39 44
REMARK SMILES IDX 40 45 86 46 41 47 85 48 42 49 43 50 44 51 79 52 45 53 84 54
REMARK SMILES IDX 78 55 80 56 46 57 83 58 77 59 76 60 47 62 69 63 54 64 68 65
REMARK SMILES IDX 55 66 58 67 67 68 81 69 56 70 57 71 66 73 82 74 59 75 48 76
REMARK SMILES IDX 49 77 53 78 50 79 52 80 51 81 70 82 71 83 75 84 72 85 74 86
REMARK SMILES IDX 73 87 60 88 61 89 65 90 62 91 64 92 63 93
REMARK H PARENT 1 31 1 32 80 61 58 72
REMARK Flexibility Score: inf
ROOT
ATOM      1  C   UNL A   1      43.450  18.710  25.487  1.00  0.00     0.188 C 
ENDROOT
BRANCH   1   2
ATOM      2  O   UNL A   1      43.725  19.863  24.728  1.00  0.00    -0.376 OA
BRANCH   2   3
ATOM      3  C   UNL A   1      44.352  20.991  25.314  1.00  0.00     0.202 C 
BRANCH   3   4
ATOM      4  C   UNL A   1      45.872  21.247  25.354  1.00  0.00     0.261 C 
BRANCH   4   5
ATOM      5  O   UNL A   1      46.315  22.563  25.704  1.00  0.00    -0.460 OA
BRANCH   5   6
ATOM      6  C   UNL A   1      46.248  23.488  24.716  1.00  0.00     0.338 C 
ATOM      7  O   UNL A   1      45.760  23.337  23.609  1.00  0.00    -0.246 OA
BRANCH   6   8
ATOM      8  C   UNL A   1      46.699  24.799  25.236  1.00  0.00     0.087 C 
ATOM      9  C   UNL A   1      47.898  28.392  27.013  1.00  0.00     0.069 A 
ATOM     10  C   UNL A   1      49.124  28.445  27.684  1.00  0.00     0.041 A 
ATOM     11  C   UNL A   1      47.520  27.221  26.331  1.00  0.00     0.143 A 
ATOM     12  C   UNL A   1      49.981  27.350  27.646  1.00  0.00     0.043 A 
ATOM     13  C   UNL A   1      48.373  26.110  26.334  1.00  0.00     0.020 A 
ATOM     14  O   UNL A   1      46.315  27.223  25.681  1.00  0.00    -0.474 OA
ATOM     15  Cl  UNL A   1      51.490  27.417  28.470  1.00  0.00    -0.084 Cl
ATOM     16  C   UNL A   1      49.618  26.187  26.969  1.00  0.00     0.032 A 
ATOM     17  C   UNL A   1      47.938  24.857  25.739  1.00  0.00     0.027 C 
ATOM     18  C   UNL A   1      45.769  25.978  25.168  1.00  0.00     0.316 C 
BRANCH   9  19
ATOM     19  C   UNL A   1      47.033  29.532  27.076  1.00  0.00    -0.058 C 
ATOM     20  C   UNL A   1      46.330  30.511  27.116  1.00  0.00    -0.062 C 
BRANCH  20  21
ATOM     21  C   UNL A   1      45.557  31.711  27.164  1.00  0.00     0.025 A 
ATOM     22  C   UNL A   1      44.113  34.091  27.383  1.00  0.00     0.082 A 
ATOM     23  C   UNL A   1      43.780  32.998  28.190  1.00  0.00     0.023 A 
ATOM     24  C   UNL A   1      45.141  33.992  26.442  1.00  0.00     0.023 A 
ATOM     25  C   UNL A   1      44.505  31.811  28.080  1.00  0.00     0.018 A 
ATOM     26  C   UNL A   1      45.864  32.797  26.336  1.00  0.00     0.018 A 
BRANCH  22  27
ATOM     27  S   UNL A   1      43.233  35.601  27.650  1.00  0.00     0.238 S 
ATOM     28  O   UNL A   1      44.180  36.602  28.080  1.00  0.00    -0.207 OA
ATOM     29  O   UNL A   1      42.025  35.303  28.380  1.00  0.00    -0.207 OA
BRANCH  27  30
ATOM     30  N   UNL A   1      42.725  36.093  26.125  1.00  0.00    -0.225 NA
ATOM     31  H   UNL A   1      43.036  37.049  25.955  1.00  0.00     0.137 HD
ATOM     32  H   UNL A   1      41.707  36.053  26.078  1.00  0.00     0.137 HD
ENDBRANCH  27  30
ENDBRANCH  22  27
ENDBRANCH  20  21
ENDBRANCH   9  19
BRANCH  18  33
ATOM     33  C   UNL A   1      44.441  25.691  25.878  1.00  0.00     0.430 C 
ATOM     34  F   UNL A   1      44.585  24.751  26.841  1.00  0.00    -0.167 F 
ATOM     35  F   UNL A   1      43.952  26.799  26.484  1.00  0.00    -0.167 F 
ATOM     36  F   UNL A   1      43.497  25.252  25.015  1.00  0.00    -0.167 F 
ENDBRANCH  18  33
ENDBRANCH   6   8
ENDBRANCH   5   6
ENDBRANCH   4   5
ENDBRANCH   3   4
ENDBRANCH   2   3
ENDBRANCH   1   2
BRANCH   1  37
ATOM     37  C   UNL A   1      42.140  18.653  26.301  1.00  0.00     0.188 C 
BRANCH  37  38
ATOM     38  O   UNL A   1      42.063  19.374  27.506  1.00  0.00    -0.376 OA
BRANCH  38  39
ATOM     39  C   UNL A   1      41.179  20.479  27.611  1.00  0.00     0.202 C 
BRANCH  39  40
ATOM     40  C   UNL A   1      40.182  20.942  26.525  1.00  0.00     0.261 C 
BRANCH  40  41
ATOM     41  O   UNL A   1      40.283  22.281  26.028  1.00  0.00    -0.460 OA
BRANCH  41  42
ATOM     42  C   UNL A   1      39.174  23.057  26.151  1.00  0.00     0.338 C 
ATOM     43  O   UNL A   1      38.021  22.740  25.920  1.00  0.00    -0.246 OA
BRANCH  42  44
ATOM     44  C   UNL A   1      39.567  24.310  26.832  1.00  0.00     0.060 A 
ATOM     45  C   UNL A   1      40.354  25.247  26.166  1.00  0.00     0.016 A 
ATOM     46  C   UNL A   1      39.177  24.528  28.163  1.00  0.00     0.016 A 
ATOM     47  C   UNL A   1      40.745  26.410  26.835  1.00  0.00     0.010 A 
ATOM     48  C   UNL A   1      39.587  25.684  28.836  1.00  0.00     0.010 A 
ATOM     49  C   UNL A   1      40.359  26.645  28.170  1.00  0.00    -0.014 A 
BRANCH  49  50
ATOM     50  C   UNL A   1      40.630  27.970  28.785  1.00  0.00     0.031 A 
ATOM     51  C   UNL A   1      39.598  29.057  28.844  1.00  0.00     0.074 A 
ATOM     52  C   UNL A   1      41.847  28.174  29.326  1.00  0.00     0.049 A 
ATOM     53  N   UNL A   1      39.660  30.208  29.468  1.00  0.00    -0.248 NA
ATOM     54  C   UNL A   1      38.342  28.837  28.114  1.00  0.00     0.031 C 
ATOM     55  C   UNL A   1      42.939  27.200  29.303  1.00  0.00     0.029 A 
ATOM     56  N   UNL A   1      42.364  29.240  30.019  1.00  0.00    -0.354 N 
ATOM     57  C   UNL A   1      38.449  30.841  29.228  1.00  0.00     0.074 A 
ATOM     58  C   UNL A   1      37.688  29.969  28.356  1.00  0.00     0.031 C 
ATOM     59  C   UNL A   1      43.976  27.690  29.996  1.00  0.00     0.029 A 
ATOM     60  C   UNL A   1      43.644  29.029  30.474  1.00  0.00     0.049 A 
ATOM     61  H   UNL A   1      41.866  30.075  30.174  1.00  0.00     0.167 HD
ATOM     62  C   UNL A   1      38.010  32.030  29.710  1.00  0.00     0.031 A 
ATOM     63  C   UNL A   1      44.463  29.813  31.203  1.00  0.00     0.031 A 
ATOM     64  C   UNL A   1      38.784  32.896  30.568  1.00  0.00     0.049 A 
ATOM     65  C   UNL A   1      43.964  31.146  31.690  1.00  0.00     0.074 A 
ATOM     66  C   UNL A   1      38.399  34.096  31.142  1.00  0.00     0.029 A 
ATOM     67  N   UNL A   1      40.094  32.670  30.966  1.00  0.00    -0.354 N 
ATOM     68  N   UNL A   1      42.780  31.688  31.534  1.00  0.00    -0.248 NA
ATOM     69  C   UNL A   1      44.901  31.966  32.471  1.00  0.00     0.031 C 
ATOM     70  C   UNL A   1      39.498  34.641  31.803  1.00  0.00     0.029 A 
ATOM     71  C   UNL A   1      40.541  33.731  31.738  1.00  0.00     0.049 A 
ATOM     72  H   UNL A   1      40.627  31.875  30.735  1.00  0.00     0.167 HD
ATOM     73  C   UNL A   1      42.822  32.896  32.218  1.00  0.00     0.074 A 
ATOM     74  C   UNL A   1      44.138  32.997  32.812  1.00  0.00     0.031 C 
ATOM     75  C   UNL A   1      41.851  33.835  32.338  1.00  0.00     0.031 A 
BRANCH  62  76
ATOM     76  C   UNL A   1      36.620  32.489  29.351  1.00  0.00    -0.014 A 
ATOM     77  C   UNL A   1      36.414  33.265  28.198  1.00  0.00     0.009 A 
ATOM     78  C   UNL A   1      35.545  32.299  30.235  1.00  0.00     0.009 A 
ATOM     79  C   UNL A   1      35.177  33.869  27.955  1.00  0.00     0.001 A 
ATOM     80  C   UNL A   1      34.299  32.873  29.971  1.00  0.00     0.001 A 
ATOM     81  C   UNL A   1      34.120  33.671  28.841  1.00  0.00     0.000 A 
ENDBRANCH  62  76
BRANCH  63  82
ATOM     82  C   UNL A   1      45.827  29.322  31.542  1.00  0.00    -0.014 A 
ATOM     83  C   UNL A   1      46.044  28.575  32.713  1.00  0.00     0.009 A 
ATOM     84  C   UNL A   1      46.929  29.645  30.737  1.00  0.00     0.009 A 
ATOM     85  C   UNL A   1      47.334  28.197  33.089  1.00  0.00     0.001 A 
ATOM     86  C   UNL A   1      48.215  29.227  31.093  1.00  0.00     0.001 A 
ATOM     87  C   UNL A   1      48.418  28.518  32.276  1.00  0.00     0.000 A 
ENDBRANCH  63  82
BRANCH  75  88
ATOM     88  C   UNL A   1      42.140  35.068  33.157  1.00  0.00    -0.014 A 
ATOM     89  C   UNL A   1      42.953  36.084  32.623  1.00  0.00     0.009 A 
ATOM     90  C   UNL A   1      41.720  35.175  34.492  1.00  0.00     0.009 A 
ATOM     91  C   UNL A   1      43.363  37.159  33.414  1.00  0.00     0.001 A 
ATOM     92  C   UNL A   1      42.097  36.274  35.268  1.00  0.00     0.001 A 
ATOM     93  C   UNL A   1      42.931  37.256  34.735  1.00  0.00     0.000 A 
ENDBRANCH  75  88
ENDBRANCH  49  50
ENDBRANCH  42  44
ENDBRANCH  41  42
ENDBRANCH  40  41
ENDBRANCH  39  40
ENDBRANCH  38  39
ENDBRANCH  37  38
ENDBRANCH   1  37
TORSDOF 22
ENDMDL
MODEL 3
REMARK VINA RESULT:      -8.7      2.960      6.978
REMARK SMILES NS(=O)(=O)c1ccc(C#Cc2cc(Cl)cc3c2O[C@H](C(F)(F)F)C(C(=O)OCCOCCOCCOC(=O)c2ccc(-c4c5nc(c(-c6ccccc6)c6ccc([nH]6)c(-c6ccccc6)c6nc(c(-c7ccccc7)c7ccc4[nH]7)C=C6)C=C5)cc2)=C3)cc1
REMARK SMILES IDX 31 1 30 2 29 3 28 4 27 5 25 6 26 7 24 8 11 9 12 10 17 11
REMARK SMILES IDX 13 12 16 13 18 14 14 15 15 16 87 17 19 18 10 19 9 20 8 21
REMARK SMILES IDX 5 22 6 23 89 24 7 25 88 26 2 27 3 28 4 29 1 30 20 33 21 34
REMARK SMILES IDX 22 35 23 36 32 37 33 38 34 39 35 40 36 41 37 42 38 43 39 44
REMARK SMILES IDX 40 45 86 46 41 47 85 48 42 49 43 50 44 51 79 52 45 53 84 54
REMARK SMILES IDX 78 55 80 56 46 57 83 58 77 59 76 60 47 62 69 63 54 64 68 65
REMARK SMILES IDX 55 66 58 67 67 68 81 69 56 70 57 71 66 73 82 74 59 75 48 76
REMARK SMILES IDX 49 77 53 78 50 79 52 80 51 81 70 82 71 83 75 84 72 85 74 86
REMARK SMILES IDX 73 87 60 88 61 89 65 90 62 91 64 92 63 93
REMARK H PARENT 1 31 1 32 80 61 58 72
REMARK Flexibility Score: inf
ROOT
ATOM      1  C   UNL A   1      43.539  19.260  25.211  1.00  0.00     0.188 C 
ENDROOT
BRANCH   1   2
ATOM      2  O   UNL A   1      43.656  20.651  25.034  1.00  0.00    -0.376 OA
BRANCH   2   3
ATOM      3  C   UNL A   1      44.828  21.221  24.477  1.00  0.00     0.202 C 
BRANCH   3   4
ATOM      4  C   UNL A   1      44.864  22.417  23.504  1.00  0.00     0.261 C 
BRANCH   4   5
ATOM      5  O   UNL A   1      45.333  23.671  24.009  1.00  0.00    -0.460 OA
BRANCH   5   6
ATOM      6  C   UNL A   1      46.018  23.616  25.177  1.00  0.00     0.338 C 
ATOM      7  O   UNL A   1      46.293  22.612  25.812  1.00  0.00    -0.246 OA
BRANCH   6   8
ATOM      8  C   UNL A   1      46.556  24.957  25.497  1.00  0.00     0.087 C 
ATOM      9  C   UNL A   1      48.056  28.664  26.729  1.00  0.00     0.069 A 
ATOM     10  C   UNL A   1      49.379  28.750  27.175  1.00  0.00     0.041 A 
ATOM     11  C   UNL A   1      47.563  27.446  26.225  1.00  0.00     0.143 A 
ATOM     12  C   UNL A   1      50.212  27.639  27.087  1.00  0.00     0.043 A 
ATOM     13  C   UNL A   1      48.398  26.324  26.178  1.00  0.00     0.020 A 
ATOM     14  O   UNL A   1      46.264  27.417  25.790  1.00  0.00    -0.474 OA
ATOM     15  Cl  UNL A   1      51.840  27.746  27.634  1.00  0.00    -0.084 Cl
ATOM     16  C   UNL A   1      49.734  26.431  26.584  1.00  0.00     0.032 A 
ATOM     17  C   UNL A   1      47.864  25.033  25.776  1.00  0.00     0.027 C 
ATOM     18  C   UNL A   1      45.634  26.143  25.486  1.00  0.00     0.316 C 
BRANCH   9  19
ATOM     19  C   UNL A   1      47.220  29.821  26.839  1.00  0.00    -0.058 C 
ATOM     20  C   UNL A   1      46.534  30.805  26.958  1.00  0.00    -0.062 C 
BRANCH  20  21
ATOM     21  C   UNL A   1      45.738  31.973  27.170  1.00  0.00     0.025 A 
ATOM     22  C   UNL A   1      44.067  34.175  27.556  1.00  0.00     0.082 A 
ATOM     23  C   UNL A   1      44.329  33.721  26.260  1.00  0.00     0.023 A 
ATOM     24  C   UNL A   1      44.662  33.559  28.660  1.00  0.00     0.023 A 
ATOM     25  C   UNL A   1      45.164  32.618  26.071  1.00  0.00     0.018 A 
ATOM     26  C   UNL A   1      45.498  32.454  28.462  1.00  0.00     0.018 A 
BRANCH  22  27
ATOM     27  S   UNL A   1      42.914  35.503  27.737  1.00  0.00     0.238 S 
ATOM     28  O   UNL A   1      43.661  36.724  27.925  1.00  0.00    -0.207 OA
ATOM     29  O   UNL A   1      41.867  35.081  28.638  1.00  0.00    -0.207 OA
BRANCH  27  30
ATOM     30  N   UNL A   1      42.175  35.658  26.235  1.00  0.00    -0.225 NA
ATOM     31  H   UNL A   1      42.698  35.122  25.542  1.00  0.00     0.137 HD
ATOM     32  H   UNL A   1      42.160  36.641  25.964  1.00  0.00     0.137 HD
ENDBRANCH  27  30
ENDBRANCH  22  27
ENDBRANCH  20  21
ENDBRANCH   9  19
BRANCH  18  33
ATOM     33  C   UNL A   1      44.445  25.943  26.433  1.00  0.00     0.430 C 
ATOM     34  F   UNL A   1      43.874  27.123  26.770  1.00  0.00    -0.167 F 
ATOM     35  F   UNL A   1      43.476  25.190  25.861  1.00  0.00    -0.167 F 
ATOM     36  F   UNL A   1      44.815  25.325  27.578  1.00  0.00    -0.167 F 
ENDBRANCH  18  33
ENDBRANCH   6   8
ENDBRANCH   5   6
ENDBRANCH   4   5
ENDBRANCH   3   4
ENDBRANCH   2   3
ENDBRANCH   1   2
BRANCH   1  37
ATOM     37  C   UNL A   1      42.451  18.722  26.163  1.00  0.00     0.188 C 
BRANCH  37  38
ATOM     38  O   UNL A   1      42.233  19.389  27.383  1.00  0.00    -0.376 OA
BRANCH  38  39
ATOM     39  C   UNL A   1      41.105  20.238  27.530  1.00  0.00     0.202 C 
BRANCH  39  40
ATOM     40  C   UNL A   1      40.275  20.841  26.375  1.00  0.00     0.261 C 
BRANCH  40  41
ATOM     41  O   UNL A   1      40.411  22.238  26.090  1.00  0.00    -0.460 OA
BRANCH  41  42
ATOM     42  C   UNL A   1      39.268  22.974  26.118  1.00  0.00     0.338 C 
ATOM     43  O   UNL A   1      38.154  22.623  25.774  1.00  0.00    -0.246 OA
BRANCH  42  44
ATOM     44  C   UNL A   1      39.551  24.228  26.850  1.00  0.00     0.060 A 
ATOM     45  C   UNL A   1      39.066  24.404  28.144  1.00  0.00     0.016 A 
ATOM     46  C   UNL A   1      40.274  25.252  26.218  1.00  0.00     0.016 A 
ATOM     47  C   UNL A   1      39.312  25.608  28.809  1.00  0.00     0.010 A 
ATOM     48  C   UNL A   1      40.502  26.464  26.880  1.00  0.00     0.010 A 
ATOM     49  C   UNL A   1      40.039  26.644  28.189  1.00  0.00    -0.014 A 
BRANCH  49  50
ATOM     50  C   UNL A   1      40.445  27.830  28.989  1.00  0.00     0.031 A 
ATOM     51  C   UNL A   1      41.810  27.962  29.596  1.00  0.00     0.074 A 
ATOM     52  C   UNL A   1      39.547  28.822  29.140  1.00  0.00     0.049 A 
ATOM     53  N   UNL A   1      42.336  28.999  30.202  1.00  0.00    -0.248 NA
ATOM     54  C   UNL A   1      42.698  26.793  29.526  1.00  0.00     0.031 C 
ATOM     55  C   UNL A   1      38.179  28.791  28.617  1.00  0.00     0.029 A 
ATOM     56  N   UNL A   1      39.646  30.050  29.745  1.00  0.00    -0.354 N 
ATOM     57  C   UNL A   1      43.621  28.620  30.565  1.00  0.00     0.074 A 
ATOM     58  C   UNL A   1      43.779  27.238  30.158  1.00  0.00     0.031 C 
ATOM     59  C   UNL A   1      37.586  29.964  28.876  1.00  0.00     0.029 A 
ATOM     60  C   UNL A   1      38.510  30.815  29.622  1.00  0.00     0.049 A 
ATOM     61  H   UNL A   1      40.453  30.353  30.220  1.00  0.00     0.167 HD
ATOM     62  C   UNL A   1      44.581  29.368  31.163  1.00  0.00     0.031 A 
ATOM     63  C   UNL A   1      38.235  32.063  30.049  1.00  0.00     0.031 A 
ATOM     64  C   UNL A   1      44.405  30.740  31.575  1.00  0.00     0.049 A 
ATOM     65  C   UNL A   1      39.307  32.855  30.747  1.00  0.00     0.074 A 
ATOM     66  C   UNL A   1      45.341  31.588  32.145  1.00  0.00     0.029 A 
ATOM     67  N   UNL A   1      43.225  31.463  31.479  1.00  0.00    -0.354 N 
ATOM     68  N   UNL A   1      40.548  32.515  30.997  1.00  0.00    -0.248 NA
ATOM     69  C   UNL A   1      38.951  34.207  31.201  1.00  0.00     0.031 C 
ATOM     70  C   UNL A   1      44.707  32.783  32.480  1.00  0.00     0.029 A 
ATOM     71  C   UNL A   1      43.401  32.727  32.020  1.00  0.00     0.049 A 
ATOM     72  H   UNL A   1      42.387  31.128  31.085  1.00  0.00     0.167 HD
ATOM     73  C   UNL A   1      41.128  33.619  31.611  1.00  0.00     0.074 A 
ATOM     74  C   UNL A   1      40.110  34.646  31.674  1.00  0.00     0.031 C 
ATOM     75  C   UNL A   1      42.392  33.758  32.081  1.00  0.00     0.031 A 
BRANCH  62  76
ATOM     76  C   UNL A   1      45.934  28.749  31.407  1.00  0.00    -0.014 A 
ATOM     77  C   UNL A   1      46.865  28.665  30.358  1.00  0.00     0.009 A 
ATOM     78  C   UNL A   1      46.224  28.100  32.618  1.00  0.00     0.009 A 
ATOM     79  C   UNL A   1      48.039  27.919  30.503  1.00  0.00     0.001 A 
ATOM     80  C   UNL A   1      47.415  27.386  32.773  1.00  0.00     0.001 A 
ATOM     81  C   UNL A   1      48.313  27.282  31.711  1.00  0.00     0.000 A 
ENDBRANCH  62  76
BRANCH  63  82
ATOM     82  C   UNL A   1      36.889  32.642  29.783  1.00  0.00    -0.014 A 
ATOM     83  C   UNL A   1      36.649  33.375  28.607  1.00  0.00     0.009 A 
ATOM     84  C   UNL A   1      35.855  32.522  30.723  1.00  0.00     0.009 A 
ATOM     85  C   UNL A   1      35.422  34.005  28.397  1.00  0.00     0.001 A 
ATOM     86  C   UNL A   1      34.611  33.118  30.489  1.00  0.00     0.001 A 
ATOM     87  C   UNL A   1      34.402  33.871  29.335  1.00  0.00     0.000 A 
ENDBRANCH  63  82
BRANCH  75  88
ATOM     88  C   UNL A   1      42.787  35.077  32.699  1.00  0.00    -0.014 A 
ATOM     89  C   UNL A   1      42.406  35.368  34.021  1.00  0.00     0.009 A 
ATOM     90  C   UNL A   1      43.421  36.077  31.947  1.00  0.00     0.009 A 
ATOM     91  C   UNL A   1      42.622  36.636  34.563  1.00  0.00     0.001 A 
ATOM     92  C   UNL A   1      43.675  37.333  32.506  1.00  0.00     0.001 A 
ATOM     93  C   UNL A   1      43.261  37.616  33.807  1.00  0.00     0.000 A 
ENDBRANCH  75  88
ENDBRANCH  49  50
ENDBRANCH  42  44
ENDBRANCH  41  42
ENDBRANCH  40  41
ENDBRANCH  39  40
ENDBRANCH  38  39
ENDBRANCH  37  38
ENDBRANCH   1  37
TORSDOF 22
ENDMDL
