MODEL 1
REMARK VINA RESULT:      -9.7      0.000      0.000
REMARK SMILES CCCc1cc(OCC(=O)OCCOCCOCCOC(=O)c2ccc(-c3c4nc(c(-c5ccccc5)c5ccc([nH]5)c(-c5ccccc5)c5nc(c(-c6ccccc6)c6ccc3[nH]6)C=C5)C=C4)cc2)nc(Nc2ccc(C#N)cc2)n1
REMARK SMILES IDX 14 1 13 2 12 3 11 4 9 5 10 6 8 7 7 8 6 9 4 10 5 11 82 12
REMARK SMILES IDX 72 13 71 14 3 15 2 16 1 17 73 18 74 20 75 21 81 22 76 23
REMARK SMILES IDX 80 24 77 25 78 26 79 27 15 28 16 29 17 30 18 31 19 32 20 33
REMARK SMILES IDX 21 34 22 35 23 36 24 37 70 38 25 39 69 40 26 41 27 42 28 43
REMARK SMILES IDX 63 44 29 45 68 46 62 47 64 48 30 49 67 50 61 51 60 52 31 54
REMARK SMILES IDX 53 55 38 56 52 57 39 58 42 59 51 60 65 61 40 62 41 63 50 65
REMARK SMILES IDX 66 66 43 67 32 68 33 69 37 70 34 71 36 72 35 73 54 74 55 75
REMARK SMILES IDX 59 76 56 77 58 78 57 79 44 80 45 81 49 82 46 83 48 84 47 85
REMARK H PARENT 73 19 64 53 42 64
REMARK Flexibility Score: inf
ROOT
ATOM      1  O   UNL A   1      32.726  22.273  22.676  1.00  0.00    -0.376 OA
ENDROOT
BRANCH   1   2
ATOM      2  C   UNL A   1      32.336  21.141  23.423  1.00  0.00     0.202 C 
BRANCH   2   3
ATOM      3  C   UNL A   1      32.025  21.414  24.904  1.00  0.00     0.261 C 
BRANCH   3   4
ATOM      4  O   UNL A   1      32.971  20.829  25.847  1.00  0.00    -0.461 OA
BRANCH   4   5
ATOM      5  C   UNL A   1      34.191  21.423  25.981  1.00  0.00     0.344 C 
ATOM      6  O   UNL A   1      34.474  22.182  26.905  1.00  0.00    -0.248 OA
BRANCH   5   7
ATOM      7  C   UNL A   1      35.289  20.967  24.945  1.00  0.00     0.353 C 
BRANCH   7   8
ATOM      8  O   UNL A   1      36.290  21.816  24.393  1.00  0.00    -0.466 OA
BRANCH   8   9
ATOM      9  C   UNL A   1      37.431  22.225  25.056  1.00  0.00     0.218 A 
ATOM     10  C   UNL A   1      38.757  23.618  26.425  1.00  0.00     0.050 A 
ATOM     11  C   UNL A   1      37.655  23.486  25.588  1.00  0.00     0.092 A 
ATOM     12  N   UNL A   1      39.555  22.598  26.677  1.00  0.00    -0.218 NA
ATOM     13  C   UNL A   1      39.306  21.411  26.150  1.00  0.00     0.230 A 
ATOM     14  N   UNL A   1      38.281  21.192  25.309  1.00  0.00    -0.177 NA
BRANCH  10  15
ATOM     15  C   UNL A   1      39.023  24.785  27.325  1.00  0.00     0.056 C 
BRANCH  15  16
ATOM     16  C   UNL A   1      40.464  25.292  27.504  1.00  0.00     0.003 C 
ATOM     17  C   UNL A   1      41.063  25.767  26.200  1.00  0.00     0.004 C 
ENDBRANCH  15  16
ENDBRANCH  10  15
BRANCH  13  18
ATOM     18  N   UNL A   1      40.190  20.410  26.570  1.00  0.00    -0.324 N 
ATOM     19  H   UNL A   1      39.840  19.659  27.102  1.00  0.00     0.170 HD
BRANCH  18  20
ATOM     20  C   UNL A   1      41.569  20.441  26.256  1.00  0.00     0.041 A 
ATOM     21  C   UNL A   1      42.272  19.281  25.906  1.00  0.00     0.027 A 
ATOM     22  C   UNL A   1      42.216  21.678  26.078  1.00  0.00     0.027 A 
ATOM     23  C   UNL A   1      43.595  19.353  25.437  1.00  0.00     0.021 A 
ATOM     24  C   UNL A   1      43.541  21.757  25.631  1.00  0.00     0.021 A 
ATOM     25  C   UNL A   1      44.240  20.590  25.317  1.00  0.00     0.052 A 
BRANCH  25  26
ATOM     26  C   UNL A   1      45.598  20.665  24.871  1.00  0.00     0.099 C 
ATOM     27  N   UNL A   1      46.710  20.724  24.520  1.00  0.00    -0.192 NA
ENDBRANCH  25  26
ENDBRANCH  18  20
ENDBRANCH  13  18
ENDBRANCH   8   9
ENDBRANCH   7   8
ENDBRANCH   5   7
ENDBRANCH   4   5
ENDBRANCH   3   4
ENDBRANCH   2   3
ENDBRANCH   1   2
BRANCH   1  28
ATOM     28  C   UNL A   1      32.665  23.530  23.318  1.00  0.00     0.188 C 
BRANCH  28  29
ATOM     29  C   UNL A   1      33.820  24.542  23.250  1.00  0.00     0.188 C 
BRANCH  29  30
ATOM     30  O   UNL A   1      33.642  25.489  22.219  1.00  0.00    -0.376 OA
BRANCH  30  31
ATOM     31  C   UNL A   1      32.289  25.738  21.930  1.00  0.00     0.202 C 
BRANCH  31  32
ATOM     32  C   UNL A   1      31.719  27.012  22.584  1.00  0.00     0.261 C 
BRANCH  32  33
ATOM     33  O   UNL A   1      31.393  26.985  24.005  1.00  0.00    -0.460 OA
BRANCH  33  34
ATOM     34  C   UNL A   1      31.686  28.098  24.719  1.00  0.00     0.338 C 
ATOM     35  O   UNL A   1      30.985  29.100  24.742  1.00  0.00    -0.246 OA
BRANCH  34  36
ATOM     36  C   UNL A   1      32.971  28.062  25.514  1.00  0.00     0.060 A 
ATOM     37  C   UNL A   1      32.973  27.933  26.912  1.00  0.00     0.016 A 
ATOM     38  C   UNL A   1      34.073  28.689  24.931  1.00  0.00     0.016 A 
ATOM     39  C   UNL A   1      33.928  28.603  27.694  1.00  0.00     0.010 A 
ATOM     40  C   UNL A   1      35.081  29.283  25.725  1.00  0.00     0.010 A 
ATOM     41  C   UNL A   1      34.985  29.324  27.123  1.00  0.00    -0.014 A 
BRANCH  41  42
ATOM     42  C   UNL A   1      35.930  30.114  27.990  1.00  0.00     0.031 A 
ATOM     43  C   UNL A   1      37.388  29.719  28.204  1.00  0.00     0.074 A 
ATOM     44  C   UNL A   1      35.495  31.251  28.575  1.00  0.00     0.049 A 
ATOM     45  N   UNL A   1      38.299  30.277  28.971  1.00  0.00    -0.248 NA
ATOM     46  C   UNL A   1      37.902  28.578  27.437  1.00  0.00     0.031 C 
ATOM     47  C   UNL A   1      34.164  31.843  28.410  1.00  0.00     0.029 A 
ATOM     48  N   UNL A   1      36.124  32.111  29.446  1.00  0.00    -0.354 N 
ATOM     49  C   UNL A   1      39.482  29.564  28.768  1.00  0.00     0.074 A 
ATOM     50  C   UNL A   1      39.180  28.538  27.797  1.00  0.00     0.031 C 
ATOM     51  C   UNL A   1      34.081  32.964  29.134  1.00  0.00     0.029 A 
ATOM     52  C   UNL A   1      35.292  33.092  29.929  1.00  0.00     0.049 A 
ATOM     53  H   UNL A   1      37.072  32.032  29.697  1.00  0.00     0.167 HD
ATOM     54  C   UNL A   1      40.695  29.712  29.363  1.00  0.00     0.031 A 
ATOM     55  C   UNL A   1      35.420  33.943  30.962  1.00  0.00     0.031 A 
ATOM     56  C   UNL A   1      40.967  30.644  30.431  1.00  0.00     0.049 A 
ATOM     57  C   UNL A   1      36.680  33.930  31.769  1.00  0.00     0.074 A 
ATOM     58  C   UNL A   1      42.136  30.814  31.156  1.00  0.00     0.029 A 
ATOM     59  N   UNL A   1      40.042  31.530  30.961  1.00  0.00    -0.354 N 
ATOM     60  N   UNL A   1      37.768  33.225  31.587  1.00  0.00    -0.248 NA
ATOM     61  C   UNL A   1      36.724  34.832  32.925  1.00  0.00     0.031 C 
ATOM     62  C   UNL A   1      41.882  31.720  32.192  1.00  0.00     0.029 A 
ATOM     63  C   UNL A   1      40.592  32.200  32.042  1.00  0.00     0.049 A 
ATOM     64  H   UNL A   1      39.127  31.662  30.620  1.00  0.00     0.167 HD
ATOM     65  C   UNL A   1      38.646  33.626  32.585  1.00  0.00     0.074 A 
ATOM     66  C   UNL A   1      37.962  34.644  33.357  1.00  0.00     0.031 C 
ATOM     67  C   UNL A   1      39.908  33.197  32.825  1.00  0.00     0.031 A 
BRANCH  54  68
ATOM     68  C   UNL A   1      41.806  28.765  28.965  1.00  0.00    -0.014 A 
ATOM     69  C   UNL A   1      42.621  28.999  27.846  1.00  0.00     0.009 A 
ATOM     70  C   UNL A   1      42.083  27.647  29.772  1.00  0.00     0.009 A 
ATOM     71  C   UNL A   1      43.666  28.120  27.531  1.00  0.00     0.001 A 
ATOM     72  C   UNL A   1      43.143  26.788  29.472  1.00  0.00     0.001 A 
ATOM     73  C   UNL A   1      43.928  27.020  28.346  1.00  0.00     0.000 A 
ENDBRANCH  54  68
BRANCH  55  74
ATOM     74  C   UNL A   1      34.268  34.804  31.341  1.00  0.00    -0.014 A 
ATOM     75  C   UNL A   1      33.830  35.834  30.499  1.00  0.00     0.009 A 
ATOM     76  C   UNL A   1      33.574  34.568  32.542  1.00  0.00     0.009 A 
ATOM     77  C   UNL A   1      32.727  36.613  30.854  1.00  0.00     0.001 A 
ATOM     78  C   UNL A   1      32.446  35.318  32.873  1.00  0.00     0.001 A 
ATOM     79  C   UNL A   1      32.030  36.346  32.033  1.00  0.00     0.000 A 
ENDBRANCH  55  74
BRANCH  67  80
ATOM     80  C   UNL A   1      40.657  33.879  33.936  1.00  0.00    -0.014 A 
ATOM     81  C   UNL A   1      41.443  35.022  33.713  1.00  0.00     0.009 A 
ATOM     82  C   UNL A   1      40.583  33.352  35.236  1.00  0.00     0.009 A 
ATOM     83  C   UNL A   1      42.186  35.582  34.754  1.00  0.00     0.001 A 
ATOM     84  C   UNL A   1      41.293  33.939  36.283  1.00  0.00     0.001 A 
ATOM     85  C   UNL A   1      42.108  35.042  36.038  1.00  0.00     0.000 A 
ENDBRANCH  67  80
ENDBRANCH  41  42
ENDBRANCH  34  36
ENDBRANCH  33  34
ENDBRANCH  32  33
ENDBRANCH  31  32
ENDBRANCH  30  31
ENDBRANCH  29  30
ENDBRANCH  28  29
ENDBRANCH   1  28
TORSDOF 24
ENDMDL
MODEL 2
REMARK VINA RESULT:      -8.9      4.079      9.497
REMARK SMILES CCCc1cc(OCC(=O)OCCOCCOCCOC(=O)c2ccc(-c3c4nc(c(-c5ccccc5)c5ccc([nH]5)c(-c5ccccc5)c5nc(c(-c6ccccc6)c6ccc3[nH]6)C=C5)C=C4)cc2)nc(Nc2ccc(C#N)cc2)n1
REMARK SMILES IDX 14 1 13 2 12 3 11 4 9 5 10 6 8 7 7 8 6 9 4 10 5 11 82 12
REMARK SMILES IDX 72 13 71 14 3 15 2 16 1 17 73 18 74 20 75 21 81 22 76 23
REMARK SMILES IDX 80 24 77 25 78 26 79 27 15 28 16 29 17 30 18 31 19 32 20 33
REMARK SMILES IDX 21 34 22 35 23 36 24 37 70 38 25 39 69 40 26 41 27 42 28 43
REMARK SMILES IDX 63 44 29 45 68 46 62 47 64 48 30 49 67 50 61 51 60 52 31 54
REMARK SMILES IDX 53 55 38 56 52 57 39 58 42 59 51 60 65 61 40 62 41 63 50 65
REMARK SMILES IDX 66 66 43 67 32 68 33 69 37 70 34 71 36 72 35 73 54 74 55 75
REMARK SMILES IDX 59 76 56 77 58 78 57 79 44 80 45 81 49 82 46 83 48 84 47 85
REMARK H PARENT 73 19 64 53 42 64
REMARK Flexibility Score: inf
ROOT
ATOM      1  O   UNL A   1      34.787  22.154  24.256  1.00  0.00    -0.376 OA
ENDROOT
BRANCH   1   2
ATOM      2  C   UNL A   1      34.620  20.847  24.760  1.00  0.00     0.202 C 
BRANCH   2   3
ATOM      3  C   UNL A   1      33.414  20.660  25.696  1.00  0.00     0.261 C 
BRANCH   3   4
ATOM      4  O   UNL A   1      32.973  21.871  26.379  1.00  0.00    -0.461 OA
BRANCH   4   5
ATOM      5  C   UNL A   1      31.823  22.465  25.950  1.00  0.00     0.344 C 
ATOM      6  O   UNL A   1      31.428  22.407  24.788  1.00  0.00    -0.248 OA
BRANCH   5   7
ATOM      7  C   UNL A   1      30.937  23.126  27.073  1.00  0.00     0.353 C 
BRANCH   7   8
ATOM      8  O   UNL A   1      30.103  24.266  26.888  1.00  0.00    -0.466 OA
BRANCH   8   9
ATOM      9  C   UNL A   1      30.501  25.445  26.288  1.00  0.00     0.218 A 
ATOM     10  C   UNL A   1      31.946  27.250  25.809  1.00  0.00     0.050 A 
ATOM     11  C   UNL A   1      31.562  26.243  26.688  1.00  0.00     0.092 A 
ATOM     12  N   UNL A   1      31.313  27.442  24.668  1.00  0.00    -0.218 NA
ATOM     13  C   UNL A   1      30.306  26.658  24.322  1.00  0.00     0.230 A 
ATOM     14  N   UNL A   1      29.846  25.677  25.117  1.00  0.00    -0.177 NA
BRANCH  10  15
ATOM     15  C   UNL A   1      33.220  28.029  25.893  1.00  0.00     0.056 C 
BRANCH  15  16
ATOM     16  C   UNL A   1      33.540  28.825  27.170  1.00  0.00     0.003 C 
ATOM     17  C   UNL A   1      33.917  30.257  26.864  1.00  0.00     0.004 C 
ENDBRANCH  15  16
ENDBRANCH  10  15
BRANCH  13  18
ATOM     18  N   UNL A   1      29.787  26.932  23.051  1.00  0.00    -0.324 N 
ATOM     19  H   UNL A   1      29.738  26.203  22.391  1.00  0.00     0.170 HD
BRANCH  18  20
ATOM     20  C   UNL A   1      29.330  28.219  22.683  1.00  0.00     0.041 A 
ATOM     21  C   UNL A   1      28.066  28.689  23.061  1.00  0.00     0.027 A 
ATOM     22  C   UNL A   1      30.227  29.139  22.109  1.00  0.00     0.027 A 
ATOM     23  C   UNL A   1      27.695  30.025  22.831  1.00  0.00     0.021 A 
ATOM     24  C   UNL A   1      29.857  30.466  21.857  1.00  0.00     0.021 A 
ATOM     25  C   UNL A   1      28.583  30.912  22.210  1.00  0.00     0.052 A 
BRANCH  25  26
ATOM     26  C   UNL A   1      28.197  32.265  21.945  1.00  0.00     0.099 C 
ATOM     27  N   UNL A   1      27.888  33.367  21.715  1.00  0.00    -0.192 NA
ENDBRANCH  25  26
ENDBRANCH  18  20
ENDBRANCH  13  18
ENDBRANCH   8   9
ENDBRANCH   7   8
ENDBRANCH   5   7
ENDBRANCH   4   5
ENDBRANCH   3   4
ENDBRANCH   2   3
ENDBRANCH   1   2
BRANCH   1  28
ATOM     28  C   UNL A   1      36.079  22.524  23.820  1.00  0.00     0.188 C 
BRANCH  28  29
ATOM     29  C   UNL A   1      37.354  22.050  24.537  1.00  0.00     0.188 C 
BRANCH  29  30
ATOM     30  O   UNL A   1      37.484  22.613  25.824  1.00  0.00    -0.376 OA
BRANCH  30  31
ATOM     31  C   UNL A   1      38.817  22.895  26.168  1.00  0.00     0.202 C 
BRANCH  31  32
ATOM     32  C   UNL A   1      39.595  21.697  26.748  1.00  0.00     0.261 C 
BRANCH  32  33
ATOM     33  O   UNL A   1      40.059  20.656  25.838  1.00  0.00    -0.460 OA
BRANCH  33  34
ATOM     34  C   UNL A   1      41.300  20.160  26.061  1.00  0.00     0.338 C 
ATOM     35  O   UNL A   1      41.579  18.971  26.017  1.00  0.00    -0.246 OA
BRANCH  34  36
ATOM     36  C   UNL A   1      42.372  21.172  26.392  1.00  0.00     0.060 A 
ATOM     37  C   UNL A   1      42.623  21.580  27.712  1.00  0.00     0.016 A 
ATOM     38  C   UNL A   1      42.710  22.067  25.376  1.00  0.00     0.016 A 
ATOM     39  C   UNL A   1      42.985  22.906  28.000  1.00  0.00     0.010 A 
ATOM     40  C   UNL A   1      43.161  23.374  25.672  1.00  0.00     0.010 A 
ATOM     41  C   UNL A   1      43.227  23.847  26.990  1.00  0.00    -0.014 A 
BRANCH  41  42
ATOM     42  C   UNL A   1      43.512  25.285  27.335  1.00  0.00     0.031 A 
ATOM     43  C   UNL A   1      44.924  25.854  27.425  1.00  0.00     0.074 A 
ATOM     44  C   UNL A   1      42.479  26.134  27.532  1.00  0.00     0.049 A 
ATOM     45  N   UNL A   1      45.316  27.062  27.770  1.00  0.00    -0.248 NA
ATOM     46  C   UNL A   1      46.036  24.973  27.050  1.00  0.00     0.031 C 
ATOM     47  C   UNL A   1      41.059  25.799  27.392  1.00  0.00     0.029 A 
ATOM     48  N   UNL A   1      42.463  27.457  27.909  1.00  0.00    -0.354 N 
ATOM     49  C   UNL A   1      46.706  27.081  27.641  1.00  0.00     0.074 A 
ATOM     50  C   UNL A   1      47.093  25.769  27.177  1.00  0.00     0.031 C 
ATOM     51  C   UNL A   1      40.317  26.878  27.663  1.00  0.00     0.029 A 
ATOM     52  C   UNL A   1      41.195  27.935  28.137  1.00  0.00     0.049 A 
ATOM     53  H   UNL A   1      43.275  28.004  28.005  1.00  0.00     0.167 HD
ATOM     54  C   UNL A   1      47.588  28.076  27.925  1.00  0.00     0.031 A 
ATOM     55  C   UNL A   1      40.758  29.049  28.752  1.00  0.00     0.031 A 
ATOM     56  C   UNL A   1      47.222  29.340  28.517  1.00  0.00     0.049 A 
ATOM     57  C   UNL A   1      41.753  30.032  29.280  1.00  0.00     0.074 A 
ATOM     58  C   UNL A   1      48.047  30.379  28.920  1.00  0.00     0.029 A 
ATOM     59  N   UNL A   1      45.928  29.717  28.839  1.00  0.00    -0.354 N 
ATOM     60  N   UNL A   1      43.060  30.015  29.184  1.00  0.00    -0.248 NA
ATOM     61  C   UNL A   1      41.211  31.187  30.003  1.00  0.00     0.031 C 
ATOM     62  C   UNL A   1      47.263  31.330  29.583  1.00  0.00     0.029 A 
ATOM     63  C   UNL A   1      45.938  30.940  29.491  1.00  0.00     0.049 A 
ATOM     64  H   UNL A   1      45.120  29.192  28.634  1.00  0.00     0.167 HD
ATOM     65  C   UNL A   1      43.496  31.179  29.802  1.00  0.00     0.074 A 
ATOM     66  C   UNL A   1      42.312  31.879  30.256  1.00  0.00     0.031 C 
ATOM     67  C   UNL A   1      44.763  31.629  29.962  1.00  0.00     0.031 A 
BRANCH  54  68
ATOM     68  C   UNL A   1      49.062  27.805  27.714  1.00  0.00    -0.014 A 
ATOM     69  C   UNL A   1      49.866  27.232  28.712  1.00  0.00     0.009 A 
ATOM     70  C   UNL A   1      49.640  28.071  26.460  1.00  0.00     0.009 A 
ATOM     71  C   UNL A   1      51.218  26.959  28.466  1.00  0.00     0.001 A 
ATOM     72  C   UNL A   1      50.982  27.773  26.209  1.00  0.00     0.001 A 
ATOM     73  C   UNL A   1      51.773  27.226  27.215  1.00  0.00     0.000 A 
ENDBRANCH  54  68
BRANCH  55  74
ATOM     74  C   UNL A   1      39.299  29.226  28.983  1.00  0.00    -0.014 A 
ATOM     75  C   UNL A   1      38.690  28.740  30.147  1.00  0.00     0.009 A 
ATOM     76  C   UNL A   1      38.514  29.923  28.046  1.00  0.00     0.009 A 
ATOM     77  C   UNL A   1      37.325  28.943  30.364  1.00  0.00     0.001 A 
ATOM     78  C   UNL A   1      37.162  30.162  28.286  1.00  0.00     0.001 A 
ATOM     79  C   UNL A   1      36.567  29.663  29.441  1.00  0.00     0.000 A 
ENDBRANCH  55  74
BRANCH  67  80
ATOM     80  C   UNL A   1      44.929  32.979  30.604  1.00  0.00    -0.014 A 
ATOM     81  C   UNL A   1      44.883  34.168  29.858  1.00  0.00     0.009 A 
ATOM     82  C   UNL A   1      45.153  33.056  31.988  1.00  0.00     0.009 A 
ATOM     83  C   UNL A   1      45.118  35.399  30.476  1.00  0.00     0.001 A 
ATOM     84  C   UNL A   1      45.345  34.289  32.610  1.00  0.00     0.001 A 
ATOM     85  C   UNL A   1      45.346  35.457  31.852  1.00  0.00     0.000 A 
ENDBRANCH  67  80
ENDBRANCH  41  42
ENDBRANCH  34  36
ENDBRANCH  33  34
ENDBRANCH  32  33
ENDBRANCH  31  32
ENDBRANCH  30  31
ENDBRANCH  29  30
ENDBRANCH  28  29
ENDBRANCH   1  28
TORSDOF 24
ENDMDL
MODEL 3
REMARK VINA RESULT:      -8.8      3.369      9.324
REMARK SMILES CCCc1cc(OCC(=O)OCCOCCOCCOC(=O)c2ccc(-c3c4nc(c(-c5ccccc5)c5ccc([nH]5)c(-c5ccccc5)c5nc(c(-c6ccccc6)c6ccc3[nH]6)C=C5)C=C4)cc2)nc(Nc2ccc(C#N)cc2)n1
REMARK SMILES IDX 14 1 13 2 12 3 11 4 9 5 10 6 8 7 7 8 6 9 4 10 5 11 82 12
REMARK SMILES IDX 72 13 71 14 3 15 2 16 1 17 73 18 74 20 75 21 81 22 76 23
REMARK SMILES IDX 80 24 77 25 78 26 79 27 15 28 16 29 17 30 18 31 19 32 20 33
REMARK SMILES IDX 21 34 22 35 23 36 24 37 70 38 25 39 69 40 26 41 27 42 28 43
REMARK SMILES IDX 63 44 29 45 68 46 62 47 64 48 30 49 67 50 61 51 60 52 31 54
REMARK SMILES IDX 53 55 38 56 52 57 39 58 42 59 51 60 65 61 40 62 41 63 50 65
REMARK SMILES IDX 66 66 43 67 32 68 33 69 37 70 34 71 36 72 35 73 54 74 55 75
REMARK SMILES IDX 59 76 56 77 58 78 57 79 44 80 45 81 49 82 46 83 48 84 47 85
REMARK H PARENT 73 19 64 53 42 64
REMARK Flexibility Score: inf
ROOT
ATOM      1  O   UNL A   1      34.039  25.050  25.944  1.00  0.00    -0.376 OA
ENDROOT
BRANCH   1   2
ATOM      2  C   UNL A   1      33.821  26.429  25.744  1.00  0.00     0.202 C 
BRANCH   2   3
ATOM      3  C   UNL A   1      32.828  27.080  26.722  1.00  0.00     0.261 C 
BRANCH   3   4
ATOM      4  O   UNL A   1      33.357  28.219  27.465  1.00  0.00    -0.461 OA
BRANCH   4   5
ATOM      5  C   UNL A   1      33.770  29.308  26.757  1.00  0.00     0.344 C 
ATOM      6  O   UNL A   1      34.896  29.791  26.859  1.00  0.00    -0.248 OA
BRANCH   5   7
ATOM      7  C   UNL A   1      32.757  29.844  25.675  1.00  0.00     0.353 C 
BRANCH   7   8
ATOM      8  O   UNL A   1      31.397  29.436  25.559  1.00  0.00    -0.466 OA
BRANCH   8   9
ATOM      9  C   UNL A   1      30.752  29.174  24.366  1.00  0.00     0.218 A 
ATOM     10  C   UNL A   1      29.531  29.679  22.409  1.00  0.00     0.050 A 
ATOM     11  C   UNL A   1      29.878  30.029  23.709  1.00  0.00     0.092 A 
ATOM     12  N   UNL A   1      29.995  28.580  21.846  1.00  0.00    -0.218 NA
ATOM     13  C   UNL A   1      30.826  27.792  22.506  1.00  0.00     0.230 A 
ATOM     14  N   UNL A   1      31.198  28.032  23.775  1.00  0.00    -0.177 NA
BRANCH  10  15
ATOM     15  C   UNL A   1      28.851  30.580  21.426  1.00  0.00     0.056 C 
BRANCH  15  16
ATOM     16  C   UNL A   1      28.921  32.104  21.620  1.00  0.00     0.003 C 
ATOM     17  C   UNL A   1      27.783  32.618  22.474  1.00  0.00     0.004 C 
ENDBRANCH  15  16
ENDBRANCH  10  15
BRANCH  13  18
ATOM     18  N   UNL A   1      31.295  26.709  21.754  1.00  0.00    -0.324 N 
ATOM     19  H   UNL A   1      31.355  26.800  20.775  1.00  0.00     0.170 HD
BRANCH  18  20
ATOM     20  C   UNL A   1      31.687  25.488  22.351  1.00  0.00     0.041 A 
ATOM     21  C   UNL A   1      30.786  24.699  23.076  1.00  0.00     0.027 A 
ATOM     22  C   UNL A   1      32.943  24.933  22.042  1.00  0.00     0.027 A 
ATOM     23  C   UNL A   1      31.147  23.414  23.519  1.00  0.00     0.021 A 
ATOM     24  C   UNL A   1      33.317  23.662  22.496  1.00  0.00     0.021 A 
ATOM     25  C   UNL A   1      32.421  22.900  23.247  1.00  0.00     0.052 A 
BRANCH  25  26
ATOM     26  C   UNL A   1      32.802  21.605  23.723  1.00  0.00     0.099 C 
ATOM     27  N   UNL A   1      33.101  20.548  24.119  1.00  0.00    -0.192 NA
ENDBRANCH  25  26
ENDBRANCH  18  20
ENDBRANCH  13  18
ENDBRANCH   8   9
ENDBRANCH   7   8
ENDBRANCH   5   7
ENDBRANCH   4   5
ENDBRANCH   3   4
ENDBRANCH   2   3
ENDBRANCH   1   2
BRANCH   1  28
ATOM     28  C   UNL A   1      35.164  24.471  25.315  1.00  0.00     0.188 C 
BRANCH  28  29
ATOM     29  C   UNL A   1      36.192  23.628  26.089  1.00  0.00     0.188 C 
BRANCH  29  30
ATOM     30  O   UNL A   1      35.874  22.253  26.077  1.00  0.00    -0.376 OA
BRANCH  30  31
ATOM     31  C   UNL A   1      36.911  21.454  25.568  1.00  0.00     0.202 C 
BRANCH  31  32
ATOM     32  C   UNL A   1      38.214  22.217  25.258  1.00  0.00     0.261 C 
BRANCH  32  33
ATOM     33  O   UNL A   1      39.462  21.734  25.837  1.00  0.00    -0.460 OA
BRANCH  33  34
ATOM     34  C   UNL A   1      39.906  22.371  26.946  1.00  0.00     0.338 C 
ATOM     35  O   UNL A   1      40.512  21.822  27.855  1.00  0.00    -0.246 OA
BRANCH  34  36
ATOM     36  C   UNL A   1      39.604  23.850  27.031  1.00  0.00     0.060 A 
ATOM     37  C   UNL A   1      40.345  24.799  26.311  1.00  0.00     0.016 A 
ATOM     38  C   UNL A   1      38.981  24.284  28.202  1.00  0.00     0.016 A 
ATOM     39  C   UNL A   1      40.628  26.061  26.862  1.00  0.00     0.010 A 
ATOM     40  C   UNL A   1      39.197  25.587  28.705  1.00  0.00     0.010 A 
ATOM     41  C   UNL A   1      40.092  26.474  28.089  1.00  0.00    -0.014 A 
BRANCH  41  42
ATOM     42  C   UNL A   1      40.499  27.790  28.698  1.00  0.00     0.031 A 
ATOM     43  C   UNL A   1      39.543  28.969  28.841  1.00  0.00     0.074 A 
ATOM     44  C   UNL A   1      41.750  27.933  29.186  1.00  0.00     0.049 A 
ATOM     45  N   UNL A   1      39.776  30.182  29.294  1.00  0.00    -0.248 NA
ATOM     46  C   UNL A   1      38.140  28.757  28.462  1.00  0.00     0.031 C 
ATOM     47  C   UNL A   1      42.776  26.887  29.229  1.00  0.00     0.029 A 
ATOM     48  N   UNL A   1      42.383  29.028  29.729  1.00  0.00    -0.354 N 
ATOM     49  C   UNL A   1      38.556  30.861  29.263  1.00  0.00     0.074 A 
ATOM     50  C   UNL A   1      37.579  29.925  28.756  1.00  0.00     0.031 C 
ATOM     51  C   UNL A   1      43.893  27.379  29.776  1.00  0.00     0.029 A 
ATOM     52  C   UNL A   1      43.715  28.807  29.984  1.00  0.00     0.049 A 
ATOM     53  H   UNL A   1      41.929  29.880  29.915  1.00  0.00     0.167 HD
ATOM     54  C   UNL A   1      38.277  32.153  29.579  1.00  0.00     0.031 A 
ATOM     55  C   UNL A   1      44.724  29.653  30.256  1.00  0.00     0.031 A 
ATOM     56  C   UNL A   1      39.270  33.130  29.955  1.00  0.00     0.049 A 
ATOM     57  C   UNL A   1      44.442  31.118  30.365  1.00  0.00     0.074 A 
ATOM     58  C   UNL A   1      39.102  34.482  30.213  1.00  0.00     0.029 A 
ATOM     59  N   UNL A   1      40.626  32.872  30.077  1.00  0.00    -0.354 N 
ATOM     60  N   UNL A   1      43.294  31.744  30.293  1.00  0.00    -0.248 NA
ATOM     61  C   UNL A   1      45.599  31.991  30.589  1.00  0.00     0.031 C 
ATOM     62  C   UNL A   1      40.366  35.057  30.381  1.00  0.00     0.029 A 
ATOM     63  C   UNL A   1      41.312  34.046  30.342  1.00  0.00     0.049 A 
ATOM     64  H   UNL A   1      41.041  31.982  29.988  1.00  0.00     0.167 HD
ATOM     65  C   UNL A   1      43.584  33.085  30.504  1.00  0.00     0.074 A 
ATOM     66  C   UNL A   1      45.015  33.173  30.717  1.00  0.00     0.031 C 
ATOM     67  C   UNL A   1      42.736  34.140  30.533  1.00  0.00     0.031 A 
BRANCH  54  68
ATOM     68  C   UNL A   1      36.851  32.635  29.419  1.00  0.00    -0.014 A 
ATOM     69  C   UNL A   1      36.345  33.073  28.185  1.00  0.00     0.009 A 
ATOM     70  C   UNL A   1      35.978  32.583  30.520  1.00  0.00     0.009 A 
ATOM     71  C   UNL A   1      35.007  33.474  28.068  1.00  0.00     0.001 A 
ATOM     72  C   UNL A   1      34.637  32.958  30.395  1.00  0.00     0.001 A 
ATOM     73  C   UNL A   1      34.155  33.412  29.170  1.00  0.00     0.000 A 
ENDBRANCH  54  68
BRANCH  55  74
ATOM     74  C   UNL A   1      46.112  29.125  30.339  1.00  0.00    -0.014 A 
ATOM     75  C   UNL A   1      46.964  29.158  29.227  1.00  0.00     0.009 A 
ATOM     76  C   UNL A   1      46.604  28.618  31.556  1.00  0.00     0.009 A 
ATOM     77  C   UNL A   1      48.275  28.687  29.330  1.00  0.00     0.001 A 
ATOM     78  C   UNL A   1      47.926  28.190  31.668  1.00  0.00     0.001 A 
ATOM     79  C   UNL A   1      48.757  28.216  30.552  1.00  0.00     0.000 A 
ENDBRANCH  55  74
BRANCH  67  80
ATOM     80  C   UNL A   1      43.331  35.480  30.871  1.00  0.00    -0.014 A 
ATOM     81  C   UNL A   1      43.722  36.392  29.877  1.00  0.00     0.009 A 
ATOM     82  C   UNL A   1      43.515  35.827  32.219  1.00  0.00     0.009 A 
ATOM     83  C   UNL A   1      44.341  37.595  30.226  1.00  0.00     0.001 A 
ATOM     84  C   UNL A   1      44.095  37.047  32.566  1.00  0.00     0.001 A 
ATOM     85  C   UNL A   1      44.524  37.922  31.571  1.00  0.00     0.000 A 
ENDBRANCH  67  80
ENDBRANCH  41  42
ENDBRANCH  34  36
ENDBRANCH  33  34
ENDBRANCH  32  33
ENDBRANCH  31  32
ENDBRANCH  30  31
ENDBRANCH  29  30
ENDBRANCH  28  29
ENDBRANCH   1  28
TORSDOF 24
ENDMDL
