MODEL 1
REMARK VINA RESULT:      -9.8      0.000      0.000
REMARK SMILES C[C@](C(=O)OCCOCCOCCOC(=O)c1ccc(-c2c3nc(c(-c4ccccc4)c4ccc([nH]4)c(-c4ccccc4)c4nc(c(-c5ccccc5)c5ccc2[nH]5)C=C4)C=C3)cc1)(c1cc(F)cc(F)c1)[NH+]1CCCC1
REMARK SMILES IDX 10 1 9 2 8 3 7 4 6 5 5 6 3 7 4 8 2 9 1 10 65 11 66 12 72 13
REMARK SMILES IDX 67 14 70 15 68 16 69 17 71 18 73 19 74 20 77 21 75 23 76 24
REMARK SMILES IDX 11 25 12 26 13 27 14 28 15 29 16 30 17 31 18 32 64 33 19 34
REMARK SMILES IDX 63 35 20 36 21 37 22 38 57 39 23 40 62 41 56 42 58 43 24 44
REMARK SMILES IDX 61 45 55 46 54 47 25 49 47 50 32 51 46 52 33 53 36 54 45 55
REMARK SMILES IDX 59 56 34 57 35 58 44 60 60 61 37 62 26 63 27 64 31 65 28 66
REMARK SMILES IDX 30 67 29 68 48 69 49 70 53 71 50 72 52 73 51 74 38 75 39 76
REMARK SMILES IDX 43 77 40 78 42 79 41 80
REMARK H PARENT 73 22 58 48 36 59
REMARK Flexibility Score: inf
ROOT
ATOM      1  C   UNL A   1      36.129  21.267  25.637  1.00  0.00     0.188 C 
ENDROOT
BRANCH   1   2
ATOM      2  C   UNL A   1      34.807  20.771  25.046  1.00  0.00     0.188 C 
BRANCH   2   3
ATOM      3  O   UNL A   1      33.742  21.691  24.854  1.00  0.00    -0.376 OA
BRANCH   3   4
ATOM      4  C   UNL A   1      34.020  23.036  24.477  1.00  0.00     0.202 C 
BRANCH   4   5
ATOM      5  C   UNL A   1      33.683  23.506  23.050  1.00  0.00     0.261 C 
BRANCH   5   6
ATOM      6  O   UNL A   1      32.671  24.534  22.923  1.00  0.00    -0.458 OA
BRANCH   6   7
ATOM      7  C   UNL A   1      33.126  25.807  22.739  1.00  0.00     0.372 C 
ATOM      8  O   UNL A   1      33.886  26.089  21.811  1.00  0.00    -0.244 OA
BRANCH   7   9
ATOM      9  C   UNL A   1      32.663  26.874  23.832  1.00  0.00     0.218 C 
ATOM     10  C   UNL A   1      33.687  28.036  23.575  1.00  0.00     0.098 C 
BRANCH   9  11
ATOM     11  C   UNL A   1      31.216  27.459  23.689  1.00  0.00     0.029 A 
ATOM     12  C   UNL A   1      30.060  26.644  23.792  1.00  0.00     0.050 A 
ATOM     13  C   UNL A   1      30.978  28.813  23.379  1.00  0.00     0.050 A 
ATOM     14  C   UNL A   1      28.771  27.157  23.613  1.00  0.00     0.126 A 
ATOM     15  C   UNL A   1      29.679  29.304  23.185  1.00  0.00     0.126 A 
ATOM     16  F   UNL A   1      27.719  26.336  23.735  1.00  0.00    -0.207 F 
ATOM     17  C   UNL A   1      28.569  28.486  23.304  1.00  0.00     0.078 A 
ATOM     18  F   UNL A   1      29.508  30.593  22.865  1.00  0.00    -0.207 F 
ENDBRANCH   9  11
BRANCH   9  19
ATOM     19  N   UNL A   1      33.016  26.427  25.234  1.00  0.00    -0.317 N 
ATOM     20  C   UNL A   1      31.898  26.281  26.179  1.00  0.00     0.263 C 
ATOM     21  C   UNL A   1      33.982  27.239  25.989  1.00  0.00     0.263 C 
ATOM     22  H   UNL A   1      33.417  25.531  24.959  1.00  0.00     0.349 HD
ATOM     23  C   UNL A   1      31.736  27.662  26.781  1.00  0.00     0.067 C 
ATOM     24  C   UNL A   1      33.165  28.174  26.880  1.00  0.00     0.067 C 
ENDBRANCH   9  19
ENDBRANCH   7   9
ENDBRANCH   6   7
ENDBRANCH   5   6
ENDBRANCH   4   5
ENDBRANCH   3   4
ENDBRANCH   2   3
ENDBRANCH   1   2
BRANCH   1  25
ATOM     25  O   UNL A   1      37.249  21.087  24.805  1.00  0.00    -0.376 OA
BRANCH  25  26
ATOM     26  C   UNL A   1      38.523  20.973  25.410  1.00  0.00     0.202 C 
BRANCH  26  27
ATOM     27  C   UNL A   1      39.281  19.640  25.284  1.00  0.00     0.261 C 
BRANCH  27  28
ATOM     28  O   UNL A   1      40.295  19.375  26.269  1.00  0.00    -0.460 OA
BRANCH  28  29
ATOM     29  C   UNL A   1      41.564  19.764  25.984  1.00  0.00     0.338 C 
ATOM     30  O   UNL A   1      42.336  19.229  25.219  1.00  0.00    -0.246 OA
BRANCH  29  31
ATOM     31  C   UNL A   1      41.745  21.122  26.567  1.00  0.00     0.060 A 
ATOM     32  C   UNL A   1      42.109  22.185  25.724  1.00  0.00     0.016 A 
ATOM     33  C   UNL A   1      41.503  21.355  27.921  1.00  0.00     0.016 A 
ATOM     34  C   UNL A   1      42.258  23.476  26.241  1.00  0.00     0.010 A 
ATOM     35  C   UNL A   1      41.680  22.641  28.442  1.00  0.00     0.010 A 
ATOM     36  C   UNL A   1      42.088  23.701  27.612  1.00  0.00    -0.014 A 
BRANCH  36  37
ATOM     37  C   UNL A   1      42.546  24.973  28.228  1.00  0.00     0.031 A 
ATOM     38  C   UNL A   1      41.521  26.051  28.460  1.00  0.00     0.074 A 
ATOM     39  C   UNL A   1      43.830  25.186  28.570  1.00  0.00     0.049 A 
ATOM     40  N   UNL A   1      41.683  27.277  28.888  1.00  0.00    -0.248 NA
ATOM     41  C   UNL A   1      40.123  25.696  28.161  1.00  0.00     0.031 C 
ATOM     42  C   UNL A   1      44.914  24.213  28.457  1.00  0.00     0.029 A 
ATOM     43  N   UNL A   1      44.436  26.310  29.075  1.00  0.00    -0.354 N 
ATOM     44  C   UNL A   1      40.413  27.844  28.889  1.00  0.00     0.074 A 
ATOM     45  C   UNL A   1      39.497  26.838  28.398  1.00  0.00     0.031 C 
ATOM     46  C   UNL A   1      46.058  24.789  28.871  1.00  0.00     0.029 A 
ATOM     47  C   UNL A   1      45.794  26.180  29.235  1.00  0.00     0.049 A 
ATOM     48  H   UNL A   1      43.943  27.133  29.300  1.00  0.00     0.167 HD
ATOM     49  C   UNL A   1      40.039  29.089  29.265  1.00  0.00     0.031 A 
ATOM     50  C   UNL A   1      46.719  27.089  29.605  1.00  0.00     0.031 A 
ATOM     51  C   UNL A   1      40.948  30.097  29.742  1.00  0.00     0.049 A 
ATOM     52  C   UNL A   1      46.291  28.500  29.928  1.00  0.00     0.074 A 
ATOM     53  C   UNL A   1      40.660  31.384  30.163  1.00  0.00     0.029 A 
ATOM     54  N   UNL A   1      42.319  29.937  29.849  1.00  0.00    -0.354 N 
ATOM     55  N   UNL A   1      45.087  29.018  29.948  1.00  0.00    -0.248 NA
ATOM     56  C   UNL A   1      47.357  29.450  30.283  1.00  0.00     0.031 C 
ATOM     57  C   UNL A   1      41.867  32.025  30.461  1.00  0.00     0.029 A 
ATOM     58  C   UNL A   1      42.897  31.112  30.297  1.00  0.00     0.049 A 
ATOM     59  H   UNL A   1      42.811  29.109  29.638  1.00  0.00     0.167 HD
ATOM     60  C   UNL A   1      45.248  30.339  30.354  1.00  0.00     0.074 A 
ATOM     61  C   UNL A   1      46.662  30.539  30.582  1.00  0.00     0.031 C 
ATOM     62  C   UNL A   1      44.306  31.300  30.527  1.00  0.00     0.031 A 
BRANCH  49  63
ATOM     63  C   UNL A   1      38.586  29.447  29.129  1.00  0.00    -0.014 A 
ATOM     64  C   UNL A   1      38.050  29.893  27.910  1.00  0.00     0.009 A 
ATOM     65  C   UNL A   1      37.732  29.301  30.234  1.00  0.00     0.009 A 
ATOM     66  C   UNL A   1      36.695  30.220  27.812  1.00  0.00     0.001 A 
ATOM     67  C   UNL A   1      36.372  29.596  30.123  1.00  0.00     0.001 A 
ATOM     68  C   UNL A   1      35.857  30.064  28.916  1.00  0.00     0.000 A 
ENDBRANCH  49  63
BRANCH  50  69
ATOM     69  C   UNL A   1      48.159  26.715  29.670  1.00  0.00    -0.014 A 
ATOM     70  C   UNL A   1      48.705  26.162  30.839  1.00  0.00     0.009 A 
ATOM     71  C   UNL A   1      49.009  26.953  28.577  1.00  0.00     0.009 A 
ATOM     72  C   UNL A   1      50.072  25.886  30.925  1.00  0.00     0.001 A 
ATOM     73  C   UNL A   1      50.369  26.644  28.653  1.00  0.00     0.001 A 
ATOM     74  C   UNL A   1      50.901  26.123  29.831  1.00  0.00     0.000 A 
ENDBRANCH  50  69
BRANCH  62  75
ATOM     75  C   UNL A   1      44.762  32.642  31.036  1.00  0.00    -0.014 A 
ATOM     76  C   UNL A   1      44.866  32.913  32.409  1.00  0.00     0.009 A 
ATOM     77  C   UNL A   1      45.144  33.635  30.120  1.00  0.00     0.009 A 
ATOM     78  C   UNL A   1      45.305  34.163  32.851  1.00  0.00     0.001 A 
ATOM     79  C   UNL A   1      45.616  34.871  30.563  1.00  0.00     0.001 A 
ATOM     80  C   UNL A   1      45.687  35.138  31.930  1.00  0.00     0.000 A 
ENDBRANCH  62  75
ENDBRANCH  36  37
ENDBRANCH  29  31
ENDBRANCH  28  29
ENDBRANCH  27  28
ENDBRANCH  26  27
ENDBRANCH  25  26
ENDBRANCH   1  25
TORSDOF 19
ENDMDL
MODEL 2
REMARK VINA RESULT:      -9.8      0.681      5.907
REMARK SMILES C[C@](C(=O)OCCOCCOCCOC(=O)c1ccc(-c2c3nc(c(-c4ccccc4)c4ccc([nH]4)c(-c4ccccc4)c4nc(c(-c5ccccc5)c5ccc2[nH]5)C=C4)C=C3)cc1)(c1cc(F)cc(F)c1)[NH+]1CCCC1
REMARK SMILES IDX 10 1 9 2 8 3 7 4 6 5 5 6 3 7 4 8 2 9 1 10 65 11 66 12 72 13
REMARK SMILES IDX 67 14 70 15 68 16 69 17 71 18 73 19 74 20 77 21 75 23 76 24
REMARK SMILES IDX 11 25 12 26 13 27 14 28 15 29 16 30 17 31 18 32 64 33 19 34
REMARK SMILES IDX 63 35 20 36 21 37 22 38 57 39 23 40 62 41 56 42 58 43 24 44
REMARK SMILES IDX 61 45 55 46 54 47 25 49 47 50 32 51 46 52 33 53 36 54 45 55
REMARK SMILES IDX 59 56 34 57 35 58 44 60 60 61 37 62 26 63 27 64 31 65 28 66
REMARK SMILES IDX 30 67 29 68 48 69 49 70 53 71 50 72 52 73 51 74 38 75 39 76
REMARK SMILES IDX 43 77 40 78 42 79 41 80
REMARK H PARENT 73 22 58 48 36 59
REMARK Flexibility Score: inf
ROOT
ATOM      1  C   UNL A   1      36.191  21.390  25.512  1.00  0.00     0.188 C 
ENDROOT
BRANCH   1   2
ATOM      2  C   UNL A   1      35.018  21.182  24.551  1.00  0.00     0.188 C 
BRANCH   2   3
ATOM      3  O   UNL A   1      33.769  21.795  24.837  1.00  0.00    -0.376 OA
BRANCH   3   4
ATOM      4  C   UNL A   1      33.713  23.174  25.185  1.00  0.00     0.202 C 
BRANCH   4   5
ATOM      5  C   UNL A   1      33.991  24.239  24.109  1.00  0.00     0.261 C 
BRANCH   5   6
ATOM      6  O   UNL A   1      32.857  25.010  23.643  1.00  0.00    -0.458 OA
BRANCH   6   7
ATOM      7  C   UNL A   1      33.147  26.150  22.952  1.00  0.00     0.372 C 
ATOM      8  O   UNL A   1      33.777  26.116  21.894  1.00  0.00    -0.244 OA
BRANCH   7   9
ATOM      9  C   UNL A   1      32.677  27.514  23.635  1.00  0.00     0.218 C 
ATOM     10  C   UNL A   1      33.674  28.538  22.985  1.00  0.00     0.098 C 
BRANCH   9  11
ATOM     11  C   UNL A   1      31.216  27.997  23.331  1.00  0.00     0.029 A 
ATOM     12  C   UNL A   1      30.077  27.253  23.734  1.00  0.00     0.050 A 
ATOM     13  C   UNL A   1      30.948  29.158  22.580  1.00  0.00     0.050 A 
ATOM     14  C   UNL A   1      28.777  27.657  23.418  1.00  0.00     0.126 A 
ATOM     15  C   UNL A   1      29.637  29.536  22.258  1.00  0.00     0.126 A 
ATOM     16  F   UNL A   1      27.743  26.915  23.837  1.00  0.00    -0.207 F 
ATOM     17  C   UNL A   1      28.544  28.796  22.674  1.00  0.00     0.078 A 
ATOM     18  F   UNL A   1      29.436  30.635  21.518  1.00  0.00    -0.207 F 
ENDBRANCH   9  11
BRANCH   9  19
ATOM     19  N   UNL A   1      33.055  27.567  25.099  1.00  0.00    -0.317 N 
ATOM     20  C   UNL A   1      31.954  27.738  26.058  1.00  0.00     0.263 C 
ATOM     21  C   UNL A   1      34.022  28.592  25.519  1.00  0.00     0.263 C 
ATOM     22  H   UNL A   1      33.464  26.633  25.133  1.00  0.00     0.349 HD
ATOM     23  C   UNL A   1      31.782  29.240  26.165  1.00  0.00     0.067 C 
ATOM     24  C   UNL A   1      33.206  29.765  26.060  1.00  0.00     0.067 C 
ENDBRANCH   9  19
ENDBRANCH   7   9
ENDBRANCH   6   7
ENDBRANCH   5   6
ENDBRANCH   4   5
ENDBRANCH   3   4
ENDBRANCH   2   3
ENDBRANCH   1   2
BRANCH   1  25
ATOM     25  O   UNL A   1      37.413  21.703  24.889  1.00  0.00    -0.376 OA
BRANCH  25  26
ATOM     26  C   UNL A   1      38.612  21.447  25.595  1.00  0.00     0.202 C 
BRANCH  26  27
ATOM     27  C   UNL A   1      39.340  20.114  25.349  1.00  0.00     0.261 C 
BRANCH  27  28
ATOM     28  O   UNL A   1      40.288  19.700  26.348  1.00  0.00    -0.460 OA
BRANCH  28  29
ATOM     29  C   UNL A   1      41.607  19.818  26.049  1.00  0.00     0.338 C 
ATOM     30  O   UNL A   1      42.259  19.098  25.326  1.00  0.00    -0.246 OA
BRANCH  29  31
ATOM     31  C   UNL A   1      42.048  21.150  26.547  1.00  0.00     0.060 A 
ATOM     32  C   UNL A   1      41.980  21.423  27.923  1.00  0.00     0.016 A 
ATOM     33  C   UNL A   1      42.574  22.101  25.671  1.00  0.00     0.016 A 
ATOM     34  C   UNL A   1      42.413  22.656  28.420  1.00  0.00     0.010 A 
ATOM     35  C   UNL A   1      42.980  23.344  26.166  1.00  0.00     0.010 A 
ATOM     36  C   UNL A   1      42.873  23.640  27.538  1.00  0.00    -0.014 A 
BRANCH  36  37
ATOM     37  C   UNL A   1      43.034  25.045  27.994  1.00  0.00     0.031 A 
ATOM     38  C   UNL A   1      44.414  25.506  28.381  1.00  0.00     0.074 A 
ATOM     39  C   UNL A   1      41.996  25.897  28.076  1.00  0.00     0.049 A 
ATOM     40  N   UNL A   1      44.798  26.644  28.901  1.00  0.00    -0.248 NA
ATOM     41  C   UNL A   1      45.508  24.545  28.156  1.00  0.00     0.031 C 
ATOM     42  C   UNL A   1      40.621  25.606  27.679  1.00  0.00     0.029 A 
ATOM     43  N   UNL A   1      41.948  27.190  28.539  1.00  0.00    -0.354 N 
ATOM     44  C   UNL A   1      46.171  26.527  29.083  1.00  0.00     0.074 A 
ATOM     45  C   UNL A   1      46.549  25.203  28.642  1.00  0.00     0.031 C 
ATOM     46  C   UNL A   1      39.859  26.689  27.928  1.00  0.00     0.029 A 
ATOM     47  C   UNL A   1      40.684  27.729  28.539  1.00  0.00     0.049 A 
ATOM     48  H   UNL A   1      42.744  27.684  28.843  1.00  0.00     0.167 HD
ATOM     49  C   UNL A   1      47.043  27.440  29.574  1.00  0.00     0.031 A 
ATOM     50  C   UNL A   1      40.243  28.914  29.007  1.00  0.00     0.031 A 
ATOM     51  C   UNL A   1      46.670  28.753  30.026  1.00  0.00     0.049 A 
ATOM     52  C   UNL A   1      41.219  29.878  29.638  1.00  0.00     0.074 A 
ATOM     53  C   UNL A   1      47.486  29.755  30.523  1.00  0.00     0.029 A 
ATOM     54  N   UNL A   1      45.375  29.243  30.047  1.00  0.00    -0.354 N 
ATOM     55  N   UNL A   1      42.517  29.768  29.784  1.00  0.00    -0.248 NA
ATOM     56  C   UNL A   1      40.662  31.134  30.165  1.00  0.00     0.031 C 
ATOM     57  C   UNL A   1      46.675  30.826  30.909  1.00  0.00     0.029 A 
ATOM     58  C   UNL A   1      45.363  30.520  30.581  1.00  0.00     0.049 A 
ATOM     59  H   UNL A   1      44.580  28.755  29.730  1.00  0.00     0.167 HD
ATOM     60  C   UNL A   1      42.934  30.953  30.383  1.00  0.00     0.074 A 
ATOM     61  C   UNL A   1      41.755  31.772  30.560  1.00  0.00     0.031 C 
ATOM     62  C   UNL A   1      44.185  31.330  30.749  1.00  0.00     0.031 A 
BRANCH  49  63
ATOM     63  C   UNL A   1      48.483  27.027  29.691  1.00  0.00    -0.014 A 
ATOM     64  C   UNL A   1      48.973  26.386  30.841  1.00  0.00     0.009 A 
ATOM     65  C   UNL A   1      49.358  27.256  28.617  1.00  0.00     0.009 A 
ATOM     66  C   UNL A   1      50.317  26.016  30.924  1.00  0.00     0.001 A 
ATOM     67  C   UNL A   1      50.692  26.853  28.690  1.00  0.00     0.001 A 
ATOM     68  C   UNL A   1      51.172  26.242  29.846  1.00  0.00     0.000 A 
ENDBRANCH  49  63
BRANCH  50  69
ATOM     69  C   UNL A   1      38.797  29.264  28.929  1.00  0.00    -0.014 A 
ATOM     70  C   UNL A   1      37.951  29.067  30.032  1.00  0.00     0.009 A 
ATOM     71  C   UNL A   1      38.245  29.754  27.735  1.00  0.00     0.009 A 
ATOM     72  C   UNL A   1      36.581  29.321  29.931  1.00  0.00     0.001 A 
ATOM     73  C   UNL A   1      36.879  30.039  27.647  1.00  0.00     0.001 A 
ATOM     74  C   UNL A   1      36.048  29.812  28.741  1.00  0.00     0.000 A 
ENDBRANCH  50  69
BRANCH  62  75
ATOM     75  C   UNL A   1      44.356  32.709  31.329  1.00  0.00    -0.014 A 
ATOM     76  C   UNL A   1      44.530  33.836  30.512  1.00  0.00     0.009 A 
ATOM     77  C   UNL A   1      44.291  32.885  32.721  1.00  0.00     0.009 A 
ATOM     78  C   UNL A   1      44.673  35.105  31.080  1.00  0.00     0.001 A 
ATOM     79  C   UNL A   1      44.399  34.157  33.284  1.00  0.00     0.001 A 
ATOM     80  C   UNL A   1      44.601  35.266  32.463  1.00  0.00     0.000 A 
ENDBRANCH  62  75
ENDBRANCH  36  37
ENDBRANCH  29  31
ENDBRANCH  28  29
ENDBRANCH  27  28
ENDBRANCH  26  27
ENDBRANCH  25  26
ENDBRANCH   1  25
TORSDOF 19
ENDMDL
MODEL 3
REMARK VINA RESULT:      -9.7      3.552      8.727
REMARK SMILES C[C@](C(=O)OCCOCCOCCOC(=O)c1ccc(-c2c3nc(c(-c4ccccc4)c4ccc([nH]4)c(-c4ccccc4)c4nc(c(-c5ccccc5)c5ccc2[nH]5)C=C4)C=C3)cc1)(c1cc(F)cc(F)c1)[NH+]1CCCC1
REMARK SMILES IDX 10 1 9 2 8 3 7 4 6 5 5 6 3 7 4 8 2 9 1 10 65 11 66 12 72 13
REMARK SMILES IDX 67 14 70 15 68 16 69 17 71 18 73 19 74 20 77 21 75 23 76 24
REMARK SMILES IDX 11 25 12 26 13 27 14 28 15 29 16 30 17 31 18 32 64 33 19 34
REMARK SMILES IDX 63 35 20 36 21 37 22 38 57 39 23 40 62 41 56 42 58 43 24 44
REMARK SMILES IDX 61 45 55 46 54 47 25 49 47 50 32 51 46 52 33 53 36 54 45 55
REMARK SMILES IDX 59 56 34 57 35 58 44 60 60 61 37 62 26 63 27 64 31 65 28 66
REMARK SMILES IDX 30 67 29 68 48 69 49 70 53 71 50 72 52 73 51 74 38 75 39 76
REMARK SMILES IDX 43 77 40 78 42 79 41 80
REMARK H PARENT 73 22 58 48 36 59
REMARK Flexibility Score: inf
ROOT
ATOM      1  C   UNL A   1      34.248  33.884  28.832  1.00  0.00     0.188 C 
ENDROOT
BRANCH   1   2
ATOM      2  C   UNL A   1      33.894  32.562  28.146  1.00  0.00     0.188 C 
BRANCH   2   3
ATOM      3  O   UNL A   1      34.907  31.846  27.454  1.00  0.00    -0.376 OA
BRANCH   3   4
ATOM      4  C   UNL A   1      35.449  30.655  28.015  1.00  0.00     0.202 C 
BRANCH   4   5
ATOM      5  C   UNL A   1      35.005  29.288  27.464  1.00  0.00     0.261 C 
BRANCH   5   6
ATOM      6  O   UNL A   1      34.207  29.297  26.255  1.00  0.00    -0.458 OA
BRANCH   6   7
ATOM      7  C   UNL A   1      32.948  28.785  26.362  1.00  0.00     0.372 C 
ATOM      8  O   UNL A   1      32.195  29.116  27.279  1.00  0.00    -0.244 OA
BRANCH   7   9
ATOM      9  C   UNL A   1      32.547  27.696  25.266  1.00  0.00     0.218 C 
ATOM     10  C   UNL A   1      32.348  26.422  26.163  1.00  0.00     0.098 C 
BRANCH   9  11
ATOM     11  C   UNL A   1      31.219  27.941  24.469  1.00  0.00     0.029 A 
ATOM     12  C   UNL A   1      30.904  29.202  23.900  1.00  0.00     0.050 A 
ATOM     13  C   UNL A   1      30.230  26.949  24.329  1.00  0.00     0.050 A 
ATOM     14  C   UNL A   1      29.697  29.435  23.234  1.00  0.00     0.126 A 
ATOM     15  C   UNL A   1      29.018  27.207  23.673  1.00  0.00     0.126 A 
ATOM     16  F   UNL A   1      29.464  30.646  22.709  1.00  0.00    -0.207 F 
ATOM     17  C   UNL A   1      28.743  28.445  23.118  1.00  0.00     0.078 A 
ATOM     18  F   UNL A   1      28.098  26.237  23.591  1.00  0.00    -0.207 F 
ENDBRANCH   9  11
BRANCH   9  19
ATOM     19  N   UNL A   1      33.727  27.311  24.402  1.00  0.00    -0.317 N 
ATOM     20  C   UNL A   1      33.746  27.852  23.034  1.00  0.00     0.263 C 
ATOM     21  C   UNL A   1      33.985  25.878  24.193  1.00  0.00     0.263 C 
ATOM     22  H   UNL A   1      34.436  27.733  25.001  1.00  0.00     0.349 HD
ATOM     23  C   UNL A   1      32.965  26.840  22.222  1.00  0.00     0.067 C 
ATOM     24  C   UNL A   1      33.346  25.510  22.855  1.00  0.00     0.067 C 
ENDBRANCH   9  19
ENDBRANCH   7   9
ENDBRANCH   6   7
ENDBRANCH   5   6
ENDBRANCH   4   5
ENDBRANCH   3   4
ENDBRANCH   2   3
ENDBRANCH   1   2
BRANCH   1  25
ATOM     25  O   UNL A   1      33.292  34.341  29.757  1.00  0.00    -0.376 OA
BRANCH  25  26
ATOM     26  C   UNL A   1      33.678  35.331  30.690  1.00  0.00     0.202 C 
BRANCH  26  27
ATOM     27  C   UNL A   1      34.265  34.882  32.039  1.00  0.00     0.261 C 
BRANCH  27  28
ATOM     28  O   UNL A   1      35.519  34.177  31.997  1.00  0.00    -0.460 OA
BRANCH  28  29
ATOM     29  C   UNL A   1      35.476  32.820  31.982  1.00  0.00     0.338 C 
ATOM     30  O   UNL A   1      34.497  32.119  32.117  1.00  0.00    -0.246 OA
BRANCH  29  31
ATOM     31  C   UNL A   1      36.801  32.348  31.495  1.00  0.00     0.060 A 
ATOM     32  C   UNL A   1      37.238  32.735  30.217  1.00  0.00     0.016 A 
ATOM     33  C   UNL A   1      37.630  31.578  32.313  1.00  0.00     0.016 A 
ATOM     34  C   UNL A   1      38.490  32.330  29.746  1.00  0.00     0.010 A 
ATOM     35  C   UNL A   1      38.870  31.150  31.830  1.00  0.00     0.010 A 
ATOM     36  C   UNL A   1      39.294  31.496  30.533  1.00  0.00    -0.014 A 
BRANCH  36  37
ATOM     37  C   UNL A   1      40.465  30.801  29.940  1.00  0.00     0.031 A 
ATOM     38  C   UNL A   1      41.757  31.566  29.830  1.00  0.00     0.074 A 
ATOM     39  C   UNL A   1      40.400  29.532  29.499  1.00  0.00     0.049 A 
ATOM     40  N   UNL A   1      42.885  31.222  29.264  1.00  0.00    -0.248 NA
ATOM     41  C   UNL A   1      41.771  32.910  30.436  1.00  0.00     0.031 C 
ATOM     42  C   UNL A   1      39.236  28.654  29.596  1.00  0.00     0.029 A 
ATOM     43  N   UNL A   1      41.349  28.765  28.866  1.00  0.00    -0.354 N 
ATOM     44  C   UNL A   1      43.734  32.310  29.429  1.00  0.00     0.074 A 
ATOM     45  C   UNL A   1      42.986  33.334  30.124  1.00  0.00     0.031 C 
ATOM     46  C   UNL A   1      39.537  27.470  29.029  1.00  0.00     0.029 A 
ATOM     47  C   UNL A   1      40.896  27.523  28.493  1.00  0.00     0.049 A 
ATOM     48  H   UNL A   1      42.267  29.078  28.694  1.00  0.00     0.167 HD
ATOM     49  C   UNL A   1      45.023  32.448  29.038  1.00  0.00     0.031 A 
ATOM     50  C   UNL A   1      41.501  26.554  27.777  1.00  0.00     0.031 A 
ATOM     51  C   UNL A   1      45.768  31.438  28.336  1.00  0.00     0.049 A 
ATOM     52  C   UNL A   1      42.906  26.768  27.269  1.00  0.00     0.074 A 
ATOM     53  C   UNL A   1      47.085  31.480  27.913  1.00  0.00     0.029 A 
ATOM     54  N   UNL A   1      45.259  30.212  27.942  1.00  0.00    -0.354 N 
ATOM     55  N   UNL A   1      43.707  27.790  27.450  1.00  0.00    -0.248 NA
ATOM     56  C   UNL A   1      43.489  25.687  26.458  1.00  0.00     0.031 C 
ATOM     57  C   UNL A   1      47.352  30.305  27.203  1.00  0.00     0.029 A 
ATOM     58  C   UNL A   1      46.225  29.501  27.251  1.00  0.00     0.049 A 
ATOM     59  H   UNL A   1      44.345  29.892  28.127  1.00  0.00     0.167 HD
ATOM     60  C   UNL A   1      44.897  27.458  26.810  1.00  0.00     0.074 A 
ATOM     61  C   UNL A   1      44.718  26.137  26.249  1.00  0.00     0.031 C 
ATOM     62  C   UNL A   1      46.039  28.183  26.701  1.00  0.00     0.031 A 
BRANCH  49  63
ATOM     63  C   UNL A   1      45.695  33.762  29.321  1.00  0.00    -0.014 A 
ATOM     64  C   UNL A   1      46.425  33.974  30.502  1.00  0.00     0.009 A 
ATOM     65  C   UNL A   1      45.624  34.794  28.372  1.00  0.00     0.009 A 
ATOM     66  C   UNL A   1      47.038  35.207  30.741  1.00  0.00     0.001 A 
ATOM     67  C   UNL A   1      46.266  36.012  28.599  1.00  0.00     0.001 A 
ATOM     68  C   UNL A   1      46.965  36.220  29.786  1.00  0.00     0.000 A 
ENDBRANCH  49  63
BRANCH  50  69
ATOM     69  C   UNL A   1      40.781  25.288  27.463  1.00  0.00    -0.014 A 
ATOM     70  C   UNL A   1      39.664  25.290  26.613  1.00  0.00     0.009 A 
ATOM     71  C   UNL A   1      41.180  24.076  28.050  1.00  0.00     0.009 A 
ATOM     72  C   UNL A   1      38.943  24.115  26.384  1.00  0.00     0.001 A 
ATOM     73  C   UNL A   1      40.477  22.896  27.791  1.00  0.00     0.001 A 
ATOM     74  C   UNL A   1      39.354  22.919  26.968  1.00  0.00     0.000 A 
ENDBRANCH  50  69
BRANCH  62  75
ATOM     75  C   UNL A   1      47.206  27.545  25.995  1.00  0.00    -0.014 A 
ATOM     76  C   UNL A   1      48.132  26.743  26.678  1.00  0.00     0.009 A 
ATOM     77  C   UNL A   1      47.349  27.713  24.608  1.00  0.00     0.009 A 
ATOM     78  C   UNL A   1      49.197  26.154  25.992  1.00  0.00     0.001 A 
ATOM     79  C   UNL A   1      48.393  27.095  23.918  1.00  0.00     0.001 A 
ATOM     80  C   UNL A   1      49.323  26.324  24.613  1.00  0.00     0.000 A 
ENDBRANCH  62  75
ENDBRANCH  36  37
ENDBRANCH  29  31
ENDBRANCH  28  29
ENDBRANCH  27  28
ENDBRANCH  26  27
ENDBRANCH  25  26
ENDBRANCH   1  25
TORSDOF 19
ENDMDL
