MODEL 1
REMARK VINA RESULT:     -10.7      0.000      0.000
REMARK SMILES CS(=O)(=O)c1ccc(C(=O)N2C[C@@H](C(=O)OCCOCCOCCOC(=O)c3ccc(-c4c5nc(c(-c6ccccc6)c6ccc([nH]6)c(-c6ccccc6)c6nc(c(-c7ccccc7)c7ccc4[nH]7)C=C6)C=C5)cc3)[C@H](c3ccncc3)C2)cc1
REMARK SMILES IDX 20 1 19 2 18 3 17 4 16 5 14 6 15 7 13 8 11 9 12 10 83 11
REMARK SMILES IDX 76 12 9 13 10 14 8 15 5 16 6 17 85 18 7 19 84 20 2 21 1 22
REMARK SMILES IDX 3 23 4 24 77 25 78 26 82 27 79 28 81 29 80 30 21 31 22 32
REMARK SMILES IDX 23 33 24 34 25 35 26 36 27 37 28 38 29 39 75 40 30 41 74 42
REMARK SMILES IDX 31 43 32 44 33 45 68 46 34 47 73 48 67 49 69 50 35 51 72 52
REMARK SMILES IDX 66 53 65 54 36 56 58 57 43 58 57 59 44 60 47 61 56 62 70 63
REMARK SMILES IDX 45 64 46 65 55 67 71 68 48 69 37 70 38 71 42 72 39 73 41 74
REMARK SMILES IDX 40 75 59 76 60 77 64 78 61 79 63 80 62 81 49 82 50 83 54 84
REMARK SMILES IDX 51 85 53 86 52 87
REMARK H PARENT 69 55 47 66
REMARK Flexibility Score: inf
ROOT
ATOM      1  C   UNL A   1      35.885  32.487  27.794  1.00  0.00     0.188 C 
ENDROOT
BRANCH   1   2
ATOM      2  O   UNL A   1      35.665  31.087  27.671  1.00  0.00    -0.376 OA
BRANCH   2   3
ATOM      3  C   UNL A   1      34.395  30.531  27.956  1.00  0.00     0.202 C 
BRANCH   3   4
ATOM      4  C   UNL A   1      33.444  30.276  26.782  1.00  0.00     0.261 C 
BRANCH   4   5
ATOM      5  O   UNL A   1      33.300  28.908  26.366  1.00  0.00    -0.463 OA
BRANCH   5   6
ATOM      6  C   UNL A   1      32.028  28.426  26.322  1.00  0.00     0.311 C 
ATOM      7  O   UNL A   1      31.206  28.537  27.220  1.00  0.00    -0.252 OA
BRANCH   6   8
ATOM      8  C   UNL A   1      31.778  27.698  25.019  1.00  0.00     0.128 C 
ATOM      9  N   UNL A   1      32.742  26.605  23.218  1.00  0.00    -0.337 N 
ATOM     10  C   UNL A   1      32.864  26.699  24.654  1.00  0.00     0.135 C 
ATOM     11  C   UNL A   1      32.475  27.927  22.686  1.00  0.00     0.129 C 
ATOM     12  C   UNL A   1      31.761  28.698  23.825  1.00  0.00     0.055 C 
BRANCH   9  13
ATOM     13  C   UNL A   1      33.253  25.610  22.405  1.00  0.00     0.253 C 
ATOM     14  O   UNL A   1      33.495  25.819  21.218  1.00  0.00    -0.269 OA
BRANCH  13  15
ATOM     15  C   UNL A   1      33.346  24.205  22.926  1.00  0.00     0.040 A 
ATOM     16  C   UNL A   1      33.309  21.733  24.269  1.00  0.00     0.067 A 
ATOM     17  C   UNL A   1      32.126  22.245  23.735  1.00  0.00     0.021 A 
ATOM     18  C   UNL A   1      34.509  22.433  24.127  1.00  0.00     0.021 A 
ATOM     19  C   UNL A   1      32.152  23.469  23.054  1.00  0.00     0.015 A 
ATOM     20  C   UNL A   1      34.521  23.671  23.472  1.00  0.00     0.015 A 
BRANCH  16  21
ATOM     21  S   UNL A   1      33.265  20.273  25.289  1.00  0.00     0.175 S 
ATOM     22  C   UNL A   1      34.614  19.292  24.698  1.00  0.00     0.163 C 
ATOM     23  O   UNL A   1      32.028  19.572  24.989  1.00  0.00    -0.224 OA
ATOM     24  O   UNL A   1      33.572  20.684  26.645  1.00  0.00    -0.224 OA
ENDBRANCH  16  21
ENDBRANCH  13  15
ENDBRANCH   9  13
BRANCH  12  25
ATOM     25  C   UNL A   1      30.353  29.234  23.600  1.00  0.00    -0.039 A 
ATOM     26  C   UNL A   1      29.350  28.363  23.139  1.00  0.00     0.024 A 
ATOM     27  C   UNL A   1      29.975  30.553  23.849  1.00  0.00     0.024 A 
ATOM     28  C   UNL A   1      28.073  28.844  22.896  1.00  0.00     0.111 A 
ATOM     29  C   UNL A   1      28.666  30.941  23.591  1.00  0.00     0.111 A 
ATOM     30  N   UNL A   1      27.711  30.121  23.107  1.00  0.00    -0.265 NA
ENDBRANCH  12  25
ENDBRANCH   6   8
ENDBRANCH   5   6
ENDBRANCH   4   5
ENDBRANCH   3   4
ENDBRANCH   2   3
ENDBRANCH   1   2
BRANCH   1  31
ATOM     31  C   UNL A   1      35.099  33.334  28.816  1.00  0.00     0.188 C 
BRANCH  31  32
ATOM     32  O   UNL A   1      34.102  34.124  28.214  1.00  0.00    -0.376 OA
BRANCH  32  33
ATOM     33  C   UNL A   1      33.998  35.484  28.565  1.00  0.00     0.202 C 
BRANCH  33  34
ATOM     34  C   UNL A   1      32.942  35.983  29.571  1.00  0.00     0.261 C 
BRANCH  34  35
ATOM     35  O   UNL A   1      32.543  35.111  30.642  1.00  0.00    -0.460 OA
BRANCH  35  36
ATOM     36  C   UNL A   1      32.721  35.545  31.912  1.00  0.00     0.338 C 
ATOM     37  O   UNL A   1      31.951  36.224  32.559  1.00  0.00    -0.246 OA
BRANCH  36  38
ATOM     38  C   UNL A   1      33.931  34.890  32.483  1.00  0.00     0.060 A 
ATOM     39  C   UNL A   1      35.154  35.572  32.418  1.00  0.00     0.016 A 
ATOM     40  C   UNL A   1      33.878  33.611  33.043  1.00  0.00     0.016 A 
ATOM     41  C   UNL A   1      36.332  34.954  32.851  1.00  0.00     0.010 A 
ATOM     42  C   UNL A   1      35.064  32.986  33.465  1.00  0.00     0.010 A 
ATOM     43  C   UNL A   1      36.305  33.635  33.328  1.00  0.00    -0.014 A 
BRANCH  43  44
ATOM     44  C   UNL A   1      37.584  32.889  33.500  1.00  0.00     0.031 A 
ATOM     45  C   UNL A   1      38.391  33.103  34.756  1.00  0.00     0.074 A 
ATOM     46  C   UNL A   1      38.008  31.986  32.596  1.00  0.00     0.049 A 
ATOM     47  N   UNL A   1      39.493  32.513  35.153  1.00  0.00    -0.248 NA
ATOM     48  C   UNL A   1      37.883  34.117  35.693  1.00  0.00     0.031 C 
ATOM     49  C   UNL A   1      37.316  31.638  31.358  1.00  0.00     0.029 A 
ATOM     50  N   UNL A   1      39.124  31.183  32.596  1.00  0.00    -0.354 N 
ATOM     51  C   UNL A   1      39.804  33.080  36.383  1.00  0.00     0.074 A 
ATOM     52  C   UNL A   1      38.804  34.092  36.644  1.00  0.00     0.031 C 
ATOM     53  C   UNL A   1      38.014  30.678  30.724  1.00  0.00     0.029 A 
ATOM     54  C   UNL A   1      39.215  30.363  31.498  1.00  0.00     0.049 A 
ATOM     55  H   UNL A   1      39.795  31.195  33.316  1.00  0.00     0.167 HD
ATOM     56  C   UNL A   1      40.820  32.783  37.232  1.00  0.00     0.031 A 
ATOM     57  C   UNL A   1      40.155  29.461  31.153  1.00  0.00     0.031 A 
ATOM     58  C   UNL A   1      41.843  31.804  36.969  1.00  0.00     0.049 A 
ATOM     59  C   UNL A   1      41.330  29.214  32.065  1.00  0.00     0.074 A 
ATOM     60  C   UNL A   1      42.910  31.434  37.770  1.00  0.00     0.029 A 
ATOM     61  N   UNL A   1      41.934  31.048  35.810  1.00  0.00    -0.354 N 
ATOM     62  N   UNL A   1      41.596  29.736  33.238  1.00  0.00    -0.248 NA
ATOM     63  C   UNL A   1      42.329  28.235  31.604  1.00  0.00     0.031 C 
ATOM     64  C   UNL A   1      43.686  30.506  37.067  1.00  0.00     0.029 A 
ATOM     65  C   UNL A   1      43.057  30.237  35.862  1.00  0.00     0.049 A 
ATOM     66  H   UNL A   1      41.297  31.082  35.061  1.00  0.00     0.167 HD
ATOM     67  C   UNL A   1      42.765  29.119  33.674  1.00  0.00     0.074 A 
ATOM     68  C   UNL A   1      43.152  28.179  32.642  1.00  0.00     0.031 C 
ATOM     69  C   UNL A   1      43.447  29.307  34.831  1.00  0.00     0.031 A 
BRANCH  56  70
ATOM     70  C   UNL A   1      40.892  33.571  38.514  1.00  0.00    -0.014 A 
ATOM     71  C   UNL A   1      40.234  33.138  39.678  1.00  0.00     0.009 A 
ATOM     72  C   UNL A   1      41.631  34.763  38.560  1.00  0.00     0.009 A 
ATOM     73  C   UNL A   1      40.272  33.909  40.842  1.00  0.00     0.001 A 
ATOM     74  C   UNL A   1      41.696  35.515  39.734  1.00  0.00     0.001 A 
ATOM     75  C   UNL A   1      41.005  35.095  40.870  1.00  0.00     0.000 A 
ENDBRANCH  56  70
BRANCH  57  76
ATOM     76  C   UNL A   1      40.025  28.701  29.879  1.00  0.00    -0.014 A 
ATOM     77  C   UNL A   1      40.480  29.248  28.669  1.00  0.00     0.009 A 
ATOM     78  C   UNL A   1      39.427  27.430  29.864  1.00  0.00     0.009 A 
ATOM     79  C   UNL A   1      40.320  28.549  27.470  1.00  0.00     0.001 A 
ATOM     80  C   UNL A   1      39.298  26.721  28.669  1.00  0.00     0.001 A 
ATOM     81  C   UNL A   1      39.735  27.283  27.472  1.00  0.00     0.000 A 
ENDBRANCH  57  76
BRANCH  69  82
ATOM     82  C   UNL A   1      44.657  28.442  35.074  1.00  0.00    -0.014 A 
ATOM     83  C   UNL A   1      45.946  28.846  34.692  1.00  0.00     0.009 A 
ATOM     84  C   UNL A   1      44.504  27.205  35.722  1.00  0.00     0.009 A 
ATOM     85  C   UNL A   1      47.045  28.010  34.911  1.00  0.00     0.001 A 
ATOM     86  C   UNL A   1      45.607  26.388  35.971  1.00  0.00     0.001 A 
ATOM     87  C   UNL A   1      46.875  26.784  35.554  1.00  0.00     0.000 A 
ENDBRANCH  69  82
ENDBRANCH  43  44
ENDBRANCH  36  38
ENDBRANCH  35  36
ENDBRANCH  34  35
ENDBRANCH  33  34
ENDBRANCH  32  33
ENDBRANCH  31  32
ENDBRANCH   1  31
TORSDOF 21
ENDMDL
MODEL 2
REMARK VINA RESULT:      -9.8      3.064      5.495
REMARK SMILES CS(=O)(=O)c1ccc(C(=O)N2C[C@@H](C(=O)OCCOCCOCCOC(=O)c3ccc(-c4c5nc(c(-c6ccccc6)c6ccc([nH]6)c(-c6ccccc6)c6nc(c(-c7ccccc7)c7ccc4[nH]7)C=C6)C=C5)cc3)[C@H](c3ccncc3)C2)cc1
REMARK SMILES IDX 20 1 19 2 18 3 17 4 16 5 14 6 15 7 13 8 11 9 12 10 83 11
REMARK SMILES IDX 76 12 9 13 10 14 8 15 5 16 6 17 85 18 7 19 84 20 2 21 1 22
REMARK SMILES IDX 3 23 4 24 77 25 78 26 82 27 79 28 81 29 80 30 21 31 22 32
REMARK SMILES IDX 23 33 24 34 25 35 26 36 27 37 28 38 29 39 75 40 30 41 74 42
REMARK SMILES IDX 31 43 32 44 33 45 68 46 34 47 73 48 67 49 69 50 35 51 72 52
REMARK SMILES IDX 66 53 65 54 36 56 58 57 43 58 57 59 44 60 47 61 56 62 70 63
REMARK SMILES IDX 45 64 46 65 55 67 71 68 48 69 37 70 38 71 42 72 39 73 41 74
REMARK SMILES IDX 40 75 59 76 60 77 64 78 61 79 63 80 62 81 49 82 50 83 54 84
REMARK SMILES IDX 51 85 53 86 52 87
REMARK H PARENT 69 55 47 66
REMARK Flexibility Score: inf
ROOT
ATOM      1  C   UNL A   1      31.384  27.866  26.833  1.00  0.00     0.188 C 
ENDROOT
BRANCH   1   2
ATOM      2  O   UNL A   1      31.422  26.444  26.858  1.00  0.00    -0.376 OA
BRANCH   2   3
ATOM      3  C   UNL A   1      30.706  25.688  25.900  1.00  0.00     0.202 C 
BRANCH   3   4
ATOM      4  C   UNL A   1      31.386  24.446  25.313  1.00  0.00     0.261 C 
BRANCH   4   5
ATOM      5  O   UNL A   1      32.206  23.685  26.214  1.00  0.00    -0.463 OA
BRANCH   5   6
ATOM      6  C   UNL A   1      32.277  22.347  25.973  1.00  0.00     0.311 C 
ATOM      7  O   UNL A   1      31.313  21.599  25.889  1.00  0.00    -0.252 OA
BRANCH   6   8
ATOM      8  C   UNL A   1      33.718  21.900  25.860  1.00  0.00     0.128 C 
ATOM      9  N   UNL A   1      35.900  22.556  25.442  1.00  0.00    -0.337 N 
ATOM     10  C   UNL A   1      34.728  22.997  26.158  1.00  0.00     0.135 C 
ATOM     11  C   UNL A   1      35.486  21.990  24.173  1.00  0.00     0.129 C 
ATOM     12  C   UNL A   1      34.046  21.464  24.401  1.00  0.00     0.055 C 
BRANCH   9  13
ATOM     13  C   UNL A   1      37.199  22.994  25.625  1.00  0.00     0.253 C 
ATOM     14  O   UNL A   1      37.528  24.146  25.349  1.00  0.00    -0.269 OA
BRANCH  13  15
ATOM     15  C   UNL A   1      38.268  22.005  25.994  1.00  0.00     0.040 A 
ATOM     16  C   UNL A   1      40.536  20.392  26.407  1.00  0.00     0.067 A 
ATOM     17  C   UNL A   1      40.486  21.668  26.970  1.00  0.00     0.021 A 
ATOM     18  C   UNL A   1      39.463  19.909  25.654  1.00  0.00     0.021 A 
ATOM     19  C   UNL A   1      39.348  22.461  26.774  1.00  0.00     0.015 A 
ATOM     20  C   UNL A   1      38.343  20.721  25.437  1.00  0.00     0.015 A 
BRANCH  16  21
ATOM     21  S   UNL A   1      42.040  19.441  26.493  1.00  0.00     0.175 S 
ATOM     22  C   UNL A   1      43.246  20.467  25.702  1.00  0.00     0.163 C 
ATOM     23  O   UNL A   1      41.849  18.254  25.678  1.00  0.00    -0.224 OA
ATOM     24  O   UNL A   1      42.399  19.327  27.893  1.00  0.00    -0.224 OA
ENDBRANCH  16  21
ENDBRANCH  13  15
ENDBRANCH   9  13
BRANCH  12  25
ATOM     25  C   UNL A   1      33.749  19.983  24.210  1.00  0.00    -0.039 A 
ATOM     26  C   UNL A   1      32.555  19.596  23.575  1.00  0.00     0.024 A 
ATOM     27  C   UNL A   1      34.610  18.961  24.609  1.00  0.00     0.024 A 
ATOM     28  C   UNL A   1      32.255  18.252  23.426  1.00  0.00     0.111 A 
ATOM     29  C   UNL A   1      34.231  17.640  24.402  1.00  0.00     0.111 A 
ATOM     30  N   UNL A   1      33.068  17.262  23.834  1.00  0.00    -0.265 NA
ENDBRANCH  12  25
ENDBRANCH   6   8
ENDBRANCH   5   6
ENDBRANCH   4   5
ENDBRANCH   3   4
ENDBRANCH   2   3
ENDBRANCH   1   2
BRANCH   1  31
ATOM     31  C   UNL A   1      32.448  28.682  26.067  1.00  0.00     0.188 C 
BRANCH  31  32
ATOM     32  O   UNL A   1      31.950  29.905  25.584  1.00  0.00    -0.376 OA
BRANCH  32  33
ATOM     33  C   UNL A   1      31.707  30.955  26.491  1.00  0.00     0.202 C 
BRANCH  33  34
ATOM     34  C   UNL A   1      32.849  31.623  27.281  1.00  0.00     0.261 C 
BRANCH  34  35
ATOM     35  O   UNL A   1      33.155  33.003  27.021  1.00  0.00    -0.460 OA
BRANCH  35  36
ATOM     36  C   UNL A   1      33.281  33.835  28.082  1.00  0.00     0.338 C 
ATOM     37  O   UNL A   1      32.490  34.685  28.433  1.00  0.00    -0.246 OA
BRANCH  36  38
ATOM     38  C   UNL A   1      34.459  33.413  28.891  1.00  0.00     0.060 A 
ATOM     39  C   UNL A   1      35.733  33.836  28.486  1.00  0.00     0.016 A 
ATOM     40  C   UNL A   1      34.324  32.587  30.010  1.00  0.00     0.016 A 
ATOM     41  C   UNL A   1      36.874  33.382  29.158  1.00  0.00     0.010 A 
ATOM     42  C   UNL A   1      35.471  32.122  30.675  1.00  0.00     0.010 A 
ATOM     43  C   UNL A   1      36.756  32.478  30.224  1.00  0.00    -0.014 A 
BRANCH  43  44
ATOM     44  C   UNL A   1      37.969  31.774  30.730  1.00  0.00     0.031 A 
ATOM     45  C   UNL A   1      38.449  32.064  32.130  1.00  0.00     0.074 A 
ATOM     46  C   UNL A   1      38.610  30.845  29.996  1.00  0.00     0.049 A 
ATOM     47  N   UNL A   1      39.435  31.522  32.805  1.00  0.00    -0.248 NA
ATOM     48  C   UNL A   1      37.716  33.103  32.869  1.00  0.00     0.031 C 
ATOM     49  C   UNL A   1      38.238  30.427  28.648  1.00  0.00     0.029 A 
ATOM     50  N   UNL A   1      39.706  30.074  30.300  1.00  0.00    -0.354 N 
ATOM     51  C   UNL A   1      39.434  32.148  34.045  1.00  0.00     0.074 A 
ATOM     52  C   UNL A   1      38.385  33.144  34.012  1.00  0.00     0.031 C 
ATOM     53  C   UNL A   1      39.082  29.460  28.245  1.00  0.00     0.029 A 
ATOM     54  C   UNL A   1      40.070  29.210  29.295  1.00  0.00     0.049 A 
ATOM     55  H   UNL A   1      40.187  30.134  31.158  1.00  0.00     0.167 HD
ATOM     56  C   UNL A   1      40.223  31.916  35.124  1.00  0.00     0.031 A 
ATOM     57  C   UNL A   1      41.079  28.319  29.227  1.00  0.00     0.031 A 
ATOM     58  C   UNL A   1      41.294  30.954  35.158  1.00  0.00     0.049 A 
ATOM     59  C   UNL A   1      42.007  28.144  30.403  1.00  0.00     0.074 A 
ATOM     60  C   UNL A   1      42.146  30.647  36.206  1.00  0.00     0.029 A 
ATOM     61  N   UNL A   1      41.672  30.152  34.092  1.00  0.00    -0.354 N 
ATOM     62  N   UNL A   1      41.977  28.722  31.579  1.00  0.00    -0.248 NA
ATOM     63  C   UNL A   1      43.102  27.174  30.240  1.00  0.00     0.031 C 
ATOM     64  C   UNL A   1      43.081  29.711  35.753  1.00  0.00     0.029 A 
ATOM     65  C   UNL A   1      42.762  29.375  34.448  1.00  0.00     0.049 A 
ATOM     66  H   UNL A   1      41.230  30.137  33.212  1.00  0.00     0.167 HD
ATOM     67  C   UNL A   1      43.018  28.156  32.310  1.00  0.00     0.074 A 
ATOM     68  C   UNL A   1      43.654  27.184  31.445  1.00  0.00     0.031 C 
ATOM     69  C   UNL A   1      43.401  28.412  33.585  1.00  0.00     0.031 A 
BRANCH  56  70
ATOM     70  C   UNL A   1      39.974  32.760  36.347  1.00  0.00    -0.014 A 
ATOM     71  C   UNL A   1      39.052  32.368  37.332  1.00  0.00     0.009 A 
ATOM     72  C   UNL A   1      40.676  33.963  36.518  1.00  0.00     0.009 A 
ATOM     73  C   UNL A   1      38.799  33.190  38.433  1.00  0.00     0.001 A 
ATOM     74  C   UNL A   1      40.447  34.766  37.637  1.00  0.00     0.001 A 
ATOM     75  C   UNL A   1      39.500  34.386  38.586  1.00  0.00     0.000 A 
ENDBRANCH  56  70
BRANCH  57  76
ATOM     76  C   UNL A   1      41.269  27.502  27.997  1.00  0.00    -0.014 A 
ATOM     77  C   UNL A   1      41.841  28.065  26.846  1.00  0.00     0.009 A 
ATOM     78  C   UNL A   1      40.860  26.159  27.963  1.00  0.00     0.009 A 
ATOM     79  C   UNL A   1      41.981  27.306  25.680  1.00  0.00     0.001 A 
ATOM     80  C   UNL A   1      41.030  25.395  26.807  1.00  0.00     0.001 A 
ATOM     81  C   UNL A   1      41.581  25.971  25.664  1.00  0.00     0.000 A 
ENDBRANCH  57  76
BRANCH  69  82
ATOM     82  C   UNL A   1      44.533  27.591  34.149  1.00  0.00    -0.014 A 
ATOM     83  C   UNL A   1      44.315  26.346  34.759  1.00  0.00     0.009 A 
ATOM     84  C   UNL A   1      45.850  28.068  34.044  1.00  0.00     0.009 A 
ATOM     85  C   UNL A   1      45.384  25.621  35.293  1.00  0.00     0.001 A 
ATOM     86  C   UNL A   1      46.920  27.326  34.546  1.00  0.00     0.001 A 
ATOM     87  C   UNL A   1      46.686  26.109  35.182  1.00  0.00     0.000 A 
ENDBRANCH  69  82
ENDBRANCH  43  44
ENDBRANCH  36  38
ENDBRANCH  35  36
ENDBRANCH  34  35
ENDBRANCH  33  34
ENDBRANCH  32  33
ENDBRANCH  31  32
ENDBRANCH   1  31
TORSDOF 21
ENDMDL
MODEL 3
REMARK VINA RESULT:      -9.5      2.315      4.594
REMARK SMILES CS(=O)(=O)c1ccc(C(=O)N2C[C@@H](C(=O)OCCOCCOCCOC(=O)c3ccc(-c4c5nc(c(-c6ccccc6)c6ccc([nH]6)c(-c6ccccc6)c6nc(c(-c7ccccc7)c7ccc4[nH]7)C=C6)C=C5)cc3)[C@H](c3ccncc3)C2)cc1
REMARK SMILES IDX 20 1 19 2 18 3 17 4 16 5 14 6 15 7 13 8 11 9 12 10 83 11
REMARK SMILES IDX 76 12 9 13 10 14 8 15 5 16 6 17 85 18 7 19 84 20 2 21 1 22
REMARK SMILES IDX 3 23 4 24 77 25 78 26 82 27 79 28 81 29 80 30 21 31 22 32
REMARK SMILES IDX 23 33 24 34 25 35 26 36 27 37 28 38 29 39 75 40 30 41 74 42
REMARK SMILES IDX 31 43 32 44 33 45 68 46 34 47 73 48 67 49 69 50 35 51 72 52
REMARK SMILES IDX 66 53 65 54 36 56 58 57 43 58 57 59 44 60 47 61 56 62 70 63
REMARK SMILES IDX 45 64 46 65 55 67 71 68 48 69 37 70 38 71 42 72 39 73 41 74
REMARK SMILES IDX 40 75 59 76 60 77 64 78 61 79 63 80 62 81 49 82 50 83 54 84
REMARK SMILES IDX 51 85 53 86 52 87
REMARK H PARENT 69 55 47 66
REMARK Flexibility Score: inf
ROOT
ATOM      1  C   UNL A   1      35.744  32.231  28.909  1.00  0.00     0.188 C 
ENDROOT
BRANCH   1   2
ATOM      2  O   UNL A   1      35.439  30.910  28.476  1.00  0.00    -0.376 OA
BRANCH   2   3
ATOM      3  C   UNL A   1      34.363  30.676  27.587  1.00  0.00     0.202 C 
BRANCH   3   4
ATOM      4  C   UNL A   1      34.417  29.419  26.712  1.00  0.00     0.261 C 
BRANCH   4   5
ATOM      5  O   UNL A   1      34.158  28.171  27.375  1.00  0.00    -0.463 OA
BRANCH   5   6
ATOM      6  C   UNL A   1      32.923  27.633  27.177  1.00  0.00     0.311 C 
ATOM      7  O   UNL A   1      32.030  27.607  28.012  1.00  0.00    -0.252 OA
BRANCH   6   8
ATOM      8  C   UNL A   1      32.816  27.035  25.792  1.00  0.00     0.128 C 
ATOM      9  N   UNL A   1      31.454  26.702  23.948  1.00  0.00    -0.337 N 
ATOM     10  C   UNL A   1      31.804  27.732  24.897  1.00  0.00     0.135 C 
ATOM     11  C   UNL A   1      31.363  25.435  24.647  1.00  0.00     0.129 C 
ATOM     12  C   UNL A   1      32.312  25.563  25.865  1.00  0.00     0.055 C 
BRANCH   9  13
ATOM     13  C   UNL A   1      30.830  26.877  22.726  1.00  0.00     0.253 C 
ATOM     14  O   UNL A   1      31.061  26.126  21.780  1.00  0.00    -0.269 OA
BRANCH  13  15
ATOM     15  C   UNL A   1      29.998  28.105  22.489  1.00  0.00     0.040 A 
ATOM     16  C   UNL A   1      28.676  30.586  22.388  1.00  0.00     0.067 A 
ATOM     17  C   UNL A   1      29.991  30.487  21.934  1.00  0.00     0.021 A 
ATOM     18  C   UNL A   1      28.011  29.459  22.878  1.00  0.00     0.021 A 
ATOM     19  C   UNL A   1      30.641  29.247  21.972  1.00  0.00     0.015 A 
ATOM     20  C   UNL A   1      28.678  28.229  22.942  1.00  0.00     0.015 A 
BRANCH  16  21
ATOM     21  S   UNL A   1      27.896  32.183  22.515  1.00  0.00     0.175 S 
ATOM     22  C   UNL A   1      29.180  33.245  23.113  1.00  0.00     0.163 C 
ATOM     23  O   UNL A   1      26.874  32.086  23.542  1.00  0.00    -0.224 OA
ATOM     24  O   UNL A   1      27.557  32.606  21.171  1.00  0.00    -0.224 OA
ENDBRANCH  16  21
ENDBRANCH  13  15
ENDBRANCH   9  13
BRANCH  12  25
ATOM     25  C   UNL A   1      33.488  24.605  26.004  1.00  0.00    -0.039 A 
ATOM     26  C   UNL A   1      34.698  24.900  25.351  1.00  0.00     0.024 A 
ATOM     27  C   UNL A   1      33.454  23.440  26.770  1.00  0.00     0.024 A 
ATOM     28  C   UNL A   1      35.764  24.020  25.439  1.00  0.00     0.111 A 
ATOM     29  C   UNL A   1      34.579  22.626  26.813  1.00  0.00     0.111 A 
ATOM     30  N   UNL A   1      35.728  22.882  26.154  1.00  0.00    -0.265 NA
ENDBRANCH  12  25
ENDBRANCH   6   8
ENDBRANCH   5   6
ENDBRANCH   4   5
ENDBRANCH   3   4
ENDBRANCH   2   3
ENDBRANCH   1   2
BRANCH   1  31
ATOM     31  C   UNL A   1      34.770  33.023  29.808  1.00  0.00     0.188 C 
BRANCH  31  32
ATOM     32  O   UNL A   1      33.795  33.718  29.069  1.00  0.00    -0.376 OA
BRANCH  32  33
ATOM     33  C   UNL A   1      33.657  35.108  29.250  1.00  0.00     0.202 C 
BRANCH  33  34
ATOM     34  C   UNL A   1      32.828  35.696  30.408  1.00  0.00     0.261 C 
BRANCH  34  35
ATOM     35  O   UNL A   1      32.901  35.068  31.698  1.00  0.00    -0.460 OA
BRANCH  35  36
ATOM     36  C   UNL A   1      33.400  35.793  32.728  1.00  0.00     0.338 C 
ATOM     37  O   UNL A   1      32.836  36.687  33.324  1.00  0.00    -0.246 OA
BRANCH  36  38
ATOM     38  C   UNL A   1      34.690  35.189  33.165  1.00  0.00     0.060 A 
ATOM     39  C   UNL A   1      35.849  35.485  32.434  1.00  0.00     0.016 A 
ATOM     40  C   UNL A   1      34.760  34.317  34.255  1.00  0.00     0.016 A 
ATOM     41  C   UNL A   1      37.062  34.862  32.748  1.00  0.00     0.010 A 
ATOM     42  C   UNL A   1      35.976  33.682  34.562  1.00  0.00     0.010 A 
ATOM     43  C   UNL A   1      37.124  33.914  33.780  1.00  0.00    -0.014 A 
BRANCH  43  44
ATOM     44  C   UNL A   1      38.328  33.045  33.909  1.00  0.00     0.031 A 
ATOM     45  C   UNL A   1      39.206  33.191  35.128  1.00  0.00     0.074 A 
ATOM     46  C   UNL A   1      38.620  32.095  33.002  1.00  0.00     0.049 A 
ATOM     47  N   UNL A   1      40.260  32.498  35.487  1.00  0.00    -0.248 NA
ATOM     48  C   UNL A   1      38.842  34.261  36.070  1.00  0.00     0.031 C 
ATOM     49  C   UNL A   1      37.844  31.806  31.800  1.00  0.00     0.029 A 
ATOM     50  N   UNL A   1      39.650  31.185  32.967  1.00  0.00    -0.354 N 
ATOM     51  C   UNL A   1      40.678  33.043  36.694  1.00  0.00     0.074 A 
ATOM     52  C   UNL A   1      39.796  34.154  36.982  1.00  0.00     0.031 C 
ATOM     53  C   UNL A   1      38.415  30.774  31.152  1.00  0.00     0.029 A 
ATOM     54  C   UNL A   1      39.611  30.348  31.878  1.00  0.00     0.049 A 
ATOM     55  H   UNL A   1      40.349  31.137  33.659  1.00  0.00     0.167 HD
ATOM     56  C   UNL A   1      41.695  32.656  37.504  1.00  0.00     0.031 A 
ATOM     57  C   UNL A   1      40.441  29.353  31.508  1.00  0.00     0.031 A 
ATOM     58  C   UNL A   1      42.603  31.576  37.213  1.00  0.00     0.049 A 
ATOM     59  C   UNL A   1      41.624  28.999  32.373  1.00  0.00     0.074 A 
ATOM     60  C   UNL A   1      43.661  31.109  37.974  1.00  0.00     0.029 A 
ATOM     61  N   UNL A   1      42.569  30.803  36.063  1.00  0.00    -0.354 N 
ATOM     62  N   UNL A   1      41.991  29.504  33.527  1.00  0.00    -0.248 NA
ATOM     63  C   UNL A   1      42.499  27.921  31.886  1.00  0.00     0.031 C 
ATOM     64  C   UNL A   1      44.310  30.101  37.253  1.00  0.00     0.029 A 
ATOM     65  C   UNL A   1      43.606  29.884  36.080  1.00  0.00     0.049 A 
ATOM     66  H   UNL A   1      41.906  30.893  35.340  1.00  0.00     0.167 HD
ATOM     67  C   UNL A   1      43.110  28.778  33.923  1.00  0.00     0.074 A 
ATOM     68  C   UNL A   1      43.357  27.793  32.890  1.00  0.00     0.031 C 
ATOM     69  C   UNL A   1      43.856  28.908  35.047  1.00  0.00     0.031 A 
BRANCH  56  70
ATOM     70  C   UNL A   1      41.900  33.446  38.771  1.00  0.00    -0.014 A 
ATOM     71  C   UNL A   1      41.259  33.089  39.969  1.00  0.00     0.009 A 
ATOM     72  C   UNL A   1      42.749  34.563  38.766  1.00  0.00     0.009 A 
ATOM     73  C   UNL A   1      41.423  33.864  41.119  1.00  0.00     0.001 A 
ATOM     74  C   UNL A   1      42.939  35.316  39.925  1.00  0.00     0.001 A 
ATOM     75  C   UNL A   1      42.265  34.976  41.097  1.00  0.00     0.000 A 
ENDBRANCH  56  70
BRANCH  57  76
ATOM     76  C   UNL A   1      40.181  28.596  30.252  1.00  0.00    -0.014 A 
ATOM     77  C   UNL A   1      40.708  29.038  29.029  1.00  0.00     0.009 A 
ATOM     78  C   UNL A   1      39.388  27.437  30.269  1.00  0.00     0.009 A 
ATOM     79  C   UNL A   1      40.429  28.347  27.846  1.00  0.00     0.001 A 
ATOM     80  C   UNL A   1      39.138  26.732  29.090  1.00  0.00     0.001 A 
ATOM     81  C   UNL A   1      39.650  27.192  27.878  1.00  0.00     0.000 A 
ENDBRANCH  57  76
BRANCH  69  82
ATOM     82  C   UNL A   1      44.984  27.930  35.252  1.00  0.00    -0.014 A 
ATOM     83  C   UNL A   1      44.790  26.696  35.892  1.00  0.00     0.009 A 
ATOM     84  C   UNL A   1      46.266  28.243  34.769  1.00  0.00     0.009 A 
ATOM     85  C   UNL A   1      45.862  25.820  36.086  1.00  0.00     0.001 A 
ATOM     86  C   UNL A   1      47.328  27.352  34.932  1.00  0.00     0.001 A 
ATOM     87  C   UNL A   1      47.129  26.147  35.603  1.00  0.00     0.000 A 
ENDBRANCH  69  82
ENDBRANCH  43  44
ENDBRANCH  36  38
ENDBRANCH  35  36
ENDBRANCH  34  35
ENDBRANCH  33  34
ENDBRANCH  32  33
ENDBRANCH  31  32
ENDBRANCH   1  31
TORSDOF 21
ENDMDL
