MODEL 1
REMARK VINA RESULT:      -8.9      0.000      0.000
REMARK SMILES O=Cc1cc(Cl)c(OCc2ccc(C(=O)OCCOCCOCCOC(=O)c3ccc(-c4c5nc(c(-c6ccccc6)c6ccc([nH]6)c(-c6ccccc6)c6nc(c(-c7ccccc7)c7ccc4[nH]7)C=C6)C=C5)cc3)cc2)c(Cl)c1
REMARK SMILES IDX 20 1 19 2 18 3 17 4 16 5 14 6 15 7 13 8 10 9 11 10 77 11
REMARK SMILES IDX 12 12 76 13 9 14 8 15 7 16 3 17 4 18 80 19 5 20 78 21 6 22
REMARK SMILES IDX 79 23 2 24 1 25 21 26 22 27 23 28 24 29 25 30 26 31 27 32
REMARK SMILES IDX 28 33 29 34 75 35 30 36 74 37 31 38 32 39 33 40 68 41 34 42
REMARK SMILES IDX 73 43 67 44 69 45 35 46 72 47 66 48 65 49 36 51 58 52 43 53
REMARK SMILES IDX 57 54 44 55 47 56 56 57 70 58 45 59 46 60 55 62 71 63 48 64
REMARK SMILES IDX 37 65 38 66 42 67 39 68 41 69 40 70 59 71 60 72 64 73 61 74
REMARK SMILES IDX 63 75 62 76 49 77 50 78 54 79 51 80 53 81 52 82
REMARK H PARENT 69 50 47 61
REMARK Flexibility Score: inf
ROOT
ATOM      1  C   UNL A   1      33.822  32.750  28.168  1.00  0.00     0.188 C 
ENDROOT
BRANCH   1   2
ATOM      2  O   UNL A   1      34.546  31.673  27.607  1.00  0.00    -0.376 OA
BRANCH   2   3
ATOM      3  C   UNL A   1      33.946  30.396  27.469  1.00  0.00     0.202 C 
BRANCH   3   4
ATOM      4  C   UNL A   1      32.566  30.215  26.830  1.00  0.00     0.261 C 
BRANCH   4   5
ATOM      5  O   UNL A   1      32.383  28.952  26.180  1.00  0.00    -0.460 OA
BRANCH   5   6
ATOM      6  C   UNL A   1      31.639  28.063  26.884  1.00  0.00     0.338 C 
ATOM      7  O   UNL A   1      31.222  28.187  28.022  1.00  0.00    -0.246 OA
BRANCH   6   8
ATOM      8  C   UNL A   1      31.204  26.964  26.004  1.00  0.00     0.060 A 
ATOM      9  C   UNL A   1      30.701  24.779  24.341  1.00  0.00    -0.011 A 
ATOM     10  C   UNL A   1      31.006  24.575  25.691  1.00  0.00     0.008 A 
ATOM     11  C   UNL A   1      30.486  26.095  23.883  1.00  0.00     0.008 A 
ATOM     12  C   UNL A   1      31.308  25.662  26.505  1.00  0.00     0.016 A 
ATOM     13  C   UNL A   1      30.729  27.190  24.714  1.00  0.00     0.016 A 
BRANCH   9  14
ATOM     14  C   UNL A   1      30.682  23.646  23.330  1.00  0.00     0.265 C 
BRANCH  14  15
ATOM     15  O   UNL A   1      31.909  23.278  22.688  1.00  0.00    -0.486 OA
BRANCH  15  16
ATOM     16  C   UNL A   1      33.135  23.288  23.298  1.00  0.00     0.157 A 
ATOM     17  C   UNL A   1      35.472  22.978  24.851  1.00  0.00     0.017 A 
ATOM     18  C   UNL A   1      35.150  24.219  24.298  1.00  0.00     0.036 A 
ATOM     19  C   UNL A   1      34.677  21.871  24.588  1.00  0.00     0.036 A 
ATOM     20  C   UNL A   1      34.013  24.366  23.488  1.00  0.00     0.085 A 
ATOM     21  C   UNL A   1      33.517  22.032  23.823  1.00  0.00     0.085 A 
ATOM     22  Cl  UNL A   1      33.854  25.902  22.715  1.00  0.00    -0.080 Cl
ATOM     23  Cl  UNL A   1      32.546  20.617  23.570  1.00  0.00    -0.080 Cl
BRANCH  17  24
ATOM     24  C   UNL A   1      36.664  22.825  25.707  1.00  0.00     0.260 C 
ATOM     25  O   UNL A   1      37.198  23.786  26.245  1.00  0.00    -0.298 OA
ENDBRANCH  17  24
ENDBRANCH  15  16
ENDBRANCH  14  15
ENDBRANCH   9  14
ENDBRANCH   6   8
ENDBRANCH   5   6
ENDBRANCH   4   5
ENDBRANCH   3   4
ENDBRANCH   2   3
ENDBRANCH   1   2
BRANCH   1  26
ATOM     26  C   UNL A   1      34.405  33.589  29.326  1.00  0.00     0.188 C 
BRANCH  26  27
ATOM     27  O   UNL A   1      35.529  33.151  30.057  1.00  0.00    -0.376 OA
BRANCH  27  28
ATOM     28  C   UNL A   1      35.419  32.825  31.431  1.00  0.00     0.202 C 
BRANCH  28  29
ATOM     29  C   UNL A   1      36.525  33.117  32.451  1.00  0.00     0.261 C 
BRANCH  29  30
ATOM     30  O   UNL A   1      36.921  32.016  33.273  1.00  0.00    -0.460 OA
BRANCH  30  31
ATOM     31  C   UNL A   1      37.290  30.904  32.591  1.00  0.00     0.338 C 
ATOM     32  O   UNL A   1      36.640  29.891  32.407  1.00  0.00    -0.246 OA
BRANCH  31  33
ATOM     33  C   UNL A   1      38.586  31.143  31.935  1.00  0.00     0.060 A 
ATOM     34  C   UNL A   1      39.606  31.750  32.680  1.00  0.00     0.016 A 
ATOM     35  C   UNL A   1      38.768  30.842  30.585  1.00  0.00     0.016 A 
ATOM     36  C   UNL A   1      40.808  32.088  32.064  1.00  0.00     0.010 A 
ATOM     37  C   UNL A   1      39.967  31.199  29.965  1.00  0.00     0.010 A 
ATOM     38  C   UNL A   1      40.978  31.851  30.694  1.00  0.00    -0.014 A 
BRANCH  38  39
ATOM     39  C   UNL A   1      42.137  32.440  29.984  1.00  0.00     0.031 A 
ATOM     40  C   UNL A   1      43.374  31.605  29.805  1.00  0.00     0.074 A 
ATOM     41  C   UNL A   1      42.092  33.693  29.498  1.00  0.00     0.049 A 
ATOM     42  N   UNL A   1      44.522  31.927  29.266  1.00  0.00    -0.248 NA
ATOM     43  C   UNL A   1      43.306  30.220  30.303  1.00  0.00     0.031 C 
ATOM     44  C   UNL A   1      40.938  34.588  29.565  1.00  0.00     0.029 A 
ATOM     45  N   UNL A   1      43.056  34.430  28.858  1.00  0.00    -0.354 N 
ATOM     46  C   UNL A   1      45.314  30.791  29.365  1.00  0.00     0.074 A 
ATOM     47  C   UNL A   1      44.527  29.780  30.038  1.00  0.00     0.031 C 
ATOM     48  C   UNL A   1      41.267  35.762  29.000  1.00  0.00     0.029 A 
ATOM     49  C   UNL A   1      42.661  35.711  28.564  1.00  0.00     0.049 A 
ATOM     50  H   UNL A   1      43.945  34.073  28.633  1.00  0.00     0.167 HD
ATOM     51  C   UNL A   1      46.583  30.602  28.934  1.00  0.00     0.031 A 
ATOM     52  C   UNL A   1      43.358  36.731  28.027  1.00  0.00     0.031 A 
ATOM     53  C   UNL A   1      47.377  31.610  28.286  1.00  0.00     0.049 A 
ATOM     54  C   UNL A   1      44.799  36.526  27.640  1.00  0.00     0.074 A 
ATOM     55  C   UNL A   1      48.670  31.513  27.803  1.00  0.00     0.029 A 
ATOM     56  N   UNL A   1      46.955  32.907  28.042  1.00  0.00    -0.354 N 
ATOM     57  N   UNL A   1      45.529  35.439  27.711  1.00  0.00    -0.248 NA
ATOM     58  C   UNL A   1      45.510  37.692  27.093  1.00  0.00     0.031 C 
ATOM     59  C   UNL A   1      49.050  32.767  27.317  1.00  0.00     0.029 A 
ATOM     60  C   UNL A   1      47.973  33.630  27.441  1.00  0.00     0.049 A 
ATOM     61  H   UNL A   1      46.065  33.263  28.263  1.00  0.00     0.167 HD
ATOM     62  C   UNL A   1      46.772  35.782  27.192  1.00  0.00     0.074 A 
ATOM     63  C   UNL A   1      46.693  37.172  26.797  1.00  0.00     0.031 C 
ATOM     64  C   UNL A   1      47.880  35.012  27.052  1.00  0.00     0.031 A 
BRANCH  51  65
ATOM     65  C   UNL A   1      47.204  29.258  29.190  1.00  0.00    -0.014 A 
ATOM     66  C   UNL A   1      47.899  28.989  30.378  1.00  0.00     0.009 A 
ATOM     67  C   UNL A   1      47.071  28.239  28.234  1.00  0.00     0.009 A 
ATOM     68  C   UNL A   1      48.478  27.736  30.590  1.00  0.00     0.001 A 
ATOM     69  C   UNL A   1      47.627  26.979  28.460  1.00  0.00     0.001 A 
ATOM     70  C   UNL A   1      48.337  26.731  29.633  1.00  0.00     0.000 A 
ENDBRANCH  51  65
BRANCH  52  71
ATOM     71  C   UNL A   1      42.714  38.059  27.843  1.00  0.00    -0.014 A 
ATOM     72  C   UNL A   1      42.776  39.031  28.853  1.00  0.00     0.009 A 
ATOM     73  C   UNL A   1      42.008  38.349  26.666  1.00  0.00     0.009 A 
ATOM     74  C   UNL A   1      42.123  40.256  28.698  1.00  0.00     0.001 A 
ATOM     75  C   UNL A   1      41.380  39.585  26.502  1.00  0.00     0.001 A 
ATOM     76  C   UNL A   1      41.430  40.533  27.521  1.00  0.00     0.000 A 
ENDBRANCH  52  71
BRANCH  64  77
ATOM     77  C   UNL A   1      49.084  35.643  26.410  1.00  0.00    -0.014 A 
ATOM     78  C   UNL A   1      50.103  36.226  27.179  1.00  0.00     0.009 A 
ATOM     79  C   UNL A   1      49.221  35.611  25.012  1.00  0.00     0.009 A 
ATOM     80  C   UNL A   1      51.219  36.792  26.559  1.00  0.00     0.001 A 
ATOM     81  C   UNL A   1      50.352  36.151  24.398  1.00  0.00     0.001 A 
ATOM     82  C   UNL A   1      51.345  36.750  25.171  1.00  0.00     0.000 A 
ENDBRANCH  64  77
ENDBRANCH  38  39
ENDBRANCH  31  33
ENDBRANCH  30  31
ENDBRANCH  29  30
ENDBRANCH  28  29
ENDBRANCH  27  28
ENDBRANCH  26  27
ENDBRANCH   1  26
TORSDOF 21
ENDMDL
MODEL 2
REMARK VINA RESULT:      -8.8      5.737      9.421
REMARK SMILES O=Cc1cc(Cl)c(OCc2ccc(C(=O)OCCOCCOCCOC(=O)c3ccc(-c4c5nc(c(-c6ccccc6)c6ccc([nH]6)c(-c6ccccc6)c6nc(c(-c7ccccc7)c7ccc4[nH]7)C=C6)C=C5)cc3)cc2)c(Cl)c1
REMARK SMILES IDX 20 1 19 2 18 3 17 4 16 5 14 6 15 7 13 8 10 9 11 10 77 11
REMARK SMILES IDX 12 12 76 13 9 14 8 15 7 16 3 17 4 18 80 19 5 20 78 21 6 22
REMARK SMILES IDX 79 23 2 24 1 25 21 26 22 27 23 28 24 29 25 30 26 31 27 32
REMARK SMILES IDX 28 33 29 34 75 35 30 36 74 37 31 38 32 39 33 40 68 41 34 42
REMARK SMILES IDX 73 43 67 44 69 45 35 46 72 47 66 48 65 49 36 51 58 52 43 53
REMARK SMILES IDX 57 54 44 55 47 56 56 57 70 58 45 59 46 60 55 62 71 63 48 64
REMARK SMILES IDX 37 65 38 66 42 67 39 68 41 69 40 70 59 71 60 72 64 73 61 74
REMARK SMILES IDX 63 75 62 76 49 77 50 78 54 79 51 80 53 81 52 82
REMARK H PARENT 69 50 47 61
REMARK Flexibility Score: inf
ROOT
ATOM      1  C   UNL A   1      31.056  23.452  25.638  1.00  0.00     0.188 C 
ENDROOT
BRANCH   1   2
ATOM      2  O   UNL A   1      32.464  23.370  25.739  1.00  0.00    -0.376 OA
BRANCH   2   3
ATOM      3  C   UNL A   1      33.151  22.207  25.307  1.00  0.00     0.202 C 
BRANCH   3   4
ATOM      4  C   UNL A   1      34.614  21.946  25.680  1.00  0.00     0.261 C 
BRANCH   4   5
ATOM      5  O   UNL A   1      35.404  23.132  25.813  1.00  0.00    -0.460 OA
BRANCH   5   6
ATOM      6  C   UNL A   1      36.448  23.208  24.950  1.00  0.00     0.338 C 
ATOM      7  O   UNL A   1      36.397  23.360  23.742  1.00  0.00    -0.246 OA
BRANCH   6   8
ATOM      8  C   UNL A   1      37.714  23.290  25.700  1.00  0.00     0.060 A 
ATOM      9  C   UNL A   1      39.971  23.230  27.341  1.00  0.00    -0.011 A 
ATOM     10  C   UNL A   1      39.618  22.100  26.597  1.00  0.00     0.008 A 
ATOM     11  C   UNL A   1      39.277  24.437  27.118  1.00  0.00     0.008 A 
ATOM     12  C   UNL A   1      38.464  22.114  25.820  1.00  0.00     0.016 A 
ATOM     13  C   UNL A   1      38.152  24.471  26.292  1.00  0.00     0.016 A 
BRANCH   9  14
ATOM     14  C   UNL A   1      41.014  23.186  28.445  1.00  0.00     0.265 C 
BRANCH  14  15
ATOM     15  O   UNL A   1      42.173  22.366  28.261  1.00  0.00    -0.486 OA
BRANCH  15  16
ATOM     16  C   UNL A   1      43.357  22.806  27.733  1.00  0.00     0.157 A 
ATOM     17  C   UNL A   1      45.818  24.001  27.033  1.00  0.00     0.017 A 
ATOM     18  C   UNL A   1      44.912  23.617  26.044  1.00  0.00     0.036 A 
ATOM     19  C   UNL A   1      45.543  23.739  28.369  1.00  0.00     0.036 A 
ATOM     20  C   UNL A   1      43.708  22.982  26.386  1.00  0.00     0.085 A 
ATOM     21  C   UNL A   1      44.319  23.154  28.710  1.00  0.00     0.085 A 
ATOM     22  Cl  UNL A   1      42.784  22.389  25.052  1.00  0.00    -0.080 Cl
ATOM     23  Cl  UNL A   1      44.020  22.896  30.398  1.00  0.00    -0.080 Cl
BRANCH  17  24
ATOM     24  C   UNL A   1      47.081  24.674  26.674  1.00  0.00     0.260 C 
ATOM     25  O   UNL A   1      48.085  24.568  27.366  1.00  0.00    -0.298 OA
ENDBRANCH  17  24
ENDBRANCH  15  16
ENDBRANCH  14  15
ENDBRANCH   9  14
ENDBRANCH   6   8
ENDBRANCH   5   6
ENDBRANCH   4   5
ENDBRANCH   3   4
ENDBRANCH   2   3
ENDBRANCH   1   2
BRANCH   1  26
ATOM     26  C   UNL A   1      30.269  24.586  26.330  1.00  0.00     0.188 C 
BRANCH  26  27
ATOM     27  O   UNL A   1      30.220  25.885  25.783  1.00  0.00    -0.376 OA
BRANCH  27  28
ATOM     28  C   UNL A   1      29.781  26.096  24.453  1.00  0.00     0.202 C 
BRANCH  28  29
ATOM     29  C   UNL A   1      30.730  26.472  23.309  1.00  0.00     0.261 C 
BRANCH  29  30
ATOM     30  O   UNL A   1      31.749  27.422  23.632  1.00  0.00    -0.460 OA
BRANCH  30  31
ATOM     31  C   UNL A   1      32.875  26.885  24.164  1.00  0.00     0.338 C 
ATOM     32  O   UNL A   1      33.433  25.853  23.842  1.00  0.00    -0.246 OA
BRANCH  31  33
ATOM     33  C   UNL A   1      33.454  27.830  25.132  1.00  0.00     0.060 A 
ATOM     34  C   UNL A   1      34.258  28.870  24.646  1.00  0.00     0.016 A 
ATOM     35  C   UNL A   1      33.269  27.650  26.503  1.00  0.00     0.016 A 
ATOM     36  C   UNL A   1      34.910  29.719  25.537  1.00  0.00     0.010 A 
ATOM     37  C   UNL A   1      33.939  28.491  27.396  1.00  0.00     0.010 A 
ATOM     38  C   UNL A   1      34.785  29.507  26.916  1.00  0.00    -0.014 A 
BRANCH  38  39
ATOM     39  C   UNL A   1      35.673  30.231  27.855  1.00  0.00     0.031 A 
ATOM     40  C   UNL A   1      37.092  29.759  28.014  1.00  0.00     0.074 A 
ATOM     41  C   UNL A   1      35.233  31.294  28.550  1.00  0.00     0.049 A 
ATOM     42  N   UNL A   1      38.029  30.202  28.811  1.00  0.00    -0.248 NA
ATOM     43  C   UNL A   1      37.507  28.635  27.157  1.00  0.00     0.031 C 
ATOM     44  C   UNL A   1      33.897  31.878  28.453  1.00  0.00     0.029 A 
ATOM     45  N   UNL A   1      35.873  32.065  29.488  1.00  0.00    -0.354 N 
ATOM     46  C   UNL A   1      39.142  29.409  28.559  1.00  0.00     0.074 A 
ATOM     47  C   UNL A   1      38.756  28.442  27.553  1.00  0.00     0.031 C 
ATOM     48  C   UNL A   1      33.811  32.910  29.310  1.00  0.00     0.029 A 
ATOM     49  C   UNL A   1      35.073  33.035  30.037  1.00  0.00     0.049 A 
ATOM     50  H   UNL A   1      36.814  31.933  29.742  1.00  0.00     0.167 HD
ATOM     51  C   UNL A   1      40.375  29.479  29.111  1.00  0.00     0.031 A 
ATOM     52  C   UNL A   1      35.326  33.907  31.033  1.00  0.00     0.031 A 
ATOM     53  C   UNL A   1      40.756  30.423  30.126  1.00  0.00     0.049 A 
ATOM     54  C   UNL A   1      36.677  33.904  31.698  1.00  0.00     0.074 A 
ATOM     55  C   UNL A   1      41.985  30.579  30.742  1.00  0.00     0.029 A 
ATOM     56  N   UNL A   1      39.906  31.364  30.685  1.00  0.00    -0.354 N 
ATOM     57  N   UNL A   1      37.730  33.170  31.431  1.00  0.00    -0.248 NA
ATOM     58  C   UNL A   1      36.874  34.857  32.802  1.00  0.00     0.031 C 
ATOM     59  C   UNL A   1      41.863  31.578  31.713  1.00  0.00     0.029 A 
ATOM     60  C   UNL A   1      40.575  32.085  31.659  1.00  0.00     0.049 A 
ATOM     61  H   UNL A   1      38.965  31.499  30.428  1.00  0.00     0.167 HD
ATOM     62  C   UNL A   1      38.720  33.592  32.311  1.00  0.00     0.074 A 
ATOM     63  C   UNL A   1      38.147  34.655  33.109  1.00  0.00     0.031 C 
ATOM     64  C   UNL A   1      39.993  33.142  32.444  1.00  0.00     0.031 A 
BRANCH  51  65
ATOM     65  C   UNL A   1      41.392  28.474  28.651  1.00  0.00    -0.014 A 
ATOM     66  C   UNL A   1      41.569  27.254  29.323  1.00  0.00     0.009 A 
ATOM     67  C   UNL A   1      42.170  28.743  27.515  1.00  0.00     0.009 A 
ATOM     68  C   UNL A   1      42.529  26.339  28.885  1.00  0.00     0.001 A 
ATOM     69  C   UNL A   1      43.110  27.815  27.063  1.00  0.00     0.001 A 
ATOM     70  C   UNL A   1      43.294  26.619  27.753  1.00  0.00     0.000 A 
ENDBRANCH  51  65
BRANCH  52  71
ATOM     71  C   UNL A   1      34.268  34.847  31.489  1.00  0.00    -0.014 A 
ATOM     72  C   UNL A   1      33.411  34.502  32.545  1.00  0.00     0.009 A 
ATOM     73  C   UNL A   1      34.091  36.082  30.847  1.00  0.00     0.009 A 
ATOM     74  C   UNL A   1      32.383  35.366  32.932  1.00  0.00     0.001 A 
ATOM     75  C   UNL A   1      33.081  36.956  31.255  1.00  0.00     0.001 A 
ATOM     76  C   UNL A   1      32.223  36.593  32.291  1.00  0.00     0.000 A 
ENDBRANCH  52  71
BRANCH  64  77
ATOM     77  C   UNL A   1      40.865  33.822  33.463  1.00  0.00    -0.014 A 
ATOM     78  C   UNL A   1      41.610  34.967  33.142  1.00  0.00     0.009 A 
ATOM     79  C   UNL A   1      40.903  33.333  34.779  1.00  0.00     0.009 A 
ATOM     80  C   UNL A   1      42.401  35.588  34.110  1.00  0.00     0.001 A 
ATOM     81  C   UNL A   1      41.672  33.974  35.752  1.00  0.00     0.001 A 
ATOM     82  C   UNL A   1      42.427  35.096  35.414  1.00  0.00     0.000 A 
ENDBRANCH  64  77
ENDBRANCH  38  39
ENDBRANCH  31  33
ENDBRANCH  30  31
ENDBRANCH  29  30
ENDBRANCH  28  29
ENDBRANCH  27  28
ENDBRANCH  26  27
ENDBRANCH   1  26
TORSDOF 21
ENDMDL
MODEL 3
REMARK VINA RESULT:      -8.7      5.149     10.269
REMARK SMILES O=Cc1cc(Cl)c(OCc2ccc(C(=O)OCCOCCOCCOC(=O)c3ccc(-c4c5nc(c(-c6ccccc6)c6ccc([nH]6)c(-c6ccccc6)c6nc(c(-c7ccccc7)c7ccc4[nH]7)C=C6)C=C5)cc3)cc2)c(Cl)c1
REMARK SMILES IDX 20 1 19 2 18 3 17 4 16 5 14 6 15 7 13 8 10 9 11 10 77 11
REMARK SMILES IDX 12 12 76 13 9 14 8 15 7 16 3 17 4 18 80 19 5 20 78 21 6 22
REMARK SMILES IDX 79 23 2 24 1 25 21 26 22 27 23 28 24 29 25 30 26 31 27 32
REMARK SMILES IDX 28 33 29 34 75 35 30 36 74 37 31 38 32 39 33 40 68 41 34 42
REMARK SMILES IDX 73 43 67 44 69 45 35 46 72 47 66 48 65 49 36 51 58 52 43 53
REMARK SMILES IDX 57 54 44 55 47 56 56 57 70 58 45 59 46 60 55 62 71 63 48 64
REMARK SMILES IDX 37 65 38 66 42 67 39 68 41 69 40 70 59 71 60 72 64 73 61 74
REMARK SMILES IDX 63 75 62 76 49 77 50 78 54 79 51 80 53 81 52 82
REMARK H PARENT 69 50 47 61
REMARK Flexibility Score: inf
ROOT
ATOM      1  C   UNL A   1      44.370  21.130  24.785  1.00  0.00     0.188 C 
ENDROOT
BRANCH   1   2
ATOM      2  O   UNL A   1      43.820  20.145  25.635  1.00  0.00    -0.376 OA
BRANCH   2   3
ATOM      3  C   UNL A   1      42.424  20.103  25.881  1.00  0.00     0.202 C 
BRANCH   3   4
ATOM      4  C   UNL A   1      41.775  20.911  27.009  1.00  0.00     0.261 C 
BRANCH   4   5
ATOM      5  O   UNL A   1      41.678  22.314  26.741  1.00  0.00    -0.460 OA
BRANCH   5   6
ATOM      6  C   UNL A   1      42.495  23.086  27.499  1.00  0.00     0.338 C 
ATOM      7  O   UNL A   1      43.699  22.968  27.641  1.00  0.00    -0.246 OA
BRANCH   6   8
ATOM      8  C   UNL A   1      41.757  24.260  27.998  1.00  0.00     0.060 A 
ATOM      9  C   UNL A   1      40.272  26.540  28.621  1.00  0.00    -0.011 A 
ATOM     10  C   UNL A   1      39.621  25.377  28.198  1.00  0.00     0.008 A 
ATOM     11  C   UNL A   1      41.655  26.488  28.890  1.00  0.00     0.008 A 
ATOM     12  C   UNL A   1      40.366  24.258  27.838  1.00  0.00     0.016 A 
ATOM     13  C   UNL A   1      42.399  25.346  28.586  1.00  0.00     0.016 A 
BRANCH   9  14
ATOM     14  C   UNL A   1      39.564  27.881  28.717  1.00  0.00     0.265 C 
BRANCH  14  15
ATOM     15  O   UNL A   1      38.355  27.965  29.481  1.00  0.00    -0.486 OA
BRANCH  15  16
ATOM     16  C   UNL A   1      38.062  28.974  30.358  1.00  0.00     0.157 A 
ATOM     17  C   UNL A   1      37.349  31.312  31.773  1.00  0.00     0.017 A 
ATOM     18  C   UNL A   1      38.363  30.480  32.249  1.00  0.00     0.036 A 
ATOM     19  C   UNL A   1      36.638  30.962  30.632  1.00  0.00     0.036 A 
ATOM     20  C   UNL A   1      38.690  29.294  31.572  1.00  0.00     0.085 A 
ATOM     21  C   UNL A   1      37.001  29.806  29.932  1.00  0.00     0.085 A 
ATOM     22  Cl  UNL A   1      39.822  28.271  32.384  1.00  0.00    -0.080 Cl
ATOM     23  Cl  UNL A   1      36.103  29.452  28.492  1.00  0.00    -0.080 Cl
BRANCH  17  24
ATOM     24  C   UNL A   1      37.009  32.561  32.481  1.00  0.00     0.260 C 
ATOM     25  O   UNL A   1      37.855  33.409  32.731  1.00  0.00    -0.298 OA
ENDBRANCH  17  24
ENDBRANCH  15  16
ENDBRANCH  14  15
ENDBRANCH   9  14
ENDBRANCH   6   8
ENDBRANCH   5   6
ENDBRANCH   4   5
ENDBRANCH   3   4
ENDBRANCH   2   3
ENDBRANCH   1   2
BRANCH   1  26
ATOM     26  C   UNL A   1      45.858  21.532  24.881  1.00  0.00     0.188 C 
BRANCH  26  27
ATOM     27  O   UNL A   1      46.288  22.548  25.760  1.00  0.00    -0.376 OA
BRANCH  27  28
ATOM     28  C   UNL A   1      46.800  23.770  25.260  1.00  0.00     0.202 C 
BRANCH  28  29
ATOM     29  C   UNL A   1      46.062  25.106  25.400  1.00  0.00     0.261 C 
BRANCH  29  30
ATOM     30  O   UNL A   1      46.320  26.071  24.377  1.00  0.00    -0.460 OA
BRANCH  30  31
ATOM     31  C   UNL A   1      46.899  27.217  24.813  1.00  0.00     0.338 C 
ATOM     32  O   UNL A   1      47.707  27.914  24.227  1.00  0.00    -0.246 OA
BRANCH  31  33
ATOM     33  C   UNL A   1      46.285  27.618  26.089  1.00  0.00     0.060 A 
ATOM     34  C   UNL A   1      44.890  27.739  26.146  1.00  0.00     0.016 A 
ATOM     35  C   UNL A   1      47.077  27.942  27.190  1.00  0.00     0.016 A 
ATOM     36  C   UNL A   1      44.282  28.219  27.304  1.00  0.00     0.010 A 
ATOM     37  C   UNL A   1      46.467  28.440  28.344  1.00  0.00     0.010 A 
ATOM     38  C   UNL A   1      45.071  28.609  28.393  1.00  0.00    -0.014 A 
BRANCH  38  39
ATOM     39  C   UNL A   1      44.458  29.358  29.514  1.00  0.00     0.031 A 
ATOM     40  C   UNL A   1      44.157  28.625  30.792  1.00  0.00     0.074 A 
ATOM     41  C   UNL A   1      44.180  30.669  29.406  1.00  0.00     0.049 A 
ATOM     42  N   UNL A   1      43.577  29.059  31.881  1.00  0.00    -0.248 NA
ATOM     43  C   UNL A   1      44.565  27.211  30.846  1.00  0.00     0.031 C 
ATOM     44  C   UNL A   1      44.464  31.504  28.241  1.00  0.00     0.029 A 
ATOM     45  N   UNL A   1      43.581  31.523  30.298  1.00  0.00    -0.354 N 
ATOM     46  C   UNL A   1      43.543  27.973  32.746  1.00  0.00     0.074 A 
ATOM     47  C   UNL A   1      44.138  26.854  32.048  1.00  0.00     0.031 C 
ATOM     48  C   UNL A   1      44.027  32.752  28.484  1.00  0.00     0.029 A 
ATOM     49  C   UNL A   1      43.403  32.792  29.805  1.00  0.00     0.049 A 
ATOM     50  H   UNL A   1      43.306  31.251  31.202  1.00  0.00     0.167 HD
ATOM     51  C   UNL A   1      43.063  27.911  34.010  1.00  0.00     0.031 A 
ATOM     52  C   UNL A   1      42.782  33.855  30.352  1.00  0.00     0.031 A 
ATOM     53  C   UNL A   1      42.451  29.015  34.700  1.00  0.00     0.049 A 
ATOM     54  C   UNL A   1      42.173  33.737  31.724  1.00  0.00     0.074 A 
ATOM     55  C   UNL A   1      41.943  29.053  35.986  1.00  0.00     0.029 A 
ATOM     56  N   UNL A   1      42.253  30.272  34.152  1.00  0.00    -0.354 N 
ATOM     57  N   UNL A   1      42.173  32.714  32.545  1.00  0.00    -0.248 NA
ATOM     58  C   UNL A   1      41.480  34.925  32.246  1.00  0.00     0.031 C 
ATOM     59  C   UNL A   1      41.387  30.319  36.197  1.00  0.00     0.029 A 
ATOM     60  C   UNL A   1      41.604  31.087  35.065  1.00  0.00     0.049 A 
ATOM     61  H   UNL A   1      42.532  30.546  33.249  1.00  0.00     0.167 HD
ATOM     62  C   UNL A   1      41.509  33.144  33.687  1.00  0.00     0.074 A 
ATOM     63  C   UNL A   1      41.133  34.523  33.461  1.00  0.00     0.031 C 
ATOM     64  C   UNL A   1      41.238  32.459  34.826  1.00  0.00     0.031 A 
BRANCH  51  65
ATOM     65  C   UNL A   1      43.147  26.587  34.714  1.00  0.00    -0.014 A 
ATOM     66  C   UNL A   1      44.348  26.140  35.287  1.00  0.00     0.009 A 
ATOM     67  C   UNL A   1      42.002  25.784  34.822  1.00  0.00     0.009 A 
ATOM     68  C   UNL A   1      44.406  24.900  35.927  1.00  0.00     0.001 A 
ATOM     69  C   UNL A   1      42.057  24.557  35.486  1.00  0.00     0.001 A 
ATOM     70  C   UNL A   1      43.260  24.112  36.030  1.00  0.00     0.000 A 
ENDBRANCH  51  65
BRANCH  52  71
ATOM     71  C   UNL A   1      42.679  35.130  29.593  1.00  0.00    -0.014 A 
ATOM     72  C   UNL A   1      43.626  36.149  29.773  1.00  0.00     0.009 A 
ATOM     73  C   UNL A   1      41.613  35.343  28.706  1.00  0.00     0.009 A 
ATOM     74  C   UNL A   1      43.493  37.366  29.100  1.00  0.00     0.001 A 
ATOM     75  C   UNL A   1      41.498  36.550  28.012  1.00  0.00     0.001 A 
ATOM     76  C   UNL A   1      42.432  37.563  28.216  1.00  0.00     0.000 A 
ENDBRANCH  52  71
BRANCH  64  77
ATOM     77  C   UNL A   1      40.535  33.199  35.929  1.00  0.00    -0.014 A 
ATOM     78  C   UNL A   1      41.247  33.941  36.884  1.00  0.00     0.009 A 
ATOM     79  C   UNL A   1      39.131  33.191  35.984  1.00  0.00     0.009 A 
ATOM     80  C   UNL A   1      40.569  34.632  37.890  1.00  0.00     0.001 A 
ATOM     81  C   UNL A   1      38.455  33.907  36.973  1.00  0.00     0.001 A 
ATOM     82  C   UNL A   1      39.176  34.619  37.931  1.00  0.00     0.000 A 
ENDBRANCH  64  77
ENDBRANCH  38  39
ENDBRANCH  31  33
ENDBRANCH  30  31
ENDBRANCH  29  30
ENDBRANCH  28  29
ENDBRANCH  27  28
ENDBRANCH  26  27
ENDBRANCH   1  26
TORSDOF 21
ENDMDL
