MODEL 1
REMARK VINA RESULT:     -10.3      0.000      0.000
REMARK SMILES O=C(OCCOCCOCCOC(=O)[C@@H](CO)NC(=O)[C@H]1CCCc2ccccc21)c1ccc(-c2c3nc(c(-c4ccccc4)c4ccc([nH]4)c(-c4ccccc4)c4nc(c(-c5ccccc5)c5ccc2[nH]5)C=C4)C=C3)cc1
REMARK SMILES IDX 7 1 6 2 5 3 4 4 3 5 2 6 1 7 31 8 32 9 78 10 33 11 77 12
REMARK SMILES IDX 34 13 35 14 36 15 71 16 37 17 76 18 70 19 72 20 38 21 75 22
REMARK SMILES IDX 69 23 68 24 39 26 61 27 46 28 60 29 47 30 50 31 59 32 73 33
REMARK SMILES IDX 48 34 49 35 58 37 74 38 51 39 40 40 41 41 45 42 42 43 44 44
REMARK SMILES IDX 43 45 62 46 63 47 67 48 64 49 66 50 65 51 52 52 53 53 57 54
REMARK SMILES IDX 54 55 56 56 55 57 8 58 9 59 10 60 11 61 12 62 13 63 14 64
REMARK SMILES IDX 15 65 16 66 17 67 18 69 19 70 20 72 21 73 22 74 30 75 23 76
REMARK SMILES IDX 25 77 29 78 24 79 26 80 28 81 27 82
REMARK H PARENT 72 25 50 36 17 68 18 71
REMARK Flexibility Score: inf
ROOT
ATOM      1  C   UNL A   1      32.068  29.467  25.297  1.00  0.00     0.188 C 
ENDROOT
BRANCH   1   2
ATOM      2  O   UNL A   1      30.872  30.248  25.150  1.00  0.00    -0.376 OA
BRANCH   2   3
ATOM      3  C   UNL A   1      30.977  31.563  25.712  1.00  0.00     0.202 C 
BRANCH   3   4
ATOM      4  C   UNL A   1      31.976  31.736  26.870  1.00  0.00     0.261 C 
BRANCH   4   5
ATOM      5  O   UNL A   1      32.207  33.106  27.237  1.00  0.00    -0.460 OA
BRANCH   5   6
ATOM      6  C   UNL A   1      33.118  33.624  28.096  1.00  0.00     0.338 C 
ATOM      7  O   UNL A   1      32.924  34.760  28.526  1.00  0.00    -0.246 OA
BRANCH   6   8
ATOM      8  C   UNL A   1      34.371  32.926  28.531  1.00  0.00     0.060 A 
ATOM      9  C   UNL A   1      34.442  31.625  29.028  1.00  0.00     0.016 A 
ATOM     10  C   UNL A   1      35.583  33.630  28.375  1.00  0.00     0.016 A 
ATOM     11  C   UNL A   1      35.648  31.065  29.424  1.00  0.00     0.010 A 
ATOM     12  C   UNL A   1      36.809  33.066  28.752  1.00  0.00     0.010 A 
ATOM     13  C   UNL A   1      36.833  31.788  29.309  1.00  0.00    -0.014 A 
BRANCH  13  14
ATOM     14  C   UNL A   1      38.021  31.211  29.962  1.00  0.00     0.031 A 
ATOM     15  C   UNL A   1      38.201  31.474  31.420  1.00  0.00     0.074 A 
ATOM     16  C   UNL A   1      38.771  30.308  29.308  1.00  0.00     0.049 A 
ATOM     17  N   UNL A   1      39.099  30.998  32.237  1.00  0.00    -0.248 NA
ATOM     18  C   UNL A   1      37.229  32.385  32.051  1.00  0.00     0.031 C 
ATOM     19  C   UNL A   1      38.572  29.930  27.915  1.00  0.00     0.029 A 
ATOM     20  N   UNL A   1      39.794  29.502  29.724  1.00  0.00    -0.354 N 
ATOM     21  C   UNL A   1      38.824  31.577  33.466  1.00  0.00     0.074 A 
ATOM     22  C   UNL A   1      37.669  32.429  33.297  1.00  0.00     0.031 C 
ATOM     23  C   UNL A   1      39.381  28.908  27.606  1.00  0.00     0.029 A 
ATOM     24  C   UNL A   1      40.228  28.625  28.756  1.00  0.00     0.049 A 
ATOM     25  H   UNL A   1      40.181  29.544  30.629  1.00  0.00     0.167 HD
ATOM     26  C   UNL A   1      39.505  31.424  34.623  1.00  0.00     0.031 A 
ATOM     27  C   UNL A   1      41.224  27.721  28.795  1.00  0.00     0.031 A 
ATOM     28  C   UNL A   1      40.675  30.597  34.735  1.00  0.00     0.049 A 
ATOM     29  C   UNL A   1      42.018  27.638  30.070  1.00  0.00     0.074 A 
ATOM     30  C   UNL A   1      41.514  30.426  35.819  1.00  0.00     0.029 A 
ATOM     31  N   UNL A   1      41.172  29.804  33.707  1.00  0.00    -0.354 N 
ATOM     32  N   UNL A   1      41.805  28.249  31.213  1.00  0.00    -0.248 NA
ATOM     33  C   UNL A   1      43.202  26.775  30.058  1.00  0.00     0.031 C 
ATOM     34  C   UNL A   1      42.552  29.573  35.427  1.00  0.00     0.029 A 
ATOM     35  C   UNL A   1      42.320  29.156  34.123  1.00  0.00     0.049 A 
ATOM     36  H   UNL A   1      40.766  29.717  32.814  1.00  0.00     0.167 HD
ATOM     37  C   UNL A   1      42.830  27.850  32.056  1.00  0.00     0.074 A 
ATOM     38  C   UNL A   1      43.639  26.910  31.303  1.00  0.00     0.031 C 
ATOM     39  C   UNL A   1      43.093  28.232  33.330  1.00  0.00     0.031 A 
BRANCH  26  40
ATOM     40  C   UNL A   1      39.057  32.264  35.783  1.00  0.00    -0.014 A 
ATOM     41  C   UNL A   1      38.147  31.788  36.739  1.00  0.00     0.009 A 
ATOM     42  C   UNL A   1      39.508  33.590  35.878  1.00  0.00     0.009 A 
ATOM     43  C   UNL A   1      37.666  32.636  37.741  1.00  0.00     0.001 A 
ATOM     44  C   UNL A   1      39.049  34.426  36.896  1.00  0.00     0.001 A 
ATOM     45  C   UNL A   1      38.118  33.953  37.819  1.00  0.00     0.000 A 
ENDBRANCH  26  40
BRANCH  27  46
ATOM     46  C   UNL A   1      41.578  26.912  27.594  1.00  0.00    -0.014 A 
ATOM     47  C   UNL A   1      42.426  27.416  26.595  1.00  0.00     0.009 A 
ATOM     48  C   UNL A   1      41.049  25.620  27.429  1.00  0.00     0.009 A 
ATOM     49  C   UNL A   1      42.716  26.656  25.455  1.00  0.00     0.001 A 
ATOM     50  C   UNL A   1      41.374  24.846  26.312  1.00  0.00     0.001 A 
ATOM     51  C   UNL A   1      42.196  25.369  25.320  1.00  0.00     0.000 A 
ENDBRANCH  27  46
BRANCH  39  52
ATOM     52  C   UNL A   1      44.286  27.599  33.984  1.00  0.00    -0.014 A 
ATOM     53  C   UNL A   1      45.569  28.152  33.856  1.00  0.00     0.009 A 
ATOM     54  C   UNL A   1      44.107  26.451  34.771  1.00  0.00     0.009 A 
ATOM     55  C   UNL A   1      46.660  27.542  34.476  1.00  0.00     0.001 A 
ATOM     56  C   UNL A   1      45.193  25.865  35.418  1.00  0.00     0.001 A 
ATOM     57  C   UNL A   1      46.469  26.404  35.261  1.00  0.00     0.000 A 
ENDBRANCH  39  52
ENDBRANCH  13  14
ENDBRANCH   6   8
ENDBRANCH   5   6
ENDBRANCH   4   5
ENDBRANCH   3   4
ENDBRANCH   2   3
ENDBRANCH   1   2
BRANCH   1  58
ATOM     58  C   UNL A   1      32.243  28.428  24.184  1.00  0.00     0.188 C 
BRANCH  58  59
ATOM     59  O   UNL A   1      31.831  27.091  24.456  1.00  0.00    -0.376 OA
BRANCH  59  60
ATOM     60  C   UNL A   1      30.797  26.884  25.412  1.00  0.00     0.202 C 
BRANCH  60  61
ATOM     61  C   UNL A   1      30.500  25.435  25.819  1.00  0.00     0.261 C 
BRANCH  61  62
ATOM     62  O   UNL A   1      31.608  24.812  26.479  1.00  0.00    -0.462 OA
BRANCH  62  63
ATOM     63  C   UNL A   1      31.379  23.568  26.986  1.00  0.00     0.331 C 
ATOM     64  O   UNL A   1      30.309  23.185  27.453  1.00  0.00    -0.250 OA
BRANCH  63  65
ATOM     65  C   UNL A   1      32.582  22.646  26.788  1.00  0.00     0.218 C 
BRANCH  65  66
ATOM     66  C   UNL A   1      33.427  22.418  28.044  1.00  0.00     0.193 C 
BRANCH  66  67
ATOM     67  O   UNL A   1      34.507  21.520  27.796  1.00  0.00    -0.394 OA
ATOM     68  H   UNL A   1      34.195  20.606  27.885  1.00  0.00     0.210 HD
ENDBRANCH  66  67
ENDBRANCH  65  66
BRANCH  65  69
ATOM     69  N   UNL A   1      32.182  21.354  26.244  1.00  0.00    -0.340 N 
ATOM     70  C   UNL A   1      32.474  20.756  25.059  1.00  0.00     0.228 C 
ATOM     71  H   UNL A   1      31.601  20.824  26.836  1.00  0.00     0.164 HD
ATOM     72  O   UNL A   1      32.123  19.576  24.963  1.00  0.00    -0.274 OA
BRANCH  70  73
ATOM     73  C   UNL A   1      33.175  21.532  23.908  1.00  0.00     0.109 C 
ATOM     74  C   UNL A   1      32.328  22.750  23.471  1.00  0.00     0.018 C 
ATOM     75  C   UNL A   1      34.606  21.922  24.306  1.00  0.00    -0.032 A 
ATOM     76  C   UNL A   1      33.146  23.844  22.800  1.00  0.00     0.006 C 
ATOM     77  C   UNL A   1      35.052  23.259  24.289  1.00  0.00    -0.044 A 
ATOM     78  C   UNL A   1      35.500  20.924  24.734  1.00  0.00     0.005 A 
ATOM     79  C   UNL A   1      34.184  24.373  23.772  1.00  0.00     0.036 C 
ATOM     80  C   UNL A   1      36.318  23.579  24.803  1.00  0.00     0.004 A 
ATOM     81  C   UNL A   1      36.762  21.252  25.231  1.00  0.00     0.000 A 
ATOM     82  C   UNL A   1      37.162  22.582  25.284  1.00  0.00     0.000 A 
ENDBRANCH  70  73
ENDBRANCH  65  69
ENDBRANCH  63  65
ENDBRANCH  62  63
ENDBRANCH  61  62
ENDBRANCH  60  61
ENDBRANCH  59  60
ENDBRANCH  58  59
ENDBRANCH   1  58
TORSDOF 21
ENDMDL
MODEL 2
REMARK VINA RESULT:     -10.1      1.932      2.921
REMARK SMILES O=C(OCCOCCOCCOC(=O)[C@@H](CO)NC(=O)[C@H]1CCCc2ccccc21)c1ccc(-c2c3nc(c(-c4ccccc4)c4ccc([nH]4)c(-c4ccccc4)c4nc(c(-c5ccccc5)c5ccc2[nH]5)C=C4)C=C3)cc1
REMARK SMILES IDX 7 1 6 2 5 3 4 4 3 5 2 6 1 7 31 8 32 9 78 10 33 11 77 12
REMARK SMILES IDX 34 13 35 14 36 15 71 16 37 17 76 18 70 19 72 20 38 21 75 22
REMARK SMILES IDX 69 23 68 24 39 26 61 27 46 28 60 29 47 30 50 31 59 32 73 33
REMARK SMILES IDX 48 34 49 35 58 37 74 38 51 39 40 40 41 41 45 42 42 43 44 44
REMARK SMILES IDX 43 45 62 46 63 47 67 48 64 49 66 50 65 51 52 52 53 53 57 54
REMARK SMILES IDX 54 55 56 56 55 57 8 58 9 59 10 60 11 61 12 62 13 63 14 64
REMARK SMILES IDX 15 65 16 66 17 67 18 69 19 70 20 72 21 73 22 74 30 75 23 76
REMARK SMILES IDX 25 77 29 78 24 79 26 80 28 81 27 82
REMARK H PARENT 72 25 50 36 17 68 18 71
REMARK Flexibility Score: inf
ROOT
ATOM      1  C   UNL A   1      32.555  29.866  27.021  1.00  0.00     0.188 C 
ENDROOT
BRANCH   1   2
ATOM      2  O   UNL A   1      31.373  30.449  26.453  1.00  0.00    -0.376 OA
BRANCH   2   3
ATOM      3  C   UNL A   1      31.343  31.880  26.543  1.00  0.00     0.202 C 
BRANCH   3   4
ATOM      4  C   UNL A   1      32.581  32.555  27.162  1.00  0.00     0.261 C 
BRANCH   4   5
ATOM      5  O   UNL A   1      32.310  33.839  27.746  1.00  0.00    -0.460 OA
BRANCH   5   6
ATOM      6  C   UNL A   1      33.048  34.554  28.629  1.00  0.00     0.338 C 
ATOM      7  O   UNL A   1      32.623  35.655  28.977  1.00  0.00    -0.246 OA
BRANCH   6   8
ATOM      8  C   UNL A   1      34.371  34.118  29.182  1.00  0.00     0.060 A 
ATOM      9  C   UNL A   1      35.614  34.370  28.603  1.00  0.00     0.016 A 
ATOM     10  C   UNL A   1      34.356  33.439  30.419  1.00  0.00     0.016 A 
ATOM     11  C   UNL A   1      36.790  33.911  29.178  1.00  0.00     0.010 A 
ATOM     12  C   UNL A   1      35.538  32.989  31.019  1.00  0.00     0.010 A 
ATOM     13  C   UNL A   1      36.757  33.200  30.376  1.00  0.00    -0.014 A 
BRANCH  13  14
ATOM     14  C   UNL A   1      38.015  32.555  30.792  1.00  0.00     0.031 A 
ATOM     15  C   UNL A   1      38.661  33.048  32.044  1.00  0.00     0.074 A 
ATOM     16  C   UNL A   1      38.423  31.430  30.181  1.00  0.00     0.049 A 
ATOM     17  N   UNL A   1      39.705  32.582  32.669  1.00  0.00    -0.248 NA
ATOM     18  C   UNL A   1      38.037  34.216  32.692  1.00  0.00     0.031 C 
ATOM     19  C   UNL A   1      37.766  30.842  29.021  1.00  0.00     0.029 A 
ATOM     20  N   UNL A   1      39.426  30.548  30.474  1.00  0.00    -0.354 N 
ATOM     21  C   UNL A   1      39.886  33.417  33.761  1.00  0.00     0.074 A 
ATOM     22  C   UNL A   1      38.839  34.412  33.725  1.00  0.00     0.031 C 
ATOM     23  C   UNL A   1      38.322  29.654  28.744  1.00  0.00     0.029 A 
ATOM     24  C   UNL A   1      39.441  29.445  29.650  1.00  0.00     0.049 A 
ATOM     25  H   UNL A   1      40.073  30.688  31.202  1.00  0.00     0.167 HD
ATOM     26  C   UNL A   1      40.866  33.364  34.690  1.00  0.00     0.031 A 
ATOM     27  C   UNL A   1      40.293  28.403  29.621  1.00  0.00     0.031 A 
ATOM     28  C   UNL A   1      41.913  32.381  34.662  1.00  0.00     0.049 A 
ATOM     29  C   UNL A   1      41.424  28.420  30.613  1.00  0.00     0.074 A 
ATOM     30  C   UNL A   1      43.018  32.268  35.483  1.00  0.00     0.029 A 
ATOM     31  N   UNL A   1      41.979  31.336  33.747  1.00  0.00    -0.354 N 
ATOM     32  N   UNL A   1      41.641  29.260  31.599  1.00  0.00    -0.248 NA
ATOM     33  C   UNL A   1      42.443  27.375  30.473  1.00  0.00     0.031 C 
ATOM     34  C   UNL A   1      43.783  31.189  35.027  1.00  0.00     0.029 A 
ATOM     35  C   UNL A   1      43.118  30.585  33.968  1.00  0.00     0.049 A 
ATOM     36  H   UNL A   1      41.313  31.158  33.044  1.00  0.00     0.167 HD
ATOM     37  C   UNL A   1      42.822  28.850  32.196  1.00  0.00     0.074 A 
ATOM     38  C   UNL A   1      43.251  27.660  31.485  1.00  0.00     0.031 C 
ATOM     39  C   UNL A   1      43.503  29.409  33.227  1.00  0.00     0.031 A 
BRANCH  26  40
ATOM     40  C   UNL A   1      40.891  34.470  35.704  1.00  0.00    -0.014 A 
ATOM     41  C   UNL A   1      41.586  35.669  35.480  1.00  0.00     0.009 A 
ATOM     42  C   UNL A   1      40.258  34.274  36.941  1.00  0.00     0.009 A 
ATOM     43  C   UNL A   1      41.682  36.629  36.491  1.00  0.00     0.001 A 
ATOM     44  C   UNL A   1      40.332  35.246  37.939  1.00  0.00     0.001 A 
ATOM     45  C   UNL A   1      41.054  36.417  37.719  1.00  0.00     0.000 A 
ENDBRANCH  26  40
BRANCH  27  46
ATOM     46  C   UNL A   1      40.169  27.337  28.586  1.00  0.00    -0.014 A 
ATOM     47  C   UNL A   1      39.476  26.143  28.843  1.00  0.00     0.009 A 
ATOM     48  C   UNL A   1      40.765  27.502  27.323  1.00  0.00     0.009 A 
ATOM     49  C   UNL A   1      39.402  25.138  27.872  1.00  0.00     0.001 A 
ATOM     50  C   UNL A   1      40.654  26.516  26.340  1.00  0.00     0.001 A 
ATOM     51  C   UNL A   1      39.985  25.329  26.619  1.00  0.00     0.000 A 
ENDBRANCH  27  46
BRANCH  39  52
ATOM     52  C   UNL A   1      44.759  28.709  33.654  1.00  0.00    -0.014 A 
ATOM     53  C   UNL A   1      46.010  29.062  33.125  1.00  0.00     0.009 A 
ATOM     54  C   UNL A   1      44.685  27.706  34.633  1.00  0.00     0.009 A 
ATOM     55  C   UNL A   1      47.161  28.394  33.543  1.00  0.00     0.001 A 
ATOM     56  C   UNL A   1      45.842  27.066  35.074  1.00  0.00     0.001 A 
ATOM     57  C   UNL A   1      47.076  27.403  34.521  1.00  0.00     0.000 A 
ENDBRANCH  39  52
ENDBRANCH  13  14
ENDBRANCH   6   8
ENDBRANCH   5   6
ENDBRANCH   4   5
ENDBRANCH   3   4
ENDBRANCH   2   3
ENDBRANCH   1   2
BRANCH   1  58
ATOM     58  C   UNL A   1      33.207  28.825  26.104  1.00  0.00     0.188 C 
BRANCH  58  59
ATOM     59  O   UNL A   1      33.326  29.145  24.720  1.00  0.00    -0.376 OA
BRANCH  59  60
ATOM     60  C   UNL A   1      34.024  28.237  23.875  1.00  0.00     0.202 C 
BRANCH  60  61
ATOM     61  C   UNL A   1      33.691  28.278  22.378  1.00  0.00     0.261 C 
BRANCH  61  62
ATOM     62  O   UNL A   1      32.995  27.107  21.938  1.00  0.00    -0.462 OA
BRANCH  62  63
ATOM     63  C   UNL A   1      31.721  26.961  22.398  1.00  0.00     0.331 C 
ATOM     64  O   UNL A   1      30.809  27.764  22.211  1.00  0.00    -0.250 OA
BRANCH  63  65
ATOM     65  C   UNL A   1      31.514  25.604  23.071  1.00  0.00     0.218 C 
BRANCH  65  66
ATOM     66  C   UNL A   1      30.055  25.252  23.369  1.00  0.00     0.193 C 
BRANCH  66  67
ATOM     67  O   UNL A   1      29.853  24.975  24.753  1.00  0.00    -0.394 OA
ATOM     68  H   UNL A   1      30.681  24.655  25.143  1.00  0.00     0.210 HD
ENDBRANCH  66  67
ENDBRANCH  65  66
BRANCH  65  69
ATOM     69  N   UNL A   1      32.113  24.525  22.294  1.00  0.00    -0.340 N 
ATOM     70  C   UNL A   1      32.700  23.363  22.685  1.00  0.00     0.228 C 
ATOM     71  H   UNL A   1      32.089  24.661  21.319  1.00  0.00     0.164 HD
ATOM     72  O   UNL A   1      32.957  22.570  21.776  1.00  0.00    -0.274 OA
BRANCH  70  73
ATOM     73  C   UNL A   1      33.041  23.087  24.177  1.00  0.00     0.109 C 
ATOM     74  C   UNL A   1      32.005  22.129  24.810  1.00  0.00     0.018 C 
ATOM     75  C   UNL A   1      34.482  22.574  24.322  1.00  0.00    -0.032 A 
ATOM     76  C   UNL A   1      32.540  21.376  26.021  1.00  0.00     0.006 C 
ATOM     77  C   UNL A   1      34.783  21.346  24.944  1.00  0.00    -0.044 A 
ATOM     78  C   UNL A   1      35.541  23.333  23.790  1.00  0.00     0.005 A 
ATOM     79  C   UNL A   1      33.718  20.515  25.605  1.00  0.00     0.036 C 
ATOM     80  C   UNL A   1      36.096  20.853  24.917  1.00  0.00     0.004 A 
ATOM     81  C   UNL A   1      36.846  22.839  23.780  1.00  0.00     0.000 A 
ATOM     82  C   UNL A   1      37.120  21.589  24.326  1.00  0.00     0.000 A 
ENDBRANCH  70  73
ENDBRANCH  65  69
ENDBRANCH  63  65
ENDBRANCH  62  63
ENDBRANCH  61  62
ENDBRANCH  60  61
ENDBRANCH  59  60
ENDBRANCH  58  59
ENDBRANCH   1  58
TORSDOF 21
ENDMDL
MODEL 3
REMARK VINA RESULT:     -10.0      3.405      8.667
REMARK SMILES O=C(OCCOCCOCCOC(=O)[C@@H](CO)NC(=O)[C@H]1CCCc2ccccc21)c1ccc(-c2c3nc(c(-c4ccccc4)c4ccc([nH]4)c(-c4ccccc4)c4nc(c(-c5ccccc5)c5ccc2[nH]5)C=C4)C=C3)cc1
REMARK SMILES IDX 7 1 6 2 5 3 4 4 3 5 2 6 1 7 31 8 32 9 78 10 33 11 77 12
REMARK SMILES IDX 34 13 35 14 36 15 71 16 37 17 76 18 70 19 72 20 38 21 75 22
REMARK SMILES IDX 69 23 68 24 39 26 61 27 46 28 60 29 47 30 50 31 59 32 73 33
REMARK SMILES IDX 48 34 49 35 58 37 74 38 51 39 40 40 41 41 45 42 42 43 44 44
REMARK SMILES IDX 43 45 62 46 63 47 67 48 64 49 66 50 65 51 52 52 53 53 57 54
REMARK SMILES IDX 54 55 56 56 55 57 8 58 9 59 10 60 11 61 12 62 13 63 14 64
REMARK SMILES IDX 15 65 16 66 17 67 18 69 19 70 20 72 21 73 22 74 30 75 23 76
REMARK SMILES IDX 25 77 29 78 24 79 26 80 28 81 27 82
REMARK H PARENT 72 25 50 36 17 68 18 71
REMARK Flexibility Score: inf
ROOT
ATOM      1  C   UNL A   1      44.323  19.100  25.312  1.00  0.00     0.188 C 
ENDROOT
BRANCH   1   2
ATOM      2  O   UNL A   1      44.651  20.495  25.395  1.00  0.00    -0.376 OA
BRANCH   2   3
ATOM      3  C   UNL A   1      44.901  21.099  24.119  1.00  0.00     0.202 C 
BRANCH   3   4
ATOM      4  C   UNL A   1      44.604  22.605  24.002  1.00  0.00     0.261 C 
BRANCH   4   5
ATOM      5  O   UNL A   1      45.159  23.390  25.069  1.00  0.00    -0.460 OA
BRANCH   5   6
ATOM      6  C   UNL A   1      45.156  24.735  25.238  1.00  0.00     0.338 C 
ATOM      7  O   UNL A   1      45.917  25.405  24.541  1.00  0.00    -0.246 OA
BRANCH   6   8
ATOM      8  C   UNL A   1      44.319  25.465  26.245  1.00  0.00     0.060 A 
ATOM      9  C   UNL A   1      44.260  26.849  26.398  1.00  0.00     0.016 A 
ATOM     10  C   UNL A   1      43.485  24.683  27.072  1.00  0.00     0.016 A 
ATOM     11  C   UNL A   1      43.468  27.439  27.372  1.00  0.00     0.010 A 
ATOM     12  C   UNL A   1      42.666  25.269  28.045  1.00  0.00     0.010 A 
ATOM     13  C   UNL A   1      42.685  26.653  28.213  1.00  0.00    -0.014 A 
BRANCH  13  14
ATOM     14  C   UNL A   1      42.061  27.337  29.359  1.00  0.00     0.031 A 
ATOM     15  C   UNL A   1      42.866  27.460  30.610  1.00  0.00     0.074 A 
ATOM     16  C   UNL A   1      40.909  28.009  29.191  1.00  0.00     0.049 A 
ATOM     17  N   UNL A   1      42.584  28.101  31.710  1.00  0.00    -0.248 NA
ATOM     18  C   UNL A   1      44.175  26.783  30.621  1.00  0.00     0.031 C 
ATOM     19  C   UNL A   1      40.136  28.015  27.956  1.00  0.00     0.029 A 
ATOM     20  N   UNL A   1      40.222  28.859  30.013  1.00  0.00    -0.354 N 
ATOM     21  C   UNL A   1      43.660  27.876  32.555  1.00  0.00     0.074 A 
ATOM     22  C   UNL A   1      44.608  27.052  31.841  1.00  0.00     0.031 C 
ATOM     23  C   UNL A   1      39.126  28.890  28.061  1.00  0.00     0.029 A 
ATOM     24  C   UNL A   1      39.126  29.434  29.411  1.00  0.00     0.049 A 
ATOM     25  H   UNL A   1      40.487  29.042  30.944  1.00  0.00     0.167 HD
ATOM     26  C   UNL A   1      43.817  28.302  33.828  1.00  0.00     0.031 A 
ATOM     27  C   UNL A   1      38.210  30.280  29.918  1.00  0.00     0.031 A 
ATOM     28  C   UNL A   1      42.827  29.086  34.513  1.00  0.00     0.049 A 
ATOM     29  C   UNL A   1      38.365  30.666  31.363  1.00  0.00     0.074 A 
ATOM     30  C   UNL A   1      42.813  29.506  35.829  1.00  0.00     0.029 A 
ATOM     31  N   UNL A   1      41.662  29.563  33.922  1.00  0.00    -0.354 N 
ATOM     32  N   UNL A   1      39.347  30.385  32.189  1.00  0.00    -0.248 NA
ATOM     33  C   UNL A   1      37.281  31.452  31.959  1.00  0.00     0.031 C 
ATOM     34  C   UNL A   1      41.611  30.187  36.049  1.00  0.00     0.029 A 
ATOM     35  C   UNL A   1      40.909  30.256  34.853  1.00  0.00     0.049 A 
ATOM     36  H   UNL A   1      41.409  29.427  32.981  1.00  0.00     0.167 HD
ATOM     37  C   UNL A   1      38.999  30.954  33.404  1.00  0.00     0.074 A 
ATOM     38  C   UNL A   1      37.734  31.633  33.192  1.00  0.00     0.031 C 
ATOM     39  C   UNL A   1      39.651  30.911  34.591  1.00  0.00     0.031 A 
BRANCH  26  40
ATOM     40  C   UNL A   1      45.033  27.813  34.556  1.00  0.00    -0.014 A 
ATOM     41  C   UNL A   1      45.047  26.588  35.242  1.00  0.00     0.009 A 
ATOM     42  C   UNL A   1      46.171  28.633  34.611  1.00  0.00     0.009 A 
ATOM     43  C   UNL A   1      46.160  26.218  36.003  1.00  0.00     0.001 A 
ATOM     44  C   UNL A   1      47.291  28.248  35.348  1.00  0.00     0.001 A 
ATOM     45  C   UNL A   1      47.280  27.047  36.054  1.00  0.00     0.000 A 
ENDBRANCH  26  40
BRANCH  27  46
ATOM     46  C   UNL A   1      37.046  30.732  29.103  1.00  0.00    -0.014 A 
ATOM     47  C   UNL A   1      36.940  32.055  28.644  1.00  0.00     0.009 A 
ATOM     48  C   UNL A   1      36.011  29.834  28.788  1.00  0.00     0.009 A 
ATOM     49  C   UNL A   1      35.822  32.469  27.913  1.00  0.00     0.001 A 
ATOM     50  C   UNL A   1      34.915  30.238  28.021  1.00  0.00     0.001 A 
ATOM     51  C   UNL A   1      34.814  31.558  27.595  1.00  0.00     0.000 A 
ENDBRANCH  27  46
BRANCH  39  52
ATOM     52  C   UNL A   1      39.013  31.650  35.730  1.00  0.00    -0.014 A 
ATOM     53  C   UNL A   1      38.202  30.990  36.667  1.00  0.00     0.009 A 
ATOM     54  C   UNL A   1      39.264  33.021  35.884  1.00  0.00     0.009 A 
ATOM     55  C   UNL A   1      37.623  31.703  37.717  1.00  0.00     0.001 A 
ATOM     56  C   UNL A   1      38.713  33.723  36.955  1.00  0.00     0.001 A 
ATOM     57  C   UNL A   1      37.884  33.066  37.863  1.00  0.00     0.000 A 
ENDBRANCH  39  52
ENDBRANCH  13  14
ENDBRANCH   6   8
ENDBRANCH   5   6
ENDBRANCH   4   5
ENDBRANCH   3   4
ENDBRANCH   2   3
ENDBRANCH   1   2
BRANCH   1  58
ATOM     58  C   UNL A   1      43.249  18.679  26.320  1.00  0.00     0.188 C 
BRANCH  58  59
ATOM     59  O   UNL A   1      41.985  18.265  25.807  1.00  0.00    -0.376 OA
BRANCH  59  60
ATOM     60  C   UNL A   1      40.891  19.173  25.892  1.00  0.00     0.202 C 
BRANCH  60  61
ATOM     61  C   UNL A   1      41.225  20.649  26.139  1.00  0.00     0.261 C 
BRANCH  61  62
ATOM     62  O   UNL A   1      40.164  21.525  25.746  1.00  0.00    -0.462 OA
BRANCH  62  63
ATOM     63  C   UNL A   1      39.720  22.393  26.699  1.00  0.00     0.331 C 
ATOM     64  O   UNL A   1      40.342  22.701  27.714  1.00  0.00    -0.250 OA
BRANCH  63  65
ATOM     65  C   UNL A   1      38.400  23.050  26.296  1.00  0.00     0.218 C 
BRANCH  65  66
ATOM     66  C   UNL A   1      38.372  24.573  26.444  1.00  0.00     0.193 C 
BRANCH  66  67
ATOM     67  O   UNL A   1      39.663  25.145  26.247  1.00  0.00    -0.394 OA
ATOM     68  H   UNL A   1      39.574  26.097  26.087  1.00  0.00     0.210 HD
ENDBRANCH  66  67
ENDBRANCH  65  66
BRANCH  65  69
ATOM     69  N   UNL A   1      38.022  22.698  24.933  1.00  0.00    -0.340 N 
ATOM     70  C   UNL A   1      36.816  22.720  24.307  1.00  0.00     0.228 C 
ATOM     71  H   UNL A   1      38.769  22.393  24.368  1.00  0.00     0.164 HD
ATOM     72  O   UNL A   1      36.849  22.528  23.089  1.00  0.00    -0.274 OA
BRANCH  70  73
ATOM     73  C   UNL A   1      35.495  22.943  25.097  1.00  0.00     0.109 C 
ATOM     74  C   UNL A   1      34.919  24.351  24.820  1.00  0.00     0.018 C 
ATOM     75  C   UNL A   1      34.484  21.825  24.798  1.00  0.00    -0.032 A 
ATOM     76  C   UNL A   1      33.420  24.450  25.065  1.00  0.00     0.006 C 
ATOM     77  C   UNL A   1      33.194  22.094  24.299  1.00  0.00    -0.044 A 
ATOM     78  C   UNL A   1      34.861  20.484  24.994  1.00  0.00     0.005 A 
ATOM     79  C   UNL A   1      32.689  23.500  24.135  1.00  0.00     0.036 C 
ATOM     80  C   UNL A   1      32.365  21.034  23.901  1.00  0.00     0.004 A 
ATOM     81  C   UNL A   1      34.023  19.437  24.607  1.00  0.00     0.000 A 
ATOM     82  C   UNL A   1      32.783  19.713  24.041  1.00  0.00     0.000 A 
ENDBRANCH  70  73
ENDBRANCH  65  69
ENDBRANCH  63  65
ENDBRANCH  62  63
ENDBRANCH  61  62
ENDBRANCH  60  61
ENDBRANCH  59  60
ENDBRANCH  58  59
ENDBRANCH   1  58
TORSDOF 21
ENDMDL
