MODEL 1
REMARK VINA RESULT:      -9.2      0.000      0.000
REMARK SMILES CC(C)C[C@H](NC(=O)[C@@H](NC(=O)[C@H](C)NC(=O)CNC(=O)OCc1ccccc1)C(C)C)C(=O)OCCOCCOCCOC(=O)c1ccc(-c2c3nc(c(-c4ccccc4)c4ccc([nH]4)c(-c4ccccc4)c4nc(c(-c5ccccc5)c5ccc2[nH]5)C=C4)C=C3)cc1
REMARK SMILES IDX 36 1 35 2 33 3 34 4 5 5 4 6 2 7 1 8 3 9 6 10 7 11 8 13 9 14
REMARK SMILES IDX 10 15 11 16 12 18 13 19 14 20 15 21 16 22 17 24 18 25 19 26
REMARK SMILES IDX 20 27 21 29 22 30 23 31 24 32 25 33 29 34 26 35 28 36 27 37
REMARK SMILES IDX 30 38 31 39 32 40 37 41 38 42 39 43 40 44 41 45 42 46 43 47
REMARK SMILES IDX 44 48 45 49 46 50 47 51 48 52 94 53 49 54 93 55 50 56 51 57
REMARK SMILES IDX 52 58 87 59 53 60 92 61 86 62 88 63 54 64 91 65 85 66 84 67
REMARK SMILES IDX 55 69 77 70 62 71 76 72 63 73 66 74 75 75 89 76 64 77 65 78
REMARK SMILES IDX 74 80 90 81 67 82 56 83 57 84 61 85 58 86 60 87 59 88 78 89
REMARK SMILES IDX 79 90 83 91 80 92 82 93 81 94 68 95 69 96 73 97 70 98 72 99
REMARK SMILES IDX 71 100
REMARK H PARENT 6 12 10 17 15 23 19 28 88 68 66 79
REMARK Flexibility Score: inf
ROOT
ATOM      1  C   UNL A   1      37.424  21.766  24.998  1.00  0.00     0.261 C 
ENDROOT
BRANCH   1   2
ATOM      2  O   UNL A   1      36.286  20.907  25.324  1.00  0.00    -0.462 OA
BRANCH   2   3
ATOM      3  C   UNL A   1      35.213  21.369  26.065  1.00  0.00     0.328 C 
ATOM      4  O   UNL A   1      35.286  22.295  26.862  1.00  0.00    -0.250 OA
BRANCH   3   5
ATOM      5  C   UNL A   1      33.844  20.673  25.628  1.00  0.00     0.192 C 
BRANCH   5   6
ATOM      6  C   UNL A   1      33.730  19.878  24.299  1.00  0.00     0.040 C 
BRANCH   6   7
ATOM      7  C   UNL A   1      33.470  18.401  24.542  1.00  0.00    -0.015 C 
ATOM      8  C   UNL A   1      34.791  17.686  24.403  1.00  0.00     0.007 C 
ATOM      9  C   UNL A   1      32.771  17.999  25.837  1.00  0.00     0.007 C 
ENDBRANCH   6   7
ENDBRANCH   5   6
BRANCH   5  10
ATOM     10  N   UNL A   1      32.542  21.330  25.902  1.00  0.00    -0.341 N 
ATOM     11  C   UNL A   1      31.699  22.202  25.298  1.00  0.00     0.243 C 
ATOM     12  H   UNL A   1      32.189  21.052  26.778  1.00  0.00     0.164 HD
ATOM     13  O   UNL A   1      30.536  22.143  25.726  1.00  0.00    -0.273 OA
BRANCH  11  14
ATOM     14  C   UNL A   1      32.067  23.271  24.199  1.00  0.00     0.174 C 
BRANCH  14  15
ATOM     15  N   UNL A   1      32.761  24.457  24.717  1.00  0.00    -0.342 N 
ATOM     16  C   UNL A   1      32.621  25.748  25.066  1.00  0.00     0.242 C 
ATOM     17  H   UNL A   1      33.702  24.208  24.869  1.00  0.00     0.164 HD
ATOM     18  O   UNL A   1      33.691  26.352  25.258  1.00  0.00    -0.273 OA
BRANCH  16  19
ATOM     19  C   UNL A   1      31.389  26.639  25.175  1.00  0.00     0.168 C 
ATOM     20  C   UNL A   1      31.238  27.726  24.136  1.00  0.00     0.041 C 
BRANCH  19  21
ATOM     21  N   UNL A   1      30.947  26.982  26.517  1.00  0.00    -0.343 N 
ATOM     22  C   UNL A   1      31.388  27.997  27.330  1.00  0.00     0.240 C 
ATOM     23  H   UNL A   1      30.238  26.411  26.893  1.00  0.00     0.164 HD
ATOM     24  O   UNL A   1      30.923  28.063  28.471  1.00  0.00    -0.273 OA
BRANCH  22  25
ATOM     25  C   UNL A   1      32.449  29.019  26.853  1.00  0.00     0.219 C 
BRANCH  25  26
ATOM     26  N   UNL A   1      33.692  28.661  27.480  1.00  0.00    -0.312 N 
ATOM     27  C   UNL A   1      34.730  29.529  27.564  1.00  0.00     0.407 C 
ATOM     28  H   UNL A   1      33.793  27.759  27.860  1.00  0.00     0.167 HD
ATOM     29  O   UNL A   1      35.891  29.137  27.415  1.00  0.00    -0.225 OA
BRANCH  27  30
ATOM     30  O   UNL A   1      34.348  30.790  27.873  1.00  0.00    -0.445 OA
BRANCH  30  31
ATOM     31  C   UNL A   1      35.366  31.792  27.718  1.00  0.00     0.270 C 
BRANCH  31  32
ATOM     32  C   UNL A   1      35.826  32.373  29.043  1.00  0.00    -0.011 A 
ATOM     33  C   UNL A   1      36.796  33.381  29.059  1.00  0.00     0.007 A 
ATOM     34  C   UNL A   1      35.386  31.845  30.270  1.00  0.00     0.007 A 
ATOM     35  C   UNL A   1      37.392  33.760  30.263  1.00  0.00     0.000 A 
ATOM     36  C   UNL A   1      36.021  32.180  31.460  1.00  0.00     0.000 A 
ATOM     37  C   UNL A   1      37.034  33.130  31.455  1.00  0.00     0.000 A 
ENDBRANCH  31  32
ENDBRANCH  30  31
ENDBRANCH  27  30
ENDBRANCH  25  26
ENDBRANCH  22  25
ENDBRANCH  19  21
ENDBRANCH  16  19
ENDBRANCH  14  15
BRANCH  14  38
ATOM     38  C   UNL A   1      32.641  22.721  22.883  1.00  0.00     0.015 C 
ATOM     39  C   UNL A   1      31.777  21.711  22.125  1.00  0.00     0.010 C 
ATOM     40  C   UNL A   1      32.923  23.903  21.948  1.00  0.00     0.010 C 
ENDBRANCH  14  38
ENDBRANCH  11  14
ENDBRANCH   5  10
ENDBRANCH   3   5
ENDBRANCH   2   3
ENDBRANCH   1   2
BRANCH   1  41
ATOM     41  C   UNL A   1      38.744  21.520  25.755  1.00  0.00     0.202 C 
BRANCH  41  42
ATOM     42  O   UNL A   1      39.313  22.502  26.600  1.00  0.00    -0.376 OA
BRANCH  42  43
ATOM     43  C   UNL A   1      40.629  22.259  27.027  1.00  0.00     0.188 C 
BRANCH  43  44
ATOM     44  C   UNL A   1      41.452  21.304  26.143  1.00  0.00     0.188 C 
BRANCH  44  45
ATOM     45  O   UNL A   1      42.230  20.282  26.729  1.00  0.00    -0.376 OA
BRANCH  45  46
ATOM     46  C   UNL A   1      42.284  19.038  26.041  1.00  0.00     0.202 C 
BRANCH  46  47
ATOM     47  C   UNL A   1      43.567  18.546  25.320  1.00  0.00     0.261 C 
BRANCH  47  48
ATOM     48  O   UNL A   1      44.022  19.332  24.198  1.00  0.00    -0.460 OA
BRANCH  48  49
ATOM     49  C   UNL A   1      45.259  19.904  24.308  1.00  0.00     0.338 C 
ATOM     50  O   UNL A   1      46.288  19.527  23.776  1.00  0.00    -0.246 OA
BRANCH  49  51
ATOM     51  C   UNL A   1      45.091  21.278  24.869  1.00  0.00     0.060 A 
ATOM     52  C   UNL A   1      44.510  22.276  24.054  1.00  0.00     0.016 A 
ATOM     53  C   UNL A   1      45.329  21.540  26.219  1.00  0.00     0.016 A 
ATOM     54  C   UNL A   1      44.178  23.527  24.580  1.00  0.00     0.010 A 
ATOM     55  C   UNL A   1      45.039  22.807  26.736  1.00  0.00     0.010 A 
ATOM     56  C   UNL A   1      44.504  23.818  25.909  1.00  0.00    -0.014 A 
BRANCH  56  57
ATOM     57  C   UNL A   1      44.676  25.235  26.321  1.00  0.00     0.031 A 
ATOM     58  C   UNL A   1      46.051  25.816  26.112  1.00  0.00     0.074 A 
ATOM     59  C   UNL A   1      43.698  25.986  26.857  1.00  0.00     0.049 A 
ATOM     60  N   UNL A   1      46.541  26.965  26.490  1.00  0.00    -0.248 NA
ATOM     61  C   UNL A   1      47.009  24.963  25.383  1.00  0.00     0.031 C 
ATOM     62  C   UNL A   1      42.307  25.581  27.046  1.00  0.00     0.029 A 
ATOM     63  N   UNL A   1      43.748  27.265  27.359  1.00  0.00    -0.354 N 
ATOM     64  C   UNL A   1      47.866  26.958  26.069  1.00  0.00     0.074 A 
ATOM     65  C   UNL A   1      48.113  25.686  25.434  1.00  0.00     0.031 C 
ATOM     66  C   UNL A   1      41.639  26.589  27.642  1.00  0.00     0.029 A 
ATOM     67  C   UNL A   1      42.564  27.689  27.914  1.00  0.00     0.049 A 
ATOM     68  H   UNL A   1      44.557  27.826  27.324  1.00  0.00     0.167 HD
ATOM     69  C   UNL A   1      48.802  27.924  26.196  1.00  0.00     0.031 A 
ATOM     70  C   UNL A   1      42.278  28.821  28.590  1.00  0.00     0.031 A 
ATOM     71  C   UNL A   1      48.568  29.182  26.845  1.00  0.00     0.049 A 
ATOM     72  C   UNL A   1      43.365  29.848  28.809  1.00  0.00     0.074 A 
ATOM     73  C   UNL A   1      49.448  30.232  27.027  1.00  0.00     0.029 A 
ATOM     74  N   UNL A   1      47.366  29.551  27.425  1.00  0.00    -0.354 N 
ATOM     75  N   UNL A   1      44.612  29.838  28.400  1.00  0.00    -0.248 NA
ATOM     76  C   UNL A   1      43.001  31.045  29.583  1.00  0.00     0.031 C 
ATOM     77  C   UNL A   1      48.796  31.214  27.777  1.00  0.00     0.029 A 
ATOM     78  C   UNL A   1      47.489  30.806  27.994  1.00  0.00     0.049 A 
ATOM     79  H   UNL A   1      46.547  29.004  27.432  1.00  0.00     0.167 HD
ATOM     80  C   UNL A   1      45.167  31.038  28.834  1.00  0.00     0.074 A 
ATOM     81  C   UNL A   1      44.118  31.757  29.527  1.00  0.00     0.031 C 
ATOM     82  C   UNL A   1      46.430  31.507  28.674  1.00  0.00     0.031 A 
BRANCH  69  83
ATOM     83  C   UNL A   1      50.175  27.622  25.666  1.00  0.00    -0.014 A 
ATOM     84  C   UNL A   1      51.192  27.123  26.497  1.00  0.00     0.009 A 
ATOM     85  C   UNL A   1      50.456  27.842  24.308  1.00  0.00     0.009 A 
ATOM     86  C   UNL A   1      52.470  26.886  25.986  1.00  0.00     0.001 A 
ATOM     87  C   UNL A   1      51.723  27.571  23.793  1.00  0.00     0.001 A 
ATOM     88  C   UNL A   1      52.731  27.103  24.634  1.00  0.00     0.000 A 
ENDBRANCH  69  83
BRANCH  70  89
ATOM     89  C   UNL A   1      40.914  29.048  29.145  1.00  0.00    -0.014 A 
ATOM     90  C   UNL A   1      39.955  29.777  28.423  1.00  0.00     0.009 A 
ATOM     91  C   UNL A   1      40.574  28.574  30.422  1.00  0.00     0.009 A 
ATOM     92  C   UNL A   1      38.701  30.049  28.977  1.00  0.00     0.001 A 
ATOM     93  C   UNL A   1      39.308  28.818  30.961  1.00  0.00     0.001 A 
ATOM     94  C   UNL A   1      38.375  29.564  30.242  1.00  0.00     0.000 A 
ENDBRANCH  70  89
BRANCH  82  95
ATOM     95  C   UNL A   1      46.738  32.881  29.204  1.00  0.00    -0.014 A 
ATOM     96  C   UNL A   1      47.151  33.083  30.530  1.00  0.00     0.009 A 
ATOM     97  C   UNL A   1      46.672  33.985  28.337  1.00  0.00     0.009 A 
ATOM     98  C   UNL A   1      47.454  34.368  30.985  1.00  0.00     0.001 A 
ATOM     99  C   UNL A   1      47.010  35.261  28.786  1.00  0.00     0.001 A 
ATOM    100  C   UNL A   1      47.391  35.454  30.112  1.00  0.00     0.000 A 
ENDBRANCH  82  95
ENDBRANCH  56  57
ENDBRANCH  49  51
ENDBRANCH  48  49
ENDBRANCH  47  48
ENDBRANCH  46  47
ENDBRANCH  45  46
ENDBRANCH  44  45
ENDBRANCH  43  44
ENDBRANCH  42  43
ENDBRANCH  41  42
ENDBRANCH   1  41
TORSDOF 30
ENDMDL
MODEL 2
REMARK VINA RESULT:      -8.5      3.473      7.367
REMARK SMILES CC(C)C[C@H](NC(=O)[C@@H](NC(=O)[C@H](C)NC(=O)CNC(=O)OCc1ccccc1)C(C)C)C(=O)OCCOCCOCCOC(=O)c1ccc(-c2c3nc(c(-c4ccccc4)c4ccc([nH]4)c(-c4ccccc4)c4nc(c(-c5ccccc5)c5ccc2[nH]5)C=C4)C=C3)cc1
REMARK SMILES IDX 36 1 35 2 33 3 34 4 5 5 4 6 2 7 1 8 3 9 6 10 7 11 8 13 9 14
REMARK SMILES IDX 10 15 11 16 12 18 13 19 14 20 15 21 16 22 17 24 18 25 19 26
REMARK SMILES IDX 20 27 21 29 22 30 23 31 24 32 25 33 29 34 26 35 28 36 27 37
REMARK SMILES IDX 30 38 31 39 32 40 37 41 38 42 39 43 40 44 41 45 42 46 43 47
REMARK SMILES IDX 44 48 45 49 46 50 47 51 48 52 94 53 49 54 93 55 50 56 51 57
REMARK SMILES IDX 52 58 87 59 53 60 92 61 86 62 88 63 54 64 91 65 85 66 84 67
REMARK SMILES IDX 55 69 77 70 62 71 76 72 63 73 66 74 75 75 89 76 64 77 65 78
REMARK SMILES IDX 74 80 90 81 67 82 56 83 57 84 61 85 58 86 60 87 59 88 78 89
REMARK SMILES IDX 79 90 83 91 80 92 82 93 81 94 68 95 69 96 73 97 70 98 72 99
REMARK SMILES IDX 71 100
REMARK H PARENT 6 12 10 17 15 23 19 28 88 68 66 79
REMARK Flexibility Score: inf
ROOT
ATOM      1  C   UNL A   1      36.712  20.645  25.027  1.00  0.00     0.261 C 
ENDROOT
BRANCH   1   2
ATOM      2  O   UNL A   1      35.420  20.986  25.622  1.00  0.00    -0.462 OA
BRANCH   2   3
ATOM      3  C   UNL A   1      34.430  21.625  24.899  1.00  0.00     0.328 C 
ATOM      4  O   UNL A   1      34.624  22.619  24.211  1.00  0.00    -0.250 OA
BRANCH   3   5
ATOM      5  C   UNL A   1      33.054  20.815  24.928  1.00  0.00     0.192 C 
BRANCH   5   6
ATOM      6  C   UNL A   1      32.487  20.139  23.649  1.00  0.00     0.040 C 
BRANCH   6   7
ATOM      7  C   UNL A   1      32.544  18.624  23.735  1.00  0.00    -0.015 C 
ATOM      8  C   UNL A   1      32.481  18.095  22.324  1.00  0.00     0.007 C 
ATOM      9  C   UNL A   1      33.703  17.992  24.499  1.00  0.00     0.007 C 
ENDBRANCH   6   7
ENDBRANCH   5   6
BRANCH   5  10
ATOM     10  N   UNL A   1      31.920  21.283  25.761  1.00  0.00    -0.341 N 
ATOM     11  C   UNL A   1      31.013  22.291  25.767  1.00  0.00     0.243 C 
ATOM     12  H   UNL A   1      31.787  20.690  26.535  1.00  0.00     0.164 HD
ATOM     13  O   UNL A   1      30.000  22.042  26.439  1.00  0.00    -0.273 OA
BRANCH  11  14
ATOM     14  C   UNL A   1      31.158  23.701  25.078  1.00  0.00     0.174 C 
BRANCH  14  15
ATOM     15  N   UNL A   1      32.381  24.429  25.440  1.00  0.00    -0.342 N 
ATOM     16  C   UNL A   1      33.058  25.582  25.297  1.00  0.00     0.242 C 
ATOM     17  H   UNL A   1      32.918  23.839  26.018  1.00  0.00     0.164 HD
ATOM     18  O   UNL A   1      34.233  25.547  25.701  1.00  0.00    -0.273 OA
BRANCH  16  19
ATOM     19  C   UNL A   1      32.679  26.902  24.636  1.00  0.00     0.168 C 
ATOM     20  C   UNL A   1      33.647  27.460  23.618  1.00  0.00     0.041 C 
BRANCH  19  21
ATOM     21  N   UNL A   1      32.008  27.884  25.474  1.00  0.00    -0.343 N 
ATOM     22  C   UNL A   1      32.544  28.675  26.460  1.00  0.00     0.240 C 
ATOM     23  H   UNL A   1      31.043  27.996  25.313  1.00  0.00     0.164 HD
ATOM     24  O   UNL A   1      31.773  29.392  27.103  1.00  0.00    -0.273 OA
BRANCH  22  25
ATOM     25  C   UNL A   1      34.058  28.661  26.782  1.00  0.00     0.219 C 
BRANCH  25  26
ATOM     26  N   UNL A   1      34.536  30.009  26.631  1.00  0.00    -0.312 N 
ATOM     27  C   UNL A   1      34.896  30.767  27.694  1.00  0.00     0.407 C 
ATOM     28  H   UNL A   1      34.603  30.392  25.727  1.00  0.00     0.167 HD
ATOM     29  O   UNL A   1      34.629  31.972  27.727  1.00  0.00    -0.225 OA
BRANCH  27  30
ATOM     30  O   UNL A   1      35.597  30.080  28.627  1.00  0.00    -0.445 OA
BRANCH  30  31
ATOM     31  C   UNL A   1      36.999  29.932  28.353  1.00  0.00     0.270 C 
BRANCH  31  32
ATOM     32  C   UNL A   1      37.712  29.073  29.382  1.00  0.00    -0.011 A 
ATOM     33  C   UNL A   1      37.314  29.123  30.722  1.00  0.00     0.007 A 
ATOM     34  C   UNL A   1      38.844  28.310  29.045  1.00  0.00     0.007 A 
ATOM     35  C   UNL A   1      38.099  28.523  31.708  1.00  0.00     0.000 A 
ATOM     36  C   UNL A   1      39.656  27.763  30.032  1.00  0.00     0.000 A 
ATOM     37  C   UNL A   1      39.290  27.881  31.366  1.00  0.00     0.000 A 
ENDBRANCH  31  32
ENDBRANCH  30  31
ENDBRANCH  27  30
ENDBRANCH  25  26
ENDBRANCH  22  25
ENDBRANCH  19  21
ENDBRANCH  16  19
ENDBRANCH  14  15
BRANCH  14  38
ATOM     38  C   UNL A   1      30.798  23.768  23.585  1.00  0.00     0.015 C 
ATOM     39  C   UNL A   1      30.029  25.005  23.118  1.00  0.00     0.010 C 
ATOM     40  C   UNL A   1      32.093  23.677  22.770  1.00  0.00     0.010 C 
ENDBRANCH  14  38
ENDBRANCH  11  14
ENDBRANCH   5  10
ENDBRANCH   3   5
ENDBRANCH   2   3
ENDBRANCH   1   2
BRANCH   1  41
ATOM     41  C   UNL A   1      37.922  21.526  25.393  1.00  0.00     0.202 C 
BRANCH  41  42
ATOM     42  O   UNL A   1      37.873  22.937  25.303  1.00  0.00    -0.376 OA
BRANCH  42  43
ATOM     43  C   UNL A   1      37.821  23.631  26.523  1.00  0.00     0.188 C 
BRANCH  43  44
ATOM     44  C   UNL A   1      38.924  24.684  26.738  1.00  0.00     0.188 C 
BRANCH  44  45
ATOM     45  O   UNL A   1      39.598  24.768  27.975  1.00  0.00    -0.376 OA
BRANCH  45  46
ATOM     46  C   UNL A   1      40.974  24.403  27.986  1.00  0.00     0.202 C 
BRANCH  46  47
ATOM     47  C   UNL A   1      42.102  25.437  28.246  1.00  0.00     0.261 C 
BRANCH  47  48
ATOM     48  O   UNL A   1      42.136  26.591  27.380  1.00  0.00    -0.460 OA
BRANCH  48  49
ATOM     49  C   UNL A   1      42.370  26.359  26.054  1.00  0.00     0.338 C 
ATOM     50  O   UNL A   1      41.542  26.332  25.160  1.00  0.00    -0.246 OA
BRANCH  49  51
ATOM     51  C   UNL A   1      43.833  26.520  25.801  1.00  0.00     0.060 A 
ATOM     52  C   UNL A   1      44.570  25.398  25.360  1.00  0.00     0.016 A 
ATOM     53  C   UNL A   1      44.434  27.778  25.820  1.00  0.00     0.016 A 
ATOM     54  C   UNL A   1      45.900  25.530  24.950  1.00  0.00     0.010 A 
ATOM     55  C   UNL A   1      45.778  27.905  25.453  1.00  0.00     0.010 A 
ATOM     56  C   UNL A   1      46.527  26.776  25.059  1.00  0.00    -0.014 A 
BRANCH  56  57
ATOM     57  C   UNL A   1      48.008  26.836  25.165  1.00  0.00     0.031 A 
ATOM     58  C   UNL A   1      48.577  26.588  26.539  1.00  0.00     0.074 A 
ATOM     59  C   UNL A   1      48.826  27.098  24.131  1.00  0.00     0.049 A 
ATOM     60  N   UNL A   1      49.803  26.704  26.972  1.00  0.00    -0.248 NA
ATOM     61  C   UNL A   1      47.612  26.163  27.571  1.00  0.00     0.031 C 
ATOM     62  C   UNL A   1      48.422  27.281  22.739  1.00  0.00     0.029 A 
ATOM     63  N   UNL A   1      50.189  27.270  24.112  1.00  0.00    -0.354 N 
ATOM     64  C   UNL A   1      49.749  26.394  28.326  1.00  0.00     0.074 A 
ATOM     65  C   UNL A   1      48.371  26.112  28.651  1.00  0.00     0.031 C 
ATOM     66  C   UNL A   1      49.516  27.560  22.003  1.00  0.00     0.029 A 
ATOM     67  C   UNL A   1      50.687  27.617  22.879  1.00  0.00     0.049 A 
ATOM     68  H   UNL A   1      50.758  27.156  24.908  1.00  0.00     0.167 HD
ATOM     69  C   UNL A   1      50.754  26.345  29.227  1.00  0.00     0.031 A 
ATOM     70  C   UNL A   1      51.937  27.969  22.513  1.00  0.00     0.031 A 
ATOM     71  C   UNL A   1      52.121  26.644  28.913  1.00  0.00     0.049 A 
ATOM     72  C   UNL A   1      53.031  28.005  23.556  1.00  0.00     0.074 A 
ATOM     73  C   UNL A   1      53.220  26.623  29.751  1.00  0.00     0.029 A 
ATOM     74  N   UNL A   1      52.572  27.027  27.660  1.00  0.00    -0.354 N 
ATOM     75  N   UNL A   1      52.973  27.702  24.832  1.00  0.00    -0.248 NA
ATOM     76  C   UNL A   1      54.365  28.431  23.105  1.00  0.00     0.031 C 
ATOM     77  C   UNL A   1      54.328  27.059  29.019  1.00  0.00     0.029 A 
ATOM     78  C   UNL A   1      53.932  27.275  27.708  1.00  0.00     0.049 A 
ATOM     79  H   UNL A   1      52.009  27.110  26.856  1.00  0.00     0.167 HD
ATOM     80  C   UNL A   1      54.264  27.864  25.323  1.00  0.00     0.074 A 
ATOM     81  C   UNL A   1      55.087  28.280  24.206  1.00  0.00     0.031 C 
ATOM     82  C   UNL A   1      54.733  27.683  26.583  1.00  0.00     0.031 A 
BRANCH  69  83
ATOM     83  C   UNL A   1      50.389  26.005  30.644  1.00  0.00    -0.014 A 
ATOM     84  C   UNL A   1      49.934  26.985  31.541  1.00  0.00     0.009 A 
ATOM     85  C   UNL A   1      50.504  24.678  31.088  1.00  0.00     0.009 A 
ATOM     86  C   UNL A   1      49.637  26.649  32.864  1.00  0.00     0.001 A 
ATOM     87  C   UNL A   1      50.172  24.339  32.399  1.00  0.00     0.001 A 
ATOM     88  C   UNL A   1      49.749  25.325  33.289  1.00  0.00     0.000 A 
ENDBRANCH  69  83
BRANCH  70  89
ATOM     89  C   UNL A   1      52.236  28.352  21.105  1.00  0.00    -0.014 A 
ATOM     90  C   UNL A   1      52.046  29.671  20.662  1.00  0.00     0.009 A 
ATOM     91  C   UNL A   1      52.673  27.390  20.180  1.00  0.00     0.009 A 
ATOM     92  C   UNL A   1      52.259  30.011  19.323  1.00  0.00     0.001 A 
ATOM     93  C   UNL A   1      52.918  27.739  18.849  1.00  0.00     0.001 A 
ATOM     94  C   UNL A   1      52.702  29.047  18.419  1.00  0.00     0.000 A 
ENDBRANCH  70  89
BRANCH  82  95
ATOM     95  C   UNL A   1      56.206  27.877  26.817  1.00  0.00    -0.014 A 
ATOM     96  C   UNL A   1      57.120  26.821  26.677  1.00  0.00     0.009 A 
ATOM     97  C   UNL A   1      56.692  29.160  27.122  1.00  0.00     0.009 A 
ATOM     98  C   UNL A   1      58.485  27.039  26.876  1.00  0.00     0.001 A 
ATOM     99  C   UNL A   1      58.060  29.381  27.285  1.00  0.00     0.001 A 
ATOM    100  C   UNL A   1      58.954  28.319  27.172  1.00  0.00     0.000 A 
ENDBRANCH  82  95
ENDBRANCH  56  57
ENDBRANCH  49  51
ENDBRANCH  48  49
ENDBRANCH  47  48
ENDBRANCH  46  47
ENDBRANCH  45  46
ENDBRANCH  44  45
ENDBRANCH  43  44
ENDBRANCH  42  43
ENDBRANCH  41  42
ENDBRANCH   1  41
TORSDOF 30
ENDMDL
MODEL 3
REMARK VINA RESULT:      -8.4      3.210      5.042
REMARK SMILES CC(C)C[C@H](NC(=O)[C@@H](NC(=O)[C@H](C)NC(=O)CNC(=O)OCc1ccccc1)C(C)C)C(=O)OCCOCCOCCOC(=O)c1ccc(-c2c3nc(c(-c4ccccc4)c4ccc([nH]4)c(-c4ccccc4)c4nc(c(-c5ccccc5)c5ccc2[nH]5)C=C4)C=C3)cc1
REMARK SMILES IDX 36 1 35 2 33 3 34 4 5 5 4 6 2 7 1 8 3 9 6 10 7 11 8 13 9 14
REMARK SMILES IDX 10 15 11 16 12 18 13 19 14 20 15 21 16 22 17 24 18 25 19 26
REMARK SMILES IDX 20 27 21 29 22 30 23 31 24 32 25 33 29 34 26 35 28 36 27 37
REMARK SMILES IDX 30 38 31 39 32 40 37 41 38 42 39 43 40 44 41 45 42 46 43 47
REMARK SMILES IDX 44 48 45 49 46 50 47 51 48 52 94 53 49 54 93 55 50 56 51 57
REMARK SMILES IDX 52 58 87 59 53 60 92 61 86 62 88 63 54 64 91 65 85 66 84 67
REMARK SMILES IDX 55 69 77 70 62 71 76 72 63 73 66 74 75 75 89 76 64 77 65 78
REMARK SMILES IDX 74 80 90 81 67 82 56 83 57 84 61 85 58 86 60 87 59 88 78 89
REMARK SMILES IDX 79 90 83 91 80 92 82 93 81 94 68 95 69 96 73 97 70 98 72 99
REMARK SMILES IDX 71 100
REMARK H PARENT 6 12 10 17 15 23 19 28 88 68 66 79
REMARK Flexibility Score: inf
ROOT
ATOM      1  C   UNL A   1      37.525  21.742  25.231  1.00  0.00     0.261 C 
ENDROOT
BRANCH   1   2
ATOM      2  O   UNL A   1      36.327  21.718  26.070  1.00  0.00    -0.462 OA
BRANCH   2   3
ATOM      3  C   UNL A   1      35.306  22.637  25.910  1.00  0.00     0.328 C 
ATOM      4  O   UNL A   1      35.460  23.848  26.006  1.00  0.00    -0.250 OA
BRANCH   3   5
ATOM      5  C   UNL A   1      33.954  21.946  25.416  1.00  0.00     0.192 C 
BRANCH   5   6
ATOM      6  C   UNL A   1      33.776  21.480  23.945  1.00  0.00     0.040 C 
BRANCH   6   7
ATOM      7  C   UNL A   1      32.504  20.671  23.756  1.00  0.00    -0.015 C 
ATOM      8  C   UNL A   1      32.027  20.914  22.346  1.00  0.00     0.007 C 
ATOM      9  C   UNL A   1      32.552  19.178  24.062  1.00  0.00     0.007 C 
ENDBRANCH   6   7
ENDBRANCH   5   6
BRANCH   5  10
ATOM     10  N   UNL A   1      32.641  22.403  25.933  1.00  0.00    -0.341 N 
ATOM     11  C   UNL A   1      31.724  23.365  25.666  1.00  0.00     0.243 C 
ATOM     12  H   UNL A   1      32.351  21.845  26.690  1.00  0.00     0.164 HD
ATOM     13  O   UNL A   1      30.591  23.103  26.099  1.00  0.00    -0.273 OA
BRANCH  11  14
ATOM     14  C   UNL A   1      31.978  24.743  24.944  1.00  0.00     0.174 C 
BRANCH  14  15
ATOM     15  N   UNL A   1      32.882  25.647  25.666  1.00  0.00    -0.342 N 
ATOM     16  C   UNL A   1      33.347  26.906  25.744  1.00  0.00     0.242 C 
ATOM     17  H   UNL A   1      33.322  25.124  26.375  1.00  0.00     0.164 HD
ATOM     18  O   UNL A   1      34.335  27.050  26.486  1.00  0.00    -0.273 OA
BRANCH  16  19
ATOM     19  C   UNL A   1      32.945  28.180  25.010  1.00  0.00     0.168 C 
ATOM     20  C   UNL A   1      33.739  28.537  23.775  1.00  0.00     0.041 C 
BRANCH  19  21
ATOM     21  N   UNL A   1      32.517  29.301  25.832  1.00  0.00    -0.343 N 
ATOM     22  C   UNL A   1      33.260  30.046  26.716  1.00  0.00     0.240 C 
ATOM     23  H   UNL A   1      31.571  29.561  25.744  1.00  0.00     0.164 HD
ATOM     24  O   UNL A   1      32.674  30.912  27.370  1.00  0.00    -0.273 OA
BRANCH  22  25
ATOM     25  C   UNL A   1      34.776  29.803  26.912  1.00  0.00     0.219 C 
BRANCH  25  26
ATOM     26  N   UNL A   1      35.127  30.336  28.200  1.00  0.00    -0.312 N 
ATOM     27  C   UNL A   1      36.125  29.807  28.948  1.00  0.00     0.407 C 
ATOM     28  H   UNL A   1      34.628  31.109  28.549  1.00  0.00     0.167 HD
ATOM     29  O   UNL A   1      36.012  29.716  30.174  1.00  0.00    -0.225 OA
BRANCH  27  30
ATOM     30  O   UNL A   1      37.217  29.470  28.222  1.00  0.00    -0.445 OA
BRANCH  30  31
ATOM     31  C   UNL A   1      38.152  28.606  28.888  1.00  0.00     0.270 C 
BRANCH  31  32
ATOM     32  C   UNL A   1      39.249  28.104  27.967  1.00  0.00    -0.011 A 
ATOM     33  C   UNL A   1      39.657  26.768  28.038  1.00  0.00     0.007 A 
ATOM     34  C   UNL A   1      39.951  28.977  27.116  1.00  0.00     0.007 A 
ATOM     35  C   UNL A   1      40.809  26.351  27.369  1.00  0.00     0.000 A 
ATOM     36  C   UNL A   1      41.130  28.576  26.498  1.00  0.00     0.000 A 
ATOM     37  C   UNL A   1      41.566  27.265  26.635  1.00  0.00     0.000 A 
ENDBRANCH  31  32
ENDBRANCH  30  31
ENDBRANCH  27  30
ENDBRANCH  25  26
ENDBRANCH  22  25
ENDBRANCH  19  21
ENDBRANCH  16  19
ENDBRANCH  14  15
BRANCH  14  38
ATOM     38  C   UNL A   1      32.220  24.680  23.427  1.00  0.00     0.015 C 
ATOM     39  C   UNL A   1      31.425  25.661  22.563  1.00  0.00     0.010 C 
ATOM     40  C   UNL A   1      33.712  24.917  23.165  1.00  0.00     0.010 C 
ENDBRANCH  14  38
ENDBRANCH  11  14
ENDBRANCH   5  10
ENDBRANCH   3   5
ENDBRANCH   2   3
ENDBRANCH   1   2
BRANCH   1  41
ATOM     41  C   UNL A   1      38.892  21.651  25.936  1.00  0.00     0.202 C 
BRANCH  41  42
ATOM     42  O   UNL A   1      39.336  22.648  26.835  1.00  0.00    -0.376 OA
BRANCH  42  43
ATOM     43  C   UNL A   1      40.521  22.364  27.535  1.00  0.00     0.188 C 
BRANCH  43  44
ATOM     44  C   UNL A   1      41.814  22.396  26.698  1.00  0.00     0.188 C 
BRANCH  44  45
ATOM     45  O   UNL A   1      42.796  21.396  26.865  1.00  0.00    -0.376 OA
BRANCH  45  46
ATOM     46  C   UNL A   1      43.023  20.524  25.763  1.00  0.00     0.202 C 
BRANCH  46  47
ATOM     47  C   UNL A   1      44.332  20.566  24.931  1.00  0.00     0.261 C 
BRANCH  47  48
ATOM     48  O   UNL A   1      44.617  21.797  24.232  1.00  0.00    -0.460 OA
BRANCH  48  49
ATOM     49  C   UNL A   1      45.820  22.390  24.494  1.00  0.00     0.338 C 
ATOM     50  O   UNL A   1      46.860  22.237  23.878  1.00  0.00    -0.246 OA
BRANCH  49  51
ATOM     51  C   UNL A   1      45.583  23.544  25.414  1.00  0.00     0.060 A 
ATOM     52  C   UNL A   1      46.645  23.982  26.236  1.00  0.00     0.016 A 
ATOM     53  C   UNL A   1      44.408  24.292  25.343  1.00  0.00     0.016 A 
ATOM     54  C   UNL A   1      46.531  25.154  26.989  1.00  0.00     0.010 A 
ATOM     55  C   UNL A   1      44.276  25.441  26.131  1.00  0.00     0.010 A 
ATOM     56  C   UNL A   1      45.319  25.851  26.988  1.00  0.00    -0.014 A 
BRANCH  56  57
ATOM     57  C   UNL A   1      44.985  26.729  28.140  1.00  0.00     0.031 A 
ATOM     58  C   UNL A   1      44.936  28.206  27.845  1.00  0.00     0.074 A 
ATOM     59  C   UNL A   1      44.742  26.277  29.383  1.00  0.00     0.049 A 
ATOM     60  N   UNL A   1      44.807  29.219  28.659  1.00  0.00    -0.248 NA
ATOM     61  C   UNL A   1      45.069  28.587  26.426  1.00  0.00     0.031 C 
ATOM     62  C   UNL A   1      44.681  24.877  29.794  1.00  0.00     0.029 A 
ATOM     63  N   UNL A   1      44.515  26.979  30.543  1.00  0.00    -0.354 N 
ATOM     64  C   UNL A   1      44.870  30.350  27.854  1.00  0.00     0.074 A 
ATOM     65  C   UNL A   1      45.076  29.906  26.497  1.00  0.00     0.031 C 
ATOM     66  C   UNL A   1      44.450  24.824  31.120  1.00  0.00     0.029 A 
ATOM     67  C   UNL A   1      44.391  26.184  31.657  1.00  0.00     0.049 A 
ATOM     68  H   UNL A   1      44.447  27.962  30.573  1.00  0.00     0.167 HD
ATOM     69  C   UNL A   1      44.766  31.650  28.207  1.00  0.00     0.031 A 
ATOM     70  C   UNL A   1      44.277  26.522  32.958  1.00  0.00     0.031 A 
ATOM     71  C   UNL A   1      44.581  32.098  29.557  1.00  0.00     0.049 A 
ATOM     72  C   UNL A   1      44.262  27.984  33.345  1.00  0.00     0.074 A 
ATOM     73  C   UNL A   1      44.462  33.393  30.025  1.00  0.00     0.029 A 
ATOM     74  N   UNL A   1      44.500  31.258  30.656  1.00  0.00    -0.354 N 
ATOM     75  N   UNL A   1      44.312  29.047  32.577  1.00  0.00    -0.248 NA
ATOM     76  C   UNL A   1      44.170  28.289  34.781  1.00  0.00     0.031 C 
ATOM     77  C   UNL A   1      44.373  33.341  31.419  1.00  0.00     0.029 A 
ATOM     78  C   UNL A   1      44.360  32.011  31.809  1.00  0.00     0.049 A 
ATOM     79  H   UNL A   1      44.536  30.275  30.623  1.00  0.00     0.167 HD
ATOM     80  C   UNL A   1      44.222  30.141  33.431  1.00  0.00     0.074 A 
ATOM     81  C   UNL A   1      44.101  29.613  34.775  1.00  0.00     0.031 C 
ATOM     82  C   UNL A   1      44.235  31.465  33.136  1.00  0.00     0.031 A 
BRANCH  69  83
ATOM     83  C   UNL A   1      44.904  32.671  27.114  1.00  0.00    -0.014 A 
ATOM     84  C   UNL A   1      43.805  33.067  26.333  1.00  0.00     0.009 A 
ATOM     85  C   UNL A   1      46.159  33.247  26.861  1.00  0.00     0.009 A 
ATOM     86  C   UNL A   1      43.969  33.991  25.299  1.00  0.00     0.001 A 
ATOM     87  C   UNL A   1      46.313  34.195  25.850  1.00  0.00     0.001 A 
ATOM     88  C   UNL A   1      45.221  34.559  25.063  1.00  0.00     0.000 A 
ENDBRANCH  69  83
BRANCH  70  89
ATOM     89  C   UNL A   1      44.199  25.470  34.011  1.00  0.00    -0.014 A 
ATOM     90  C   UNL A   1      45.362  24.857  34.501  1.00  0.00     0.009 A 
ATOM     91  C   UNL A   1      42.955  25.042  34.501  1.00  0.00     0.009 A 
ATOM     92  C   UNL A   1      45.281  23.821  35.437  1.00  0.00     0.001 A 
ATOM     93  C   UNL A   1      42.877  24.029  35.462  1.00  0.00     0.001 A 
ATOM     94  C   UNL A   1      44.040  23.412  35.922  1.00  0.00     0.000 A 
ENDBRANCH  70  89
BRANCH  82  95
ATOM     95  C   UNL A   1      44.060  32.437  34.270  1.00  0.00    -0.014 A 
ATOM     96  C   UNL A   1      45.159  33.042  34.898  1.00  0.00     0.009 A 
ATOM     97  C   UNL A   1      42.763  32.798  34.674  1.00  0.00     0.009 A 
ATOM     98  C   UNL A   1      44.963  33.961  35.932  1.00  0.00     0.001 A 
ATOM     99  C   UNL A   1      42.571  33.742  35.683  1.00  0.00     0.001 A 
ATOM    100  C   UNL A   1      43.671  34.315  36.319  1.00  0.00     0.000 A 
ENDBRANCH  82  95
ENDBRANCH  56  57
ENDBRANCH  49  51
ENDBRANCH  48  49
ENDBRANCH  47  48
ENDBRANCH  46  47
ENDBRANCH  45  46
ENDBRANCH  44  45
ENDBRANCH  43  44
ENDBRANCH  42  43
ENDBRANCH  41  42
ENDBRANCH   1  41
TORSDOF 30
ENDMDL
