MODEL 1
REMARK VINA RESULT:      -9.6      0.000      0.000
REMARK SMILES CC(C)Cc1ccc([C@@H](C)C(=O)OCCOCCOCCOC(=O)c2ccc(-c3c4nc(c(-c5ccccc5)c5ccc([nH]5)c(-c5ccccc5)c5nc(c(-c6ccccc6)c6ccc3[nH]6)C=C5)C=C4)cc2)cc1
REMARK SMILES IDX 17 1 16 2 15 3 14 4 13 5 11 6 12 7 9 8 10 9 8 10 5 11 6 12
REMARK SMILES IDX 74 13 7 14 73 15 4 16 2 17 1 18 3 19 18 20 19 21 20 22 21 23
REMARK SMILES IDX 22 24 23 25 24 26 25 27 26 28 72 29 27 30 71 31 28 32 29 33
REMARK SMILES IDX 30 34 65 35 31 36 70 37 64 38 66 39 32 40 69 41 63 42 62 43
REMARK SMILES IDX 33 45 55 46 40 47 54 48 41 49 44 50 53 51 67 52 42 53 43 54
REMARK SMILES IDX 52 56 68 57 45 58 34 59 35 60 39 61 36 62 38 63 37 64 56 65
REMARK SMILES IDX 57 66 61 67 58 68 60 69 59 70 46 71 47 72 51 73 48 74 50 75
REMARK SMILES IDX 49 76
REMARK H PARENT 66 44 44 55
REMARK Flexibility Score: inf
ROOT
ATOM      1  C   UNL A   1      39.232  21.892  26.165  1.00  0.00     0.188 C 
ENDROOT
BRANCH   1   2
ATOM      2  O   UNL A   1      37.851  21.766  25.844  1.00  0.00    -0.376 OA
BRANCH   2   3
ATOM      3  C   UNL A   1      37.421  21.999  24.508  1.00  0.00     0.202 C 
BRANCH   3   4
ATOM      4  C   UNL A   1      35.916  22.162  24.247  1.00  0.00     0.261 C 
BRANCH   4   5
ATOM      5  O   UNL A   1      35.043  21.634  25.270  1.00  0.00    -0.463 OA
BRANCH   5   6
ATOM      6  C   UNL A   1      34.082  20.766  24.865  1.00  0.00     0.313 C 
ATOM      7  O   UNL A   1      34.273  19.558  24.743  1.00  0.00    -0.252 OA
BRANCH   6   8
ATOM      8  C   UNL A   1      32.703  21.368  24.578  1.00  0.00     0.126 C 
ATOM      9  C   UNL A   1      32.362  21.146  23.106  1.00  0.00     0.025 C 
BRANCH   8  10
ATOM     10  C   UNL A   1      32.367  22.802  24.976  1.00  0.00    -0.034 A 
ATOM     11  C   UNL A   1      31.661  25.423  25.810  1.00  0.00    -0.048 A 
ATOM     12  C   UNL A   1      31.990  25.156  24.474  1.00  0.00     0.004 A 
ATOM     13  C   UNL A   1      31.713  24.376  26.735  1.00  0.00     0.004 A 
ATOM     14  C   UNL A   1      32.318  23.859  24.057  1.00  0.00     0.005 A 
ATOM     15  C   UNL A   1      32.055  23.084  26.322  1.00  0.00     0.005 A 
BRANCH  11  16
ATOM     16  C   UNL A   1      31.175  26.795  26.227  1.00  0.00     0.038 C 
BRANCH  16  17
ATOM     17  C   UNL A   1      32.257  27.598  26.984  1.00  0.00    -0.013 C 
ATOM     18  C   UNL A   1      33.592  27.618  26.231  1.00  0.00     0.008 C 
ATOM     19  C   UNL A   1      31.791  29.032  27.238  1.00  0.00     0.008 C 
ENDBRANCH  16  17
ENDBRANCH  11  16
ENDBRANCH   8  10
ENDBRANCH   6   8
ENDBRANCH   5   6
ENDBRANCH   4   5
ENDBRANCH   3   4
ENDBRANCH   2   3
ENDBRANCH   1   2
BRANCH   1  20
ATOM     20  C   UNL A   1      40.144  20.658  26.097  1.00  0.00     0.188 C 
BRANCH  20  21
ATOM     21  O   UNL A   1      41.388  20.818  26.746  1.00  0.00    -0.376 OA
BRANCH  21  22
ATOM     22  C   UNL A   1      42.514  20.270  26.091  1.00  0.00     0.202 C 
BRANCH  22  23
ATOM     23  C   UNL A   1      43.469  21.317  25.503  1.00  0.00     0.261 C 
BRANCH  23  24
ATOM     24  O   UNL A   1      42.853  22.539  25.052  1.00  0.00    -0.460 OA
BRANCH  24  25
ATOM     25  C   UNL A   1      43.629  23.644  25.009  1.00  0.00     0.338 C 
ATOM     26  O   UNL A   1      44.566  23.856  24.252  1.00  0.00    -0.246 OA
BRANCH  25  27
ATOM     27  C   UNL A   1      43.033  24.660  25.905  1.00  0.00     0.060 A 
ATOM     28  C   UNL A   1      43.596  25.944  25.965  1.00  0.00     0.016 A 
ATOM     29  C   UNL A   1      41.920  24.347  26.688  1.00  0.00     0.016 A 
ATOM     30  C   UNL A   1      43.068  26.906  26.832  1.00  0.00     0.010 A 
ATOM     31  C   UNL A   1      41.405  25.304  27.569  1.00  0.00     0.010 A 
ATOM     32  C   UNL A   1      41.994  26.578  27.671  1.00  0.00    -0.014 A 
BRANCH  32  33
ATOM     33  C   UNL A   1      41.598  27.484  28.781  1.00  0.00     0.031 A 
ATOM     34  C   UNL A   1      42.360  27.402  30.078  1.00  0.00     0.074 A 
ATOM     35  C   UNL A   1      40.579  28.354  28.661  1.00  0.00     0.049 A 
ATOM     36  N   UNL A   1      42.147  28.022  31.211  1.00  0.00    -0.248 NA
ATOM     37  C   UNL A   1      43.516  26.490  30.100  1.00  0.00     0.031 C 
ATOM     38  C   UNL A   1      39.784  28.570  27.454  1.00  0.00     0.029 A 
ATOM     39  N   UNL A   1      40.029  29.211  29.584  1.00  0.00    -0.354 N 
ATOM     40  C   UNL A   1      43.124  27.560  32.083  1.00  0.00     0.074 A 
ATOM     41  C   UNL A   1      43.919  26.594  31.357  1.00  0.00     0.031 C 
ATOM     42  C   UNL A   1      38.838  29.490  27.715  1.00  0.00     0.029 A 
ATOM     43  C   UNL A   1      38.935  29.897  29.117  1.00  0.00     0.049 A 
ATOM     44  H   UNL A   1      40.386  29.321  30.495  1.00  0.00     0.167 HD
ATOM     45  C   UNL A   1      43.344  27.906  33.374  1.00  0.00     0.031 A 
ATOM     46  C   UNL A   1      38.091  30.734  29.754  1.00  0.00     0.031 A 
ATOM     47  C   UNL A   1      42.552  28.860  34.104  1.00  0.00     0.049 A 
ATOM     48  C   UNL A   1      38.310  31.043  31.214  1.00  0.00     0.074 A 
ATOM     49  C   UNL A   1      42.718  29.298  35.407  1.00  0.00     0.029 A 
ATOM     50  N   UNL A   1      41.438  29.512  33.601  1.00  0.00    -0.354 N 
ATOM     51  N   UNL A   1      39.262  30.632  32.017  1.00  0.00    -0.248 NA
ATOM     52  C   UNL A   1      37.336  31.941  31.855  1.00  0.00     0.031 C 
ATOM     53  C   UNL A   1      41.663  30.163  35.715  1.00  0.00     0.029 A 
ATOM     54  C   UNL A   1      40.885  30.322  34.579  1.00  0.00     0.049 A 
ATOM     55  H   UNL A   1      41.091  29.414  32.685  1.00  0.00     0.167 HD
ATOM     56  C   UNL A   1      39.022  31.250  33.240  1.00  0.00     0.074 A 
ATOM     57  C   UNL A   1      37.845  32.074  33.070  1.00  0.00     0.031 C 
ATOM     58  C   UNL A   1      39.716  31.145  34.400  1.00  0.00     0.031 A 
BRANCH  45  59
ATOM     59  C   UNL A   1      44.463  27.213  34.100  1.00  0.00    -0.014 A 
ATOM     60  C   UNL A   1      45.761  27.747  34.135  1.00  0.00     0.009 A 
ATOM     61  C   UNL A   1      44.199  26.024  34.801  1.00  0.00     0.009 A 
ATOM     62  C   UNL A   1      46.778  27.087  34.828  1.00  0.00     0.001 A 
ATOM     63  C   UNL A   1      45.211  25.385  35.519  1.00  0.00     0.001 A 
ATOM     64  C   UNL A   1      46.501  25.911  35.525  1.00  0.00     0.000 A 
ENDBRANCH  45  59
BRANCH  46  65
ATOM     65  C   UNL A   1      36.928  31.325  29.034  1.00  0.00    -0.014 A 
ATOM     66  C   UNL A   1      36.980  32.641  28.547  1.00  0.00     0.009 A 
ATOM     67  C   UNL A   1      35.741  30.594  28.879  1.00  0.00     0.009 A 
ATOM     68  C   UNL A   1      35.856  33.222  27.951  1.00  0.00     0.001 A 
ATOM     69  C   UNL A   1      34.631  31.165  28.252  1.00  0.00     0.001 A 
ATOM     70  C   UNL A   1      34.684  32.483  27.801  1.00  0.00     0.000 A 
ENDBRANCH  46  65
BRANCH  58  71
ATOM     71  C   UNL A   1      39.259  31.982  35.565  1.00  0.00    -0.014 A 
ATOM     72  C   UNL A   1      39.696  33.304  35.739  1.00  0.00     0.009 A 
ATOM     73  C   UNL A   1      38.337  31.446  36.479  1.00  0.00     0.009 A 
ATOM     74  C   UNL A   1      39.250  34.058  36.827  1.00  0.00     0.001 A 
ATOM     75  C   UNL A   1      37.866  32.214  37.547  1.00  0.00     0.001 A 
ATOM     76  C   UNL A   1      38.332  33.514  37.726  1.00  0.00     0.000 A 
ENDBRANCH  58  71
ENDBRANCH  32  33
ENDBRANCH  25  27
ENDBRANCH  24  25
ENDBRANCH  23  24
ENDBRANCH  22  23
ENDBRANCH  21  22
ENDBRANCH  20  21
ENDBRANCH   1  20
TORSDOF 20
ENDMDL
MODEL 2
REMARK VINA RESULT:      -9.5      4.640     10.878
REMARK SMILES CC(C)Cc1ccc([C@@H](C)C(=O)OCCOCCOCCOC(=O)c2ccc(-c3c4nc(c(-c5ccccc5)c5ccc([nH]5)c(-c5ccccc5)c5nc(c(-c6ccccc6)c6ccc3[nH]6)C=C5)C=C4)cc2)cc1
REMARK SMILES IDX 17 1 16 2 15 3 14 4 13 5 11 6 12 7 9 8 10 9 8 10 5 11 6 12
REMARK SMILES IDX 74 13 7 14 73 15 4 16 2 17 1 18 3 19 18 20 19 21 20 22 21 23
REMARK SMILES IDX 22 24 23 25 24 26 25 27 26 28 72 29 27 30 71 31 28 32 29 33
REMARK SMILES IDX 30 34 65 35 31 36 70 37 64 38 66 39 32 40 69 41 63 42 62 43
REMARK SMILES IDX 33 45 55 46 40 47 54 48 41 49 44 50 53 51 67 52 42 53 43 54
REMARK SMILES IDX 52 56 68 57 45 58 34 59 35 60 39 61 36 62 38 63 37 64 56 65
REMARK SMILES IDX 57 66 61 67 58 68 60 69 59 70 46 71 47 72 51 73 48 74 50 75
REMARK SMILES IDX 49 76
REMARK H PARENT 66 44 44 55
REMARK Flexibility Score: inf
ROOT
ATOM      1  C   UNL A   1      33.059  36.455  30.063  1.00  0.00     0.188 C 
ENDROOT
BRANCH   1   2
ATOM      2  O   UNL A   1      32.354  36.683  31.279  1.00  0.00    -0.376 OA
BRANCH   2   3
ATOM      3  C   UNL A   1      33.086  36.897  32.480  1.00  0.00     0.202 C 
BRANCH   3   4
ATOM      4  C   UNL A   1      34.332  36.035  32.734  1.00  0.00     0.261 C 
BRANCH   4   5
ATOM      5  O   UNL A   1      34.154  34.932  33.650  1.00  0.00    -0.463 OA
BRANCH   5   6
ATOM      6  C   UNL A   1      34.430  33.692  33.172  1.00  0.00     0.313 C 
ATOM      7  O   UNL A   1      33.583  32.966  32.655  1.00  0.00    -0.252 OA
BRANCH   6   8
ATOM      8  C   UNL A   1      35.885  33.230  33.288  1.00  0.00     0.126 C 
ATOM      9  C   UNL A   1      36.387  33.524  34.700  1.00  0.00     0.025 C 
BRANCH   8  10
ATOM     10  C   UNL A   1      36.934  33.658  32.267  1.00  0.00    -0.034 A 
ATOM     11  C   UNL A   1      38.856  34.348  30.294  1.00  0.00    -0.048 A 
ATOM     12  C   UNL A   1      39.064  34.664  31.643  1.00  0.00     0.004 A 
ATOM     13  C   UNL A   1      37.668  33.709  29.931  1.00  0.00     0.004 A 
ATOM     14  C   UNL A   1      38.126  34.304  32.621  1.00  0.00     0.005 A 
ATOM     15  C   UNL A   1      36.724  33.363  30.904  1.00  0.00     0.005 A 
BRANCH  11  16
ATOM     16  C   UNL A   1      39.932  34.615  29.263  1.00  0.00     0.038 C 
BRANCH  16  17
ATOM     17  C   UNL A   1      41.351  34.605  29.875  1.00  0.00    -0.013 C 
ATOM     18  C   UNL A   1      41.941  33.193  29.938  1.00  0.00     0.008 C 
ATOM     19  C   UNL A   1      42.290  35.518  29.086  1.00  0.00     0.008 C 
ENDBRANCH  16  17
ENDBRANCH  11  16
ENDBRANCH   8  10
ENDBRANCH   6   8
ENDBRANCH   5   6
ENDBRANCH   4   5
ENDBRANCH   3   4
ENDBRANCH   2   3
ENDBRANCH   1   2
BRANCH   1  20
ATOM     20  C   UNL A   1      33.230  35.021  29.541  1.00  0.00     0.188 C 
BRANCH  20  21
ATOM     21  O   UNL A   1      32.442  34.715  28.411  1.00  0.00    -0.376 OA
BRANCH  21  22
ATOM     22  C   UNL A   1      32.775  33.532  27.713  1.00  0.00     0.202 C 
BRANCH  22  23
ATOM     23  C   UNL A   1      34.012  32.808  28.260  1.00  0.00     0.261 C 
BRANCH  23  24
ATOM     24  O   UNL A   1      34.637  31.874  27.359  1.00  0.00    -0.460 OA
BRANCH  24  25
ATOM     25  C   UNL A   1      34.690  30.581  27.746  1.00  0.00     0.338 C 
ATOM     26  O   UNL A   1      33.903  29.693  27.448  1.00  0.00    -0.246 OA
BRANCH  25  27
ATOM     27  C   UNL A   1      35.979  30.359  28.437  1.00  0.00     0.060 A 
ATOM     28  C   UNL A   1      37.169  30.804  27.839  1.00  0.00     0.016 A 
ATOM     29  C   UNL A   1      36.016  29.712  29.674  1.00  0.00     0.016 A 
ATOM     30  C   UNL A   1      38.399  30.571  28.462  1.00  0.00     0.010 A 
ATOM     31  C   UNL A   1      37.249  29.463  30.285  1.00  0.00     0.010 A 
ATOM     32  C   UNL A   1      38.450  29.861  29.670  1.00  0.00    -0.014 A 
BRANCH  32  33
ATOM     33  C   UNL A   1      39.748  29.369  30.203  1.00  0.00     0.031 A 
ATOM     34  C   UNL A   1      40.393  28.184  29.533  1.00  0.00     0.074 A 
ATOM     35  C   UNL A   1      40.343  29.941  31.265  1.00  0.00     0.049 A 
ATOM     36  N   UNL A   1      41.473  27.524  29.868  1.00  0.00    -0.248 NA
ATOM     37  C   UNL A   1      39.725  27.672  28.325  1.00  0.00     0.031 C 
ATOM     38  C   UNL A   1      39.855  31.117  31.983  1.00  0.00     0.029 A 
ATOM     39  N   UNL A   1      41.491  29.590  31.935  1.00  0.00    -0.354 N 
ATOM     40  C   UNL A   1      41.600  26.508  28.928  1.00  0.00     0.074 A 
ATOM     41  C   UNL A   1      40.478  26.626  28.022  1.00  0.00     0.031 C 
ATOM     42  C   UNL A   1      40.691  31.382  33.003  1.00  0.00     0.029 A 
ATOM     43  C   UNL A   1      41.749  30.372  33.035  1.00  0.00     0.049 A 
ATOM     44  H   UNL A   1      42.073  28.848  31.653  1.00  0.00     0.167 HD
ATOM     45  C   UNL A   1      42.562  25.560  28.826  1.00  0.00     0.031 A 
ATOM     46  C   UNL A   1      42.710  30.268  33.975  1.00  0.00     0.031 A 
ATOM     47  C   UNL A   1      43.674  25.433  29.729  1.00  0.00     0.049 A 
ATOM     48  C   UNL A   1      43.724  29.155  33.883  1.00  0.00     0.074 A 
ATOM     49  C   UNL A   1      44.716  24.522  29.686  1.00  0.00     0.029 A 
ATOM     50  N   UNL A   1      43.883  26.228  30.844  1.00  0.00    -0.354 N 
ATOM     51  N   UNL A   1      43.858  28.226  32.967  1.00  0.00    -0.248 NA
ATOM     52  C   UNL A   1      44.727  29.082  34.957  1.00  0.00     0.031 C 
ATOM     53  C   UNL A   1      45.518  24.723  30.815  1.00  0.00     0.029 A 
ATOM     54  C   UNL A   1      45.017  25.807  31.517  1.00  0.00     0.049 A 
ATOM     55  H   UNL A   1      43.310  26.981  31.116  1.00  0.00     0.167 HD
ATOM     56  C   UNL A   1      44.977  27.487  33.334  1.00  0.00     0.074 A 
ATOM     57  C   UNL A   1      45.494  28.083  34.547  1.00  0.00     0.031 C 
ATOM     58  C   UNL A   1      45.529  26.411  32.721  1.00  0.00     0.031 A 
BRANCH  45  59
ATOM     59  C   UNL A   1      42.429  24.550  27.720  1.00  0.00    -0.014 A 
ATOM     60  C   UNL A   1      41.633  23.403  27.862  1.00  0.00     0.009 A 
ATOM     61  C   UNL A   1      43.079  24.778  26.496  1.00  0.00     0.009 A 
ATOM     62  C   UNL A   1      41.517  22.489  26.813  1.00  0.00     0.001 A 
ATOM     63  C   UNL A   1      42.936  23.879  25.438  1.00  0.00     0.001 A 
ATOM     64  C   UNL A   1      42.163  22.731  25.599  1.00  0.00     0.000 A 
ENDBRANCH  45  59
BRANCH  46  65
ATOM     65  C   UNL A   1      42.753  31.222  35.118  1.00  0.00    -0.014 A 
ATOM     66  C   UNL A   1      42.064  30.945  36.311  1.00  0.00     0.009 A 
ATOM     67  C   UNL A   1      43.439  32.440  35.003  1.00  0.00     0.009 A 
ATOM     68  C   UNL A   1      42.034  31.882  37.346  1.00  0.00     0.001 A 
ATOM     69  C   UNL A   1      43.437  33.361  36.054  1.00  0.00     0.001 A 
ATOM     70  C   UNL A   1      42.722  33.088  37.219  1.00  0.00     0.000 A 
ENDBRANCH  46  65
BRANCH  58  71
ATOM     71  C   UNL A   1      46.788  25.839  33.315  1.00  0.00    -0.014 A 
ATOM     72  C   UNL A   1      46.752  24.828  34.287  1.00  0.00     0.009 A 
ATOM     73  C   UNL A   1      48.036  26.294  32.857  1.00  0.00     0.009 A 
ATOM     74  C   UNL A   1      47.938  24.313  34.817  1.00  0.00     0.001 A 
ATOM     75  C   UNL A   1      49.220  25.754  33.363  1.00  0.00     0.001 A 
ATOM     76  C   UNL A   1      49.170  24.772  34.351  1.00  0.00     0.000 A 
ENDBRANCH  58  71
ENDBRANCH  32  33
ENDBRANCH  25  27
ENDBRANCH  24  25
ENDBRANCH  23  24
ENDBRANCH  22  23
ENDBRANCH  21  22
ENDBRANCH  20  21
ENDBRANCH   1  20
TORSDOF 20
ENDMDL
MODEL 3
REMARK VINA RESULT:      -9.2      1.587      3.651
REMARK SMILES CC(C)Cc1ccc([C@@H](C)C(=O)OCCOCCOCCOC(=O)c2ccc(-c3c4nc(c(-c5ccccc5)c5ccc([nH]5)c(-c5ccccc5)c5nc(c(-c6ccccc6)c6ccc3[nH]6)C=C5)C=C4)cc2)cc1
REMARK SMILES IDX 17 1 16 2 15 3 14 4 13 5 11 6 12 7 9 8 10 9 8 10 5 11 6 12
REMARK SMILES IDX 74 13 7 14 73 15 4 16 2 17 1 18 3 19 18 20 19 21 20 22 21 23
REMARK SMILES IDX 22 24 23 25 24 26 25 27 26 28 72 29 27 30 71 31 28 32 29 33
REMARK SMILES IDX 30 34 65 35 31 36 70 37 64 38 66 39 32 40 69 41 63 42 62 43
REMARK SMILES IDX 33 45 55 46 40 47 54 48 41 49 44 50 53 51 67 52 42 53 43 54
REMARK SMILES IDX 52 56 68 57 45 58 34 59 35 60 39 61 36 62 38 63 37 64 56 65
REMARK SMILES IDX 57 66 61 67 58 68 60 69 59 70 46 71 47 72 51 73 48 74 50 75
REMARK SMILES IDX 49 76
REMARK H PARENT 66 44 44 55
REMARK Flexibility Score: inf
ROOT
ATOM      1  C   UNL A   1      39.724  21.872  26.297  1.00  0.00     0.188 C 
ENDROOT
BRANCH   1   2
ATOM      2  O   UNL A   1      38.411  22.219  25.870  1.00  0.00    -0.376 OA
BRANCH   2   3
ATOM      3  C   UNL A   1      37.892  23.505  26.187  1.00  0.00     0.202 C 
BRANCH   3   4
ATOM      4  C   UNL A   1      36.405  23.776  25.910  1.00  0.00     0.261 C 
BRANCH   4   5
ATOM      5  O   UNL A   1      35.840  23.071  24.783  1.00  0.00    -0.463 OA
BRANCH   5   6
ATOM      6  C   UNL A   1      34.635  23.506  24.333  1.00  0.00     0.313 C 
ATOM      7  O   UNL A   1      34.488  24.558  23.715  1.00  0.00    -0.252 OA
BRANCH   6   8
ATOM      8  C   UNL A   1      33.438  22.594  24.615  1.00  0.00     0.126 C 
ATOM      9  C   UNL A   1      32.921  22.877  26.024  1.00  0.00     0.025 C 
BRANCH   8  10
ATOM     10  C   UNL A   1      33.518  21.088  24.386  1.00  0.00    -0.034 A 
ATOM     11  C   UNL A   1      33.535  18.280  23.966  1.00  0.00    -0.048 A 
ATOM     12  C   UNL A   1      34.583  18.912  24.647  1.00  0.00     0.004 A 
ATOM     13  C   UNL A   1      32.490  19.064  23.469  1.00  0.00     0.004 A 
ATOM     14  C   UNL A   1      34.565  20.295  24.875  1.00  0.00     0.005 A 
ATOM     15  C   UNL A   1      32.479  20.446  23.683  1.00  0.00     0.005 A 
BRANCH  11  16
ATOM     16  C   UNL A   1      33.492  16.772  23.843  1.00  0.00     0.038 C 
BRANCH  16  17
ATOM     17  C   UNL A   1      33.775  16.063  25.186  1.00  0.00    -0.013 C 
ATOM     18  C   UNL A   1      32.784  14.926  25.458  1.00  0.00     0.008 C 
ATOM     19  C   UNL A   1      35.203  15.516  25.221  1.00  0.00     0.008 C 
ENDBRANCH  16  17
ENDBRANCH  11  16
ENDBRANCH   8  10
ENDBRANCH   6   8
ENDBRANCH   5   6
ENDBRANCH   4   5
ENDBRANCH   3   4
ENDBRANCH   2   3
ENDBRANCH   1   2
BRANCH   1  20
ATOM     20  C   UNL A   1      40.165  20.401  26.283  1.00  0.00     0.188 C 
BRANCH  20  21
ATOM     21  O   UNL A   1      41.474  20.181  26.762  1.00  0.00    -0.376 OA
BRANCH  21  22
ATOM     22  C   UNL A   1      42.483  20.023  25.785  1.00  0.00     0.202 C 
BRANCH  22  23
ATOM     23  C   UNL A   1      43.451  21.209  25.686  1.00  0.00     0.261 C 
BRANCH  23  24
ATOM     24  O   UNL A   1      42.868  22.456  25.263  1.00  0.00    -0.460 OA
BRANCH  24  25
ATOM     25  C   UNL A   1      43.683  23.532  25.203  1.00  0.00     0.338 C 
ATOM     26  O   UNL A   1      44.419  23.846  24.277  1.00  0.00    -0.246 OA
BRANCH  25  27
ATOM     27  C   UNL A   1      43.393  24.394  26.370  1.00  0.00     0.060 A 
ATOM     28  C   UNL A   1      42.503  23.943  27.358  1.00  0.00     0.016 A 
ATOM     29  C   UNL A   1      43.997  25.647  26.491  1.00  0.00     0.016 A 
ATOM     30  C   UNL A   1      42.192  24.759  28.449  1.00  0.00     0.010 A 
ATOM     31  C   UNL A   1      43.669  26.469  27.574  1.00  0.00     0.010 A 
ATOM     32  C   UNL A   1      42.740  26.046  28.543  1.00  0.00    -0.014 A 
BRANCH  32  33
ATOM     33  C   UNL A   1      42.217  27.021  29.535  1.00  0.00     0.031 A 
ATOM     34  C   UNL A   1      42.932  27.151  30.855  1.00  0.00     0.074 A 
ATOM     35  C   UNL A   1      41.128  27.771  29.290  1.00  0.00     0.049 A 
ATOM     36  N   UNL A   1      42.616  27.864  31.907  1.00  0.00    -0.248 NA
ATOM     37  C   UNL A   1      44.166  26.363  31.011  1.00  0.00     0.031 C 
ATOM     38  C   UNL A   1      40.365  27.780  28.043  1.00  0.00     0.029 A 
ATOM     39  N   UNL A   1      40.464  28.664  30.098  1.00  0.00    -0.354 N 
ATOM     40  C   UNL A   1      43.597  27.594  32.853  1.00  0.00     0.074 A 
ATOM     41  C   UNL A   1      44.506  26.638  32.261  1.00  0.00     0.031 C 
ATOM     42  C   UNL A   1      39.328  28.627  28.174  1.00  0.00     0.029 A 
ATOM     43  C   UNL A   1      39.330  29.187  29.525  1.00  0.00     0.049 A 
ATOM     44  H   UNL A   1      40.772  28.904  31.001  1.00  0.00     0.167 HD
ATOM     45  C   UNL A   1      43.731  28.095  34.105  1.00  0.00     0.031 A 
ATOM     46  C   UNL A   1      38.387  30.002  30.042  1.00  0.00     0.031 A 
ATOM     47  C   UNL A   1      42.825  29.039  34.702  1.00  0.00     0.049 A 
ATOM     48  C   UNL A   1      38.518  30.483  31.465  1.00  0.00     0.074 A 
ATOM     49  C   UNL A   1      42.898  29.627  35.953  1.00  0.00     0.029 A 
ATOM     50  N   UNL A   1      41.676  29.523  34.098  1.00  0.00    -0.354 N 
ATOM     51  N   UNL A   1      39.472  30.254  32.336  1.00  0.00    -0.248 NA
ATOM     52  C   UNL A   1      37.440  31.345  31.975  1.00  0.00     0.031 C 
ATOM     53  C   UNL A   1      41.755  30.413  36.133  1.00  0.00     0.029 A 
ATOM     54  C   UNL A   1      41.012  30.375  34.964  1.00  0.00     0.049 A 
ATOM     55  H   UNL A   1      41.377  29.296  33.188  1.00  0.00     0.167 HD
ATOM     56  C   UNL A   1      39.126  30.971  33.477  1.00  0.00     0.074 A 
ATOM     57  C   UNL A   1      37.886  31.655  33.183  1.00  0.00     0.031 C 
ATOM     58  C   UNL A   1      39.780  31.057  34.662  1.00  0.00     0.031 A 
BRANCH  45  59
ATOM     59  C   UNL A   1      44.880  27.594  34.935  1.00  0.00    -0.014 A 
ATOM     60  C   UNL A   1      44.755  26.464  35.759  1.00  0.00     0.009 A 
ATOM     61  C   UNL A   1      46.124  28.240  34.854  1.00  0.00     0.009 A 
ATOM     62  C   UNL A   1      45.843  26.013  36.510  1.00  0.00     0.001 A 
ATOM     63  C   UNL A   1      47.218  27.767  35.580  1.00  0.00     0.001 A 
ATOM     64  C   UNL A   1      47.075  26.660  36.414  1.00  0.00     0.000 A 
ENDBRANCH  45  59
BRANCH  46  65
ATOM     65  C   UNL A   1      37.205  30.398  29.227  1.00  0.00    -0.014 A 
ATOM     66  C   UNL A   1      36.223  29.455  28.881  1.00  0.00     0.009 A 
ATOM     67  C   UNL A   1      37.080  31.710  28.746  1.00  0.00     0.009 A 
ATOM     68  C   UNL A   1      35.163  29.809  28.043  1.00  0.00     0.001 A 
ATOM     69  C   UNL A   1      35.999  32.071  27.937  1.00  0.00     0.001 A 
ATOM     70  C   UNL A   1      35.050  31.117  27.574  1.00  0.00     0.000 A 
ENDBRANCH  46  65
BRANCH  58  71
ATOM     71  C   UNL A   1      39.200  31.965  35.714  1.00  0.00    -0.014 A 
ATOM     72  C   UNL A   1      38.219  31.519  36.612  1.00  0.00     0.009 A 
ATOM     73  C   UNL A   1      39.681  33.280  35.832  1.00  0.00     0.009 A 
ATOM     74  C   UNL A   1      37.704  32.383  37.582  1.00  0.00     0.001 A 
ATOM     75  C   UNL A   1      39.189  34.131  36.823  1.00  0.00     0.001 A 
ATOM     76  C   UNL A   1      38.192  33.685  37.690  1.00  0.00     0.000 A 
ENDBRANCH  58  71
ENDBRANCH  32  33
ENDBRANCH  25  27
ENDBRANCH  24  25
ENDBRANCH  23  24
ENDBRANCH  22  23
ENDBRANCH  21  22
ENDBRANCH  20  21
ENDBRANCH   1  20
TORSDOF 20
ENDMDL
