MODEL 1
REMARK VINA RESULT:     -10.0      0.000      0.000
REMARK SMILES CCNC(=O)c1ccc(N2C[C@@H](C)[C@H](C(=O)OCCOCCOCCOC(=O)c3ccc(-c4c5nc(c(-c6ccccc6)c6ccc([nH]6)c(-c6ccccc6)c6nc(c(-c7ccccc7)c7ccc4[nH]7)C=C6)C=C5)cc3)C2)nn1
REMARK SMILES IDX 21 1 20 2 19 3 18 4 17 5 15 6 16 7 14 8 10 9 11 10 77 11
REMARK SMILES IDX 12 12 13 13 9 14 6 15 7 16 79 17 8 18 78 19 4 20 3 21 5 23
REMARK SMILES IDX 2 24 1 25 22 26 23 27 24 28 25 29 26 30 27 31 28 32 29 33
REMARK SMILES IDX 30 34 76 35 31 36 75 37 32 38 33 39 34 40 69 41 35 42 74 43
REMARK SMILES IDX 68 44 70 45 36 46 73 47 67 48 66 49 37 51 59 52 44 53 58 54
REMARK SMILES IDX 45 55 48 56 57 57 71 58 46 59 47 60 56 62 72 63 49 64 38 65
REMARK SMILES IDX 39 66 43 67 40 68 42 69 41 70 60 71 61 72 65 73 62 74 64 75
REMARK SMILES IDX 63 76 50 77 51 78 55 79 52 80 54 81 53 82
REMARK H PARENT 3 22 70 50 48 61
REMARK Flexibility Score: inf
ROOT
ATOM      1  C   UNL A   1      40.310  22.563  27.255  1.00  0.00     0.188 C 
ENDROOT
BRANCH   1   2
ATOM      2  O   UNL A   1      39.332  23.328  26.570  1.00  0.00    -0.376 OA
BRANCH   2   3
ATOM      3  C   UNL A   1      38.266  22.649  25.911  1.00  0.00     0.202 C 
BRANCH   3   4
ATOM      4  C   UNL A   1      37.347  23.421  24.941  1.00  0.00     0.261 C 
BRANCH   4   5
ATOM      5  O   UNL A   1      36.046  22.832  24.688  1.00  0.00    -0.463 OA
BRANCH   5   6
ATOM      6  C   UNL A   1      35.069  23.690  24.296  1.00  0.00     0.311 C 
ATOM      7  O   UNL A   1      34.902  24.044  23.132  1.00  0.00    -0.252 OA
BRANCH   6   8
ATOM      8  C   UNL A   1      34.128  24.181  25.393  1.00  0.00     0.123 C 
ATOM      9  N   UNL A   1      32.632  22.507  26.025  1.00  0.00    -0.354 N 
ATOM     10  C   UNL A   1      31.750  23.611  25.721  1.00  0.00     0.122 C 
ATOM     11  C   UNL A   1      33.948  23.028  26.382  1.00  0.00     0.133 C 
ATOM     12  C   UNL A   1      32.679  24.646  25.080  1.00  0.00     0.021 C 
ATOM     13  C   UNL A   1      32.399  26.035  25.663  1.00  0.00     0.010 C 
BRANCH   9  14
ATOM     14  C   UNL A   1      32.607  21.300  25.367  1.00  0.00     0.151 A 
ATOM     15  C   UNL A   1      32.580  18.972  23.924  1.00  0.00     0.150 A 
ATOM     16  C   UNL A   1      32.901  18.907  25.264  1.00  0.00     0.040 A 
ATOM     17  N   UNL A   1      32.269  20.133  23.319  1.00  0.00    -0.143 NA
ATOM     18  C   UNL A   1      32.901  20.093  25.994  1.00  0.00     0.051 A 
ATOM     19  N   UNL A   1      32.268  21.294  24.058  1.00  0.00    -0.132 NA
BRANCH  15  20
ATOM     20  C   UNL A   1      32.632  17.771  23.061  1.00  0.00     0.271 C 
ATOM     21  N   UNL A   1      33.211  16.610  23.518  1.00  0.00    -0.351 N 
ATOM     22  H   UNL A   1      33.339  15.910  22.837  1.00  0.00     0.163 HD
ATOM     23  O   UNL A   1      32.189  17.812  21.916  1.00  0.00    -0.267 OA
BRANCH  21  24
ATOM     24  C   UNL A   1      33.663  16.262  24.853  1.00  0.00     0.113 C 
ATOM     25  C   UNL A   1      32.916  15.051  25.378  1.00  0.00     0.027 C 
ENDBRANCH  21  24
ENDBRANCH  15  20
ENDBRANCH   9  14
ENDBRANCH   6   8
ENDBRANCH   5   6
ENDBRANCH   4   5
ENDBRANCH   3   4
ENDBRANCH   2   3
ENDBRANCH   1   2
BRANCH   1  26
ATOM     26  C   UNL A   1      40.473  21.084  26.887  1.00  0.00     0.188 C 
BRANCH  26  27
ATOM     27  O   UNL A   1      41.796  20.640  26.719  1.00  0.00    -0.376 OA
BRANCH  27  28
ATOM     28  C   UNL A   1      42.059  19.249  26.639  1.00  0.00     0.202 C 
BRANCH  28  29
ATOM     29  C   UNL A   1      43.181  18.672  25.752  1.00  0.00     0.261 C 
BRANCH  29  30
ATOM     30  O   UNL A   1      43.455  19.337  24.510  1.00  0.00    -0.460 OA
BRANCH  30  31
ATOM     31  C   UNL A   1      44.756  19.568  24.205  1.00  0.00     0.338 C 
ATOM     32  O   UNL A   1      45.497  18.855  23.560  1.00  0.00    -0.246 OA
BRANCH  31  33
ATOM     33  C   UNL A   1      45.038  20.980  24.565  1.00  0.00     0.060 A 
ATOM     34  C   UNL A   1      45.591  21.261  25.824  1.00  0.00     0.016 A 
ATOM     35  C   UNL A   1      44.797  22.010  23.655  1.00  0.00     0.016 A 
ATOM     36  C   UNL A   1      45.889  22.577  26.183  1.00  0.00     0.010 A 
ATOM     37  C   UNL A   1      45.066  23.329  24.027  1.00  0.00     0.010 A 
ATOM     38  C   UNL A   1      45.585  23.621  25.301  1.00  0.00    -0.014 A 
BRANCH  38  39
ATOM     39  C   UNL A   1      45.594  25.024  25.780  1.00  0.00     0.031 A 
ATOM     40  C   UNL A   1      46.904  25.762  25.773  1.00  0.00     0.074 A 
ATOM     41  C   UNL A   1      44.479  25.636  26.212  1.00  0.00     0.049 A 
ATOM     42  N   UNL A   1      47.190  26.955  26.224  1.00  0.00    -0.248 NA
ATOM     43  C   UNL A   1      48.046  25.049  25.177  1.00  0.00     0.031 C 
ATOM     44  C   UNL A   1      43.136  25.062  26.208  1.00  0.00     0.029 A 
ATOM     45  N   UNL A   1      44.312  26.888  26.752  1.00  0.00    -0.354 N 
ATOM     46  C   UNL A   1      48.548  27.129  25.984  1.00  0.00     0.074 A 
ATOM     47  C   UNL A   1      49.032  25.909  25.375  1.00  0.00     0.031 C 
ATOM     48  C   UNL A   1      42.280  25.958  26.729  1.00  0.00     0.029 A 
ATOM     49  C   UNL A   1      43.022  27.149  27.144  1.00  0.00     0.049 A 
ATOM     50  H   UNL A   1      45.046  27.536  26.848  1.00  0.00     0.167 HD
ATOM     51  C   UNL A   1      49.326  28.205  26.244  1.00  0.00     0.031 A 
ATOM     52  C   UNL A   1      42.508  28.216  27.788  1.00  0.00     0.031 A 
ATOM     53  C   UNL A   1      48.853  29.407  26.877  1.00  0.00     0.049 A 
ATOM     54  C   UNL A   1      43.413  29.358  28.172  1.00  0.00     0.074 A 
ATOM     55  C   UNL A   1      49.561  30.555  27.186  1.00  0.00     0.029 A 
ATOM     56  N   UNL A   1      47.551  29.609  27.311  1.00  0.00    -0.354 N 
ATOM     57  N   UNL A   1      44.694  29.518  27.935  1.00  0.00    -0.248 NA
ATOM     58  C   UNL A   1      42.797  30.469  28.913  1.00  0.00     0.031 C 
ATOM     59  C   UNL A   1      48.702  31.425  27.866  1.00  0.00     0.029 A 
ATOM     60  C   UNL A   1      47.442  30.850  27.914  1.00  0.00     0.049 A 
ATOM     61  H   UNL A   1      46.815  28.964  27.206  1.00  0.00     0.167 HD
ATOM     62  C   UNL A   1      45.026  30.761  28.464  1.00  0.00     0.074 A 
ATOM     63  C   UNL A   1      43.813  31.315  29.027  1.00  0.00     0.031 C 
ATOM     64  C   UNL A   1      46.228  31.390  28.474  1.00  0.00     0.031 A 
BRANCH  51  65
ATOM     65  C   UNL A   1      50.784  28.095  25.890  1.00  0.00    -0.014 A 
ATOM     66  C   UNL A   1      51.265  28.487  24.630  1.00  0.00     0.009 A 
ATOM     67  C   UNL A   1      51.688  27.579  26.831  1.00  0.00     0.009 A 
ATOM     68  C   UNL A   1      52.612  28.314  24.303  1.00  0.00     0.001 A 
ATOM     69  C   UNL A   1      53.040  27.441  26.513  1.00  0.00     0.001 A 
ATOM     70  C   UNL A   1      53.499  27.795  25.245  1.00  0.00     0.000 A 
ENDBRANCH  51  65
BRANCH  52  71
ATOM     71  C   UNL A   1      41.061  28.255  28.124  1.00  0.00    -0.014 A 
ATOM     72  C   UNL A   1      40.157  28.941  27.298  1.00  0.00     0.009 A 
ATOM     73  C   UNL A   1      40.574  27.618  29.277  1.00  0.00     0.009 A 
ATOM     74  C   UNL A   1      38.801  29.002  27.628  1.00  0.00     0.001 A 
ATOM     75  C   UNL A   1      39.214  27.656  29.589  1.00  0.00     0.001 A 
ATOM     76  C   UNL A   1      38.329  28.354  28.769  1.00  0.00     0.000 A 
ENDBRANCH  52  71
BRANCH  64  77
ATOM     77  C   UNL A   1      46.286  32.772  29.068  1.00  0.00    -0.014 A 
ATOM     78  C   UNL A   1      46.044  33.918  28.293  1.00  0.00     0.009 A 
ATOM     79  C   UNL A   1      46.537  32.924  30.441  1.00  0.00     0.009 A 
ATOM     80  C   UNL A   1      46.085  35.186  28.877  1.00  0.00     0.001 A 
ATOM     81  C   UNL A   1      46.544  34.190  31.028  1.00  0.00     0.001 A 
ATOM     82  C   UNL A   1      46.329  35.321  30.244  1.00  0.00     0.000 A 
ENDBRANCH  64  77
ENDBRANCH  38  39
ENDBRANCH  31  33
ENDBRANCH  30  31
ENDBRANCH  29  30
ENDBRANCH  28  29
ENDBRANCH  27  28
ENDBRANCH  26  27
ENDBRANCH   1  26
TORSDOF 20
ENDMDL
MODEL 2
REMARK VINA RESULT:     -10.0      2.766      6.923
REMARK SMILES CCNC(=O)c1ccc(N2C[C@@H](C)[C@H](C(=O)OCCOCCOCCOC(=O)c3ccc(-c4c5nc(c(-c6ccccc6)c6ccc([nH]6)c(-c6ccccc6)c6nc(c(-c7ccccc7)c7ccc4[nH]7)C=C6)C=C5)cc3)C2)nn1
REMARK SMILES IDX 21 1 20 2 19 3 18 4 17 5 15 6 16 7 14 8 10 9 11 10 77 11
REMARK SMILES IDX 12 12 13 13 9 14 6 15 7 16 79 17 8 18 78 19 4 20 3 21 5 23
REMARK SMILES IDX 2 24 1 25 22 26 23 27 24 28 25 29 26 30 27 31 28 32 29 33
REMARK SMILES IDX 30 34 76 35 31 36 75 37 32 38 33 39 34 40 69 41 35 42 74 43
REMARK SMILES IDX 68 44 70 45 36 46 73 47 67 48 66 49 37 51 59 52 44 53 58 54
REMARK SMILES IDX 45 55 48 56 57 57 71 58 46 59 47 60 56 62 72 63 49 64 38 65
REMARK SMILES IDX 39 66 43 67 40 68 42 69 41 70 60 71 61 72 65 73 62 74 64 75
REMARK SMILES IDX 63 76 50 77 51 78 55 79 52 80 54 81 53 82
REMARK H PARENT 3 22 70 50 48 61
REMARK Flexibility Score: inf
ROOT
ATOM      1  C   UNL A   1      41.218  20.097  27.275  1.00  0.00     0.188 C 
ENDROOT
BRANCH   1   2
ATOM      2  O   UNL A   1      40.329  21.201  27.228  1.00  0.00    -0.376 OA
BRANCH   2   3
ATOM      3  C   UNL A   1      39.424  21.308  26.131  1.00  0.00     0.202 C 
BRANCH   3   4
ATOM      4  C   UNL A   1      38.572  22.582  25.961  1.00  0.00     0.261 C 
BRANCH   4   5
ATOM      5  O   UNL A   1      37.133  22.400  25.998  1.00  0.00    -0.463 OA
BRANCH   5   6
ATOM      6  C   UNL A   1      36.404  23.244  25.223  1.00  0.00     0.311 C 
ATOM      7  O   UNL A   1      36.616  23.424  24.026  1.00  0.00    -0.252 OA
BRANCH   6   8
ATOM      8  C   UNL A   1      35.244  23.954  25.914  1.00  0.00     0.123 C 
ATOM      9  N   UNL A   1      33.370  22.571  26.041  1.00  0.00    -0.354 N 
ATOM     10  C   UNL A   1      32.834  23.760  25.419  1.00  0.00     0.122 C 
ATOM     11  C   UNL A   1      34.556  22.925  26.814  1.00  0.00     0.133 C 
ATOM     12  C   UNL A   1      34.080  24.594  25.108  1.00  0.00     0.021 C 
ATOM     13  C   UNL A   1      33.851  26.053  25.519  1.00  0.00     0.010 C 
BRANCH   9  14
ATOM     14  C   UNL A   1      33.371  21.329  25.449  1.00  0.00     0.151 A 
ATOM     15  C   UNL A   1      33.245  18.898  24.194  1.00  0.00     0.150 A 
ATOM     16  C   UNL A   1      34.468  19.325  24.672  1.00  0.00     0.040 A 
ATOM     17  N   UNL A   1      32.126  19.628  24.341  1.00  0.00    -0.143 NA
ATOM     18  C   UNL A   1      34.521  20.557  25.319  1.00  0.00     0.051 A 
ATOM     19  N   UNL A   1      32.197  20.841  24.989  1.00  0.00    -0.132 NA
BRANCH  15  20
ATOM     20  C   UNL A   1      33.117  17.639  23.428  1.00  0.00     0.271 C 
ATOM     21  N   UNL A   1      33.546  16.448  23.967  1.00  0.00    -0.351 N 
ATOM     22  H   UNL A   1      33.564  15.688  23.341  1.00  0.00     0.163 HD
ATOM     23  O   UNL A   1      32.658  17.652  22.288  1.00  0.00    -0.267 OA
BRANCH  21  24
ATOM     24  C   UNL A   1      33.976  16.144  25.320  1.00  0.00     0.113 C 
ATOM     25  C   UNL A   1      35.465  15.859  25.362  1.00  0.00     0.027 C 
ENDBRANCH  21  24
ENDBRANCH  15  20
ENDBRANCH   9  14
ENDBRANCH   6   8
ENDBRANCH   5   6
ENDBRANCH   4   5
ENDBRANCH   3   4
ENDBRANCH   2   3
ENDBRANCH   1   2
BRANCH   1  26
ATOM     26  C   UNL A   1      41.384  19.236  26.018  1.00  0.00     0.188 C 
BRANCH  26  27
ATOM     27  O   UNL A   1      42.519  19.513  25.236  1.00  0.00    -0.376 OA
BRANCH  27  28
ATOM     28  C   UNL A   1      43.556  20.318  25.774  1.00  0.00     0.202 C 
BRANCH  28  29
ATOM     29  C   UNL A   1      43.875  21.724  25.226  1.00  0.00     0.261 C 
BRANCH  29  30
ATOM     30  O   UNL A   1      44.515  22.653  26.112  1.00  0.00    -0.460 OA
BRANCH  30  31
ATOM     31  C   UNL A   1      43.724  23.568  26.726  1.00  0.00     0.338 C 
ATOM     32  O   UNL A   1      42.715  23.355  27.366  1.00  0.00    -0.246 OA
BRANCH  31  33
ATOM     33  C   UNL A   1      44.464  24.855  26.712  1.00  0.00     0.060 A 
ATOM     34  C   UNL A   1      44.536  25.581  25.513  1.00  0.00     0.016 A 
ATOM     35  C   UNL A   1      45.044  25.357  27.877  1.00  0.00     0.016 A 
ATOM     36  C   UNL A   1      45.204  26.806  25.473  1.00  0.00     0.010 A 
ATOM     37  C   UNL A   1      45.740  26.566  27.829  1.00  0.00     0.010 A 
ATOM     38  C   UNL A   1      45.848  27.282  26.622  1.00  0.00    -0.014 A 
BRANCH  38  39
ATOM     39  C   UNL A   1      46.817  28.399  26.522  1.00  0.00     0.031 A 
ATOM     40  C   UNL A   1      46.284  29.803  26.602  1.00  0.00     0.074 A 
ATOM     41  C   UNL A   1      48.134  28.187  26.364  1.00  0.00     0.049 A 
ATOM     42  N   UNL A   1      46.908  30.941  26.449  1.00  0.00    -0.248 NA
ATOM     43  C   UNL A   1      44.845  29.935  26.888  1.00  0.00     0.031 C 
ATOM     44  C   UNL A   1      48.790  26.883  26.341  1.00  0.00     0.029 A 
ATOM     45  N   UNL A   1      49.157  29.086  26.182  1.00  0.00    -0.354 N 
ATOM     46  C   UNL A   1      45.937  31.923  26.602  1.00  0.00     0.074 A 
ATOM     47  C   UNL A   1      44.679  31.246  26.830  1.00  0.00     0.031 C 
ATOM     48  C   UNL A   1      50.109  27.065  26.147  1.00  0.00     0.029 A 
ATOM     49  C   UNL A   1      50.380  28.494  25.988  1.00  0.00     0.049 A 
ATOM     50  H   UNL A   1      49.025  30.061  26.191  1.00  0.00     0.167 HD
ATOM     51  C   UNL A   1      46.076  33.269  26.559  1.00  0.00     0.031 A 
ATOM     52  C   UNL A   1      51.575  29.042  25.689  1.00  0.00     0.031 A 
ATOM     53  C   UNL A   1      47.319  33.943  26.303  1.00  0.00     0.049 A 
ATOM     54  C   UNL A   1      51.687  30.536  25.532  1.00  0.00     0.074 A 
ATOM     55  C   UNL A   1      47.566  35.303  26.238  1.00  0.00     0.029 A 
ATOM     56  N   UNL A   1      48.526  33.305  26.054  1.00  0.00    -0.354 N 
ATOM     57  N   UNL A   1      50.766  31.459  25.687  1.00  0.00    -0.248 NA
ATOM     58  C   UNL A   1      53.008  31.065  25.161  1.00  0.00     0.031 C 
ATOM     59  C   UNL A   1      48.907  35.486  25.884  1.00  0.00     0.029 A 
ATOM     60  C   UNL A   1      49.513  34.241  25.803  1.00  0.00     0.049 A 
ATOM     61  H   UNL A   1      48.658  32.329  26.055  1.00  0.00     0.167 HD
ATOM     62  C   UNL A   1      51.405  32.675  25.468  1.00  0.00     0.074 A 
ATOM     63  C   UNL A   1      52.791  32.373  25.178  1.00  0.00     0.031 C 
ATOM     64  C   UNL A   1      50.890  33.929  25.513  1.00  0.00     0.031 A 
BRANCH  51  65
ATOM     65  C   UNL A   1      44.828  34.089  26.741  1.00  0.00    -0.014 A 
ATOM     66  C   UNL A   1      44.011  34.436  25.652  1.00  0.00     0.009 A 
ATOM     67  C   UNL A   1      44.471  34.532  28.024  1.00  0.00     0.009 A 
ATOM     68  C   UNL A   1      42.894  35.253  25.839  1.00  0.00     0.001 A 
ATOM     69  C   UNL A   1      43.333  35.318  28.212  1.00  0.00     0.001 A 
ATOM     70  C   UNL A   1      42.554  35.691  27.118  1.00  0.00     0.000 A 
ENDBRANCH  51  65
BRANCH  52  71
ATOM     71  C   UNL A   1      52.767  28.173  25.506  1.00  0.00    -0.014 A 
ATOM     72  C   UNL A   1      53.722  28.051  26.528  1.00  0.00     0.009 A 
ATOM     73  C   UNL A   1      52.965  27.470  24.307  1.00  0.00     0.009 A 
ATOM     74  C   UNL A   1      54.856  27.257  26.345  1.00  0.00     0.001 A 
ATOM     75  C   UNL A   1      54.086  26.654  24.138  1.00  0.00     0.001 A 
ATOM     76  C   UNL A   1      55.035  26.554  25.155  1.00  0.00     0.000 A 
ENDBRANCH  52  71
BRANCH  64  77
ATOM     77  C   UNL A   1      51.836  35.079  25.292  1.00  0.00    -0.014 A 
ATOM     78  C   UNL A   1      52.031  35.639  24.019  1.00  0.00     0.009 A 
ATOM     79  C   UNL A   1      52.506  35.643  26.390  1.00  0.00     0.009 A 
ATOM     80  C   UNL A   1      52.902  36.718  23.849  1.00  0.00     0.001 A 
ATOM     81  C   UNL A   1      53.348  36.743  26.222  1.00  0.00     0.001 A 
ATOM     82  C   UNL A   1      53.554  37.273  24.950  1.00  0.00     0.000 A 
ENDBRANCH  64  77
ENDBRANCH  38  39
ENDBRANCH  31  33
ENDBRANCH  30  31
ENDBRANCH  29  30
ENDBRANCH  28  29
ENDBRANCH  27  28
ENDBRANCH  26  27
ENDBRANCH   1  26
TORSDOF 20
ENDMDL
MODEL 3
REMARK VINA RESULT:      -9.8      2.016      7.083
REMARK SMILES CCNC(=O)c1ccc(N2C[C@@H](C)[C@H](C(=O)OCCOCCOCCOC(=O)c3ccc(-c4c5nc(c(-c6ccccc6)c6ccc([nH]6)c(-c6ccccc6)c6nc(c(-c7ccccc7)c7ccc4[nH]7)C=C6)C=C5)cc3)C2)nn1
REMARK SMILES IDX 21 1 20 2 19 3 18 4 17 5 15 6 16 7 14 8 10 9 11 10 77 11
REMARK SMILES IDX 12 12 13 13 9 14 6 15 7 16 79 17 8 18 78 19 4 20 3 21 5 23
REMARK SMILES IDX 2 24 1 25 22 26 23 27 24 28 25 29 26 30 27 31 28 32 29 33
REMARK SMILES IDX 30 34 76 35 31 36 75 37 32 38 33 39 34 40 69 41 35 42 74 43
REMARK SMILES IDX 68 44 70 45 36 46 73 47 67 48 66 49 37 51 59 52 44 53 58 54
REMARK SMILES IDX 45 55 48 56 57 57 71 58 46 59 47 60 56 62 72 63 49 64 38 65
REMARK SMILES IDX 39 66 43 67 40 68 42 69 41 70 60 71 61 72 65 73 62 74 64 75
REMARK SMILES IDX 63 76 50 77 51 78 55 79 52 80 54 81 53 82
REMARK H PARENT 3 22 70 50 48 61
REMARK Flexibility Score: inf
ROOT
ATOM      1  C   UNL A   1      40.633  22.131  26.580  1.00  0.00     0.188 C 
ENDROOT
BRANCH   1   2
ATOM      2  O   UNL A   1      39.275  22.539  26.597  1.00  0.00    -0.376 OA
BRANCH   2   3
ATOM      3  C   UNL A   1      38.372  21.962  25.656  1.00  0.00     0.202 C 
BRANCH   3   4
ATOM      4  C   UNL A   1      36.851  22.146  25.838  1.00  0.00     0.261 C 
BRANCH   4   5
ATOM      5  O   UNL A   1      36.265  23.306  25.194  1.00  0.00    -0.463 OA
BRANCH   5   6
ATOM      6  C   UNL A   1      34.908  23.349  25.160  1.00  0.00     0.311 C 
ATOM      7  O   UNL A   1      34.234  24.101  25.859  1.00  0.00    -0.252 OA
BRANCH   6   8
ATOM      8  C   UNL A   1      34.233  22.420  24.155  1.00  0.00     0.123 C 
ATOM      9  N   UNL A   1      32.791  23.606  22.757  1.00  0.00    -0.354 N 
ATOM     10  C   UNL A   1      31.935  22.559  23.267  1.00  0.00     0.122 C 
ATOM     11  C   UNL A   1      34.180  23.164  22.819  1.00  0.00     0.133 C 
ATOM     12  C   UNL A   1      32.781  21.907  24.364  1.00  0.00     0.021 C 
ATOM     13  C   UNL A   1      32.706  20.380  24.247  1.00  0.00     0.010 C 
BRANCH   9  14
ATOM     14  C   UNL A   1      32.563  24.948  22.955  1.00  0.00     0.151 A 
ATOM     15  C   UNL A   1      32.049  27.585  23.486  1.00  0.00     0.150 A 
ATOM     16  C   UNL A   1      33.056  27.282  22.592  1.00  0.00     0.040 A 
ATOM     17  N   UNL A   1      31.312  26.631  24.083  1.00  0.00    -0.143 NA
ATOM     18  C   UNL A   1      33.304  25.940  22.319  1.00  0.00     0.051 A 
ATOM     19  N   UNL A   1      31.568  25.309  23.796  1.00  0.00    -0.132 NA
BRANCH  15  20
ATOM     20  C   UNL A   1      31.773  28.982  23.889  1.00  0.00     0.271 C 
ATOM     21  N   UNL A   1      30.846  29.734  23.206  1.00  0.00    -0.351 N 
ATOM     22  H   UNL A   1      30.831  30.691  23.439  1.00  0.00     0.163 HD
ATOM     23  O   UNL A   1      32.396  29.492  24.817  1.00  0.00    -0.267 OA
BRANCH  21  24
ATOM     24  C   UNL A   1      29.889  29.330  22.193  1.00  0.00     0.113 C 
ATOM     25  C   UNL A   1      29.155  30.533  21.631  1.00  0.00     0.027 C 
ENDBRANCH  21  24
ENDBRANCH  15  20
ENDBRANCH   9  14
ENDBRANCH   6   8
ENDBRANCH   5   6
ENDBRANCH   4   5
ENDBRANCH   3   4
ENDBRANCH   2   3
ENDBRANCH   1   2
BRANCH   1  26
ATOM     26  C   UNL A   1      40.955  20.675  26.225  1.00  0.00     0.188 C 
BRANCH  26  27
ATOM     27  O   UNL A   1      42.144  20.163  26.775  1.00  0.00    -0.376 OA
BRANCH  27  28
ATOM     28  C   UNL A   1      42.548  18.842  26.454  1.00  0.00     0.202 C 
BRANCH  28  29
ATOM     29  C   UNL A   1      43.689  18.548  25.460  1.00  0.00     0.261 C 
BRANCH  29  30
ATOM     30  O   UNL A   1      43.919  19.499  24.411  1.00  0.00    -0.460 OA
BRANCH  30  31
ATOM     31  C   UNL A   1      45.181  19.975  24.271  1.00  0.00     0.338 C 
ATOM     32  O   UNL A   1      46.079  19.492  23.613  1.00  0.00    -0.246 OA
BRANCH  31  33
ATOM     33  C   UNL A   1      45.191  21.344  24.844  1.00  0.00     0.060 A 
ATOM     34  C   UNL A   1      44.950  22.436  23.995  1.00  0.00     0.016 A 
ATOM     35  C   UNL A   1      45.393  21.544  26.210  1.00  0.00     0.016 A 
ATOM     36  C   UNL A   1      44.929  23.734  24.509  1.00  0.00     0.010 A 
ATOM     37  C   UNL A   1      45.404  22.845  26.717  1.00  0.00     0.010 A 
ATOM     38  C   UNL A   1      45.201  23.946  25.866  1.00  0.00    -0.014 A 
BRANCH  38  39
ATOM     39  C   UNL A   1      45.496  25.313  26.359  1.00  0.00     0.031 A 
ATOM     40  C   UNL A   1      44.356  26.126  26.906  1.00  0.00     0.074 A 
ATOM     41  C   UNL A   1      46.736  25.828  26.327  1.00  0.00     0.049 A 
ATOM     42  N   UNL A   1      44.338  27.370  27.308  1.00  0.00    -0.248 NA
ATOM     43  C   UNL A   1      43.058  25.438  27.004  1.00  0.00     0.031 C 
ATOM     44  C   UNL A   1      47.940  25.126  25.890  1.00  0.00     0.029 A 
ATOM     45  N   UNL A   1      47.180  27.083  26.669  1.00  0.00    -0.354 N 
ATOM     46  C   UNL A   1      43.025  27.619  27.691  1.00  0.00     0.074 A 
ATOM     47  C   UNL A   1      42.273  26.408  27.444  1.00  0.00     0.031 C 
ATOM     48  C   UNL A   1      48.988  25.964  25.981  1.00  0.00     0.029 A 
ATOM     49  C   UNL A   1      48.520  27.272  26.440  1.00  0.00     0.049 A 
ATOM     50  H   UNL A   1      46.593  27.779  27.041  1.00  0.00     0.167 HD
ATOM     51  C   UNL A   1      42.490  28.752  28.203  1.00  0.00     0.031 A 
ATOM     52  C   UNL A   1      49.275  28.382  26.563  1.00  0.00     0.031 A 
ATOM     53  C   UNL A   1      43.229  29.965  28.420  1.00  0.00     0.049 A 
ATOM     54  C   UNL A   1      48.637  29.666  27.026  1.00  0.00     0.074 A 
ATOM     55  C   UNL A   1      42.780  31.169  28.934  1.00  0.00     0.029 A 
ATOM     56  N   UNL A   1      44.574  30.134  28.122  1.00  0.00    -0.354 N 
ATOM     57  N   UNL A   1      47.397  29.892  27.393  1.00  0.00    -0.248 NA
ATOM     58  C   UNL A   1      49.507  30.850  27.094  1.00  0.00     0.031 C 
ATOM     59  C   UNL A   1      43.837  32.085  28.884  1.00  0.00     0.029 A 
ATOM     60  C   UNL A   1      44.963  31.430  28.410  1.00  0.00     0.049 A 
ATOM     61  H   UNL A   1      45.163  29.434  27.758  1.00  0.00     0.167 HD
ATOM     62  C   UNL A   1      47.349  31.230  27.769  1.00  0.00     0.074 A 
ATOM     63  C   UNL A   1      48.684  31.763  27.592  1.00  0.00     0.031 C 
ATOM     64  C   UNL A   1      46.295  31.950  28.228  1.00  0.00     0.031 A 
BRANCH  51  65
ATOM     65  C   UNL A   1      41.016  28.733  28.506  1.00  0.00    -0.014 A 
ATOM     66  C   UNL A   1      40.063  29.093  27.539  1.00  0.00     0.009 A 
ATOM     67  C   UNL A   1      40.578  28.362  29.786  1.00  0.00     0.009 A 
ATOM     68  C   UNL A   1      38.705  29.130  27.865  1.00  0.00     0.001 A 
ATOM     69  C   UNL A   1      39.217  28.365  30.098  1.00  0.00     0.001 A 
ATOM     70  C   UNL A   1      38.283  28.764  29.143  1.00  0.00     0.000 A 
ENDBRANCH  51  65
BRANCH  52  71
ATOM     71  C   UNL A   1      50.724  28.337  26.231  1.00  0.00    -0.014 A 
ATOM     72  C   UNL A   1      51.673  28.064  27.228  1.00  0.00     0.009 A 
ATOM     73  C   UNL A   1      51.167  28.578  24.920  1.00  0.00     0.009 A 
ATOM     74  C   UNL A   1      53.036  28.049  26.921  1.00  0.00     0.001 A 
ATOM     75  C   UNL A   1      52.528  28.533  24.612  1.00  0.00     0.001 A 
ATOM     76  C   UNL A   1      53.462  28.277  25.614  1.00  0.00     0.000 A 
ENDBRANCH  52  71
BRANCH  64  77
ATOM     77  C   UNL A   1      46.547  33.381  28.621  1.00  0.00    -0.014 A 
ATOM     78  C   UNL A   1      46.975  33.726  29.913  1.00  0.00     0.009 A 
ATOM     79  C   UNL A   1      46.402  34.397  27.662  1.00  0.00     0.009 A 
ATOM     80  C   UNL A   1      47.220  35.061  30.243  1.00  0.00     0.001 A 
ATOM     81  C   UNL A   1      46.680  35.726  27.985  1.00  0.00     0.001 A 
ATOM     82  C   UNL A   1      47.079  36.059  29.278  1.00  0.00     0.000 A 
ENDBRANCH  64  77
ENDBRANCH  38  39
ENDBRANCH  31  33
ENDBRANCH  30  31
ENDBRANCH  29  30
ENDBRANCH  28  29
ENDBRANCH  27  28
ENDBRANCH  26  27
ENDBRANCH   1  26
TORSDOF 20
ENDMDL
