MODEL 1
REMARK VINA RESULT:     -11.2      0.000      0.000
REMARK SMILES COc1ccc2c(CC(=O)OCCOCCOCCOC(=O)c3ccc(-c4c5nc(c(-c6ccccc6)c6ccc([nH]6)c(-c6ccccc6)c6nc(c(-c7ccccc7)c7ccc4[nH]7)C=C6)C=C5)cc3)c(C(=O)c3cc(C)ccn3)[nH]c2c1
REMARK SMILES IDX 15 1 14 2 13 3 12 4 11 5 9 6 10 7 8 8 7 9 3 10 4 11 83 12
REMARK SMILES IDX 5 13 82 14 6 15 81 16 71 17 2 19 1 20 72 21 73 22 74 23
REMARK SMILES IDX 75 24 80 25 76 26 79 27 77 28 78 29 16 30 17 31 18 32 19 33
REMARK SMILES IDX 20 34 21 35 22 36 23 37 24 38 70 39 25 40 69 41 26 42 27 43
REMARK SMILES IDX 28 44 63 45 29 46 68 47 62 48 64 49 30 50 67 51 61 52 60 53
REMARK SMILES IDX 31 55 53 56 38 57 52 58 39 59 42 60 51 61 65 62 40 63 41 64
REMARK SMILES IDX 50 66 66 67 43 68 32 69 33 70 37 71 34 72 36 73 35 74 54 75
REMARK SMILES IDX 55 76 59 77 56 78 58 79 57 80 44 81 45 82 49 83 46 84 48 85
REMARK SMILES IDX 47 86
REMARK H PARENT 81 18 64 54 42 65
REMARK Flexibility Score: inf
ROOT
ATOM      1  C   UNL A   1      35.475  33.075  28.077  1.00  0.00     0.188 C 
ENDROOT
BRANCH   1   2
ATOM      2  O   UNL A   1      35.178  31.779  27.558  1.00  0.00    -0.376 OA
BRANCH   2   3
ATOM      3  C   UNL A   1      33.969  31.153  27.970  1.00  0.00     0.202 C 
BRANCH   3   4
ATOM      4  C   UNL A   1      33.188  30.435  26.864  1.00  0.00     0.261 C 
BRANCH   4   5
ATOM      5  O   UNL A   1      32.842  29.086  27.242  1.00  0.00    -0.463 OA
BRANCH   5   6
ATOM      6  C   UNL A   1      31.754  28.538  26.643  1.00  0.00     0.310 C 
ATOM      7  O   UNL A   1      31.031  27.704  27.182  1.00  0.00    -0.252 OA
BRANCH   6   8
ATOM      8  C   UNL A   1      31.393  29.189  25.315  1.00  0.00     0.161 C 
BRANCH   8   9
ATOM      9  C   UNL A   1      31.419  28.340  24.065  1.00  0.00     0.000 A 
ATOM     10  C   UNL A   1      33.678  25.013  22.837  1.00  0.00     0.120 A 
ATOM     11  C   UNL A   1      34.138  25.650  23.989  1.00  0.00     0.047 A 
ATOM     12  C   UNL A   1      32.638  25.558  22.082  1.00  0.00     0.073 A 
ATOM     13  C   UNL A   1      33.509  26.811  24.462  1.00  0.00     0.014 A 
ATOM     14  C   UNL A   1      31.998  26.690  22.596  1.00  0.00     0.050 A 
ATOM     15  C   UNL A   1      32.386  27.317  23.777  1.00  0.00     0.004 A 
ATOM     16  N   UNL A   1      30.906  27.372  22.122  1.00  0.00    -0.351 N 
ATOM     17  C   UNL A   1      30.401  28.190  23.110  1.00  0.00     0.093 A 
ATOM     18  H   UNL A   1      30.538  27.289  21.213  1.00  0.00     0.167 HD
BRANCH  10  19
ATOM     19  O   UNL A   1      34.223  23.851  22.356  1.00  0.00    -0.497 OA
ATOM     20  C   UNL A   1      33.840  22.704  23.115  1.00  0.00     0.278 C 
ENDBRANCH  10  19
BRANCH  17  21
ATOM     21  C   UNL A   1      29.029  28.676  23.125  1.00  0.00     0.227 C 
ATOM     22  O   UNL A   1      28.083  28.002  23.524  1.00  0.00    -0.285 OA
BRANCH  21  23
ATOM     23  C   UNL A   1      28.728  30.035  22.587  1.00  0.00     0.113 A 
ATOM     24  C   UNL A   1      29.065  31.172  23.318  1.00  0.00     0.036 A 
ATOM     25  N   UNL A   1      28.193  30.068  21.340  1.00  0.00    -0.253 NA
ATOM     26  C   UNL A   1      28.863  32.423  22.725  1.00  0.00    -0.047 A 
ATOM     27  C   UNL A   1      28.068  31.287  20.772  1.00  0.00     0.112 A 
ATOM     28  C   UNL A   1      29.157  33.704  23.451  1.00  0.00     0.044 C 
ATOM     29  C   UNL A   1      28.391  32.473  21.412  1.00  0.00     0.023 A 
ENDBRANCH  21  23
ENDBRANCH  17  21
ENDBRANCH   8   9
ENDBRANCH   6   8
ENDBRANCH   5   6
ENDBRANCH   4   5
ENDBRANCH   3   4
ENDBRANCH   2   3
ENDBRANCH   1   2
BRANCH   1  30
ATOM     30  C   UNL A   1      34.506  33.716  29.095  1.00  0.00     0.188 C 
BRANCH  30  31
ATOM     31  O   UNL A   1      34.368  35.123  28.939  1.00  0.00    -0.376 OA
BRANCH  31  32
ATOM     32  C   UNL A   1      33.029  35.593  29.023  1.00  0.00     0.202 C 
BRANCH  32  33
ATOM     33  C   UNL A   1      32.903  36.738  30.023  1.00  0.00     0.261 C 
BRANCH  33  34
ATOM     34  O   UNL A   1      32.069  36.365  31.143  1.00  0.00    -0.460 OA
BRANCH  34  35
ATOM     35  C   UNL A   1      32.617  36.393  32.367  1.00  0.00     0.338 C 
ATOM     36  O   UNL A   1      32.316  37.158  33.285  1.00  0.00    -0.246 OA
BRANCH  35  37
ATOM     37  C   UNL A   1      33.694  35.384  32.486  1.00  0.00     0.060 A 
ATOM     38  C   UNL A   1      33.436  34.057  32.845  1.00  0.00     0.016 A 
ATOM     39  C   UNL A   1      35.017  35.804  32.351  1.00  0.00     0.016 A 
ATOM     40  C   UNL A   1      34.485  33.181  33.145  1.00  0.00     0.010 A 
ATOM     41  C   UNL A   1      36.065  34.907  32.585  1.00  0.00     0.010 A 
ATOM     42  C   UNL A   1      35.816  33.592  33.022  1.00  0.00    -0.014 A 
BRANCH  42  43
ATOM     43  C   UNL A   1      36.953  32.704  33.401  1.00  0.00     0.031 A 
ATOM     44  C   UNL A   1      37.643  32.894  34.729  1.00  0.00     0.074 A 
ATOM     45  C   UNL A   1      37.403  31.741  32.572  1.00  0.00     0.049 A 
ATOM     46  N   UNL A   1      38.791  32.422  35.146  1.00  0.00    -0.248 NA
ATOM     47  C   UNL A   1      36.946  33.737  35.714  1.00  0.00     0.031 C 
ATOM     48  C   UNL A   1      36.801  31.359  31.296  1.00  0.00     0.029 A 
ATOM     49  N   UNL A   1      38.496  30.912  32.686  1.00  0.00    -0.354 N 
ATOM     50  C   UNL A   1      38.985  32.957  36.413  1.00  0.00     0.074 A 
ATOM     51  C   UNL A   1      37.832  33.788  36.698  1.00  0.00     0.031 C 
ATOM     52  C   UNL A   1      37.525  30.369  30.748  1.00  0.00     0.029 A 
ATOM     53  C   UNL A   1      38.687  30.105  31.591  1.00  0.00     0.049 A 
ATOM     54  H   UNL A   1      39.083  30.899  33.476  1.00  0.00     0.167 HD
ATOM     55  C   UNL A   1      40.029  32.783  37.259  1.00  0.00     0.031 A 
ATOM     56  C   UNL A   1      39.705  29.283  31.269  1.00  0.00     0.031 A 
ATOM     57  C   UNL A   1      41.164  31.935  36.998  1.00  0.00     0.049 A 
ATOM     58  C   UNL A   1      40.890  29.163  32.186  1.00  0.00     0.074 A 
ATOM     59  C   UNL A   1      42.271  31.704  37.798  1.00  0.00     0.029 A 
ATOM     60  N   UNL A   1      41.333  31.168  35.856  1.00  0.00    -0.354 N 
ATOM     61  N   UNL A   1      41.100  29.730  33.349  1.00  0.00    -0.248 NA
ATOM     62  C   UNL A   1      41.987  28.293  31.736  1.00  0.00     0.031 C 
ATOM     63  C   UNL A   1      43.131  30.833  37.121  1.00  0.00     0.029 A 
ATOM     64  C   UNL A   1      42.532  30.477  35.925  1.00  0.00     0.049 A 
ATOM     65  H   UNL A   1      40.696  31.123  35.107  1.00  0.00     0.167 HD
ATOM     66  C   UNL A   1      42.339  29.269  33.777  1.00  0.00     0.074 A 
ATOM     67  C   UNL A   1      42.824  28.360  32.761  1.00  0.00     0.031 C 
ATOM     68  C   UNL A   1      43.014  29.574  34.912  1.00  0.00     0.031 A 
BRANCH  55  69
ATOM     69  C   UNL A   1      40.020  33.570  38.540  1.00  0.00    -0.014 A 
ATOM     70  C   UNL A   1      39.406  33.083  39.702  1.00  0.00     0.009 A 
ATOM     71  C   UNL A   1      40.679  34.810  38.589  1.00  0.00     0.009 A 
ATOM     72  C   UNL A   1      39.425  33.835  40.879  1.00  0.00     0.001 A 
ATOM     73  C   UNL A   1      40.722  35.547  39.774  1.00  0.00     0.001 A 
ATOM     74  C   UNL A   1      40.087  35.063  40.915  1.00  0.00     0.000 A 
ENDBRANCH  55  69
BRANCH  56  75
ATOM     75  C   UNL A   1      39.682  28.542  29.979  1.00  0.00    -0.014 A 
ATOM     76  C   UNL A   1      39.247  27.209  29.930  1.00  0.00     0.009 A 
ATOM     77  C   UNL A   1      40.119  29.157  28.795  1.00  0.00     0.009 A 
ATOM     78  C   UNL A   1      39.272  26.501  28.727  1.00  0.00     0.001 A 
ATOM     79  C   UNL A   1      40.110  28.458  27.588  1.00  0.00     0.001 A 
ATOM     80  C   UNL A   1      39.696  27.128  27.556  1.00  0.00     0.000 A 
ENDBRANCH  56  75
BRANCH  68  81
ATOM     81  C   UNL A   1      44.330  28.881  35.135  1.00  0.00    -0.014 A 
ATOM     82  C   UNL A   1      44.406  27.640  35.786  1.00  0.00     0.009 A 
ATOM     83  C   UNL A   1      45.515  29.482  34.681  1.00  0.00     0.009 A 
ATOM     84  C   UNL A   1      45.644  27.035  36.015  1.00  0.00     0.001 A 
ATOM     85  C   UNL A   1      46.749  28.861  34.884  1.00  0.00     0.001 A 
ATOM     86  C   UNL A   1      46.814  27.645  35.562  1.00  0.00     0.000 A 
ENDBRANCH  68  81
ENDBRANCH  42  43
ENDBRANCH  35  37
ENDBRANCH  34  35
ENDBRANCH  33  34
ENDBRANCH  32  33
ENDBRANCH  31  32
ENDBRANCH  30  31
ENDBRANCH   1  30
TORSDOF 21
ENDMDL
MODEL 2
REMARK VINA RESULT:     -10.9      3.541      9.227
REMARK SMILES COc1ccc2c(CC(=O)OCCOCCOCCOC(=O)c3ccc(-c4c5nc(c(-c6ccccc6)c6ccc([nH]6)c(-c6ccccc6)c6nc(c(-c7ccccc7)c7ccc4[nH]7)C=C6)C=C5)cc3)c(C(=O)c3cc(C)ccn3)[nH]c2c1
REMARK SMILES IDX 15 1 14 2 13 3 12 4 11 5 9 6 10 7 8 8 7 9 3 10 4 11 83 12
REMARK SMILES IDX 5 13 82 14 6 15 81 16 71 17 2 19 1 20 72 21 73 22 74 23
REMARK SMILES IDX 75 24 80 25 76 26 79 27 77 28 78 29 16 30 17 31 18 32 19 33
REMARK SMILES IDX 20 34 21 35 22 36 23 37 24 38 70 39 25 40 69 41 26 42 27 43
REMARK SMILES IDX 28 44 63 45 29 46 68 47 62 48 64 49 30 50 67 51 61 52 60 53
REMARK SMILES IDX 31 55 53 56 38 57 52 58 39 59 42 60 51 61 65 62 40 63 41 64
REMARK SMILES IDX 50 66 66 67 43 68 32 69 33 70 37 71 34 72 36 73 35 74 54 75
REMARK SMILES IDX 55 76 59 77 56 78 58 79 57 80 44 81 45 82 49 83 46 84 48 85
REMARK SMILES IDX 47 86
REMARK H PARENT 81 18 64 54 42 65
REMARK Flexibility Score: inf
ROOT
ATOM      1  C   UNL A   1      37.922  21.651  25.888  1.00  0.00     0.188 C 
ENDROOT
BRANCH   1   2
ATOM      2  O   UNL A   1      37.509  21.366  24.552  1.00  0.00    -0.376 OA
BRANCH   2   3
ATOM      3  C   UNL A   1      36.608  22.268  23.922  1.00  0.00     0.202 C 
BRANCH   3   4
ATOM      4  C   UNL A   1      36.514  23.659  24.559  1.00  0.00     0.261 C 
BRANCH   4   5
ATOM      5  O   UNL A   1      35.257  23.851  25.241  1.00  0.00    -0.463 OA
BRANCH   5   6
ATOM      6  C   UNL A   1      34.408  24.775  24.721  1.00  0.00     0.310 C 
ATOM      7  O   UNL A   1      34.197  24.900  23.518  1.00  0.00    -0.252 OA
BRANCH   6   8
ATOM      8  C   UNL A   1      33.591  25.516  25.771  1.00  0.00     0.161 C 
BRANCH   8   9
ATOM      9  C   UNL A   1      32.139  25.812  25.477  1.00  0.00     0.000 A 
ATOM     10  C   UNL A   1      30.158  28.280  22.709  1.00  0.00     0.120 A 
ATOM     11  C   UNL A   1      31.534  28.481  22.804  1.00  0.00     0.047 A 
ATOM     12  C   UNL A   1      29.494  27.428  23.593  1.00  0.00     0.073 A 
ATOM     13  C   UNL A   1      32.298  27.766  23.740  1.00  0.00     0.014 A 
ATOM     14  C   UNL A   1      30.279  26.693  24.486  1.00  0.00     0.050 A 
ATOM     15  C   UNL A   1      31.664  26.818  24.568  1.00  0.00     0.004 A 
ATOM     16  N   UNL A   1      29.912  25.729  25.391  1.00  0.00    -0.351 N 
ATOM     17  C   UNL A   1      31.023  25.023  25.800  1.00  0.00     0.093 A 
ATOM     18  H   UNL A   1      28.991  25.567  25.701  1.00  0.00     0.167 HD
BRANCH  10  19
ATOM     19  O   UNL A   1      29.372  28.916  21.784  1.00  0.00    -0.497 OA
ATOM     20  C   UNL A   1      29.497  30.337  21.834  1.00  0.00     0.278 C 
ENDBRANCH  10  19
BRANCH  17  21
ATOM     21  C   UNL A   1      30.959  23.681  26.359  1.00  0.00     0.227 C 
ATOM     22  O   UNL A   1      30.359  23.415  27.398  1.00  0.00    -0.285 OA
BRANCH  21  23
ATOM     23  C   UNL A   1      31.691  22.570  25.682  1.00  0.00     0.113 A 
ATOM     24  C   UNL A   1      31.478  22.308  24.331  1.00  0.00     0.036 A 
ATOM     25  N   UNL A   1      32.603  21.917  26.447  1.00  0.00    -0.253 NA
ATOM     26  C   UNL A   1      32.267  21.331  23.715  1.00  0.00    -0.047 A 
ATOM     27  C   UNL A   1      33.390  21.023  25.808  1.00  0.00     0.112 A 
ATOM     28  C   UNL A   1      32.083  20.951  22.275  1.00  0.00     0.044 C 
ATOM     29  C   UNL A   1      33.266  20.707  24.466  1.00  0.00     0.023 A 
ENDBRANCH  21  23
ENDBRANCH  17  21
ENDBRANCH   8   9
ENDBRANCH   6   8
ENDBRANCH   5   6
ENDBRANCH   4   5
ENDBRANCH   3   4
ENDBRANCH   2   3
ENDBRANCH   1   2
BRANCH   1  30
ATOM     30  C   UNL A   1      39.427  21.605  26.234  1.00  0.00     0.188 C 
BRANCH  30  31
ATOM     31  O   UNL A   1      40.013  20.322  26.050  1.00  0.00    -0.376 OA
BRANCH  31  32
ATOM     32  C   UNL A   1      41.278  20.161  26.679  1.00  0.00     0.202 C 
BRANCH  32  33
ATOM     33  C   UNL A   1      42.398  20.766  25.837  1.00  0.00     0.261 C 
BRANCH  33  34
ATOM     34  O   UNL A   1      42.960  21.933  26.478  1.00  0.00    -0.460 OA
BRANCH  34  35
ATOM     35  C   UNL A   1      43.023  23.067  25.764  1.00  0.00     0.338 C 
ATOM     36  O   UNL A   1      43.433  23.181  24.607  1.00  0.00    -0.246 OA
BRANCH  35  37
ATOM     37  C   UNL A   1      42.557  24.222  26.565  1.00  0.00     0.060 A 
ATOM     38  C   UNL A   1      43.010  25.524  26.330  1.00  0.00     0.016 A 
ATOM     39  C   UNL A   1      41.732  23.980  27.663  1.00  0.00     0.016 A 
ATOM     40  C   UNL A   1      42.711  26.558  27.224  1.00  0.00     0.010 A 
ATOM     41  C   UNL A   1      41.377  25.030  28.518  1.00  0.00     0.010 A 
ATOM     42  C   UNL A   1      41.891  26.326  28.333  1.00  0.00    -0.014 A 
BRANCH  42  43
ATOM     43  C   UNL A   1      41.612  27.390  29.342  1.00  0.00     0.031 A 
ATOM     44  C   UNL A   1      42.426  27.455  30.609  1.00  0.00     0.074 A 
ATOM     45  C   UNL A   1      40.626  28.291  29.162  1.00  0.00     0.049 A 
ATOM     46  N   UNL A   1      42.193  28.115  31.716  1.00  0.00    -0.248 NA
ATOM     47  C   UNL A   1      43.666  26.661  30.633  1.00  0.00     0.031 C 
ATOM     48  C   UNL A   1      39.802  28.432  27.962  1.00  0.00     0.029 A 
ATOM     49  N   UNL A   1      40.141  29.257  30.014  1.00  0.00    -0.354 N 
ATOM     50  C   UNL A   1      43.219  27.771  32.588  1.00  0.00     0.074 A 
ATOM     51  C   UNL A   1      44.079  26.845  31.879  1.00  0.00     0.031 C 
ATOM     52  C   UNL A   1      38.921  29.428  28.149  1.00  0.00     0.029 A 
ATOM     53  C   UNL A   1      39.059  29.939  29.510  1.00  0.00     0.049 A 
ATOM     54  H   UNL A   1      40.531  29.442  30.898  1.00  0.00     0.167 HD
ATOM     55  C   UNL A   1      43.423  28.179  33.863  1.00  0.00     0.031 A 
ATOM     56  C   UNL A   1      38.235  30.835  30.087  1.00  0.00     0.031 A 
ATOM     57  C   UNL A   1      42.592  29.123  34.567  1.00  0.00     0.049 A 
ATOM     58  C   UNL A   1      38.434  31.217  31.527  1.00  0.00     0.074 A 
ATOM     59  C   UNL A   1      42.723  29.588  35.865  1.00  0.00     0.029 A 
ATOM     60  N   UNL A   1      41.484  29.756  34.028  1.00  0.00    -0.354 N 
ATOM     61  N   UNL A   1      39.362  30.829  32.368  1.00  0.00    -0.248 NA
ATOM     62  C   UNL A   1      37.457  32.154  32.102  1.00  0.00     0.031 C 
ATOM     63  C   UNL A   1      41.668  30.469  36.126  1.00  0.00     0.029 A 
ATOM     64  C   UNL A   1      40.914  30.595  34.972  1.00  0.00     0.049 A 
ATOM     65  H   UNL A   1      41.151  29.628  33.110  1.00  0.00     0.167 HD
ATOM     66  C   UNL A   1      39.094  31.491  33.560  1.00  0.00     0.074 A 
ATOM     67  C   UNL A   1      37.930  32.320  33.329  1.00  0.00     0.031 C 
ATOM     68  C   UNL A   1      39.755  31.418  34.741  1.00  0.00     0.031 A 
BRANCH  55  69
ATOM     69  C   UNL A   1      44.574  27.563  34.611  1.00  0.00    -0.014 A 
ATOM     70  C   UNL A   1      45.842  28.159  34.635  1.00  0.00     0.009 A 
ATOM     71  C   UNL A   1      44.364  26.380  35.339  1.00  0.00     0.009 A 
ATOM     72  C   UNL A   1      46.887  27.565  35.349  1.00  0.00     0.001 A 
ATOM     73  C   UNL A   1      45.402  25.804  36.075  1.00  0.00     0.001 A 
ATOM     74  C   UNL A   1      46.665  26.393  36.071  1.00  0.00     0.000 A 
ENDBRANCH  55  69
BRANCH  56  75
ATOM     75  C   UNL A   1      37.095  31.401  29.316  1.00  0.00    -0.014 A 
ATOM     76  C   UNL A   1      35.932  30.646  29.105  1.00  0.00     0.009 A 
ATOM     77  C   UNL A   1      37.177  32.690  28.765  1.00  0.00     0.009 A 
ATOM     78  C   UNL A   1      34.884  31.161  28.341  1.00  0.00     0.001 A 
ATOM     79  C   UNL A   1      36.113  33.216  28.031  1.00  0.00     0.001 A 
ATOM     80  C   UNL A   1      34.972  32.448  27.811  1.00  0.00     0.000 A 
ENDBRANCH  56  75
BRANCH  68  81
ATOM     81  C   UNL A   1      39.260  32.292  35.860  1.00  0.00    -0.014 A 
ATOM     82  C   UNL A   1      38.288  31.843  36.767  1.00  0.00     0.009 A 
ATOM     83  C   UNL A   1      39.782  33.587  36.011  1.00  0.00     0.009 A 
ATOM     84  C   UNL A   1      37.817  32.687  37.775  1.00  0.00     0.001 A 
ATOM     85  C   UNL A   1      39.331  34.419  37.038  1.00  0.00     0.001 A 
ATOM     86  C   UNL A   1      38.340  33.973  37.911  1.00  0.00     0.000 A 
ENDBRANCH  68  81
ENDBRANCH  42  43
ENDBRANCH  35  37
ENDBRANCH  34  35
ENDBRANCH  33  34
ENDBRANCH  32  33
ENDBRANCH  31  32
ENDBRANCH  30  31
ENDBRANCH   1  30
TORSDOF 21
ENDMDL
MODEL 3
REMARK VINA RESULT:     -10.8      5.170      8.411
REMARK SMILES COc1ccc2c(CC(=O)OCCOCCOCCOC(=O)c3ccc(-c4c5nc(c(-c6ccccc6)c6ccc([nH]6)c(-c6ccccc6)c6nc(c(-c7ccccc7)c7ccc4[nH]7)C=C6)C=C5)cc3)c(C(=O)c3cc(C)ccn3)[nH]c2c1
REMARK SMILES IDX 15 1 14 2 13 3 12 4 11 5 9 6 10 7 8 8 7 9 3 10 4 11 83 12
REMARK SMILES IDX 5 13 82 14 6 15 81 16 71 17 2 19 1 20 72 21 73 22 74 23
REMARK SMILES IDX 75 24 80 25 76 26 79 27 77 28 78 29 16 30 17 31 18 32 19 33
REMARK SMILES IDX 20 34 21 35 22 36 23 37 24 38 70 39 25 40 69 41 26 42 27 43
REMARK SMILES IDX 28 44 63 45 29 46 68 47 62 48 64 49 30 50 67 51 61 52 60 53
REMARK SMILES IDX 31 55 53 56 38 57 52 58 39 59 42 60 51 61 65 62 40 63 41 64
REMARK SMILES IDX 50 66 66 67 43 68 32 69 33 70 37 71 34 72 36 73 35 74 54 75
REMARK SMILES IDX 55 76 59 77 56 78 58 79 57 80 44 81 45 82 49 83 46 84 48 85
REMARK SMILES IDX 47 86
REMARK H PARENT 81 18 64 54 42 65
REMARK Flexibility Score: inf
ROOT
ATOM      1  C   UNL A   1      31.804  28.226  23.780  1.00  0.00     0.188 C 
ENDROOT
BRANCH   1   2
ATOM      2  O   UNL A   1      32.144  26.874  23.474  1.00  0.00    -0.376 OA
BRANCH   2   3
ATOM      3  C   UNL A   1      31.086  25.959  23.217  1.00  0.00     0.202 C 
BRANCH   3   4
ATOM      4  C   UNL A   1      31.487  24.480  23.186  1.00  0.00     0.261 C 
BRANCH   4   5
ATOM      5  O   UNL A   1      32.919  24.312  23.240  1.00  0.00    -0.463 OA
BRANCH   5   6
ATOM      6  C   UNL A   1      33.409  23.089  22.912  1.00  0.00     0.310 C 
ATOM      7  O   UNL A   1      34.585  22.885  22.624  1.00  0.00    -0.252 OA
BRANCH   6   8
ATOM      8  C   UNL A   1      32.415  21.955  23.119  1.00  0.00     0.161 C 
BRANCH   8   9
ATOM      9  C   UNL A   1      32.669  20.969  24.236  1.00  0.00     0.000 A 
ATOM     10  C   UNL A   1      33.107  16.791  24.407  1.00  0.00     0.120 A 
ATOM     11  C   UNL A   1      32.642  17.289  23.192  1.00  0.00     0.047 A 
ATOM     12  C   UNL A   1      33.255  17.626  25.516  1.00  0.00     0.073 A 
ATOM     13  C   UNL A   1      32.390  18.660  23.030  1.00  0.00     0.014 A 
ATOM     14  C   UNL A   1      33.042  18.994  25.321  1.00  0.00     0.050 A 
ATOM     15  C   UNL A   1      32.640  19.539  24.104  1.00  0.00     0.004 A 
ATOM     16  N   UNL A   1      33.202  20.041  26.193  1.00  0.00    -0.351 N 
ATOM     17  C   UNL A   1      33.231  21.230  25.497  1.00  0.00     0.093 A 
ATOM     18  H   UNL A   1      33.284  19.955  27.170  1.00  0.00     0.167 HD
BRANCH  10  19
ATOM     19  O   UNL A   1      33.413  15.470  24.606  1.00  0.00    -0.497 OA
ATOM     20  C   UNL A   1      32.465  14.801  25.440  1.00  0.00     0.278 C 
ENDBRANCH  10  19
BRANCH  17  21
ATOM     21  C   UNL A   1      33.837  22.448  26.014  1.00  0.00     0.227 C 
ATOM     22  O   UNL A   1      33.181  23.404  26.419  1.00  0.00    -0.285 OA
BRANCH  21  23
ATOM     23  C   UNL A   1      35.324  22.582  26.014  1.00  0.00     0.113 A 
ATOM     24  C   UNL A   1      36.126  21.517  25.613  1.00  0.00     0.036 A 
ATOM     25  N   UNL A   1      35.802  23.807  26.349  1.00  0.00    -0.253 NA
ATOM     26  C   UNL A   1      37.507  21.726  25.524  1.00  0.00    -0.047 A 
ATOM     27  C   UNL A   1      37.132  23.994  26.194  1.00  0.00     0.112 A 
ATOM     28  C   UNL A   1      38.455  20.627  25.142  1.00  0.00     0.044 C 
ATOM     29  C   UNL A   1      38.008  23.003  25.785  1.00  0.00     0.023 A 
ENDBRANCH  21  23
ENDBRANCH  17  21
ENDBRANCH   8   9
ENDBRANCH   6   8
ENDBRANCH   5   6
ENDBRANCH   4   5
ENDBRANCH   3   4
ENDBRANCH   2   3
ENDBRANCH   1   2
BRANCH   1  30
ATOM     30  C   UNL A   1      32.208  28.810  25.152  1.00  0.00     0.188 C 
BRANCH  30  31
ATOM     31  O   UNL A   1      31.794  30.158  25.340  1.00  0.00    -0.376 OA
BRANCH  31  32
ATOM     32  C   UNL A   1      32.066  30.679  26.634  1.00  0.00     0.202 C 
BRANCH  32  33
ATOM     33  C   UNL A   1      33.274  29.992  27.266  1.00  0.00     0.261 C 
BRANCH  33  34
ATOM     34  O   UNL A   1      34.408  30.886  27.331  1.00  0.00    -0.460 OA
BRANCH  34  35
ATOM     35  C   UNL A   1      34.987  31.074  28.526  1.00  0.00     0.338 C 
ATOM     36  O   UNL A   1      34.580  31.810  29.427  1.00  0.00    -0.246 OA
BRANCH  35  37
ATOM     37  C   UNL A   1      36.240  30.292  28.635  1.00  0.00     0.060 A 
ATOM     38  C   UNL A   1      36.646  29.698  29.835  1.00  0.00     0.016 A 
ATOM     39  C   UNL A   1      37.095  30.251  27.536  1.00  0.00     0.016 A 
ATOM     40  C   UNL A   1      37.923  29.140  29.960  1.00  0.00     0.010 A 
ATOM     41  C   UNL A   1      38.346  29.631  27.642  1.00  0.00     0.010 A 
ATOM     42  C   UNL A   1      38.793  29.100  28.866  1.00  0.00    -0.014 A 
BRANCH  42  43
ATOM     43  C   UNL A   1      40.185  28.576  28.987  1.00  0.00     0.031 A 
ATOM     44  C   UNL A   1      41.298  29.496  29.422  1.00  0.00     0.074 A 
ATOM     45  C   UNL A   1      40.485  27.296  28.692  1.00  0.00     0.049 A 
ATOM     46  N   UNL A   1      42.595  29.329  29.346  1.00  0.00    -0.248 NA
ATOM     47  C   UNL A   1      40.892  30.781  30.014  1.00  0.00     0.031 C 
ATOM     48  C   UNL A   1      39.525  26.249  28.345  1.00  0.00     0.029 A 
ATOM     49  N   UNL A   1      41.706  26.663  28.626  1.00  0.00    -0.354 N 
ATOM     50  C   UNL A   1      43.160  30.506  29.821  1.00  0.00     0.074 A 
ATOM     51  C   UNL A   1      42.062  31.379  30.186  1.00  0.00     0.031 C 
ATOM     52  C   UNL A   1      40.189  25.105  28.109  1.00  0.00     0.029 A 
ATOM     53  C   UNL A   1      41.623  25.357  28.205  1.00  0.00     0.049 A 
ATOM     54  H   UNL A   1      42.555  27.103  28.857  1.00  0.00     0.167 HD
ATOM     55  C   UNL A   1      44.469  30.836  29.934  1.00  0.00     0.031 A 
ATOM     56  C   UNL A   1      42.588  24.473  27.881  1.00  0.00     0.031 A 
ATOM     57  C   UNL A   1      45.567  29.963  29.603  1.00  0.00     0.049 A 
ATOM     58  C   UNL A   1      44.032  24.885  27.941  1.00  0.00     0.074 A 
ATOM     59  C   UNL A   1      46.926  30.219  29.682  1.00  0.00     0.029 A 
ATOM     60  N   UNL A   1      45.433  28.664  29.143  1.00  0.00    -0.354 N 
ATOM     61  N   UNL A   1      44.556  26.025  28.320  1.00  0.00    -0.248 NA
ATOM     62  C   UNL A   1      45.021  23.883  27.513  1.00  0.00     0.031 C 
ATOM     63  C   UNL A   1      47.614  29.089  29.227  1.00  0.00     0.029 A 
ATOM     64  C   UNL A   1      46.685  28.111  28.919  1.00  0.00     0.049 A 
ATOM     65  H   UNL A   1      44.577  28.202  28.995  1.00  0.00     0.167 HD
ATOM     66  C   UNL A   1      45.930  25.870  28.198  1.00  0.00     0.074 A 
ATOM     67  C   UNL A   1      46.163  24.520  27.731  1.00  0.00     0.031 C 
ATOM     68  C   UNL A   1      46.913  26.768  28.452  1.00  0.00     0.031 A 
BRANCH  55  69
ATOM     69  C   UNL A   1      44.793  32.230  30.395  1.00  0.00    -0.014 A 
ATOM     70  C   UNL A   1      45.013  32.529  31.747  1.00  0.00     0.009 A 
ATOM     71  C   UNL A   1      44.921  33.255  29.442  1.00  0.00     0.009 A 
ATOM     72  C   UNL A   1      45.324  33.834  32.139  1.00  0.00     0.001 A 
ATOM     73  C   UNL A   1      45.260  34.551  29.833  1.00  0.00     0.001 A 
ATOM     74  C   UNL A   1      45.452  34.841  31.183  1.00  0.00     0.000 A 
ENDBRANCH  55  69
BRANCH  56  75
ATOM     75  C   UNL A   1      42.218  23.112  27.408  1.00  0.00    -0.014 A 
ATOM     76  C   UNL A   1      41.761  22.142  28.313  1.00  0.00     0.009 A 
ATOM     77  C   UNL A   1      42.346  22.769  26.052  1.00  0.00     0.009 A 
ATOM     78  C   UNL A   1      41.461  20.851  27.874  1.00  0.00     0.001 A 
ATOM     79  C   UNL A   1      42.012  21.488  25.611  1.00  0.00     0.001 A 
ATOM     80  C   UNL A   1      41.580  20.528  26.522  1.00  0.00     0.000 A 
ENDBRANCH  56  75
BRANCH  68  81
ATOM     81  C   UNL A   1      48.332  26.303  28.272  1.00  0.00    -0.014 A 
ATOM     82  C   UNL A   1      49.039  25.682  29.312  1.00  0.00     0.009 A 
ATOM     83  C   UNL A   1      48.969  26.486  27.034  1.00  0.00     0.009 A 
ATOM     84  C   UNL A   1      50.368  25.293  29.132  1.00  0.00     0.001 A 
ATOM     85  C   UNL A   1      50.289  26.070  26.846  1.00  0.00     0.001 A 
ATOM     86  C   UNL A   1      50.991  25.485  27.899  1.00  0.00     0.000 A 
ENDBRANCH  68  81
ENDBRANCH  42  43
ENDBRANCH  35  37
ENDBRANCH  34  35
ENDBRANCH  33  34
ENDBRANCH  32  33
ENDBRANCH  31  32
ENDBRANCH  30  31
ENDBRANCH   1  30
TORSDOF 21
ENDMDL
