MODEL 1
REMARK VINA RESULT:      -9.3      0.000      0.000
REMARK SMILES CC[C@@H]([NH3+])C(=O)N1CC[C@H](C(=O)OCCOCCOCCOC(=O)c2ccc(-c3c4nc(c(-c5ccccc5)c5ccc([nH]5)c(-c5ccccc5)c5nc(c(-c6ccccc6)c6ccc3[nH]6)C=C5)C=C4)cc2)[C@@H]1C
REMARK SMILES IDX 17 1 16 2 15 3 14 4 13 5 11 6 12 7 10 8 7 9 8 10 73 11 9 12
REMARK SMILES IDX 74 13 5 14 6 15 3 16 2 17 1 18 4 19 18 23 19 24 20 25 21 26
REMARK SMILES IDX 22 27 23 28 24 29 25 30 26 31 72 32 27 33 71 34 28 35 29 36
REMARK SMILES IDX 30 37 65 38 31 39 70 40 64 41 66 42 32 43 69 44 63 45 62 46
REMARK SMILES IDX 33 48 55 49 40 50 54 51 41 52 44 53 53 54 67 55 42 56 43 57
REMARK SMILES IDX 52 59 68 60 45 61 34 62 35 63 39 64 36 65 38 66 37 67 56 68
REMARK SMILES IDX 57 69 61 70 58 71 60 72 59 73 46 74 47 75 51 76 48 77 50 78
REMARK SMILES IDX 49 79
REMARK H PARENT 4 20 4 21 4 22 66 47 44 58
REMARK Flexibility Score: inf
ROOT
ATOM      1  C   UNL A   1      35.037  33.892  28.286  1.00  0.00     0.188 C 
ENDROOT
BRANCH   1   2
ATOM      2  O   UNL A   1      35.249  32.647  27.638  1.00  0.00    -0.376 OA
BRANCH   2   3
ATOM      3  C   UNL A   1      34.488  31.547  28.128  1.00  0.00     0.202 C 
BRANCH   3   4
ATOM      4  C   UNL A   1      33.266  31.169  27.283  1.00  0.00     0.261 C 
BRANCH   4   5
ATOM      5  O   UNL A   1      33.113  29.746  27.147  1.00  0.00    -0.463 OA
BRANCH   5   6
ATOM      6  C   UNL A   1      32.320  29.279  26.144  1.00  0.00     0.311 C 
ATOM      7  O   UNL A   1      31.491  29.952  25.552  1.00  0.00    -0.252 OA
BRANCH   6   8
ATOM      8  C   UNL A   1      32.696  27.824  25.880  1.00  0.00     0.123 C 
ATOM      9  N   UNL A   1      31.936  26.750  23.900  1.00  0.00    -0.334 N 
ATOM     10  C   UNL A   1      30.826  26.820  24.841  1.00  0.00     0.121 C 
ATOM     11  C   UNL A   1      33.121  27.400  24.462  1.00  0.00     0.096 C 
ATOM     12  C   UNL A   1      31.511  26.922  26.193  1.00  0.00     0.039 C 
ATOM     13  C   UNL A   1      33.679  28.547  23.623  1.00  0.00     0.032 C 
BRANCH   9  14
ATOM     14  C   UNL A   1      31.795  25.937  22.796  1.00  0.00     0.280 C 
ATOM     15  O   UNL A   1      31.447  26.429  21.713  1.00  0.00    -0.268 OA
BRANCH  14  16
ATOM     16  C   UNL A   1      31.790  24.385  22.926  1.00  0.00     0.270 C 
BRANCH  16  17
ATOM     17  C   UNL A   1      32.792  23.722  23.868  1.00  0.00     0.072 C 
ATOM     18  C   UNL A   1      34.246  23.998  23.499  1.00  0.00     0.011 C 
ENDBRANCH  16  17
BRANCH  16  19
ATOM     19  N   UNL A   1      30.402  23.956  23.220  1.00  0.00    -0.347 N 
ATOM     20  H   UNL A   1      30.025  24.523  23.979  1.00  0.00     0.345 HD
ATOM     21  H   UNL A   1      30.401  22.974  23.496  1.00  0.00     0.345 HD
ATOM     22  H   UNL A   1      29.826  24.076  22.387  1.00  0.00     0.345 HD
ENDBRANCH  16  19
ENDBRANCH  14  16
ENDBRANCH   9  14
ENDBRANCH   6   8
ENDBRANCH   5   6
ENDBRANCH   4   5
ENDBRANCH   3   4
ENDBRANCH   2   3
ENDBRANCH   1   2
BRANCH   1  23
ATOM     23  C   UNL A   1      34.523  33.785  29.742  1.00  0.00     0.188 C 
BRANCH  23  24
ATOM     24  O   UNL A   1      35.297  34.306  30.811  1.00  0.00    -0.376 OA
BRANCH  24  25
ATOM     25  C   UNL A   1      34.622  34.826  31.948  1.00  0.00     0.202 C 
BRANCH  25  26
ATOM     26  C   UNL A   1      34.295  33.872  33.106  1.00  0.00     0.261 C 
BRANCH  26  27
ATOM     27  O   UNL A   1      34.840  32.545  32.964  1.00  0.00    -0.460 OA
BRANCH  27  28
ATOM     28  C   UNL A   1      36.077  32.370  33.490  1.00  0.00     0.338 C 
ATOM     29  O   UNL A   1      36.497  32.804  34.550  1.00  0.00    -0.246 OA
BRANCH  28  30
ATOM     30  C   UNL A   1      36.862  31.408  32.687  1.00  0.00     0.060 A 
ATOM     31  C   UNL A   1      38.003  30.843  33.276  1.00  0.00     0.016 A 
ATOM     32  C   UNL A   1      36.574  31.176  31.341  1.00  0.00     0.016 A 
ATOM     33  C   UNL A   1      38.899  30.105  32.505  1.00  0.00     0.010 A 
ATOM     34  C   UNL A   1      37.487  30.452  30.562  1.00  0.00     0.010 A 
ATOM     35  C   UNL A   1      38.680  29.963  31.128  1.00  0.00    -0.014 A 
BRANCH  35  36
ATOM     36  C   UNL A   1      39.815  29.552  30.262  1.00  0.00     0.031 A 
ATOM     37  C   UNL A   1      40.925  30.547  30.028  1.00  0.00     0.074 A 
ATOM     38  C   UNL A   1      39.911  28.312  29.751  1.00  0.00     0.049 A 
ATOM     39  N   UNL A   1      42.022  30.421  29.324  1.00  0.00    -0.248 NA
ATOM     40  C   UNL A   1      40.779  31.858  30.685  1.00  0.00     0.031 C 
ATOM     41  C   UNL A   1      38.948  27.231  29.950  1.00  0.00     0.029 A 
ATOM     42  N   UNL A   1      40.884  27.756  28.955  1.00  0.00    -0.354 N 
ATOM     43  C   UNL A   1      42.695  31.631  29.457  1.00  0.00     0.074 A 
ATOM     44  C   UNL A   1      41.868  32.490  30.276  1.00  0.00     0.031 C 
ATOM     45  C   UNL A   1      39.379  26.139  29.292  1.00  0.00     0.029 A 
ATOM     46  C   UNL A   1      40.632  26.453  28.606  1.00  0.00     0.049 A 
ATOM     47  H   UNL A   1      41.686  28.247  28.664  1.00  0.00     0.167 HD
ATOM     48  C   UNL A   1      43.898  31.998  28.955  1.00  0.00     0.031 A 
ATOM     49  C   UNL A   1      41.329  25.615  27.814  1.00  0.00     0.031 A 
ATOM     50  C   UNL A   1      44.719  31.165  28.120  1.00  0.00     0.049 A 
ATOM     51  C   UNL A   1      42.618  26.083  27.185  1.00  0.00     0.074 A 
ATOM     52  C   UNL A   1      45.940  31.460  27.539  1.00  0.00     0.029 A 
ATOM     53  N   UNL A   1      44.401  29.870  27.748  1.00  0.00    -0.354 N 
ATOM     54  N   UNL A   1      43.241  27.228  27.320  1.00  0.00    -0.248 NA
ATOM     55  C   UNL A   1      43.307  25.126  26.304  1.00  0.00     0.031 C 
ATOM     56  C   UNL A   1      46.342  30.355  26.781  1.00  0.00     0.029 A 
ATOM     57  C   UNL A   1      45.396  29.354  26.938  1.00  0.00     0.049 A 
ATOM     58  H   UNL A   1      43.587  29.387  28.020  1.00  0.00     0.167 HD
ATOM     59  C   UNL A   1      44.411  27.113  26.578  1.00  0.00     0.074 A 
ATOM     60  C   UNL A   1      44.417  25.783  26.005  1.00  0.00     0.031 C 
ATOM     61  C   UNL A   1      45.397  28.024  26.388  1.00  0.00     0.031 A 
BRANCH  48  62
ATOM     62  C   UNL A   1      44.384  33.382  29.284  1.00  0.00    -0.014 A 
ATOM     63  C   UNL A   1      45.443  33.582  30.184  1.00  0.00     0.009 A 
ATOM     64  C   UNL A   1      43.792  34.496  28.671  1.00  0.00     0.009 A 
ATOM     65  C   UNL A   1      45.877  34.874  30.488  1.00  0.00     0.001 A 
ATOM     66  C   UNL A   1      44.246  35.785  28.956  1.00  0.00     0.001 A 
ATOM     67  C   UNL A   1      45.281  35.973  29.870  1.00  0.00     0.000 A 
ENDBRANCH  48  62
BRANCH  49  68
ATOM     68  C   UNL A   1      40.833  24.239  27.544  1.00  0.00    -0.014 A 
ATOM     69  C   UNL A   1      41.519  23.121  28.043  1.00  0.00     0.009 A 
ATOM     70  C   UNL A   1      39.712  24.035  26.723  1.00  0.00     0.009 A 
ATOM     71  C   UNL A   1      41.117  21.829  27.694  1.00  0.00     0.001 A 
ATOM     72  C   UNL A   1      39.294  22.743  26.402  1.00  0.00     0.001 A 
ATOM     73  C   UNL A   1      40.005  21.641  26.875  1.00  0.00     0.000 A 
ENDBRANCH  49  68
BRANCH  61  74
ATOM     74  C   UNL A   1      46.591  27.592  25.582  1.00  0.00    -0.014 A 
ATOM     75  C   UNL A   1      46.697  27.873  24.212  1.00  0.00     0.009 A 
ATOM     76  C   UNL A   1      47.638  26.903  26.217  1.00  0.00     0.009 A 
ATOM     77  C   UNL A   1      47.805  27.433  23.484  1.00  0.00     0.001 A 
ATOM     78  C   UNL A   1      48.758  26.492  25.494  1.00  0.00     0.001 A 
ATOM     79  C   UNL A   1      48.835  26.746  24.126  1.00  0.00     0.000 A 
ENDBRANCH  61  74
ENDBRANCH  35  36
ENDBRANCH  28  30
ENDBRANCH  27  28
ENDBRANCH  26  27
ENDBRANCH  25  26
ENDBRANCH  24  25
ENDBRANCH  23  24
ENDBRANCH   1  23
TORSDOF 21
ENDMDL
MODEL 2
REMARK VINA RESULT:      -9.2      4.772     10.070
REMARK SMILES CC[C@@H]([NH3+])C(=O)N1CC[C@H](C(=O)OCCOCCOCCOC(=O)c2ccc(-c3c4nc(c(-c5ccccc5)c5ccc([nH]5)c(-c5ccccc5)c5nc(c(-c6ccccc6)c6ccc3[nH]6)C=C5)C=C4)cc2)[C@@H]1C
REMARK SMILES IDX 17 1 16 2 15 3 14 4 13 5 11 6 12 7 10 8 7 9 8 10 73 11 9 12
REMARK SMILES IDX 74 13 5 14 6 15 3 16 2 17 1 18 4 19 18 23 19 24 20 25 21 26
REMARK SMILES IDX 22 27 23 28 24 29 25 30 26 31 72 32 27 33 71 34 28 35 29 36
REMARK SMILES IDX 30 37 65 38 31 39 70 40 64 41 66 42 32 43 69 44 63 45 62 46
REMARK SMILES IDX 33 48 55 49 40 50 54 51 41 52 44 53 53 54 67 55 42 56 43 57
REMARK SMILES IDX 52 59 68 60 45 61 34 62 35 63 39 64 36 65 38 66 37 67 56 68
REMARK SMILES IDX 57 69 61 70 58 71 60 72 59 73 46 74 47 75 51 76 48 77 50 78
REMARK SMILES IDX 49 79
REMARK H PARENT 4 20 4 21 4 22 66 47 44 58
REMARK Flexibility Score: inf
ROOT
ATOM      1  C   UNL A   1      42.131  20.353  27.432  1.00  0.00     0.188 C 
ENDROOT
BRANCH   1   2
ATOM      2  O   UNL A   1      40.789  20.808  27.514  1.00  0.00    -0.376 OA
BRANCH   2   3
ATOM      3  C   UNL A   1      40.117  21.009  26.273  1.00  0.00     0.202 C 
BRANCH   3   4
ATOM      4  C   UNL A   1      39.153  22.200  26.237  1.00  0.00     0.261 C 
BRANCH   4   5
ATOM      5  O   UNL A   1      37.944  21.904  25.517  1.00  0.00    -0.463 OA
BRANCH   5   6
ATOM      6  C   UNL A   1      36.832  22.634  25.805  1.00  0.00     0.311 C 
ATOM      7  O   UNL A   1      36.850  23.776  26.233  1.00  0.00    -0.252 OA
BRANCH   6   8
ATOM      8  C   UNL A   1      35.608  21.794  25.448  1.00  0.00     0.123 C 
ATOM      9  N   UNL A   1      33.561  22.869  24.898  1.00  0.00    -0.334 N 
ATOM     10  C   UNL A   1      33.732  22.917  26.343  1.00  0.00     0.121 C 
ATOM     11  C   UNL A   1      34.715  22.225  24.269  1.00  0.00     0.096 C 
ATOM     12  C   UNL A   1      34.655  21.745  26.633  1.00  0.00     0.039 C 
ATOM     13  C   UNL A   1      35.440  23.083  23.236  1.00  0.00     0.032 C 
BRANCH   9  14
ATOM     14  C   UNL A   1      32.324  23.195  24.384  1.00  0.00     0.280 C 
ATOM     15  O   UNL A   1      31.704  22.365  23.705  1.00  0.00    -0.268 OA
BRANCH  14  16
ATOM     16  C   UNL A   1      31.803  24.663  24.394  1.00  0.00     0.270 C 
BRANCH  16  17
ATOM     17  C   UNL A   1      32.420  25.671  23.428  1.00  0.00     0.072 C 
ATOM     18  C   UNL A   1      33.635  26.393  24.000  1.00  0.00     0.011 C 
ENDBRANCH  16  17
BRANCH  16  19
ATOM     19  N   UNL A   1      30.326  24.624  24.268  1.00  0.00    -0.347 N 
ATOM     20  H   UNL A   1      30.035  23.691  23.977  1.00  0.00     0.345 HD
ATOM     21  H   UNL A   1      30.027  25.307  23.572  1.00  0.00     0.345 HD
ATOM     22  H   UNL A   1      29.902  24.848  25.169  1.00  0.00     0.345 HD
ENDBRANCH  16  19
ENDBRANCH  14  16
ENDBRANCH   9  14
ENDBRANCH   6   8
ENDBRANCH   5   6
ENDBRANCH   4   5
ENDBRANCH   3   4
ENDBRANCH   2   3
ENDBRANCH   1   2
BRANCH   1  23
ATOM     23  C   UNL A   1      42.516  19.713  26.076  1.00  0.00     0.188 C 
BRANCH  23  24
ATOM     24  O   UNL A   1      43.838  19.844  25.577  1.00  0.00    -0.376 OA
BRANCH  24  25
ATOM     25  C   UNL A   1      44.224  21.078  24.988  1.00  0.00     0.202 C 
BRANCH  25  26
ATOM     26  C   UNL A   1      45.351  21.884  25.649  1.00  0.00     0.261 C 
BRANCH  26  27
ATOM     27  O   UNL A   1      44.906  23.010  26.432  1.00  0.00    -0.460 OA
BRANCH  27  28
ATOM     28  C   UNL A   1      44.774  24.173  25.748  1.00  0.00     0.338 C 
ATOM     29  O   UNL A   1      45.269  24.455  24.669  1.00  0.00    -0.246 OA
BRANCH  28  30
ATOM     30  C   UNL A   1      43.778  25.055  26.392  1.00  0.00     0.060 A 
ATOM     31  C   UNL A   1      44.056  26.430  26.438  1.00  0.00     0.016 A 
ATOM     32  C   UNL A   1      42.671  24.537  27.064  1.00  0.00     0.016 A 
ATOM     33  C   UNL A   1      43.271  27.280  27.216  1.00  0.00     0.010 A 
ATOM     34  C   UNL A   1      41.896  25.389  27.864  1.00  0.00     0.010 A 
ATOM     35  C   UNL A   1      42.228  26.751  27.987  1.00  0.00    -0.014 A 
BRANCH  35  36
ATOM     36  C   UNL A   1      41.682  27.565  29.104  1.00  0.00     0.031 A 
ATOM     37  C   UNL A   1      42.394  27.513  30.433  1.00  0.00     0.074 A 
ATOM     38  C   UNL A   1      40.630  28.386  28.942  1.00  0.00     0.049 A 
ATOM     39  N   UNL A   1      42.120  28.138  31.551  1.00  0.00    -0.248 NA
ATOM     40  C   UNL A   1      43.582  26.645  30.507  1.00  0.00     0.031 C 
ATOM     41  C   UNL A   1      39.888  28.586  27.699  1.00  0.00     0.029 A 
ATOM     42  N   UNL A   1      40.008  29.216  29.843  1.00  0.00    -0.354 N 
ATOM     43  C   UNL A   1      43.100  27.741  32.454  1.00  0.00     0.074 A 
ATOM     44  C   UNL A   1      43.953  26.796  31.768  1.00  0.00     0.031 C 
ATOM     45  C   UNL A   1      38.908  29.482  27.917  1.00  0.00     0.029 A 
ATOM     46  C   UNL A   1      38.939  29.898  29.319  1.00  0.00     0.049 A 
ATOM     47  H   UNL A   1      40.302  29.312  30.778  1.00  0.00     0.167 HD
ATOM     48  C   UNL A   1      43.286  28.133  33.737  1.00  0.00     0.031 A 
ATOM     49  C   UNL A   1      38.078  30.751  29.908  1.00  0.00     0.031 A 
ATOM     50  C   UNL A   1      42.434  29.053  34.438  1.00  0.00     0.049 A 
ATOM     51  C   UNL A   1      38.249  31.094  31.366  1.00  0.00     0.074 A 
ATOM     52  C   UNL A   1      42.525  29.488  35.749  1.00  0.00     0.029 A 
ATOM     53  N   UNL A   1      41.331  29.681  33.884  1.00  0.00    -0.354 N 
ATOM     54  N   UNL A   1      39.179  30.713  32.207  1.00  0.00    -0.248 NA
ATOM     55  C   UNL A   1      37.252  32.005  31.951  1.00  0.00     0.031 C 
ATOM     56  C   UNL A   1      41.452  30.349  36.000  1.00  0.00     0.029 A 
ATOM     57  C   UNL A   1      40.727  30.492  34.828  1.00  0.00     0.049 A 
ATOM     58  H   UNL A   1      41.023  29.566  32.956  1.00  0.00     0.167 HD
ATOM     59  C   UNL A   1      38.904  31.368  33.402  1.00  0.00     0.074 A 
ATOM     60  C   UNL A   1      37.727  32.180  33.174  1.00  0.00     0.031 C 
ATOM     61  C   UNL A   1      39.566  31.307  34.583  1.00  0.00     0.031 A 
BRANCH  48  62
ATOM     62  C   UNL A   1      44.457  27.540  34.470  1.00  0.00    -0.014 A 
ATOM     63  C   UNL A   1      44.333  26.332  35.175  1.00  0.00     0.009 A 
ATOM     64  C   UNL A   1      45.702  28.185  34.439  1.00  0.00     0.009 A 
ATOM     65  C   UNL A   1      45.426  25.799  35.860  1.00  0.00     0.001 A 
ATOM     66  C   UNL A   1      46.800  27.636  35.103  1.00  0.00     0.001 A 
ATOM     67  C   UNL A   1      46.659  26.448  35.820  1.00  0.00     0.000 A 
ENDBRANCH  48  62
BRANCH  49  68
ATOM     68  C   UNL A   1      36.955  31.347  29.136  1.00  0.00    -0.014 A 
ATOM     69  C   UNL A   1      37.036  32.663  28.655  1.00  0.00     0.009 A 
ATOM     70  C   UNL A   1      35.766  30.627  28.941  1.00  0.00     0.009 A 
ATOM     71  C   UNL A   1      35.937  33.259  28.030  1.00  0.00     0.001 A 
ATOM     72  C   UNL A   1      34.680  31.214  28.289  1.00  0.00     0.001 A 
ATOM     73  C   UNL A   1      34.761  32.534  27.846  1.00  0.00     0.000 A 
ENDBRANCH  49  68
BRANCH  61  74
ATOM     74  C   UNL A   1      39.073  32.189  35.697  1.00  0.00    -0.014 A 
ATOM     75  C   UNL A   1      38.159  31.725  36.655  1.00  0.00     0.009 A 
ATOM     76  C   UNL A   1      39.550  33.506  35.796  1.00  0.00     0.009 A 
ATOM     77  C   UNL A   1      37.697  32.577  37.661  1.00  0.00     0.001 A 
ATOM     78  C   UNL A   1      39.111  34.346  36.820  1.00  0.00     0.001 A 
ATOM     79  C   UNL A   1      38.175  33.885  37.744  1.00  0.00     0.000 A 
ENDBRANCH  61  74
ENDBRANCH  35  36
ENDBRANCH  28  30
ENDBRANCH  27  28
ENDBRANCH  26  27
ENDBRANCH  25  26
ENDBRANCH  24  25
ENDBRANCH  23  24
ENDBRANCH   1  23
TORSDOF 21
ENDMDL
MODEL 3
REMARK VINA RESULT:      -9.2      1.633      6.396
REMARK SMILES CC[C@@H]([NH3+])C(=O)N1CC[C@H](C(=O)OCCOCCOCCOC(=O)c2ccc(-c3c4nc(c(-c5ccccc5)c5ccc([nH]5)c(-c5ccccc5)c5nc(c(-c6ccccc6)c6ccc3[nH]6)C=C5)C=C4)cc2)[C@@H]1C
REMARK SMILES IDX 17 1 16 2 15 3 14 4 13 5 11 6 12 7 10 8 7 9 8 10 73 11 9 12
REMARK SMILES IDX 74 13 5 14 6 15 3 16 2 17 1 18 4 19 18 23 19 24 20 25 21 26
REMARK SMILES IDX 22 27 23 28 24 29 25 30 26 31 72 32 27 33 71 34 28 35 29 36
REMARK SMILES IDX 30 37 65 38 31 39 70 40 64 41 66 42 32 43 69 44 63 45 62 46
REMARK SMILES IDX 33 48 55 49 40 50 54 51 41 52 44 53 53 54 67 55 42 56 43 57
REMARK SMILES IDX 52 59 68 60 45 61 34 62 35 63 39 64 36 65 38 66 37 67 56 68
REMARK SMILES IDX 57 69 61 70 58 71 60 72 59 73 46 74 47 75 51 76 48 77 50 78
REMARK SMILES IDX 49 79
REMARK H PARENT 4 20 4 21 4 22 66 47 44 58
REMARK Flexibility Score: inf
ROOT
ATOM      1  C   UNL A   1      35.022  32.302  28.241  1.00  0.00     0.188 C 
ENDROOT
BRANCH   1   2
ATOM      2  O   UNL A   1      34.526  31.277  27.394  1.00  0.00    -0.376 OA
BRANCH   2   3
ATOM      3  C   UNL A   1      35.047  29.970  27.619  1.00  0.00     0.202 C 
BRANCH   3   4
ATOM      4  C   UNL A   1      34.165  28.820  27.118  1.00  0.00     0.261 C 
BRANCH   4   5
ATOM      5  O   UNL A   1      34.571  28.343  25.824  1.00  0.00    -0.463 OA
BRANCH   5   6
ATOM      6  C   UNL A   1      33.678  27.610  25.102  1.00  0.00     0.311 C 
ATOM      7  O   UNL A   1      33.385  26.451  25.344  1.00  0.00    -0.252 OA
BRANCH   6   8
ATOM      8  C   UNL A   1      33.100  28.508  24.011  1.00  0.00     0.123 C 
ATOM      9  N   UNL A   1      30.804  28.323  23.427  1.00  0.00    -0.334 N 
ATOM     10  C   UNL A   1      31.522  27.206  22.830  1.00  0.00     0.121 C 
ATOM     11  C   UNL A   1      31.716  29.151  24.218  1.00  0.00     0.096 C 
ATOM     12  C   UNL A   1      32.949  27.716  22.721  1.00  0.00     0.039 C 
ATOM     13  C   UNL A   1      31.327  29.305  25.686  1.00  0.00     0.032 C 
BRANCH   9  14
ATOM     14  C   UNL A   1      29.514  28.561  23.002  1.00  0.00     0.280 C 
ATOM     15  O   UNL A   1      28.628  27.725  23.234  1.00  0.00    -0.268 OA
BRANCH  14  16
ATOM     16  C   UNL A   1      29.187  29.711  22.004  1.00  0.00     0.270 C 
BRANCH  16  17
ATOM     17  C   UNL A   1      28.203  30.797  22.429  1.00  0.00     0.072 C 
ATOM     18  C   UNL A   1      28.857  32.160  22.637  1.00  0.00     0.011 C 
ENDBRANCH  16  17
BRANCH  16  19
ATOM     19  N   UNL A   1      30.470  30.291  21.540  1.00  0.00    -0.347 N 
ATOM     20  H   UNL A   1      31.157  29.546  21.422  1.00  0.00     0.345 HD
ATOM     21  H   UNL A   1      30.809  30.961  22.230  1.00  0.00     0.345 HD
ATOM     22  H   UNL A   1      30.325  30.765  20.648  1.00  0.00     0.345 HD
ENDBRANCH  16  19
ENDBRANCH  14  16
ENDBRANCH   9  14
ENDBRANCH   6   8
ENDBRANCH   5   6
ENDBRANCH   4   5
ENDBRANCH   3   4
ENDBRANCH   2   3
ENDBRANCH   1   2
BRANCH   1  23
ATOM     23  C   UNL A   1      34.024  33.452  28.519  1.00  0.00     0.188 C 
BRANCH  23  24
ATOM     24  O   UNL A   1      33.765  33.864  29.851  1.00  0.00    -0.376 OA
BRANCH  24  25
ATOM     25  C   UNL A   1      34.868  34.132  30.706  1.00  0.00     0.202 C 
BRANCH  25  26
ATOM     26  C   UNL A   1      34.787  33.677  32.170  1.00  0.00     0.261 C 
BRANCH  26  27
ATOM     27  O   UNL A   1      35.075  32.281  32.384  1.00  0.00    -0.460 OA
BRANCH  27  28
ATOM     28  C   UNL A   1      36.221  32.026  33.062  1.00  0.00     0.338 C 
ATOM     29  O   UNL A   1      36.477  32.322  34.218  1.00  0.00    -0.246 OA
BRANCH  28  30
ATOM     30  C   UNL A   1      37.119  31.157  32.273  1.00  0.00     0.060 A 
ATOM     31  C   UNL A   1      38.244  30.622  32.918  1.00  0.00     0.016 A 
ATOM     32  C   UNL A   1      36.948  30.987  30.898  1.00  0.00     0.016 A 
ATOM     33  C   UNL A   1      39.238  29.980  32.181  1.00  0.00     0.010 A 
ATOM     34  C   UNL A   1      37.958  30.361  30.156  1.00  0.00     0.010 A 
ATOM     35  C   UNL A   1      39.132  29.906  30.787  1.00  0.00    -0.014 A 
BRANCH  35  36
ATOM     36  C   UNL A   1      40.351  29.609  29.991  1.00  0.00     0.031 A 
ATOM     37  C   UNL A   1      40.459  28.254  29.337  1.00  0.00     0.074 A 
ATOM     38  C   UNL A   1      41.310  30.529  29.784  1.00  0.00     0.049 A 
ATOM     39  N   UNL A   1      41.413  27.763  28.587  1.00  0.00    -0.248 NA
ATOM     40  C   UNL A   1      39.330  27.331  29.553  1.00  0.00     0.031 C 
ATOM     41  C   UNL A   1      41.305  31.896  30.297  1.00  0.00     0.029 A 
ATOM     42  N   UNL A   1      42.481  30.440  29.070  1.00  0.00    -0.354 N 
ATOM     43  C   UNL A   1      40.999  26.482  28.241  1.00  0.00     0.074 A 
ATOM     44  C   UNL A   1      39.727  26.256  28.890  1.00  0.00     0.031 C 
ATOM     45  C   UNL A   1      42.423  32.520  29.882  1.00  0.00     0.029 A 
ATOM     46  C   UNL A   1      43.232  31.588  29.097  1.00  0.00     0.049 A 
ATOM     47  H   UNL A   1      42.755  29.628  28.585  1.00  0.00     0.167 HD
ATOM     48  C   UNL A   1      41.611  25.573  27.445  1.00  0.00     0.031 A 
ATOM     49  C   UNL A   1      44.438  31.851  28.558  1.00  0.00     0.031 A 
ATOM     50  C   UNL A   1      42.886  25.774  26.812  1.00  0.00     0.049 A 
ATOM     51  C   UNL A   1      45.145  30.786  27.758  1.00  0.00     0.074 A 
ATOM     52  C   UNL A   1      43.600  24.901  26.011  1.00  0.00     0.029 A 
ATOM     53  N   UNL A   1      43.636  26.934  26.908  1.00  0.00    -0.354 N 
ATOM     54  N   UNL A   1      44.742  29.580  27.439  1.00  0.00    -0.248 NA
ATOM     55  C   UNL A   1      46.475  31.132  27.229  1.00  0.00     0.031 C 
ATOM     56  C   UNL A   1      44.805  25.518  25.656  1.00  0.00     0.029 A 
ATOM     57  C   UNL A   1      44.811  26.796  26.190  1.00  0.00     0.049 A 
ATOM     58  H   UNL A   1      43.373  27.737  27.413  1.00  0.00     0.167 HD
ATOM     59  C   UNL A   1      45.746  29.043  26.640  1.00  0.00     0.074 A 
ATOM     60  C   UNL A   1      46.771  30.057  26.513  1.00  0.00     0.031 C 
ATOM     61  C   UNL A   1      45.814  27.820  26.059  1.00  0.00     0.031 A 
BRANCH  48  62
ATOM     62  C   UNL A   1      40.908  24.261  27.236  1.00  0.00    -0.014 A 
ATOM     63  C   UNL A   1      39.718  24.187  26.494  1.00  0.00     0.009 A 
ATOM     64  C   UNL A   1      41.452  23.083  27.769  1.00  0.00     0.009 A 
ATOM     65  C   UNL A   1      39.071  22.963  26.317  1.00  0.00     0.001 A 
ATOM     66  C   UNL A   1      40.817  21.857  27.568  1.00  0.00     0.001 A 
ATOM     67  C   UNL A   1      39.623  21.799  26.851  1.00  0.00     0.000 A 
ENDBRANCH  48  62
BRANCH  49  68
ATOM     68  C   UNL A   1      45.084  33.176  28.755  1.00  0.00    -0.014 A 
ATOM     69  C   UNL A   1      44.948  34.189  27.792  1.00  0.00     0.009 A 
ATOM     70  C   UNL A   1      45.901  33.410  29.872  1.00  0.00     0.009 A 
ATOM     71  C   UNL A   1      45.646  35.392  27.925  1.00  0.00     0.001 A 
ATOM     72  C   UNL A   1      46.574  34.625  30.017  1.00  0.00     0.001 A 
ATOM     73  C   UNL A   1      46.457  35.609  29.037  1.00  0.00     0.000 A 
ENDBRANCH  49  68
BRANCH  61  74
ATOM     74  C   UNL A   1      47.003  27.537  25.183  1.00  0.00    -0.014 A 
ATOM     75  C   UNL A   1      48.164  26.931  25.688  1.00  0.00     0.009 A 
ATOM     76  C   UNL A   1      46.950  27.871  23.820  1.00  0.00     0.009 A 
ATOM     77  C   UNL A   1      49.263  26.708  24.856  1.00  0.00     0.001 A 
ATOM     78  C   UNL A   1      48.038  27.618  22.984  1.00  0.00     0.001 A 
ATOM     79  C   UNL A   1      49.198  27.049  23.505  1.00  0.00     0.000 A 
ENDBRANCH  61  74
ENDBRANCH  35  36
ENDBRANCH  28  30
ENDBRANCH  27  28
ENDBRANCH  26  27
ENDBRANCH  25  26
ENDBRANCH  24  25
ENDBRANCH  23  24
ENDBRANCH   1  23
TORSDOF 21
ENDMDL
