MODEL 1
REMARK VINA RESULT:     -11.8      0.000      0.000
REMARK SMILES CC(C)n1c2c(c3ccccc31)[C@@H](c1ccccc1)N(CC(=O)OCCOCCOCCOC(=O)c1ccc(-c3c4nc(c(-c5ccccc5)c5ccc([nH]5)c(-c5ccccc5)c5nc(c(-c6ccccc6)c6ccc3[nH]6)C=C5)C=C4)cc1)C2=O
REMARK SMILES IDX 28 1 27 2 26 3 25 4 24 5 22 6 23 7 21 8 20 9 4 10 5 11 12 12
REMARK SMILES IDX 6 13 84 14 7 15 11 16 13 17 85 18 8 19 10 20 9 21 2 22 1 23
REMARK SMILES IDX 3 24 14 25 15 26 19 27 16 28 18 29 17 30 29 31 30 32 31 33
REMARK SMILES IDX 32 34 33 35 34 36 35 37 36 38 37 39 83 40 38 41 82 42 39 43
REMARK SMILES IDX 40 44 41 45 76 46 42 47 81 48 75 49 77 50 43 51 80 52 74 53
REMARK SMILES IDX 73 54 44 56 66 57 51 58 65 59 52 60 55 61 64 62 78 63 53 64
REMARK SMILES IDX 54 65 63 67 79 68 56 69 45 70 46 71 50 72 47 73 49 74 48 75
REMARK SMILES IDX 67 76 68 77 72 78 69 79 71 80 70 81 57 82 58 83 62 84 59 85
REMARK SMILES IDX 61 86 60 87
REMARK H PARENT 77 55 55 66
REMARK Flexibility Score: inf
ROOT
ATOM      1  C   UNL A   1      34.523  20.801  25.365  1.00  0.00     0.188 C 
ENDROOT
BRANCH   1   2
ATOM      2  O   UNL A   1      33.511  20.085  24.700  1.00  0.00    -0.376 OA
BRANCH   2   3
ATOM      3  C   UNL A   1      32.176  20.548  24.839  1.00  0.00     0.202 C 
BRANCH   3   4
ATOM      4  C   UNL A   1      31.922  21.819  25.670  1.00  0.00     0.261 C 
BRANCH   4   5
ATOM      5  O   UNL A   1      30.519  22.027  26.029  1.00  0.00    -0.462 OA
BRANCH   5   6
ATOM      6  C   UNL A   1      30.262  23.165  26.731  1.00  0.00     0.325 C 
ATOM      7  O   UNL A   1      29.419  23.186  27.630  1.00  0.00    -0.250 OA
BRANCH   6   8
ATOM      8  C   UNL A   1      31.244  24.391  26.543  1.00  0.00     0.243 C 
BRANCH   8   9
ATOM      9  N   UNL A   1      31.280  25.481  25.599  1.00  0.00    -0.315 N 
ATOM     10  N   UNL A   1      31.380  28.936  24.892  1.00  0.00    -0.334 N 
ATOM     11  C   UNL A   1      31.397  27.597  25.054  1.00  0.00     0.114 A 
ATOM     12  C   UNL A   1      30.258  29.252  24.122  1.00  0.00     0.049 A 
ATOM     13  C   UNL A   1      30.494  27.029  24.208  1.00  0.00     0.018 A 
ATOM     14  C   UNL A   1      31.986  26.633  25.923  1.00  0.00     0.272 C 
ATOM     15  C   UNL A   1      29.675  28.041  23.697  1.00  0.00     0.006 A 
ATOM     16  C   UNL A   1      29.679  30.481  23.777  1.00  0.00     0.027 A 
ATOM     17  C   UNL A   1      30.555  25.558  24.294  1.00  0.00     0.150 C 
ATOM     18  O   UNL A   1      32.788  26.762  26.815  1.00  0.00    -0.267 OA
ATOM     19  C   UNL A   1      28.487  28.053  22.940  1.00  0.00     0.011 A 
ATOM     20  C   UNL A   1      28.497  30.468  23.022  1.00  0.00     0.002 A 
ATOM     21  C   UNL A   1      27.908  29.276  22.610  1.00  0.00     0.001 A 
BRANCH  10  22
ATOM     22  C   UNL A   1      32.373  29.852  25.440  1.00  0.00     0.082 C 
ATOM     23  C   UNL A   1      32.090  30.205  26.898  1.00  0.00     0.031 C 
ATOM     24  C   UNL A   1      33.788  29.291  25.247  1.00  0.00     0.031 C 
ENDBRANCH  10  22
BRANCH  17  25
ATOM     25  C   UNL A   1      31.279  25.079  23.008  1.00  0.00    -0.021 A 
ATOM     26  C   UNL A   1      31.523  25.933  21.917  1.00  0.00     0.006 A 
ATOM     27  C   UNL A   1      31.965  23.836  22.979  1.00  0.00     0.006 A 
ATOM     28  C   UNL A   1      32.508  25.623  20.950  1.00  0.00     0.000 A 
ATOM     29  C   UNL A   1      32.918  23.514  22.004  1.00  0.00     0.000 A 
ATOM     30  C   UNL A   1      33.229  24.432  21.015  1.00  0.00     0.000 A 
ENDBRANCH  17  25
ENDBRANCH   8   9
ENDBRANCH   6   8
ENDBRANCH   5   6
ENDBRANCH   4   5
ENDBRANCH   3   4
ENDBRANCH   2   3
ENDBRANCH   1   2
BRANCH   1  31
ATOM     31  C   UNL A   1      35.979  20.512  25.004  1.00  0.00     0.188 C 
BRANCH  31  32
ATOM     32  O   UNL A   1      36.781  21.440  24.322  1.00  0.00    -0.376 OA
BRANCH  32  33
ATOM     33  C   UNL A   1      37.830  22.049  25.056  1.00  0.00     0.202 C 
BRANCH  33  34
ATOM     34  C   UNL A   1      38.926  21.190  25.744  1.00  0.00     0.261 C 
BRANCH  34  35
ATOM     35  O   UNL A   1      39.659  21.839  26.816  1.00  0.00    -0.460 OA
BRANCH  35  36
ATOM     36  C   UNL A   1      40.920  22.286  26.521  1.00  0.00     0.338 C 
ATOM     37  O   UNL A   1      41.707  21.733  25.770  1.00  0.00    -0.246 OA
BRANCH  36  38
ATOM     38  C   UNL A   1      41.031  23.746  26.885  1.00  0.00     0.060 A 
ATOM     39  C   UNL A   1      42.096  24.330  27.582  1.00  0.00     0.016 A 
ATOM     40  C   UNL A   1      39.857  24.483  26.783  1.00  0.00     0.016 A 
ATOM     41  C   UNL A   1      41.902  25.522  28.345  1.00  0.00     0.010 A 
ATOM     42  C   UNL A   1      39.704  25.671  27.519  1.00  0.00     0.010 A 
ATOM     43  C   UNL A   1      40.652  26.162  28.419  1.00  0.00    -0.014 A 
BRANCH  43  44
ATOM     44  C   UNL A   1      40.452  27.544  28.987  1.00  0.00     0.031 A 
ATOM     45  C   UNL A   1      41.371  28.458  28.305  1.00  0.00     0.074 A 
ATOM     46  C   UNL A   1      39.651  28.175  29.898  1.00  0.00     0.049 A 
ATOM     47  N   UNL A   1      42.507  28.790  28.808  1.00  0.00    -0.248 NA
ATOM     48  C   UNL A   1      41.146  28.873  26.923  1.00  0.00     0.031 C 
ATOM     49  C   UNL A   1      38.665  27.624  30.795  1.00  0.00     0.029 A 
ATOM     50  N   UNL A   1      39.549  29.518  30.240  1.00  0.00    -0.354 N 
ATOM     51  C   UNL A   1      43.080  29.632  27.887  1.00  0.00     0.074 A 
ATOM     52  C   UNL A   1      42.295  29.507  26.681  1.00  0.00     0.031 C 
ATOM     53  C   UNL A   1      37.851  28.559  31.338  1.00  0.00     0.029 A 
ATOM     54  C   UNL A   1      38.435  29.855  31.036  1.00  0.00     0.049 A 
ATOM     55  H   UNL A   1      40.208  30.189  29.946  1.00  0.00     0.167 HD
ATOM     56  C   UNL A   1      44.010  30.533  28.290  1.00  0.00     0.031 A 
ATOM     57  C   UNL A   1      38.184  30.949  31.815  1.00  0.00     0.031 A 
ATOM     58  C   UNL A   1      44.488  30.253  29.627  1.00  0.00     0.049 A 
ATOM     59  C   UNL A   1      39.480  31.552  32.150  1.00  0.00     0.074 A 
ATOM     60  C   UNL A   1      45.108  29.175  30.230  1.00  0.00     0.029 A 
ATOM     61  N   UNL A   1      43.961  31.003  30.651  1.00  0.00    -0.354 N 
ATOM     62  N   UNL A   1      40.314  31.035  33.000  1.00  0.00    -0.248 NA
ATOM     63  C   UNL A   1      40.021  32.529  31.229  1.00  0.00     0.031 C 
ATOM     64  C   UNL A   1      44.547  29.096  31.538  1.00  0.00     0.029 A 
ATOM     65  C   UNL A   1      43.672  30.170  31.703  1.00  0.00     0.049 A 
ATOM     66  H   UNL A   1      43.816  31.977  30.635  1.00  0.00     0.167 HD
ATOM     67  C   UNL A   1      41.550  31.242  32.414  1.00  0.00     0.074 A 
ATOM     68  C   UNL A   1      41.316  32.251  31.383  1.00  0.00     0.031 C 
ATOM     69  C   UNL A   1      42.581  30.377  32.635  1.00  0.00     0.031 A 
BRANCH  56  70
ATOM     70  C   UNL A   1      44.180  31.858  27.619  1.00  0.00    -0.014 A 
ATOM     71  C   UNL A   1      44.442  31.999  26.242  1.00  0.00     0.009 A 
ATOM     72  C   UNL A   1      43.844  33.018  28.329  1.00  0.00     0.009 A 
ATOM     73  C   UNL A   1      44.397  33.237  25.605  1.00  0.00     0.001 A 
ATOM     74  C   UNL A   1      43.755  34.255  27.684  1.00  0.00     0.001 A 
ATOM     75  C   UNL A   1      44.036  34.365  26.325  1.00  0.00     0.000 A 
ENDBRANCH  56  70
BRANCH  57  76
ATOM     76  C   UNL A   1      36.931  31.741  31.969  1.00  0.00    -0.014 A 
ATOM     77  C   UNL A   1      36.437  32.513  30.907  1.00  0.00     0.009 A 
ATOM     78  C   UNL A   1      36.384  31.977  33.249  1.00  0.00     0.009 A 
ATOM     79  C   UNL A   1      35.507  33.540  31.129  1.00  0.00     0.001 A 
ATOM     80  C   UNL A   1      35.455  33.005  33.472  1.00  0.00     0.001 A 
ATOM     81  C   UNL A   1      35.037  33.804  32.413  1.00  0.00     0.000 A 
ENDBRANCH  57  76
BRANCH  69  82
ATOM     82  C   UNL A   1      42.476  29.402  33.794  1.00  0.00    -0.014 A 
ATOM     83  C   UNL A   1      41.886  28.154  33.538  1.00  0.00     0.009 A 
ATOM     84  C   UNL A   1      42.797  29.715  35.128  1.00  0.00     0.009 A 
ATOM     85  C   UNL A   1      41.597  27.260  34.572  1.00  0.00     0.001 A 
ATOM     86  C   UNL A   1      42.534  28.807  36.164  1.00  0.00     0.001 A 
ATOM     87  C   UNL A   1      41.922  27.586  35.885  1.00  0.00     0.000 A 
ENDBRANCH  69  82
ENDBRANCH  43  44
ENDBRANCH  36  38
ENDBRANCH  35  36
ENDBRANCH  34  35
ENDBRANCH  33  34
ENDBRANCH  32  33
ENDBRANCH  31  32
ENDBRANCH   1  31
TORSDOF 20
ENDMDL
MODEL 2
REMARK VINA RESULT:     -10.9      3.384      7.353
REMARK SMILES CC(C)n1c2c(c3ccccc31)[C@@H](c1ccccc1)N(CC(=O)OCCOCCOCCOC(=O)c1ccc(-c3c4nc(c(-c5ccccc5)c5ccc([nH]5)c(-c5ccccc5)c5nc(c(-c6ccccc6)c6ccc3[nH]6)C=C5)C=C4)cc1)C2=O
REMARK SMILES IDX 28 1 27 2 26 3 25 4 24 5 22 6 23 7 21 8 20 9 4 10 5 11 12 12
REMARK SMILES IDX 6 13 84 14 7 15 11 16 13 17 85 18 8 19 10 20 9 21 2 22 1 23
REMARK SMILES IDX 3 24 14 25 15 26 19 27 16 28 18 29 17 30 29 31 30 32 31 33
REMARK SMILES IDX 32 34 33 35 34 36 35 37 36 38 37 39 83 40 38 41 82 42 39 43
REMARK SMILES IDX 40 44 41 45 76 46 42 47 81 48 75 49 77 50 43 51 80 52 74 53
REMARK SMILES IDX 73 54 44 56 66 57 51 58 65 59 52 60 55 61 64 62 78 63 53 64
REMARK SMILES IDX 54 65 63 67 79 68 56 69 45 70 46 71 50 72 47 73 49 74 48 75
REMARK SMILES IDX 67 76 68 77 72 78 69 79 71 80 70 81 57 82 58 83 62 84 59 85
REMARK SMILES IDX 61 86 60 87
REMARK H PARENT 77 55 55 66
REMARK Flexibility Score: inf
ROOT
ATOM      1  C   UNL A   1      34.546  20.709  25.085  1.00  0.00     0.188 C 
ENDROOT
BRANCH   1   2
ATOM      2  O   UNL A   1      33.491  19.912  24.608  1.00  0.00    -0.376 OA
BRANCH   2   3
ATOM      3  C   UNL A   1      32.165  20.348  24.868  1.00  0.00     0.202 C 
BRANCH   3   4
ATOM      4  C   UNL A   1      31.955  21.511  25.857  1.00  0.00     0.261 C 
BRANCH   4   5
ATOM      5  O   UNL A   1      30.654  22.168  25.738  1.00  0.00    -0.462 OA
BRANCH   5   6
ATOM      6  C   UNL A   1      30.410  23.143  26.655  1.00  0.00     0.325 C 
ATOM      7  O   UNL A   1      29.715  22.928  27.650  1.00  0.00    -0.250 OA
BRANCH   6   8
ATOM      8  C   UNL A   1      31.242  24.485  26.552  1.00  0.00     0.243 C 
BRANCH   8   9
ATOM      9  N   UNL A   1      31.249  25.562  25.593  1.00  0.00    -0.315 N 
ATOM     10  N   UNL A   1      31.298  29.009  24.838  1.00  0.00    -0.334 N 
ATOM     11  C   UNL A   1      31.333  27.672  25.017  1.00  0.00     0.114 A 
ATOM     12  C   UNL A   1      30.158  29.302  24.085  1.00  0.00     0.049 A 
ATOM     13  C   UNL A   1      30.420  27.083  24.196  1.00  0.00     0.018 A 
ATOM     14  C   UNL A   1      31.948  26.726  25.888  1.00  0.00     0.272 C 
ATOM     15  C   UNL A   1      29.580  28.079  23.688  1.00  0.00     0.006 A 
ATOM     16  C   UNL A   1      29.560  30.520  23.735  1.00  0.00     0.027 A 
ATOM     17  C   UNL A   1      30.498  25.614  24.300  1.00  0.00     0.150 C 
ATOM     18  O   UNL A   1      32.766  26.875  26.762  1.00  0.00    -0.267 OA
ATOM     19  C   UNL A   1      28.379  28.069  22.953  1.00  0.00     0.011 A 
ATOM     20  C   UNL A   1      28.364  30.485  23.003  1.00  0.00     0.002 A 
ATOM     21  C   UNL A   1      27.780  29.281  22.618  1.00  0.00     0.001 A 
BRANCH  10  22
ATOM     22  C   UNL A   1      32.292  29.941  25.354  1.00  0.00     0.082 C 
ATOM     23  C   UNL A   1      32.079  30.249  26.835  1.00  0.00     0.031 C 
ATOM     24  C   UNL A   1      33.710  29.432  25.069  1.00  0.00     0.031 C 
ENDBRANCH  10  22
BRANCH  17  25
ATOM     25  C   UNL A   1      31.204  25.125  23.007  1.00  0.00    -0.021 A 
ATOM     26  C   UNL A   1      31.617  26.008  21.994  1.00  0.00     0.006 A 
ATOM     27  C   UNL A   1      31.704  23.800  22.909  1.00  0.00     0.006 A 
ATOM     28  C   UNL A   1      32.590  25.626  21.041  1.00  0.00     0.000 A 
ATOM     29  C   UNL A   1      32.644  23.411  21.945  1.00  0.00     0.000 A 
ATOM     30  C   UNL A   1      33.128  24.341  21.040  1.00  0.00     0.000 A 
ENDBRANCH  17  25
ENDBRANCH   8   9
ENDBRANCH   6   8
ENDBRANCH   5   6
ENDBRANCH   4   5
ENDBRANCH   3   4
ENDBRANCH   2   3
ENDBRANCH   1   2
BRANCH   1  31
ATOM     31  C   UNL A   1      34.949  21.946  24.283  1.00  0.00     0.188 C 
BRANCH  31  32
ATOM     32  O   UNL A   1      34.509  23.234  24.621  1.00  0.00    -0.376 OA
BRANCH  32  33
ATOM     33  C   UNL A   1      35.477  24.130  25.143  1.00  0.00     0.202 C 
BRANCH  33  34
ATOM     34  C   UNL A   1      36.995  23.836  25.003  1.00  0.00     0.261 C 
BRANCH  34  35
ATOM     35  O   UNL A   1      37.708  23.584  26.243  1.00  0.00    -0.460 OA
BRANCH  35  36
ATOM     36  C   UNL A   1      38.580  22.527  26.251  1.00  0.00     0.338 C 
ATOM     37  O   UNL A   1      38.516  21.553  25.518  1.00  0.00    -0.246 OA
BRANCH  36  38
ATOM     38  C   UNL A   1      39.851  22.933  26.956  1.00  0.00     0.060 A 
ATOM     39  C   UNL A   1      39.990  24.033  27.810  1.00  0.00     0.016 A 
ATOM     40  C   UNL A   1      41.018  22.347  26.478  1.00  0.00     0.016 A 
ATOM     41  C   UNL A   1      41.260  24.661  27.991  1.00  0.00     0.010 A 
ATOM     42  C   UNL A   1      42.259  22.968  26.699  1.00  0.00     0.010 A 
ATOM     43  C   UNL A   1      42.417  24.199  27.339  1.00  0.00    -0.014 A 
BRANCH  43  44
ATOM     44  C   UNL A   1      43.811  24.652  27.687  1.00  0.00     0.031 A 
ATOM     45  C   UNL A   1      44.051  24.351  29.100  1.00  0.00     0.074 A 
ATOM     46  C   UNL A   1      44.898  25.206  27.068  1.00  0.00     0.049 A 
ATOM     47  N   UNL A   1      43.905  25.234  30.024  1.00  0.00    -0.248 NA
ATOM     48  C   UNL A   1      44.262  22.982  29.562  1.00  0.00     0.031 C 
ATOM     49  C   UNL A   1      45.042  25.681  25.714  1.00  0.00     0.029 A 
ATOM     50  N   UNL A   1      46.172  25.484  27.548  1.00  0.00    -0.354 N 
ATOM     51  C   UNL A   1      44.200  24.585  31.198  1.00  0.00     0.074 A 
ATOM     52  C   UNL A   1      44.234  23.176  30.882  1.00  0.00     0.031 C 
ATOM     53  C   UNL A   1      46.331  25.887  25.353  1.00  0.00     0.029 A 
ATOM     54  C   UNL A   1      47.127  25.818  26.566  1.00  0.00     0.049 A 
ATOM     55  H   UNL A   1      46.393  25.451  28.507  1.00  0.00     0.167 HD
ATOM     56  C   UNL A   1      44.623  25.298  32.270  1.00  0.00     0.031 A 
ATOM     57  C   UNL A   1      48.335  26.448  26.664  1.00  0.00     0.031 A 
ATOM     58  C   UNL A   1      44.405  26.718  32.094  1.00  0.00     0.049 A 
ATOM     59  C   UNL A   1      48.318  27.233  27.904  1.00  0.00     0.074 A 
ATOM     60  C   UNL A   1      43.293  27.508  31.866  1.00  0.00     0.029 A 
ATOM     61  N   UNL A   1      45.488  27.477  31.720  1.00  0.00    -0.354 N 
ATOM     62  N   UNL A   1      47.640  28.330  28.051  1.00  0.00    -0.248 NA
ATOM     63  C   UNL A   1      48.744  26.572  29.119  1.00  0.00     0.031 C 
ATOM     64  C   UNL A   1      43.726  28.520  30.961  1.00  0.00     0.029 A 
ATOM     65  C   UNL A   1      45.094  28.352  30.739  1.00  0.00     0.049 A 
ATOM     66  H   UNL A   1      46.396  27.407  32.094  1.00  0.00     0.167 HD
ATOM     67  C   UNL A   1      47.138  28.237  29.337  1.00  0.00     0.074 A 
ATOM     68  C   UNL A   1      47.931  27.188  29.977  1.00  0.00     0.031 C 
ATOM     69  C   UNL A   1      45.950  28.821  29.667  1.00  0.00     0.031 A 
BRANCH  56  70
ATOM     70  C   UNL A   1      45.569  24.733  33.280  1.00  0.00    -0.014 A 
ATOM     71  C   UNL A   1      46.932  25.085  33.345  1.00  0.00     0.009 A 
ATOM     72  C   UNL A   1      45.046  23.997  34.351  1.00  0.00     0.009 A 
ATOM     73  C   UNL A   1      47.743  24.702  34.411  1.00  0.00     0.001 A 
ATOM     74  C   UNL A   1      45.846  23.650  35.443  1.00  0.00     0.001 A 
ATOM     75  C   UNL A   1      47.194  23.998  35.471  1.00  0.00     0.000 A 
ENDBRANCH  56  70
BRANCH  57  76
ATOM     76  C   UNL A   1      49.631  26.132  25.999  1.00  0.00    -0.014 A 
ATOM     77  C   UNL A   1      50.575  25.307  26.627  1.00  0.00     0.009 A 
ATOM     78  C   UNL A   1      50.066  26.881  24.883  1.00  0.00     0.009 A 
ATOM     79  C   UNL A   1      51.918  25.301  26.219  1.00  0.00     0.001 A 
ATOM     80  C   UNL A   1      51.409  26.876  24.476  1.00  0.00     0.001 A 
ATOM     81  C   UNL A   1      52.341  26.105  25.163  1.00  0.00     0.000 A 
ENDBRANCH  57  76
BRANCH  69  82
ATOM     82  C   UNL A   1      45.367  29.863  28.730  1.00  0.00    -0.014 A 
ATOM     83  C   UNL A   1      44.448  29.422  27.763  1.00  0.00     0.009 A 
ATOM     84  C   UNL A   1      45.790  31.204  28.670  1.00  0.00     0.009 A 
ATOM     85  C   UNL A   1      43.987  30.274  26.757  1.00  0.00     0.001 A 
ATOM     86  C   UNL A   1      45.305  32.068  27.678  1.00  0.00     0.001 A 
ATOM     87  C   UNL A   1      44.415  31.597  26.714  1.00  0.00     0.000 A 
ENDBRANCH  69  82
ENDBRANCH  43  44
ENDBRANCH  36  38
ENDBRANCH  35  36
ENDBRANCH  34  35
ENDBRANCH  33  34
ENDBRANCH  32  33
ENDBRANCH  31  32
ENDBRANCH   1  31
TORSDOF 20
ENDMDL
MODEL 3
REMARK VINA RESULT:     -10.5      5.536     10.075
REMARK SMILES CC(C)n1c2c(c3ccccc31)[C@@H](c1ccccc1)N(CC(=O)OCCOCCOCCOC(=O)c1ccc(-c3c4nc(c(-c5ccccc5)c5ccc([nH]5)c(-c5ccccc5)c5nc(c(-c6ccccc6)c6ccc3[nH]6)C=C5)C=C4)cc1)C2=O
REMARK SMILES IDX 28 1 27 2 26 3 25 4 24 5 22 6 23 7 21 8 20 9 4 10 5 11 12 12
REMARK SMILES IDX 6 13 84 14 7 15 11 16 13 17 85 18 8 19 10 20 9 21 2 22 1 23
REMARK SMILES IDX 3 24 14 25 15 26 19 27 16 28 18 29 17 30 29 31 30 32 31 33
REMARK SMILES IDX 32 34 33 35 34 36 35 37 36 38 37 39 83 40 38 41 82 42 39 43
REMARK SMILES IDX 40 44 41 45 76 46 42 47 81 48 75 49 77 50 43 51 80 52 74 53
REMARK SMILES IDX 73 54 44 56 66 57 51 58 65 59 52 60 55 61 64 62 78 63 53 64
REMARK SMILES IDX 54 65 63 67 79 68 56 69 45 70 46 71 50 72 47 73 49 74 48 75
REMARK SMILES IDX 67 76 68 77 72 78 69 79 71 80 70 81 57 82 58 83 62 84 59 85
REMARK SMILES IDX 61 86 60 87
REMARK H PARENT 77 55 55 66
REMARK Flexibility Score: inf
ROOT
ATOM      1  C   UNL A   1      35.930  31.362  30.028  1.00  0.00     0.188 C 
ENDROOT
BRANCH   1   2
ATOM      2  O   UNL A   1      34.738  32.081  29.830  1.00  0.00    -0.376 OA
BRANCH   2   3
ATOM      3  C   UNL A   1      34.740  33.105  28.847  1.00  0.00     0.202 C 
BRANCH   3   4
ATOM      4  C   UNL A   1      33.446  33.360  28.050  1.00  0.00     0.261 C 
BRANCH   4   5
ATOM      5  O   UNL A   1      33.300  32.517  26.864  1.00  0.00    -0.462 OA
BRANCH   5   6
ATOM      6  C   UNL A   1      32.170  31.758  26.828  1.00  0.00     0.325 C 
ATOM      7  O   UNL A   1      31.089  32.235  26.477  1.00  0.00    -0.250 OA
BRANCH   6   8
ATOM      8  C   UNL A   1      32.320  30.192  27.001  1.00  0.00     0.243 C 
BRANCH   8   9
ATOM      9  N   UNL A   1      31.872  29.072  26.211  1.00  0.00    -0.315 N 
ATOM     10  N   UNL A   1      31.853  25.614  25.509  1.00  0.00    -0.334 N 
ATOM     11  C   UNL A   1      31.749  26.942  25.726  1.00  0.00     0.114 A 
ATOM     12  C   UNL A   1      32.308  25.437  24.200  1.00  0.00     0.049 A 
ATOM     13  C   UNL A   1      31.861  27.602  24.541  1.00  0.00     0.018 A 
ATOM     14  C   UNL A   1      31.680  27.843  26.828  1.00  0.00     0.272 C 
ATOM     15  C   UNL A   1      32.335  26.702  23.581  1.00  0.00     0.006 A 
ATOM     16  C   UNL A   1      32.725  24.293  23.505  1.00  0.00     0.027 A 
ATOM     17  C   UNL A   1      31.658  29.050  24.731  1.00  0.00     0.150 C 
ATOM     18  O   UNL A   1      31.612  27.633  28.014  1.00  0.00    -0.267 OA
ATOM     19  C   UNL A   1      32.806  26.835  22.260  1.00  0.00     0.011 A 
ATOM     20  C   UNL A   1      33.189  24.450  22.191  1.00  0.00     0.002 A 
ATOM     21  C   UNL A   1      33.231  25.698  21.576  1.00  0.00     0.001 A 
BRANCH  10  22
ATOM     22  C   UNL A   1      31.538  24.585  26.492  1.00  0.00     0.082 C 
ATOM     23  C   UNL A   1      30.288  23.792  26.117  1.00  0.00     0.031 C 
ATOM     24  C   UNL A   1      32.750  23.674  26.727  1.00  0.00     0.031 C 
ENDBRANCH  10  22
BRANCH  17  25
ATOM     25  C   UNL A   1      30.243  29.366  24.177  1.00  0.00    -0.021 A 
ATOM     26  C   UNL A   1      29.807  30.679  23.928  1.00  0.00     0.006 A 
ATOM     27  C   UNL A   1      29.424  28.336  23.644  1.00  0.00     0.006 A 
ATOM     28  C   UNL A   1      28.712  30.938  23.070  1.00  0.00     0.000 A 
ATOM     29  C   UNL A   1      28.320  28.591  22.820  1.00  0.00     0.000 A 
ATOM     30  C   UNL A   1      27.994  29.895  22.489  1.00  0.00     0.000 A 
ENDBRANCH  17  25
ENDBRANCH   8   9
ENDBRANCH   6   8
ENDBRANCH   5   6
ENDBRANCH   4   5
ENDBRANCH   3   4
ENDBRANCH   2   3
ENDBRANCH   1   2
BRANCH   1  31
ATOM     31  C   UNL A   1      36.830  31.750  31.200  1.00  0.00     0.188 C 
BRANCH  31  32
ATOM     32  O   UNL A   1      37.712  30.840  31.801  1.00  0.00    -0.376 OA
BRANCH  32  33
ATOM     33  C   UNL A   1      38.734  30.294  30.983  1.00  0.00     0.202 C 
BRANCH  33  34
ATOM     34  C   UNL A   1      39.476  31.172  29.941  1.00  0.00     0.261 C 
BRANCH  34  35
ATOM     35  O   UNL A   1      40.681  31.832  30.413  1.00  0.00    -0.460 OA
BRANCH  35  36
ATOM     36  C   UNL A   1      40.512  32.894  31.263  1.00  0.00     0.338 C 
ATOM     37  O   UNL A   1      40.404  32.816  32.477  1.00  0.00    -0.246 OA
BRANCH  36  38
ATOM     38  C   UNL A   1      40.918  34.166  30.562  1.00  0.00     0.060 A 
ATOM     39  C   UNL A   1      40.303  34.698  29.423  1.00  0.00     0.016 A 
ATOM     40  C   UNL A   1      42.172  34.665  30.900  1.00  0.00     0.016 A 
ATOM     41  C   UNL A   1      41.029  35.542  28.528  1.00  0.00     0.010 A 
ATOM     42  C   UNL A   1      42.851  35.520  30.016  1.00  0.00     0.010 A 
ATOM     43  C   UNL A   1      42.374  35.882  28.754  1.00  0.00    -0.014 A 
BRANCH  43  44
ATOM     44  C   UNL A   1      43.103  36.961  27.994  1.00  0.00     0.031 A 
ATOM     45  C   UNL A   1      44.384  36.415  27.540  1.00  0.00     0.074 A 
ATOM     46  C   UNL A   1      42.896  38.248  27.583  1.00  0.00     0.049 A 
ATOM     47  N   UNL A   1      45.480  36.610  28.185  1.00  0.00    -0.248 NA
ATOM     48  C   UNL A   1      44.456  35.446  26.450  1.00  0.00     0.031 C 
ATOM     49  C   UNL A   1      41.795  39.137  27.862  1.00  0.00     0.029 A 
ATOM     50  N   UNL A   1      43.673  39.084  26.790  1.00  0.00    -0.354 N 
ATOM     51  C   UNL A   1      46.445  35.943  27.472  1.00  0.00     0.074 A 
ATOM     52  C   UNL A   1      45.744  35.103  26.529  1.00  0.00     0.031 C 
ATOM     53  C   UNL A   1      41.767  40.225  27.056  1.00  0.00     0.029 A 
ATOM     54  C   UNL A   1      43.036  40.262  26.350  1.00  0.00     0.049 A 
ATOM     55  H   UNL A   1      44.604  38.869  26.552  1.00  0.00     0.167 HD
ATOM     56  C   UNL A   1      47.740  36.332  27.572  1.00  0.00     0.031 A 
ATOM     57  C   UNL A   1      43.546  41.432  25.861  1.00  0.00     0.031 A 
ATOM     58  C   UNL A   1      47.949  37.231  28.685  1.00  0.00     0.049 A 
ATOM     59  C   UNL A   1      44.934  41.531  26.327  1.00  0.00     0.074 A 
ATOM     60  C   UNL A   1      47.753  37.148  30.051  1.00  0.00     0.029 A 
ATOM     61  N   UNL A   1      48.031  38.574  28.400  1.00  0.00    -0.354 N 
ATOM     62  N   UNL A   1      45.262  41.804  27.554  1.00  0.00    -0.248 NA
ATOM     63  C   UNL A   1      45.960  40.925  25.506  1.00  0.00     0.031 C 
ATOM     64  C   UNL A   1      47.285  38.435  30.447  1.00  0.00     0.029 A 
ATOM     65  C   UNL A   1      47.293  39.266  29.327  1.00  0.00     0.049 A 
ATOM     66  H   UNL A   1      48.537  38.973  27.655  1.00  0.00     0.167 HD
ATOM     67  C   UNL A   1      46.341  40.974  27.798  1.00  0.00     0.074 A 
ATOM     68  C   UNL A   1      46.787  40.534  26.477  1.00  0.00     0.031 C 
ATOM     69  C   UNL A   1      46.592  40.506  29.054  1.00  0.00     0.031 A 
BRANCH  56  70
ATOM     70  C   UNL A   1      48.703  36.193  26.437  1.00  0.00    -0.014 A 
ATOM     71  C   UNL A   1      48.630  36.968  25.262  1.00  0.00     0.009 A 
ATOM     72  C   UNL A   1      49.861  35.429  26.628  1.00  0.00     0.009 A 
ATOM     73  C   UNL A   1      49.648  36.964  24.310  1.00  0.00     0.001 A 
ATOM     74  C   UNL A   1      50.904  35.458  25.698  1.00  0.00     0.001 A 
ATOM     75  C   UNL A   1      50.795  36.220  24.538  1.00  0.00     0.000 A 
ENDBRANCH  56  70
BRANCH  57  76
ATOM     76  C   UNL A   1      43.081  42.269  24.719  1.00  0.00    -0.014 A 
ATOM     77  C   UNL A   1      42.075  41.808  23.857  1.00  0.00     0.009 A 
ATOM     78  C   UNL A   1      43.832  43.389  24.298  1.00  0.00     0.009 A 
ATOM     79  C   UNL A   1      41.890  42.380  22.589  1.00  0.00     0.001 A 
ATOM     80  C   UNL A   1      43.647  43.959  23.029  1.00  0.00     0.001 A 
ATOM     81  C   UNL A   1      42.692  43.436  22.164  1.00  0.00     0.000 A 
ENDBRANCH  57  76
BRANCH  69  82
ATOM     82  C   UNL A   1      45.908  41.179  30.230  1.00  0.00    -0.014 A 
ATOM     83  C   UNL A   1      44.541  40.916  30.420  1.00  0.00     0.009 A 
ATOM     84  C   UNL A   1      46.509  42.150  31.051  1.00  0.00     0.009 A 
ATOM     85  C   UNL A   1      43.791  41.614  31.370  1.00  0.00     0.001 A 
ATOM     86  C   UNL A   1      45.765  42.831  32.025  1.00  0.00     0.001 A 
ATOM     87  C   UNL A   1      44.403  42.571  32.173  1.00  0.00     0.000 A 
ENDBRANCH  69  82
ENDBRANCH  43  44
ENDBRANCH  36  38
ENDBRANCH  35  36
ENDBRANCH  34  35
ENDBRANCH  33  34
ENDBRANCH  32  33
ENDBRANCH  31  32
ENDBRANCH   1  31
TORSDOF 20
ENDMDL
