MODEL 1
REMARK VINA RESULT:      -8.8      0.000      0.000
REMARK SMILES C[C@H]([NH3+])C(=O)N1CCC[C@H]1C(=O)OCCOCCOCCOC(=O)c1ccc(-c2c3nc(c(-c4ccccc4)c4ccc([nH]4)c(-c4ccccc4)c4nc(c(-c5ccccc5)c5ccc2[nH]5)C=C4)C=C3)cc1
REMARK SMILES IDX 17 1 16 2 15 3 14 4 13 5 11 6 12 7 10 8 6 9 7 10 8 11 9 12
REMARK SMILES IDX 4 13 5 14 2 15 1 16 3 17 18 21 19 22 20 23 21 24 22 25 23 26
REMARK SMILES IDX 24 27 25 28 26 29 72 30 27 31 71 32 28 33 29 34 30 35 65 36
REMARK SMILES IDX 31 37 70 38 64 39 66 40 32 41 69 42 63 43 62 44 33 46 55 47
REMARK SMILES IDX 40 48 54 49 41 50 44 51 53 52 67 53 42 54 43 55 52 57 68 58
REMARK SMILES IDX 45 59 34 60 35 61 39 62 36 63 38 64 37 65 56 66 57 67 61 68
REMARK SMILES IDX 58 69 60 70 59 71 46 72 47 73 51 74 48 75 50 76 49 77
REMARK H PARENT 3 18 3 19 3 20 66 45 44 56
REMARK Flexibility Score: inf
ROOT
ATOM      1  C   UNL A   1      34.591  32.225  28.495  1.00  0.00     0.188 C 
ENDROOT
BRANCH   1   2
ATOM      2  O   UNL A   1      33.798  31.505  27.555  1.00  0.00    -0.376 OA
BRANCH   2   3
ATOM      3  C   UNL A   1      34.235  30.210  27.159  1.00  0.00     0.202 C 
BRANCH   3   4
ATOM      4  C   UNL A   1      33.236  29.043  27.196  1.00  0.00     0.261 C 
BRANCH   4   5
ATOM      5  O   UNL A   1      32.111  29.165  26.300  1.00  0.00    -0.462 OA
BRANCH   5   6
ATOM      6  C   UNL A   1      32.315  28.783  25.006  1.00  0.00     0.328 C 
ATOM      7  O   UNL A   1      32.996  29.417  24.203  1.00  0.00    -0.250 OA
BRANCH   6   8
ATOM      8  C   UNL A   1      31.474  27.557  24.585  1.00  0.00     0.195 C 
ATOM      9  N   UNL A   1      30.734  27.491  23.308  1.00  0.00    -0.324 N 
ATOM     10  C   UNL A   1      31.139  26.333  22.531  1.00  0.00     0.121 C 
ATOM     11  C   UNL A   1      31.699  25.376  23.564  1.00  0.00     0.024 C 
ATOM     12  C   UNL A   1      32.368  26.303  24.564  1.00  0.00     0.039 C 
BRANCH   9  13
ATOM     13  C   UNL A   1      29.645  28.315  23.113  1.00  0.00     0.281 C 
ATOM     14  O   UNL A   1      28.506  27.834  23.135  1.00  0.00    -0.268 OA
BRANCH  13  15
ATOM     15  C   UNL A   1      29.812  29.796  22.685  1.00  0.00     0.268 C 
ATOM     16  C   UNL A   1      28.458  30.377  22.285  1.00  0.00     0.086 C 
BRANCH  15  17
ATOM     17  N   UNL A   1      30.848  30.037  21.662  1.00  0.00    -0.348 N 
ATOM     18  H   UNL A   1      30.753  29.350  20.913  1.00  0.00     0.345 HD
ATOM     19  H   UNL A   1      31.771  29.952  22.086  1.00  0.00     0.345 HD
ATOM     20  H   UNL A   1      30.735  30.976  21.278  1.00  0.00     0.345 HD
ENDBRANCH  15  17
ENDBRANCH  13  15
ENDBRANCH   9  13
ENDBRANCH   6   8
ENDBRANCH   5   6
ENDBRANCH   4   5
ENDBRANCH   3   4
ENDBRANCH   2   3
ENDBRANCH   1   2
BRANCH   1  21
ATOM     21  C   UNL A   1      34.054  33.569  29.035  1.00  0.00     0.188 C 
BRANCH  21  22
ATOM     22  O   UNL A   1      34.575  34.703  28.375  1.00  0.00    -0.376 OA
BRANCH  22  23
ATOM     23  C   UNL A   1      34.007  35.967  28.660  1.00  0.00     0.202 C 
BRANCH  23  24
ATOM     24  C   UNL A   1      32.838  36.125  29.653  1.00  0.00     0.261 C 
BRANCH  24  25
ATOM     25  O   UNL A   1      33.156  36.520  30.996  1.00  0.00    -0.460 OA
BRANCH  25  26
ATOM     26  C   UNL A   1      32.758  35.706  31.998  1.00  0.00     0.338 C 
ATOM     27  O   UNL A   1      31.608  35.478  32.352  1.00  0.00    -0.246 OA
BRANCH  26  28
ATOM     28  C   UNL A   1      33.944  34.987  32.507  1.00  0.00     0.060 A 
ATOM     29  C   UNL A   1      35.217  35.543  32.319  1.00  0.00     0.016 A 
ATOM     30  C   UNL A   1      33.798  33.767  33.170  1.00  0.00     0.016 A 
ATOM     31  C   UNL A   1      36.351  34.869  32.776  1.00  0.00     0.010 A 
ATOM     32  C   UNL A   1      34.937  33.082  33.606  1.00  0.00     0.010 A 
ATOM     33  C   UNL A   1      36.221  33.615  33.386  1.00  0.00    -0.014 A 
BRANCH  33  34
ATOM     34  C   UNL A   1      37.421  32.777  33.639  1.00  0.00     0.031 A 
ATOM     35  C   UNL A   1      38.212  33.013  34.897  1.00  0.00     0.074 A 
ATOM     36  C   UNL A   1      37.817  31.830  32.771  1.00  0.00     0.049 A 
ATOM     37  N   UNL A   1      39.333  32.466  35.292  1.00  0.00    -0.248 NA
ATOM     38  C   UNL A   1      37.661  34.007  35.832  1.00  0.00     0.031 C 
ATOM     39  C   UNL A   1      37.122  31.465  31.538  1.00  0.00     0.029 A 
ATOM     40  N   UNL A   1      38.921  31.013  32.792  1.00  0.00    -0.354 N 
ATOM     41  C   UNL A   1      39.636  33.067  36.507  1.00  0.00     0.074 A 
ATOM     42  C   UNL A   1      38.592  34.032  36.774  1.00  0.00     0.031 C 
ATOM     43  C   UNL A   1      37.832  30.514  30.907  1.00  0.00     0.029 A 
ATOM     44  C   UNL A   1      39.046  30.230  31.672  1.00  0.00     0.049 A 
ATOM     45  H   UNL A   1      39.562  30.992  33.540  1.00  0.00     0.167 HD
ATOM     46  C   UNL A   1      40.689  32.839  37.328  1.00  0.00     0.031 A 
ATOM     47  C   UNL A   1      40.040  29.404  31.289  1.00  0.00     0.031 A 
ATOM     48  C   UNL A   1      41.737  31.892  37.056  1.00  0.00     0.049 A 
ATOM     49  C   UNL A   1      41.238  29.215  32.181  1.00  0.00     0.074 A 
ATOM     50  C   UNL A   1      42.827  31.565  37.844  1.00  0.00     0.029 A 
ATOM     51  N   UNL A   1      41.837  31.134  35.899  1.00  0.00    -0.354 N 
ATOM     52  N   UNL A   1      41.496  29.756  33.348  1.00  0.00    -0.248 NA
ATOM     53  C   UNL A   1      42.281  28.293  31.706  1.00  0.00     0.031 C 
ATOM     54  C   UNL A   1      43.626  30.664  37.131  1.00  0.00     0.029 A 
ATOM     55  C   UNL A   1      42.993  30.370  35.934  1.00  0.00     0.049 A 
ATOM     56  H   UNL A   1      41.184  31.138  35.163  1.00  0.00     0.167 HD
ATOM     57  C   UNL A   1      42.712  29.221  33.757  1.00  0.00     0.074 A 
ATOM     58  C   UNL A   1      43.135  28.302  32.720  1.00  0.00     0.031 C 
ATOM     59  C   UNL A   1      43.413  29.465  34.893  1.00  0.00     0.031 A 
BRANCH  46  60
ATOM     60  C   UNL A   1      40.787  33.682  38.570  1.00  0.00    -0.014 A 
ATOM     61  C   UNL A   1      40.294  33.236  39.808  1.00  0.00     0.009 A 
ATOM     62  C   UNL A   1      41.389  34.949  38.498  1.00  0.00     0.009 A 
ATOM     63  C   UNL A   1      40.358  34.062  40.933  1.00  0.00     0.001 A 
ATOM     64  C   UNL A   1      41.483  35.757  39.631  1.00  0.00     0.001 A 
ATOM     65  C   UNL A   1      40.955  35.319  40.844  1.00  0.00     0.000 A 
ENDBRANCH  46  60
BRANCH  47  66
ATOM     66  C   UNL A   1      39.958  28.716  29.973  1.00  0.00    -0.014 A 
ATOM     67  C   UNL A   1      40.490  29.305  28.816  1.00  0.00     0.009 A 
ATOM     68  C   UNL A   1      39.345  27.456  29.871  1.00  0.00     0.009 A 
ATOM     69  C   UNL A   1      40.395  28.654  27.583  1.00  0.00     0.001 A 
ATOM     70  C   UNL A   1      39.280  26.795  28.643  1.00  0.00     0.001 A 
ATOM     71  C   UNL A   1      39.798  27.397  27.499  1.00  0.00     0.000 A 
ENDBRANCH  47  66
BRANCH  59  72
ATOM     72  C   UNL A   1      44.696  28.704  35.099  1.00  0.00    -0.014 A 
ATOM     73  C   UNL A   1      44.712  27.444  35.718  1.00  0.00     0.009 A 
ATOM     74  C   UNL A   1      45.903  29.237  34.618  1.00  0.00     0.009 A 
ATOM     75  C   UNL A   1      45.915  26.751  35.881  1.00  0.00     0.001 A 
ATOM     76  C   UNL A   1      47.098  28.528  34.752  1.00  0.00     0.001 A 
ATOM     77  C   UNL A   1      47.104  27.291  35.392  1.00  0.00     0.000 A 
ENDBRANCH  59  72
ENDBRANCH  33  34
ENDBRANCH  26  28
ENDBRANCH  25  26
ENDBRANCH  24  25
ENDBRANCH  23  24
ENDBRANCH  22  23
ENDBRANCH  21  22
ENDBRANCH   1  21
TORSDOF 20
ENDMDL
MODEL 2
REMARK VINA RESULT:      -8.6      5.274     10.229
REMARK SMILES C[C@H]([NH3+])C(=O)N1CCC[C@H]1C(=O)OCCOCCOCCOC(=O)c1ccc(-c2c3nc(c(-c4ccccc4)c4ccc([nH]4)c(-c4ccccc4)c4nc(c(-c5ccccc5)c5ccc2[nH]5)C=C4)C=C3)cc1
REMARK SMILES IDX 17 1 16 2 15 3 14 4 13 5 11 6 12 7 10 8 6 9 7 10 8 11 9 12
REMARK SMILES IDX 4 13 5 14 2 15 1 16 3 17 18 21 19 22 20 23 21 24 22 25 23 26
REMARK SMILES IDX 24 27 25 28 26 29 72 30 27 31 71 32 28 33 29 34 30 35 65 36
REMARK SMILES IDX 31 37 70 38 64 39 66 40 32 41 69 42 63 43 62 44 33 46 55 47
REMARK SMILES IDX 40 48 54 49 41 50 44 51 53 52 67 53 42 54 43 55 52 57 68 58
REMARK SMILES IDX 45 59 34 60 35 61 39 62 36 63 38 64 37 65 56 66 57 67 61 68
REMARK SMILES IDX 58 69 60 70 59 71 46 72 47 73 51 74 48 75 50 76 49 77
REMARK H PARENT 3 18 3 19 3 20 66 45 44 56
REMARK Flexibility Score: inf
ROOT
ATOM      1  C   UNL A   1      35.195  22.136  24.632  1.00  0.00     0.188 C 
ENDROOT
BRANCH   1   2
ATOM      2  O   UNL A   1      34.478  22.655  23.514  1.00  0.00    -0.376 OA
BRANCH   2   3
ATOM      3  C   UNL A   1      33.063  22.512  23.498  1.00  0.00     0.202 C 
BRANCH   3   4
ATOM      4  C   UNL A   1      32.189  23.722  23.864  1.00  0.00     0.261 C 
BRANCH   4   5
ATOM      5  O   UNL A   1      32.911  24.925  24.202  1.00  0.00    -0.462 OA
BRANCH   5   6
ATOM      6  C   UNL A   1      32.326  25.753  25.117  1.00  0.00     0.328 C 
ATOM      7  O   UNL A   1      31.381  25.429  25.831  1.00  0.00    -0.250 OA
BRANCH   6   8
ATOM      8  C   UNL A   1      32.856  27.204  25.061  1.00  0.00     0.195 C 
ATOM      9  N   UNL A   1      32.024  28.346  24.630  1.00  0.00    -0.324 N 
ATOM     10  C   UNL A   1      31.977  29.372  25.655  1.00  0.00     0.121 C 
ATOM     11  C   UNL A   1      33.229  29.132  26.472  1.00  0.00     0.024 C 
ATOM     12  C   UNL A   1      33.368  27.618  26.453  1.00  0.00     0.039 C 
BRANCH   9  13
ATOM     13  C   UNL A   1      31.623  28.433  23.312  1.00  0.00     0.281 C 
ATOM     14  O   UNL A   1      32.318  27.915  22.430  1.00  0.00    -0.268 OA
BRANCH  13  15
ATOM     15  C   UNL A   1      30.423  29.316  22.883  1.00  0.00     0.268 C 
ATOM     16  C   UNL A   1      29.147  28.479  22.855  1.00  0.00     0.086 C 
BRANCH  15  17
ATOM     17  N   UNL A   1      30.622  30.075  21.633  1.00  0.00    -0.348 N 
ATOM     18  H   UNL A   1      30.227  29.550  20.851  1.00  0.00     0.345 HD
ATOM     19  H   UNL A   1      31.620  30.218  21.477  1.00  0.00     0.345 HD
ATOM     20  H   UNL A   1      30.155  30.979  21.706  1.00  0.00     0.345 HD
ENDBRANCH  15  17
ENDBRANCH  13  15
ENDBRANCH   9  13
ENDBRANCH   6   8
ENDBRANCH   5   6
ENDBRANCH   4   5
ENDBRANCH   3   4
ENDBRANCH   2   3
ENDBRANCH   1   2
BRANCH   1  21
ATOM     21  C   UNL A   1      36.578  21.493  24.387  1.00  0.00     0.188 C 
BRANCH  21  22
ATOM     22  O   UNL A   1      36.736  20.224  24.986  1.00  0.00    -0.376 OA
BRANCH  22  23
ATOM     23  C   UNL A   1      37.999  19.593  24.898  1.00  0.00     0.202 C 
BRANCH  23  24
ATOM     24  C   UNL A   1      39.258  20.206  25.544  1.00  0.00     0.261 C 
BRANCH  24  25
ATOM     25  O   UNL A   1      40.267  19.304  26.022  1.00  0.00    -0.460 OA
BRANCH  25  26
ATOM     26  C   UNL A   1      41.557  19.670  25.865  1.00  0.00     0.338 C 
ATOM     27  O   UNL A   1      42.422  19.076  25.234  1.00  0.00    -0.246 OA
BRANCH  26  28
ATOM     28  C   UNL A   1      41.731  21.015  26.451  1.00  0.00     0.060 A 
ATOM     29  C   UNL A   1      42.139  22.074  25.629  1.00  0.00     0.016 A 
ATOM     30  C   UNL A   1      41.490  21.229  27.809  1.00  0.00     0.016 A 
ATOM     31  C   UNL A   1      42.327  23.349  26.168  1.00  0.00     0.010 A 
ATOM     32  C   UNL A   1      41.703  22.500  28.353  1.00  0.00     0.010 A 
ATOM     33  C   UNL A   1      42.150  23.560  27.541  1.00  0.00    -0.014 A 
BRANCH  33  34
ATOM     34  C   UNL A   1      42.594  24.832  28.166  1.00  0.00     0.031 A 
ATOM     35  C   UNL A   1      41.572  25.909  28.411  1.00  0.00     0.074 A 
ATOM     36  C   UNL A   1      43.878  25.042  28.504  1.00  0.00     0.049 A 
ATOM     37  N   UNL A   1      41.736  27.125  28.866  1.00  0.00    -0.248 NA
ATOM     38  C   UNL A   1      40.178  25.564  28.092  1.00  0.00     0.031 C 
ATOM     39  C   UNL A   1      44.961  24.072  28.365  1.00  0.00     0.029 A 
ATOM     40  N   UNL A   1      44.487  26.160  29.019  1.00  0.00    -0.354 N 
ATOM     41  C   UNL A   1      40.470  27.699  28.863  1.00  0.00     0.074 A 
ATOM     42  C   UNL A   1      39.556  26.706  28.344  1.00  0.00     0.031 C 
ATOM     43  C   UNL A   1      46.110  24.647  28.761  1.00  0.00     0.029 A 
ATOM     44  C   UNL A   1      45.848  26.033  29.146  1.00  0.00     0.049 A 
ATOM     45  H   UNL A   1      43.995  26.974  29.273  1.00  0.00     0.167 HD
ATOM     46  C   UNL A   1      40.102  28.942  29.256  1.00  0.00     0.031 A 
ATOM     47  C   UNL A   1      46.782  26.939  29.499  1.00  0.00     0.031 A 
ATOM     48  C   UNL A   1      41.012  29.937  29.756  1.00  0.00     0.049 A 
ATOM     49  C   UNL A   1      46.362  28.339  29.865  1.00  0.00     0.074 A 
ATOM     50  C   UNL A   1      40.728  31.213  30.212  1.00  0.00     0.029 A 
ATOM     51  N   UNL A   1      42.387  29.775  29.848  1.00  0.00    -0.354 N 
ATOM     52  N   UNL A   1      45.159  28.861  29.901  1.00  0.00    -0.248 NA
ATOM     53  C   UNL A   1      47.430  29.274  30.249  1.00  0.00     0.031 C 
ATOM     54  C   UNL A   1      41.938  31.849  30.510  1.00  0.00     0.029 A 
ATOM     55  C   UNL A   1      42.969  30.944  30.315  1.00  0.00     0.049 A 
ATOM     56  H   UNL A   1      42.876  28.953  29.617  1.00  0.00     0.167 HD
ATOM     57  C   UNL A   1      45.323  30.171  30.334  1.00  0.00     0.074 A 
ATOM     58  C   UNL A   1      46.741  30.361  30.563  1.00  0.00     0.031 C 
ATOM     59  C   UNL A   1      44.382  31.129  30.531  1.00  0.00     0.031 A 
BRANCH  46  60
ATOM     60  C   UNL A   1      38.652  29.311  29.095  1.00  0.00    -0.014 A 
ATOM     61  C   UNL A   1      37.748  29.247  30.168  1.00  0.00     0.009 A 
ATOM     62  C   UNL A   1      38.185  29.736  27.840  1.00  0.00     0.009 A 
ATOM     63  C   UNL A   1      36.398  29.552  29.974  1.00  0.00     0.001 A 
ATOM     64  C   UNL A   1      36.844  30.075  27.659  1.00  0.00     0.001 A 
ATOM     65  C   UNL A   1      35.949  29.968  28.721  1.00  0.00     0.000 A 
ENDBRANCH  46  60
BRANCH  47  66
ATOM     66  C   UNL A   1      48.219  26.557  29.489  1.00  0.00    -0.014 A 
ATOM     67  C   UNL A   1      49.012  26.761  28.350  1.00  0.00     0.009 A 
ATOM     68  C   UNL A   1      48.806  25.985  30.630  1.00  0.00     0.009 A 
ATOM     69  C   UNL A   1      50.358  26.386  28.349  1.00  0.00     0.001 A 
ATOM     70  C   UNL A   1      50.159  25.640  30.636  1.00  0.00     0.001 A 
ATOM     71  C   UNL A   1      50.932  25.833  29.494  1.00  0.00     0.000 A 
ENDBRANCH  47  66
BRANCH  59  72
ATOM     72  C   UNL A   1      44.844  32.464  31.053  1.00  0.00    -0.014 A 
ATOM     73  C   UNL A   1      45.175  33.519  30.187  1.00  0.00     0.009 A 
ATOM     74  C   UNL A   1      44.901  32.684  32.439  1.00  0.00     0.009 A 
ATOM     75  C   UNL A   1      45.584  34.753  30.700  1.00  0.00     0.001 A 
ATOM     76  C   UNL A   1      45.277  33.928  32.948  1.00  0.00     0.001 A 
ATOM     77  C   UNL A   1      45.629  34.957  32.078  1.00  0.00     0.000 A 
ENDBRANCH  59  72
ENDBRANCH  33  34
ENDBRANCH  26  28
ENDBRANCH  25  26
ENDBRANCH  24  25
ENDBRANCH  23  24
ENDBRANCH  22  23
ENDBRANCH  21  22
ENDBRANCH   1  21
TORSDOF 20
ENDMDL
MODEL 3
REMARK VINA RESULT:      -8.5      1.050      2.062
REMARK SMILES C[C@H]([NH3+])C(=O)N1CCC[C@H]1C(=O)OCCOCCOCCOC(=O)c1ccc(-c2c3nc(c(-c4ccccc4)c4ccc([nH]4)c(-c4ccccc4)c4nc(c(-c5ccccc5)c5ccc2[nH]5)C=C4)C=C3)cc1
REMARK SMILES IDX 17 1 16 2 15 3 14 4 13 5 11 6 12 7 10 8 6 9 7 10 8 11 9 12
REMARK SMILES IDX 4 13 5 14 2 15 1 16 3 17 18 21 19 22 20 23 21 24 22 25 23 26
REMARK SMILES IDX 24 27 25 28 26 29 72 30 27 31 71 32 28 33 29 34 30 35 65 36
REMARK SMILES IDX 31 37 70 38 64 39 66 40 32 41 69 42 63 43 62 44 33 46 55 47
REMARK SMILES IDX 40 48 54 49 41 50 44 51 53 52 67 53 42 54 43 55 52 57 68 58
REMARK SMILES IDX 45 59 34 60 35 61 39 62 36 63 38 64 37 65 56 66 57 67 61 68
REMARK SMILES IDX 58 69 60 70 59 71 46 72 47 73 51 74 48 75 50 76 49 77
REMARK H PARENT 3 18 3 19 3 20 66 45 44 56
REMARK Flexibility Score: inf
ROOT
ATOM      1  C   UNL A   1      34.792  32.401  28.359  1.00  0.00     0.188 C 
ENDROOT
BRANCH   1   2
ATOM      2  O   UNL A   1      34.234  31.229  27.770  1.00  0.00    -0.376 OA
BRANCH   2   3
ATOM      3  C   UNL A   1      35.093  30.118  27.540  1.00  0.00     0.202 C 
BRANCH   3   4
ATOM      4  C   UNL A   1      34.486  28.800  27.034  1.00  0.00     0.261 C 
BRANCH   4   5
ATOM      5  O   UNL A   1      34.112  28.789  25.640  1.00  0.00    -0.462 OA
BRANCH   5   6
ATOM      6  C   UNL A   1      33.193  27.853  25.260  1.00  0.00     0.328 C 
ATOM      7  O   UNL A   1      32.878  26.884  25.946  1.00  0.00    -0.250 OA
BRANCH   6   8
ATOM      8  C   UNL A   1      32.697  28.031  23.808  1.00  0.00     0.195 C 
ATOM      9  N   UNL A   1      32.187  26.910  22.991  1.00  0.00    -0.324 N 
ATOM     10  C   UNL A   1      30.843  27.181  22.515  1.00  0.00     0.121 C 
ATOM     11  C   UNL A   1      30.739  28.692  22.551  1.00  0.00     0.024 C 
ATOM     12  C   UNL A   1      31.555  29.064  23.778  1.00  0.00     0.039 C 
BRANCH   9  13
ATOM     13  C   UNL A   1      33.058  25.920  22.581  1.00  0.00     0.281 C 
ATOM     14  O   UNL A   1      33.785  26.118  21.600  1.00  0.00    -0.268 OA
BRANCH  13  15
ATOM     15  C   UNL A   1      33.023  24.499  23.201  1.00  0.00     0.268 C 
ATOM     16  C   UNL A   1      34.442  23.949  23.315  1.00  0.00     0.086 C 
BRANCH  15  17
ATOM     17  N   UNL A   1      32.107  23.552  22.538  1.00  0.00    -0.348 N 
ATOM     18  H   UNL A   1      32.018  22.710  23.108  1.00  0.00     0.345 HD
ATOM     19  H   UNL A   1      32.480  23.303  21.621  1.00  0.00     0.345 HD
ATOM     20  H   UNL A   1      31.190  23.985  22.427  1.00  0.00     0.345 HD
ENDBRANCH  15  17
ENDBRANCH  13  15
ENDBRANCH   9  13
ENDBRANCH   6   8
ENDBRANCH   5   6
ENDBRANCH   4   5
ENDBRANCH   3   4
ENDBRANCH   2   3
ENDBRANCH   1   2
BRANCH   1  21
ATOM     21  C   UNL A   1      33.996  33.722  28.267  1.00  0.00     0.188 C 
BRANCH  21  22
ATOM     22  O   UNL A   1      34.739  34.867  28.630  1.00  0.00    -0.376 OA
BRANCH  22  23
ATOM     23  C   UNL A   1      34.046  36.087  28.813  1.00  0.00     0.202 C 
BRANCH  23  24
ATOM     24  C   UNL A   1      32.859  36.206  29.790  1.00  0.00     0.261 C 
BRANCH  24  25
ATOM     25  O   UNL A   1      33.152  36.544  31.154  1.00  0.00    -0.460 OA
BRANCH  25  26
ATOM     26  C   UNL A   1      32.748  35.682  32.112  1.00  0.00     0.338 C 
ATOM     27  O   UNL A   1      31.596  35.429  32.440  1.00  0.00    -0.246 OA
BRANCH  26  28
ATOM     28  C   UNL A   1      33.933  34.950  32.605  1.00  0.00     0.060 A 
ATOM     29  C   UNL A   1      35.199  35.541  32.494  1.00  0.00     0.016 A 
ATOM     30  C   UNL A   1      33.794  33.684  33.174  1.00  0.00     0.016 A 
ATOM     31  C   UNL A   1      36.334  34.858  32.937  1.00  0.00     0.010 A 
ATOM     32  C   UNL A   1      34.934  32.990  33.594  1.00  0.00     0.010 A 
ATOM     33  C   UNL A   1      36.213  33.561  33.451  1.00  0.00    -0.014 A 
BRANCH  33  34
ATOM     34  C   UNL A   1      37.422  32.730  33.680  1.00  0.00     0.031 A 
ATOM     35  C   UNL A   1      38.219  32.949  34.937  1.00  0.00     0.074 A 
ATOM     36  C   UNL A   1      37.820  31.803  32.791  1.00  0.00     0.049 A 
ATOM     37  N   UNL A   1      39.348  32.405  35.313  1.00  0.00    -0.248 NA
ATOM     38  C   UNL A   1      37.666  33.920  35.894  1.00  0.00     0.031 C 
ATOM     39  C   UNL A   1      37.119  31.456  31.557  1.00  0.00     0.029 A 
ATOM     40  N   UNL A   1      38.932  30.996  32.790  1.00  0.00    -0.354 N 
ATOM     41  C   UNL A   1      39.654  32.986  36.538  1.00  0.00     0.074 A 
ATOM     42  C   UNL A   1      38.603  33.936  36.830  1.00  0.00     0.031 C 
ATOM     43  C   UNL A   1      37.833  30.523  30.902  1.00  0.00     0.029 A 
ATOM     44  C   UNL A   1      39.055  30.236  31.653  1.00  0.00     0.049 A 
ATOM     45  H   UNL A   1      39.578  30.967  33.532  1.00  0.00     0.167 HD
ATOM     46  C   UNL A   1      40.715  32.751  37.347  1.00  0.00     0.031 A 
ATOM     47  C   UNL A   1      40.054  29.427  31.248  1.00  0.00     0.031 A 
ATOM     48  C   UNL A   1      41.769  31.820  37.050  1.00  0.00     0.049 A 
ATOM     49  C   UNL A   1      41.261  29.232  32.128  1.00  0.00     0.074 A 
ATOM     50  C   UNL A   1      42.868  31.487  37.824  1.00  0.00     0.029 A 
ATOM     51  N   UNL A   1      41.868  31.085  35.878  1.00  0.00    -0.354 N 
ATOM     52  N   UNL A   1      41.521  29.752  33.304  1.00  0.00    -0.248 NA
ATOM     53  C   UNL A   1      42.308  28.329  31.628  1.00  0.00     0.031 C 
ATOM     54  C   UNL A   1      43.670  30.608  37.088  1.00  0.00     0.029 A 
ATOM     55  C   UNL A   1      43.032  30.331  35.890  1.00  0.00     0.049 A 
ATOM     56  H   UNL A   1      41.210  31.096  35.146  1.00  0.00     0.167 HD
ATOM     57  C   UNL A   1      42.746  29.221  33.694  1.00  0.00     0.074 A 
ATOM     58  C   UNL A   1      43.169  28.326  32.636  1.00  0.00     0.031 C 
ATOM     59  C   UNL A   1      43.452  29.450  34.829  1.00  0.00     0.031 A 
BRANCH  46  60
ATOM     60  C   UNL A   1      40.814  33.572  38.604  1.00  0.00    -0.014 A 
ATOM     61  C   UNL A   1      40.375  33.080  39.845  1.00  0.00     0.009 A 
ATOM     62  C   UNL A   1      41.361  34.863  38.543  1.00  0.00     0.009 A 
ATOM     63  C   UNL A   1      40.438  33.884  40.986  1.00  0.00     0.001 A 
ATOM     64  C   UNL A   1      41.456  35.651  39.691  1.00  0.00     0.001 A 
ATOM     65  C   UNL A   1      40.980  35.166  40.908  1.00  0.00     0.000 A 
ENDBRANCH  46  60
BRANCH  47  66
ATOM     66  C   UNL A   1      39.969  28.763  29.919  1.00  0.00    -0.014 A 
ATOM     67  C   UNL A   1      39.506  27.444  29.800  1.00  0.00     0.009 A 
ATOM     68  C   UNL A   1      40.353  29.454  28.758  1.00  0.00     0.009 A 
ATOM     69  C   UNL A   1      39.443  26.827  28.547  1.00  0.00     0.001 A 
ATOM     70  C   UNL A   1      40.260  28.845  27.505  1.00  0.00     0.001 A 
ATOM     71  C   UNL A   1      39.813  27.531  27.401  1.00  0.00     0.000 A 
ENDBRANCH  47  66
BRANCH  59  72
ATOM     72  C   UNL A   1      44.743  28.696  35.012  1.00  0.00    -0.014 A 
ATOM     73  C   UNL A   1      45.971  29.228  34.587  1.00  0.00     0.009 A 
ATOM     74  C   UNL A   1      44.733  27.454  35.667  1.00  0.00     0.009 A 
ATOM     75  C   UNL A   1      47.157  28.514  34.785  1.00  0.00     0.001 A 
ATOM     76  C   UNL A   1      45.923  26.759  35.893  1.00  0.00     0.001 A 
ATOM     77  C   UNL A   1      47.132  27.285  35.442  1.00  0.00     0.000 A 
ENDBRANCH  59  72
ENDBRANCH  33  34
ENDBRANCH  26  28
ENDBRANCH  25  26
ENDBRANCH  24  25
ENDBRANCH  23  24
ENDBRANCH  22  23
ENDBRANCH  21  22
ENDBRANCH   1  21
TORSDOF 20
ENDMDL
