MODEL 1
REMARK VINA RESULT:     -12.1      0.000      0.000
REMARK SMILES COc1cc2ccccc2cc1C(=O)Nc1cc(C(=O)OCCOCCOCCOC(=O)c2ccc(-c3c4nc(c(-c5ccccc5)c5ccc([nH]5)c(-c5ccccc5)c5nc(c(-c6ccccc6)c6ccc3[nH]6)C=C5)C=C4)cc2)ccc1C
REMARK SMILES IDX 25 1 24 2 23 3 22 4 21 5 19 6 20 7 18 8 16 9 17 10 83 11
REMARK SMILES IDX 82 12 84 13 81 14 15 15 13 16 14 17 12 19 3 20 4 21 5 22
REMARK SMILES IDX 11 23 6 24 10 25 7 26 9 27 8 28 2 29 1 30 26 31 27 32 28 33
REMARK SMILES IDX 29 34 30 35 31 36 32 37 33 38 34 39 80 40 35 41 79 42 36 43
REMARK SMILES IDX 37 44 38 45 73 46 39 47 78 48 72 49 74 50 40 51 77 52 71 53
REMARK SMILES IDX 70 54 41 56 63 57 48 58 62 59 49 60 52 61 61 62 75 63 50 64
REMARK SMILES IDX 51 65 60 67 76 68 53 69 42 70 43 71 47 72 44 73 46 74 45 75
REMARK SMILES IDX 64 76 65 77 69 78 66 79 68 80 67 81 54 82 55 83 59 84 56 85
REMARK SMILES IDX 58 86 57 87
REMARK H PARENT 15 18 74 55 52 66
REMARK Flexibility Score: inf
ROOT
ATOM      1  C   UNL A   1      41.939  19.537  26.378  1.00  0.00     0.188 C 
ENDROOT
BRANCH   1   2
ATOM      2  O   UNL A   1      42.073  20.910  26.797  1.00  0.00    -0.376 OA
BRANCH   2   3
ATOM      3  C   UNL A   1      41.134  21.999  26.724  1.00  0.00     0.202 C 
BRANCH   3   4
ATOM      4  C   UNL A   1      39.385  22.013  26.519  1.00  0.00     0.261 C 
BRANCH   4   5
ATOM      5  O   UNL A   1      38.290  23.045  25.915  1.00  0.00    -0.460 OA
BRANCH   5   6
ATOM      6  C   UNL A   1      36.934  23.082  25.628  1.00  0.00     0.338 C 
ATOM      7  O   UNL A   1      36.243  23.943  25.094  1.00  0.00    -0.246 OA
BRANCH   6   8
ATOM      8  C   UNL A   1      36.035  21.961  25.874  1.00  0.00     0.062 A 
ATOM      9  C   UNL A   1      33.723  21.498  26.171  1.00  0.00     0.045 A 
ATOM     10  C   UNL A   1      34.842  22.277  26.469  1.00  0.00     0.042 A 
ATOM     11  C   UNL A   1      33.815  20.282  25.455  1.00  0.00    -0.027 A 
ATOM     12  C   UNL A   1      35.025  19.988  24.823  1.00  0.00     0.006 A 
ATOM     13  C   UNL A   1      32.640  19.402  25.142  1.00  0.00     0.046 C 
ATOM     14  C   UNL A   1      36.110  20.840  25.001  1.00  0.00     0.016 A 
BRANCH   9  15
ATOM     15  N   UNL A   1      32.473  22.029  26.492  1.00  0.00    -0.322 N 
ATOM     16  C   UNL A   1      32.097  23.358  26.471  1.00  0.00     0.259 C 
ATOM     17  O   UNL A   1      31.221  23.718  27.260  1.00  0.00    -0.269 OA
ATOM     18  H   UNL A   1      31.781  21.385  26.764  1.00  0.00     0.170 HD
BRANCH  16  19
ATOM     19  C   UNL A   1      32.612  24.365  25.466  1.00  0.00     0.082 A 
ATOM     20  C   UNL A   1      32.796  24.164  24.089  1.00  0.00     0.132 A 
ATOM     21  C   UNL A   1      33.105  25.237  23.230  1.00  0.00     0.056 A 
ATOM     22  C   UNL A   1      33.187  26.548  23.710  1.00  0.00    -0.015 A 
ATOM     23  C   UNL A   1      32.746  25.684  25.945  1.00  0.00     0.026 A 
ATOM     24  C   UNL A   1      33.451  27.631  22.853  1.00  0.00     0.009 A 
ATOM     25  C   UNL A   1      33.013  26.774  25.091  1.00  0.00    -0.017 A 
ATOM     26  C   UNL A   1      33.541  28.928  23.355  1.00  0.00     0.001 A 
ATOM     27  C   UNL A   1      33.103  28.087  25.578  1.00  0.00     0.009 A 
ATOM     28  C   UNL A   1      33.358  29.155  24.715  1.00  0.00     0.001 A 
BRANCH  20  29
ATOM     29  O   UNL A   1      32.766  22.929  23.505  1.00  0.00    -0.496 OA
ATOM     30  C   UNL A   1      33.144  22.981  22.134  1.00  0.00     0.278 C 
ENDBRANCH  20  29
ENDBRANCH  16  19
ENDBRANCH   9  15
ENDBRANCH   6   8
ENDBRANCH   5   6
ENDBRANCH   4   5
ENDBRANCH   3   4
ENDBRANCH   2   3
ENDBRANCH   1   2
BRANCH   1  31
ATOM     31  C   UNL A   1      43.065  18.653  25.843  1.00  0.00     0.188 C 
BRANCH  31  32
ATOM     32  O   UNL A   1      43.418  19.019  24.530  1.00  0.00    -0.376 OA
BRANCH  32  33
ATOM     33  C   UNL A   1      44.767  19.409  24.348  1.00  0.00     0.202 C 
BRANCH  33  34
ATOM     34  C   UNL A   1      45.272  20.473  25.343  1.00  0.00     0.261 C 
BRANCH  34  35
ATOM     35  O   UNL A   1      46.317  21.291  24.763  1.00  0.00    -0.460 OA
BRANCH  35  36
ATOM     36  C   UNL A   1      46.016  22.601  24.478  1.00  0.00     0.338 C 
ATOM     37  O   UNL A   1      46.756  23.373  23.886  1.00  0.00    -0.246 OA
BRANCH  36  38
ATOM     38  C   UNL A   1      44.783  23.016  25.230  1.00  0.00     0.060 A 
ATOM     39  C   UNL A   1      43.765  23.845  24.734  1.00  0.00     0.016 A 
ATOM     40  C   UNL A   1      44.890  22.959  26.574  1.00  0.00     0.016 A 
ATOM     41  C   UNL A   1      43.034  24.762  25.599  1.00  0.00     0.010 A 
ATOM     42  C   UNL A   1      44.407  24.080  27.245  1.00  0.00     0.010 A 
ATOM     43  C   UNL A   1      43.394  25.007  26.925  1.00  0.00    -0.014 A 
BRANCH  43  44
ATOM     44  C   UNL A   1      42.856  26.228  27.920  1.00  0.00     0.031 A 
ATOM     45  C   UNL A   1      41.594  27.253  27.822  1.00  0.00     0.074 A 
ATOM     46  C   UNL A   1      43.438  26.336  29.135  1.00  0.00     0.049 A 
ATOM     47  N   UNL A   1      40.635  27.397  28.725  1.00  0.00    -0.248 NA
ATOM     48  C   UNL A   1      41.308  28.208  26.715  1.00  0.00     0.031 C 
ATOM     49  C   UNL A   1      43.059  27.182  30.270  1.00  0.00     0.029 A 
ATOM     50  N   UNL A   1      44.644  25.772  29.539  1.00  0.00    -0.354 N 
ATOM     51  C   UNL A   1      39.678  28.313  28.260  1.00  0.00     0.074 A 
ATOM     52  C   UNL A   1      40.034  28.552  26.878  1.00  0.00     0.031 C 
ATOM     53  C   UNL A   1      44.137  27.356  31.053  1.00  0.00     0.029 A 
ATOM     54  C   UNL A   1      45.252  26.724  30.369  1.00  0.00     0.049 A 
ATOM     55  H   UNL A   1      44.998  24.886  29.293  1.00  0.00     0.167 HD
ATOM     56  C   UNL A   1      39.280  29.459  28.892  1.00  0.00     0.031 A 
ATOM     57  C   UNL A   1      46.346  27.379  29.887  1.00  0.00     0.031 A 
ATOM     58  C   UNL A   1      40.364  30.127  29.592  1.00  0.00     0.049 A 
ATOM     59  C   UNL A   1      46.023  28.836  29.650  1.00  0.00     0.074 A 
ATOM     60  C   UNL A   1      40.668  30.313  30.921  1.00  0.00     0.029 A 
ATOM     61  N   UNL A   1      41.470  30.588  28.866  1.00  0.00    -0.354 N 
ATOM     62  N   UNL A   1      44.836  29.303  29.351  1.00  0.00    -0.248 NA
ATOM     63  C   UNL A   1      47.019  29.882  29.832  1.00  0.00     0.031 C 
ATOM     64  C   UNL A   1      42.012  30.776  30.992  1.00  0.00     0.029 A 
ATOM     65  C   UNL A   1      42.508  30.937  29.706  1.00  0.00     0.049 A 
ATOM     66  H   UNL A   1      41.503  30.653  27.884  1.00  0.00     0.167 HD
ATOM     67  C   UNL A   1      44.880  30.669  29.370  1.00  0.00     0.074 A 
ATOM     68  C   UNL A   1      46.273  30.982  29.651  1.00  0.00     0.031 C 
ATOM     69  C   UNL A   1      43.785  31.473  29.222  1.00  0.00     0.031 A 
BRANCH  56  70
ATOM     70  C   UNL A   1      37.905  30.051  28.577  1.00  0.00    -0.014 A 
ATOM     71  C   UNL A   1      36.892  29.265  28.000  1.00  0.00     0.009 A 
ATOM     72  C   UNL A   1      37.580  31.417  28.774  1.00  0.00     0.009 A 
ATOM     73  C   UNL A   1      35.633  29.803  27.659  1.00  0.00     0.001 A 
ATOM     74  C   UNL A   1      36.315  31.951  28.468  1.00  0.00     0.001 A 
ATOM     75  C   UNL A   1      35.339  31.141  27.905  1.00  0.00     0.000 A 
ENDBRANCH  56  70
BRANCH  57  76
ATOM     76  C   UNL A   1      47.254  26.508  29.070  1.00  0.00    -0.014 A 
ATOM     77  C   UNL A   1      47.050  26.501  27.666  1.00  0.00     0.009 A 
ATOM     78  C   UNL A   1      48.451  25.966  29.555  1.00  0.00     0.009 A 
ATOM     79  C   UNL A   1      48.061  26.125  26.778  1.00  0.00     0.001 A 
ATOM     80  C   UNL A   1      49.447  25.535  28.657  1.00  0.00     0.001 A 
ATOM     81  C   UNL A   1      49.267  25.652  27.275  1.00  0.00     0.000 A 
ENDBRANCH  57  76
BRANCH  69  82
ATOM     82  C   UNL A   1      43.897  32.925  28.814  1.00  0.00    -0.014 A 
ATOM     83  C   UNL A   1      43.820  33.992  29.727  1.00  0.00     0.009 A 
ATOM     84  C   UNL A   1      44.207  33.263  27.484  1.00  0.00     0.009 A 
ATOM     85  C   UNL A   1      43.919  35.327  29.318  1.00  0.00     0.001 A 
ATOM     86  C   UNL A   1      44.368  34.593  27.079  1.00  0.00     0.001 A 
ATOM     87  C   UNL A   1      44.194  35.627  27.992  1.00  0.00     0.000 A 
ENDBRANCH  69  82
ENDBRANCH  43  44
ENDBRANCH  36  38
ENDBRANCH  35  36
ENDBRANCH  34  35
ENDBRANCH  33  34
ENDBRANCH  32  33
ENDBRANCH  31  32
ENDBRANCH   1  31
TORSDOF 20
ENDMDL
MODEL 2
REMARK VINA RESULT:     -12.1      2.158      3.284
REMARK SMILES COc1cc2ccccc2cc1C(=O)Nc1cc(C(=O)OCCOCCOCCOC(=O)c2ccc(-c3c4nc(c(-c5ccccc5)c5ccc([nH]5)c(-c5ccccc5)c5nc(c(-c6ccccc6)c6ccc3[nH]6)C=C5)C=C4)cc2)ccc1C
REMARK SMILES IDX 25 1 24 2 23 3 22 4 21 5 19 6 20 7 18 8 16 9 17 10 83 11
REMARK SMILES IDX 82 12 84 13 81 14 15 15 13 16 14 17 12 19 3 20 4 21 5 22
REMARK SMILES IDX 11 23 6 24 10 25 7 26 9 27 8 28 2 29 1 30 26 31 27 32 28 33
REMARK SMILES IDX 29 34 30 35 31 36 32 37 33 38 34 39 80 40 35 41 79 42 36 43
REMARK SMILES IDX 37 44 38 45 73 46 39 47 78 48 72 49 74 50 40 51 77 52 71 53
REMARK SMILES IDX 70 54 41 56 63 57 48 58 62 59 49 60 52 61 61 62 75 63 50 64
REMARK SMILES IDX 51 65 60 67 76 68 53 69 42 70 43 71 47 72 44 73 46 74 45 75
REMARK SMILES IDX 64 76 65 77 69 78 66 79 68 80 67 81 54 82 55 83 59 84 56 85
REMARK SMILES IDX 58 86 57 87
REMARK H PARENT 15 18 74 55 52 66
REMARK Flexibility Score: inf
ROOT
ATOM      1  C   UNL A   1      39.768  20.372  25.873  1.00  0.00     0.188 C 
ENDROOT
BRANCH   1   2
ATOM      2  O   UNL A   1      39.383  21.761  25.916  1.00  0.00    -0.376 OA
BRANCH   2   3
ATOM      3  C   UNL A   1      38.077  22.363  25.876  1.00  0.00     0.202 C 
BRANCH   3   4
ATOM      4  C   UNL A   1      36.769  22.227  24.705  1.00  0.00     0.261 C 
BRANCH   4   5
ATOM      5  O   UNL A   1      35.366  22.991  24.428  1.00  0.00    -0.460 OA
BRANCH   5   6
ATOM      6  C   UNL A   1      34.130  23.161  25.035  1.00  0.00     0.338 C 
ATOM      7  O   UNL A   1      33.167  22.408  25.132  1.00  0.00    -0.246 OA
BRANCH   6   8
ATOM      8  C   UNL A   1      33.769  24.352  25.791  1.00  0.00     0.062 A 
ATOM      9  C   UNL A   1      33.681  26.716  25.556  1.00  0.00     0.045 A 
ATOM     10  C   UNL A   1      34.374  25.516  25.392  1.00  0.00     0.042 A 
ATOM     11  C   UNL A   1      32.484  26.804  26.303  1.00  0.00    -0.027 A 
ATOM     12  C   UNL A   1      31.858  25.613  26.675  1.00  0.00     0.006 A 
ATOM     13  C   UNL A   1      31.727  28.081  26.528  1.00  0.00     0.046 C 
ATOM     14  C   UNL A   1      32.477  24.400  26.385  1.00  0.00     0.016 A 
BRANCH   9  15
ATOM     15  N   UNL A   1      34.142  27.821  24.839  1.00  0.00    -0.322 N 
ATOM     16  C   UNL A   1      33.660  28.299  23.636  1.00  0.00     0.259 C 
ATOM     17  O   UNL A   1      34.453  28.878  22.890  1.00  0.00    -0.269 OA
ATOM     18  H   UNL A   1      34.896  28.315  25.234  1.00  0.00     0.170 HD
BRANCH  16  19
ATOM     19  C   UNL A   1      32.201  28.257  23.234  1.00  0.00     0.082 A 
ATOM     20  C   UNL A   1      31.476  27.132  22.811  1.00  0.00     0.132 A 
ATOM     21  C   UNL A   1      30.079  27.187  22.643  1.00  0.00     0.056 A 
ATOM     22  C   UNL A   1      29.358  28.348  22.944  1.00  0.00    -0.015 A 
ATOM     23  C   UNL A   1      31.470  29.434  23.487  1.00  0.00     0.026 A 
ATOM     24  C   UNL A   1      27.958  28.398  22.823  1.00  0.00     0.009 A 
ATOM     25  C   UNL A   1      30.066  29.492  23.365  1.00  0.00    -0.017 A 
ATOM     26  C   UNL A   1      27.262  29.569  23.116  1.00  0.00     0.001 A 
ATOM     27  C   UNL A   1      29.348  30.662  23.659  1.00  0.00     0.009 A 
ATOM     28  C   UNL A   1      27.957  30.697  23.542  1.00  0.00     0.001 A 
BRANCH  20  29
ATOM     29  O   UNL A   1      32.068  25.951  22.462  1.00  0.00    -0.496 OA
ATOM     30  C   UNL A   1      31.354  24.830  22.971  1.00  0.00     0.278 C 
ENDBRANCH  20  29
ENDBRANCH  16  19
ENDBRANCH   9  15
ENDBRANCH   6   8
ENDBRANCH   5   6
ENDBRANCH   4   5
ENDBRANCH   3   4
ENDBRANCH   2   3
ENDBRANCH   1   2
BRANCH   1  31
ATOM     31  C   UNL A   1      41.076  19.791  26.410  1.00  0.00     0.188 C 
BRANCH  31  32
ATOM     32  O   UNL A   1      41.997  19.568  25.368  1.00  0.00    -0.376 OA
BRANCH  32  33
ATOM     33  C   UNL A   1      43.351  19.458  25.765  1.00  0.00     0.202 C 
BRANCH  33  34
ATOM     34  C   UNL A   1      44.356  19.317  24.603  1.00  0.00     0.261 C 
BRANCH  34  35
ATOM     35  O   UNL A   1      45.352  20.369  24.631  1.00  0.00    -0.460 OA
BRANCH  35  36
ATOM     36  C   UNL A   1      44.955  21.631  24.262  1.00  0.00     0.338 C 
ATOM     37  O   UNL A   1      44.462  21.919  23.181  1.00  0.00    -0.246 OA
BRANCH  36  38
ATOM     38  C   UNL A   1      45.461  22.636  25.257  1.00  0.00     0.060 A 
ATOM     39  C   UNL A   1      45.423  22.493  26.653  1.00  0.00     0.016 A 
ATOM     40  C   UNL A   1      45.535  23.903  24.801  1.00  0.00     0.016 A 
ATOM     41  C   UNL A   1      45.233  23.637  27.536  1.00  0.00     0.010 A 
ATOM     42  C   UNL A   1      45.018  24.866  25.664  1.00  0.00     0.010 A 
ATOM     43  C   UNL A   1      44.914  24.913  27.070  1.00  0.00    -0.014 A 
BRANCH  43  44
ATOM     44  C   UNL A   1      44.377  26.218  27.953  1.00  0.00     0.031 A 
ATOM     45  C   UNL A   1      42.942  26.986  28.020  1.00  0.00     0.074 A 
ATOM     46  C   UNL A   1      45.185  26.672  28.936  1.00  0.00     0.049 A 
ATOM     47  N   UNL A   1      42.205  27.166  29.106  1.00  0.00    -0.248 NA
ATOM     48  C   UNL A   1      42.223  27.627  26.884  1.00  0.00     0.031 C 
ATOM     49  C   UNL A   1      44.907  27.670  29.974  1.00  0.00     0.029 A 
ATOM     50  N   UNL A   1      46.540  26.404  29.098  1.00  0.00    -0.354 N 
ATOM     51  C   UNL A   1      41.000  27.800  28.762  1.00  0.00     0.074 A 
ATOM     52  C   UNL A   1      40.976  27.793  27.316  1.00  0.00     0.031 C 
ATOM     53  C   UNL A   1      46.075  28.174  30.405  1.00  0.00     0.029 A 
ATOM     54  C   UNL A   1      47.111  27.595  29.569  1.00  0.00     0.049 A 
ATOM     55  H   UNL A   1      47.004  25.553  28.920  1.00  0.00     0.167 HD
ATOM     56  C   UNL A   1      40.529  28.978  29.276  1.00  0.00     0.031 A 
ATOM     57  C   UNL A   1      47.909  28.296  28.714  1.00  0.00     0.031 A 
ATOM     58  C   UNL A   1      41.583  29.941  29.545  1.00  0.00     0.049 A 
ATOM     59  C   UNL A   1      47.248  29.599  28.330  1.00  0.00     0.074 A 
ATOM     60  C   UNL A   1      42.136  30.451  30.698  1.00  0.00     0.029 A 
ATOM     61  N   UNL A   1      42.376  30.405  28.488  1.00  0.00    -0.354 N 
ATOM     62  N   UNL A   1      45.955  29.799  28.279  1.00  0.00    -0.248 NA
ATOM     63  C   UNL A   1      48.023  30.804  28.067  1.00  0.00     0.031 C 
ATOM     64  C   UNL A   1      43.336  31.125  30.335  1.00  0.00     0.029 A 
ATOM     65  C   UNL A   1      43.482  31.084  28.955  1.00  0.00     0.049 A 
ATOM     66  H   UNL A   1      42.171  30.264  27.535  1.00  0.00     0.167 HD
ATOM     67  C   UNL A   1      45.720  31.127  28.059  1.00  0.00     0.074 A 
ATOM     68  C   UNL A   1      47.046  31.709  27.907  1.00  0.00     0.031 C 
ATOM     69  C   UNL A   1      44.479  31.699  28.071  1.00  0.00     0.031 A 
BRANCH  56  70
ATOM     70  C   UNL A   1      39.027  29.264  29.240  1.00  0.00    -0.014 A 
ATOM     71  C   UNL A   1      38.452  29.991  28.182  1.00  0.00     0.009 A 
ATOM     72  C   UNL A   1      38.136  28.888  30.278  1.00  0.00     0.009 A 
ATOM     73  C   UNL A   1      37.077  30.306  28.154  1.00  0.00     0.001 A 
ATOM     74  C   UNL A   1      36.759  29.170  30.238  1.00  0.00     0.001 A 
ATOM     75  C   UNL A   1      36.228  29.885  29.174  1.00  0.00     0.000 A 
ENDBRANCH  56  70
BRANCH  57  76
ATOM     76  C   UNL A   1      48.767  27.425  27.844  1.00  0.00    -0.014 A 
ATOM     77  C   UNL A   1      49.856  26.763  28.468  1.00  0.00     0.009 A 
ATOM     78  C   UNL A   1      48.386  26.988  26.569  1.00  0.00     0.009 A 
ATOM     79  C   UNL A   1      50.431  25.614  27.920  1.00  0.00     0.001 A 
ATOM     80  C   UNL A   1      49.007  25.861  25.993  1.00  0.00     0.001 A 
ATOM     81  C   UNL A   1      49.996  25.155  26.684  1.00  0.00     0.000 A 
ENDBRANCH  57  76
BRANCH  69  82
ATOM     82  C   UNL A   1      44.195  33.030  27.412  1.00  0.00    -0.014 A 
ATOM     83  C   UNL A   1      44.172  34.250  28.111  1.00  0.00     0.009 A 
ATOM     84  C   UNL A   1      44.053  33.110  26.014  1.00  0.00     0.009 A 
ATOM     85  C   UNL A   1      43.897  35.465  27.475  1.00  0.00     0.001 A 
ATOM     86  C   UNL A   1      43.838  34.330  25.362  1.00  0.00     0.001 A 
ATOM     87  C   UNL A   1      43.731  35.505  26.098  1.00  0.00     0.000 A 
ENDBRANCH  69  82
ENDBRANCH  43  44
ENDBRANCH  36  38
ENDBRANCH  35  36
ENDBRANCH  34  35
ENDBRANCH  33  34
ENDBRANCH  32  33
ENDBRANCH  31  32
ENDBRANCH   1  31
TORSDOF 20
ENDMDL
MODEL 3
REMARK VINA RESULT:     -12.0      2.319      4.745
REMARK SMILES COc1cc2ccccc2cc1C(=O)Nc1cc(C(=O)OCCOCCOCCOC(=O)c2ccc(-c3c4nc(c(-c5ccccc5)c5ccc([nH]5)c(-c5ccccc5)c5nc(c(-c6ccccc6)c6ccc3[nH]6)C=C5)C=C4)cc2)ccc1C
REMARK SMILES IDX 25 1 24 2 23 3 22 4 21 5 19 6 20 7 18 8 16 9 17 10 83 11
REMARK SMILES IDX 82 12 84 13 81 14 15 15 13 16 14 17 12 19 3 20 4 21 5 22
REMARK SMILES IDX 11 23 6 24 10 25 7 26 9 27 8 28 2 29 1 30 26 31 27 32 28 33
REMARK SMILES IDX 29 34 30 35 31 36 32 37 33 38 34 39 80 40 35 41 79 42 36 43
REMARK SMILES IDX 37 44 38 45 73 46 39 47 78 48 72 49 74 50 40 51 77 52 71 53
REMARK SMILES IDX 70 54 41 56 63 57 48 58 62 59 49 60 52 61 61 62 75 63 50 64
REMARK SMILES IDX 51 65 60 67 76 68 53 69 42 70 43 71 47 72 44 73 46 74 45 75
REMARK SMILES IDX 64 76 65 77 69 78 66 79 68 80 67 81 54 82 55 83 59 84 56 85
REMARK SMILES IDX 58 86 57 87
REMARK H PARENT 15 18 74 55 52 66
REMARK Flexibility Score: inf
ROOT
ATOM      1  C   UNL A   1      43.920  19.088  25.278  1.00  0.00     0.188 C 
ENDROOT
BRANCH   1   2
ATOM      2  O   UNL A   1      42.509  19.354  25.145  1.00  0.00    -0.376 OA
BRANCH   2   3
ATOM      3  C   UNL A   1      41.420  19.061  26.039  1.00  0.00     0.202 C 
BRANCH   3   4
ATOM      4  C   UNL A   1      39.735  19.570  26.024  1.00  0.00     0.261 C 
BRANCH   4   5
ATOM      5  O   UNL A   1      38.803  20.492  25.068  1.00  0.00    -0.460 OA
BRANCH   5   6
ATOM      6  C   UNL A   1      37.463  20.812  24.908  1.00  0.00     0.338 C 
ATOM      7  O   UNL A   1      36.455  20.116  24.947  1.00  0.00    -0.246 OA
BRANCH   6   8
ATOM      8  C   UNL A   1      36.986  22.176  24.722  1.00  0.00     0.062 A 
ATOM      9  C   UNL A   1      34.984  23.368  24.251  1.00  0.00     0.045 A 
ATOM     10  C   UNL A   1      35.848  22.309  23.969  1.00  0.00     0.042 A 
ATOM     11  C   UNL A   1      35.335  24.420  25.129  1.00  0.00    -0.027 A 
ATOM     12  C   UNL A   1      36.477  24.258  25.916  1.00  0.00     0.006 A 
ATOM     13  C   UNL A   1      34.446  25.591  25.432  1.00  0.00     0.046 C 
ATOM     14  C   UNL A   1      37.270  23.129  25.740  1.00  0.00     0.016 A 
BRANCH   9  15
ATOM     15  N   UNL A   1      33.690  23.290  23.734  1.00  0.00    -0.322 N 
ATOM     16  C   UNL A   1      32.976  22.146  23.435  1.00  0.00     0.259 C 
ATOM     17  O   UNL A   1      32.145  22.210  22.526  1.00  0.00    -0.269 OA
ATOM     18  H   UNL A   1      33.235  24.145  23.562  1.00  0.00     0.170 HD
BRANCH  16  19
ATOM     19  C   UNL A   1      33.071  20.860  24.227  1.00  0.00     0.082 A 
ATOM     20  C   UNL A   1      32.813  20.692  25.597  1.00  0.00     0.132 A 
ATOM     21  C   UNL A   1      32.757  19.410  26.177  1.00  0.00     0.056 A 
ATOM     22  C   UNL A   1      32.902  18.257  25.399  1.00  0.00    -0.015 A 
ATOM     23  C   UNL A   1      33.265  19.692  23.464  1.00  0.00     0.026 A 
ATOM     24  C   UNL A   1      32.803  16.971  25.961  1.00  0.00     0.009 A 
ATOM     25  C   UNL A   1      33.169  18.400  24.022  1.00  0.00    -0.017 A 
ATOM     26  C   UNL A   1      32.965  15.836  25.169  1.00  0.00     0.001 A 
ATOM     27  C   UNL A   1      33.326  17.245  23.239  1.00  0.00     0.009 A 
ATOM     28  C   UNL A   1      33.217  15.975  23.808  1.00  0.00     0.001 A 
BRANCH  20  29
ATOM     29  O   UNL A   1      32.678  21.740  26.464  1.00  0.00    -0.496 OA
ATOM     30  C   UNL A   1      33.795  21.852  27.338  1.00  0.00     0.278 C 
ENDBRANCH  20  29
ENDBRANCH  16  19
ENDBRANCH   9  15
ENDBRANCH   6   8
ENDBRANCH   5   6
ENDBRANCH   4   5
ENDBRANCH   3   4
ENDBRANCH   2   3
ENDBRANCH   1   2
BRANCH   1  31
ATOM     31  C   UNL A   1      45.049  20.006  24.812  1.00  0.00     0.188 C 
BRANCH  31  32
ATOM     32  O   UNL A   1      44.540  21.194  24.252  1.00  0.00    -0.376 OA
BRANCH  32  33
ATOM     33  C   UNL A   1      44.389  22.276  25.152  1.00  0.00     0.202 C 
BRANCH  33  34
ATOM     34  C   UNL A   1      43.314  23.306  24.748  1.00  0.00     0.261 C 
BRANCH  34  35
ATOM     35  O   UNL A   1      42.740  23.958  25.907  1.00  0.00    -0.460 OA
BRANCH  35  36
ATOM     36  C   UNL A   1      41.471  23.589  26.282  1.00  0.00     0.338 C 
ATOM     37  O   UNL A   1      40.990  22.478  26.114  1.00  0.00    -0.246 OA
BRANCH  36  38
ATOM     38  C   UNL A   1      40.679  24.806  26.668  1.00  0.00     0.060 A 
ATOM     39  C   UNL A   1      40.813  26.082  26.097  1.00  0.00     0.016 A 
ATOM     40  C   UNL A   1      40.153  24.773  27.910  1.00  0.00     0.016 A 
ATOM     41  C   UNL A   1      40.621  27.296  26.881  1.00  0.00     0.010 A 
ATOM     42  C   UNL A   1      40.331  25.939  28.650  1.00  0.00     0.010 A 
ATOM     43  C   UNL A   1      40.460  27.290  28.266  1.00  0.00    -0.014 A 
BRANCH  43  44
ATOM     44  C   UNL A   1      40.538  28.585  29.309  1.00  0.00     0.031 A 
ATOM     45  C   UNL A   1      39.458  29.732  29.722  1.00  0.00     0.074 A 
ATOM     46  C   UNL A   1      41.618  28.663  30.117  1.00  0.00     0.049 A 
ATOM     47  N   UNL A   1      39.033  29.997  30.949  1.00  0.00    -0.248 NA
ATOM     48  C   UNL A   1      38.775  30.684  28.801  1.00  0.00     0.031 C 
ATOM     49  C   UNL A   1      41.870  29.572  31.239  1.00  0.00     0.029 A 
ATOM     50  N   UNL A   1      42.825  27.987  29.970  1.00  0.00    -0.354 N 
ATOM     51  C   UNL A   1      38.047  30.996  30.905  1.00  0.00     0.074 A 
ATOM     52  C   UNL A   1      37.749  31.162  29.499  1.00  0.00     0.031 C 
ATOM     53  C   UNL A   1      43.196  29.653  31.434  1.00  0.00     0.029 A 
ATOM     54  C   UNL A   1      43.820  28.892  30.366  1.00  0.00     0.049 A 
ATOM     55  H   UNL A   1      42.955  27.063  29.653  1.00  0.00     0.167 HD
ATOM     56  C   UNL A   1      38.077  32.193  31.567  1.00  0.00     0.031 A 
ATOM     57  C   UNL A   1      44.621  29.417  29.396  1.00  0.00     0.031 A 
ATOM     58  C   UNL A   1      39.411  32.762  31.651  1.00  0.00     0.049 A 
ATOM     59  C   UNL A   1      44.344  30.893  29.230  1.00  0.00     0.074 A 
ATOM     60  C   UNL A   1      40.303  32.949  32.682  1.00  0.00     0.029 A 
ATOM     61  N   UNL A   1      40.095  33.087  30.473  1.00  0.00    -0.354 N 
ATOM     62  N   UNL A   1      43.194  31.473  29.469  1.00  0.00    -0.248 NA
ATOM     63  C   UNL A   1      45.394  31.835  28.868  1.00  0.00     0.031 C 
ATOM     64  C   UNL A   1      41.563  33.272  32.104  1.00  0.00     0.029 A 
ATOM     65  C   UNL A   1      41.426  33.349  30.725  1.00  0.00     0.049 A 
ATOM     66  H   UNL A   1      39.680  33.124  29.581  1.00  0.00     0.167 HD
ATOM     67  C   UNL A   1      43.352  32.827  29.371  1.00  0.00     0.074 A 
ATOM     68  C   UNL A   1      44.739  33.002  28.968  1.00  0.00     0.031 C 
ATOM     69  C   UNL A   1      42.380  33.736  29.680  1.00  0.00     0.031 A 
BRANCH  56  70
ATOM     70  C   UNL A   1      36.762  32.915  31.869  1.00  0.00    -0.014 A 
ATOM     71  C   UNL A   1      36.023  32.623  33.028  1.00  0.00     0.009 A 
ATOM     72  C   UNL A   1      36.172  33.859  30.990  1.00  0.00     0.009 A 
ATOM     73  C   UNL A   1      34.786  33.244  33.301  1.00  0.00     0.001 A 
ATOM     74  C   UNL A   1      34.956  34.506  31.274  1.00  0.00     0.001 A 
ATOM     75  C   UNL A   1      34.258  34.195  32.432  1.00  0.00     0.000 A 
ENDBRANCH  56  70
BRANCH  57  76
ATOM     76  C   UNL A   1      44.981  28.436  28.319  1.00  0.00    -0.014 A 
ATOM     77  C   UNL A   1      44.156  28.414  27.165  1.00  0.00     0.009 A 
ATOM     78  C   UNL A   1      46.219  27.787  28.246  1.00  0.00     0.009 A 
ATOM     79  C   UNL A   1      44.614  27.913  25.944  1.00  0.00     0.001 A 
ATOM     80  C   UNL A   1      46.655  27.233  27.025  1.00  0.00     0.001 A 
ATOM     81  C   UNL A   1      45.872  27.332  25.871  1.00  0.00     0.000 A 
ENDBRANCH  57  76
BRANCH  69  82
ATOM     82  C   UNL A   1      42.409  35.158  29.165  1.00  0.00    -0.014 A 
ATOM     83  C   UNL A   1      41.564  35.628  28.143  1.00  0.00     0.009 A 
ATOM     84  C   UNL A   1      43.227  36.119  29.789  1.00  0.00     0.009 A 
ATOM     85  C   UNL A   1      41.620  36.948  27.682  1.00  0.00     0.001 A 
ATOM     86  C   UNL A   1      43.244  37.455  29.373  1.00  0.00     0.001 A 
ATOM     87  C   UNL A   1      42.461  37.863  28.299  1.00  0.00     0.000 A 
ENDBRANCH  69  82
ENDBRANCH  43  44
ENDBRANCH  36  38
ENDBRANCH  35  36
ENDBRANCH  34  35
ENDBRANCH  33  34
ENDBRANCH  32  33
ENDBRANCH  31  32
ENDBRANCH   1  31
TORSDOF 20
ENDMDL
