MODEL 1
REMARK VINA RESULT:      -9.1      0.000      0.000
REMARK SMILES C=CCN(CC(=O)OCCOCCOCCOC(=O)c1ccc(-c2c3nc(c(-c4ccccc4)c4ccc([nH]4)c(-c4ccccc4)c4nc(c(-c5ccccc5)c5ccc2[nH]5)C=C4)C=C3)cc1)C(=O)c1cn(C2C[NH2+]C2)nn1
REMARK SMILES IDX 12 1 11 2 10 3 9 4 8 5 6 6 7 7 5 8 4 9 3 10 2 11 1 12 68 13
REMARK SMILES IDX 69 14 70 15 71 16 78 17 72 18 77 19 73 20 74 21 76 22 75 23
REMARK SMILES IDX 13 26 14 27 15 28 16 29 17 30 18 31 19 32 20 33 21 34 67 35
REMARK SMILES IDX 22 36 66 37 23 38 24 39 25 40 60 41 26 42 65 43 59 44 61 45
REMARK SMILES IDX 27 46 64 47 58 48 57 49 28 51 50 52 35 53 49 54 36 55 39 56
REMARK SMILES IDX 48 57 62 58 37 59 38 60 47 62 63 63 40 64 29 65 30 66 34 67
REMARK SMILES IDX 31 68 33 69 32 70 51 71 52 72 56 73 53 74 55 75 54 76 41 77
REMARK SMILES IDX 42 78 46 79 43 80 45 81 44 82
REMARK H PARENT 75 24 75 25 61 50 39 61
REMARK Flexibility Score: inf
ROOT
ATOM      1  C   UNL A   1      33.474  21.138  24.537  1.00  0.00     0.188 C 
ENDROOT
BRANCH   1   2
ATOM      2  O   UNL A   1      32.586  20.954  23.442  1.00  0.00    -0.376 OA
BRANCH   2   3
ATOM      3  C   UNL A   1      32.317  22.111  22.654  1.00  0.00     0.202 C 
BRANCH   3   4
ATOM      4  C   UNL A   1      33.365  23.227  22.759  1.00  0.00     0.261 C 
BRANCH   4   5
ATOM      5  O   UNL A   1      33.246  24.201  21.695  1.00  0.00    -0.462 OA
BRANCH   5   6
ATOM      6  C   UNL A   1      33.399  25.488  22.124  1.00  0.00     0.325 C 
ATOM      7  O   UNL A   1      33.597  26.439  21.374  1.00  0.00    -0.250 OA
BRANCH   6   8
ATOM      8  C   UNL A   1      33.301  25.662  23.645  1.00  0.00     0.242 C 
BRANCH   8   9
ATOM      9  N   UNL A   1      31.988  25.967  24.234  1.00  0.00    -0.322 N 
BRANCH   9  10
ATOM     10  C   UNL A   1      31.948  26.114  25.683  1.00  0.00     0.147 C 
BRANCH  10  11
ATOM     11  C   UNL A   1      32.321  24.812  26.328  1.00  0.00    -0.014 C 
ATOM     12  C   UNL A   1      31.446  23.825  26.567  1.00  0.00     0.006 C 
ENDBRANCH  10  11
ENDBRANCH   9  10
BRANCH   9  13
ATOM     13  C   UNL A   1      30.773  26.022  23.541  1.00  0.00     0.276 C 
ATOM     14  O   UNL A   1      30.151  24.998  23.253  1.00  0.00    -0.267 OA
BRANCH  13  15
ATOM     15  C   UNL A   1      30.300  27.304  23.024  1.00  0.00     0.170 A 
ATOM     16  C   UNL A   1      29.328  28.081  23.618  1.00  0.00     0.145 A 
ATOM     17  N   UNL A   1      30.702  27.929  21.875  1.00  0.00    -0.125 NA
ATOM     18  N   UNL A   1      29.081  29.076  22.728  1.00  0.00    -0.237 N 
ATOM     19  N   UNL A   1      29.955  29.013  21.705  1.00  0.00    -0.066 NA
BRANCH  18  20
ATOM     20  C   UNL A   1      28.047  30.065  22.785  1.00  0.00     0.218 C 
ATOM     21  C   UNL A   1      28.513  31.281  23.599  1.00  0.00     0.294 C 
ATOM     22  C   UNL A   1      27.876  31.046  21.622  1.00  0.00     0.294 C 
ATOM     23  N   UNL A   1      27.904  32.164  22.586  1.00  0.00    -0.342 N 
ATOM     24  H   UNL A   1      28.499  32.943  22.302  1.00  0.00     0.346 HD
ATOM     25  H   UNL A   1      27.052  32.681  22.799  1.00  0.00     0.346 HD
ENDBRANCH  18  20
ENDBRANCH  13  15
ENDBRANCH   9  13
ENDBRANCH   8   9
ENDBRANCH   6   8
ENDBRANCH   5   6
ENDBRANCH   4   5
ENDBRANCH   3   4
ENDBRANCH   2   3
ENDBRANCH   1   2
BRANCH   1  26
ATOM     26  C   UNL A   1      34.266  19.906  24.987  1.00  0.00     0.188 C 
BRANCH  26  27
ATOM     27  O   UNL A   1      35.611  20.284  25.277  1.00  0.00    -0.376 OA
BRANCH  27  28
ATOM     28  C   UNL A   1      35.961  21.572  24.759  1.00  0.00     0.202 C 
BRANCH  28  29
ATOM     29  C   UNL A   1      37.476  21.783  24.851  1.00  0.00     0.261 C 
BRANCH  29  30
ATOM     30  O   UNL A   1      37.862  22.841  25.754  1.00  0.00    -0.460 OA
BRANCH  30  31
ATOM     31  C   UNL A   1      39.137  22.790  26.231  1.00  0.00     0.338 C 
ATOM     32  O   UNL A   1      39.892  21.844  26.178  1.00  0.00    -0.246 OA
BRANCH  31  33
ATOM     33  C   UNL A   1      39.477  24.112  26.831  1.00  0.00     0.060 A 
ATOM     34  C   UNL A   1      40.196  25.050  26.083  1.00  0.00     0.016 A 
ATOM     35  C   UNL A   1      39.070  24.437  28.131  1.00  0.00     0.016 A 
ATOM     36  C   UNL A   1      40.476  26.321  26.619  1.00  0.00     0.010 A 
ATOM     37  C   UNL A   1      39.363  25.698  28.671  1.00  0.00     0.010 A 
ATOM     38  C   UNL A   1      40.071  26.654  27.921  1.00  0.00    -0.014 A 
BRANCH  38  39
ATOM     39  C   UNL A   1      40.473  27.941  28.559  1.00  0.00     0.031 A 
ATOM     40  C   UNL A   1      41.854  28.081  29.122  1.00  0.00     0.074 A 
ATOM     41  C   UNL A   1      39.622  28.975  28.692  1.00  0.00     0.049 A 
ATOM     42  N   UNL A   1      42.395  29.113  29.717  1.00  0.00    -0.248 NA
ATOM     43  C   UNL A   1      42.743  26.919  28.981  1.00  0.00     0.031 C 
ATOM     44  C   UNL A   1      38.287  29.021  28.125  1.00  0.00     0.029 A 
ATOM     45  N   UNL A   1      39.735  30.180  29.344  1.00  0.00    -0.354 N 
ATOM     46  C   UNL A   1      43.702  28.744  29.984  1.00  0.00     0.074 A 
ATOM     47  C   UNL A   1      43.861  27.377  29.527  1.00  0.00     0.031 C 
ATOM     48  C   UNL A   1      37.666  30.148  28.504  1.00  0.00     0.029 A 
ATOM     49  C   UNL A   1      38.580  30.930  29.325  1.00  0.00     0.049 A 
ATOM     50  H   UNL A   1      40.565  30.479  29.783  1.00  0.00     0.167 HD
ATOM     51  C   UNL A   1      44.687  29.478  30.550  1.00  0.00     0.031 A 
ATOM     52  C   UNL A   1      38.289  32.115  29.896  1.00  0.00     0.031 A 
ATOM     53  C   UNL A   1      44.525  30.808  31.071  1.00  0.00     0.049 A 
ATOM     54  C   UNL A   1      39.360  32.848  30.654  1.00  0.00     0.074 A 
ATOM     55  C   UNL A   1      45.477  31.621  31.661  1.00  0.00     0.029 A 
ATOM     56  N   UNL A   1      43.330  31.506  31.099  1.00  0.00    -0.354 N 
ATOM     57  N   UNL A   1      40.616  32.517  30.825  1.00  0.00    -0.248 NA
ATOM     58  C   UNL A   1      38.982  34.125  31.279  1.00  0.00     0.031 C 
ATOM     59  C   UNL A   1      44.842  32.786  32.105  1.00  0.00     0.029 A 
ATOM     60  C   UNL A   1      43.507  32.718  31.746  1.00  0.00     0.049 A 
ATOM     61  H   UNL A   1      42.480  31.189  30.715  1.00  0.00     0.167 HD
ATOM     62  C   UNL A   1      41.185  33.552  31.553  1.00  0.00     0.074 A 
ATOM     63  C   UNL A   1      40.141  34.530  31.781  1.00  0.00     0.031 C 
ATOM     64  C   UNL A   1      42.461  33.678  31.989  1.00  0.00     0.031 A 
BRANCH  51  65
ATOM     65  C   UNL A   1      46.027  28.820  30.664  1.00  0.00    -0.014 A 
ATOM     66  C   UNL A   1      47.024  29.048  29.703  1.00  0.00     0.009 A 
ATOM     67  C   UNL A   1      46.291  27.960  31.738  1.00  0.00     0.009 A 
ATOM     68  C   UNL A   1      48.255  28.400  29.801  1.00  0.00     0.001 A 
ATOM     69  C   UNL A   1      47.530  27.328  31.844  1.00  0.00     0.001 A 
ATOM     70  C   UNL A   1      48.507  27.541  30.871  1.00  0.00     0.000 A 
ENDBRANCH  51  65
BRANCH  52  71
ATOM     71  C   UNL A   1      36.923  32.695  29.791  1.00  0.00    -0.014 A 
ATOM     72  C   UNL A   1      35.936  32.386  30.741  1.00  0.00     0.009 A 
ATOM     73  C   UNL A   1      36.583  33.519  28.707  1.00  0.00     0.009 A 
ATOM     74  C   UNL A   1      34.631  32.864  30.588  1.00  0.00     0.001 A 
ATOM     75  C   UNL A   1      35.283  34.013  28.569  1.00  0.00     0.001 A 
ATOM     76  C   UNL A   1      34.306  33.676  29.503  1.00  0.00     0.000 A 
ENDBRANCH  52  71
BRANCH  64  77
ATOM     77  C   UNL A   1      42.802  34.919  32.763  1.00  0.00    -0.014 A 
ATOM     78  C   UNL A   1      42.589  34.983  34.149  1.00  0.00     0.009 A 
ATOM     79  C   UNL A   1      43.385  36.015  32.111  1.00  0.00     0.009 A 
ATOM     80  C   UNL A   1      42.933  36.133  34.862  1.00  0.00     0.001 A 
ATOM     81  C   UNL A   1      43.751  37.153  32.831  1.00  0.00     0.001 A 
ATOM     82  C   UNL A   1      43.519  37.214  34.204  1.00  0.00     0.000 A 
ENDBRANCH  64  77
ENDBRANCH  38  39
ENDBRANCH  31  33
ENDBRANCH  30  31
ENDBRANCH  29  30
ENDBRANCH  28  29
ENDBRANCH  27  28
ENDBRANCH  26  27
ENDBRANCH   1  26
TORSDOF 23
ENDMDL
MODEL 2
REMARK VINA RESULT:      -9.0      3.300      7.306
REMARK SMILES C=CCN(CC(=O)OCCOCCOCCOC(=O)c1ccc(-c2c3nc(c(-c4ccccc4)c4ccc([nH]4)c(-c4ccccc4)c4nc(c(-c5ccccc5)c5ccc2[nH]5)C=C4)C=C3)cc1)C(=O)c1cn(C2C[NH2+]C2)nn1
REMARK SMILES IDX 12 1 11 2 10 3 9 4 8 5 6 6 7 7 5 8 4 9 3 10 2 11 1 12 68 13
REMARK SMILES IDX 69 14 70 15 71 16 78 17 72 18 77 19 73 20 74 21 76 22 75 23
REMARK SMILES IDX 13 26 14 27 15 28 16 29 17 30 18 31 19 32 20 33 21 34 67 35
REMARK SMILES IDX 22 36 66 37 23 38 24 39 25 40 60 41 26 42 65 43 59 44 61 45
REMARK SMILES IDX 27 46 64 47 58 48 57 49 28 51 50 52 35 53 49 54 36 55 39 56
REMARK SMILES IDX 48 57 62 58 37 59 38 60 47 62 63 63 40 64 29 65 30 66 34 67
REMARK SMILES IDX 31 68 33 69 32 70 51 71 52 72 56 73 53 74 55 75 54 76 41 77
REMARK SMILES IDX 42 78 46 79 43 80 45 81 44 82
REMARK H PARENT 75 24 75 25 61 50 39 61
REMARK Flexibility Score: inf
ROOT
ATOM      1  C   UNL A   1      41.238  20.866  26.087  1.00  0.00     0.188 C 
ENDROOT
BRANCH   1   2
ATOM      2  O   UNL A   1      40.304  21.280  27.076  1.00  0.00    -0.376 OA
BRANCH   2   3
ATOM      3  C   UNL A   1      39.582  22.475  26.793  1.00  0.00     0.202 C 
BRANCH   3   4
ATOM      4  C   UNL A   1      38.381  22.304  25.852  1.00  0.00     0.261 C 
BRANCH   4   5
ATOM      5  O   UNL A   1      37.810  23.570  25.446  1.00  0.00    -0.462 OA
BRANCH   5   6
ATOM      6  C   UNL A   1      36.459  23.513  25.252  1.00  0.00     0.325 C 
ATOM      7  O   UNL A   1      35.635  23.891  26.080  1.00  0.00    -0.250 OA
BRANCH   6   8
ATOM      8  C   UNL A   1      36.039  22.930  23.897  1.00  0.00     0.242 C 
BRANCH   8   9
ATOM      9  N   UNL A   1      34.672  22.408  23.751  1.00  0.00    -0.322 N 
BRANCH   9  10
ATOM     10  C   UNL A   1      34.405  21.115  24.366  1.00  0.00     0.147 C 
BRANCH  10  11
ATOM     11  C   UNL A   1      33.154  21.201  25.189  1.00  0.00    -0.014 C 
ATOM     12  C   UNL A   1      32.153  20.313  25.114  1.00  0.00     0.006 C 
ENDBRANCH  10  11
ENDBRANCH   9  10
BRANCH   9  13
ATOM     13  C   UNL A   1      33.650  22.991  22.991  1.00  0.00     0.276 C 
ATOM     14  O   UNL A   1      32.888  22.306  22.307  1.00  0.00    -0.267 OA
BRANCH  13  15
ATOM     15  C   UNL A   1      33.572  24.446  22.892  1.00  0.00     0.170 A 
ATOM     16  C   UNL A   1      33.165  25.283  23.911  1.00  0.00     0.145 A 
ATOM     17  N   UNL A   1      33.851  25.215  21.795  1.00  0.00    -0.125 NA
ATOM     18  N   UNL A   1      33.078  26.512  23.341  1.00  0.00    -0.237 N 
ATOM     19  N   UNL A   1      33.551  26.476  22.080  1.00  0.00    -0.066 NA
BRANCH  18  20
ATOM     20  C   UNL A   1      32.549  27.709  23.921  1.00  0.00     0.218 C 
ATOM     21  C   UNL A   1      33.558  28.322  24.903  1.00  0.00     0.294 C 
ATOM     22  C   UNL A   1      32.657  29.031  23.155  1.00  0.00     0.294 C 
ATOM     23  N   UNL A   1      33.248  29.656  24.355  1.00  0.00    -0.342 N 
ATOM     24  H   UNL A   1      34.071  30.228  24.163  1.00  0.00     0.346 HD
ATOM     25  H   UNL A   1      32.710  30.325  24.904  1.00  0.00     0.346 HD
ENDBRANCH  18  20
ENDBRANCH  13  15
ENDBRANCH   9  13
ENDBRANCH   8   9
ENDBRANCH   6   8
ENDBRANCH   5   6
ENDBRANCH   4   5
ENDBRANCH   3   4
ENDBRANCH   2   3
ENDBRANCH   1   2
BRANCH   1  26
ATOM     26  C   UNL A   1      42.699  20.754  26.534  1.00  0.00     0.188 C 
BRANCH  26  27
ATOM     27  O   UNL A   1      43.525  20.487  25.402  1.00  0.00    -0.376 OA
BRANCH  27  28
ATOM     28  C   UNL A   1      44.550  21.469  25.207  1.00  0.00     0.202 C 
BRANCH  28  29
ATOM     29  C   UNL A   1      44.116  22.477  24.138  1.00  0.00     0.261 C 
BRANCH  29  30
ATOM     30  O   UNL A   1      43.522  23.678  24.677  1.00  0.00    -0.460 OA
BRANCH  30  31
ATOM     31  C   UNL A   1      44.387  24.645  25.090  1.00  0.00     0.338 C 
ATOM     32  O   UNL A   1      45.477  24.890  24.619  1.00  0.00    -0.246 OA
BRANCH  31  33
ATOM     33  C   UNL A   1      43.770  25.385  26.228  1.00  0.00     0.060 A 
ATOM     34  C   UNL A   1      44.060  26.741  26.413  1.00  0.00     0.016 A 
ATOM     35  C   UNL A   1      42.889  24.745  27.107  1.00  0.00     0.016 A 
ATOM     36  C   UNL A   1      43.443  27.463  27.452  1.00  0.00     0.010 A 
ATOM     37  C   UNL A   1      42.286  25.461  28.152  1.00  0.00     0.010 A 
ATOM     38  C   UNL A   1      42.557  26.828  28.337  1.00  0.00    -0.014 A 
BRANCH  38  39
ATOM     39  C   UNL A   1      41.997  27.537  29.524  1.00  0.00     0.031 A 
ATOM     40  C   UNL A   1      40.734  28.328  29.378  1.00  0.00     0.074 A 
ATOM     41  C   UNL A   1      42.612  27.531  30.722  1.00  0.00     0.049 A 
ATOM     42  N   UNL A   1      40.089  29.016  30.284  1.00  0.00    -0.248 NA
ATOM     43  C   UNL A   1      40.109  28.330  28.047  1.00  0.00     0.031 C 
ATOM     44  C   UNL A   1      43.789  26.746  31.039  1.00  0.00     0.029 A 
ATOM     45  N   UNL A   1      42.349  28.204  31.892  1.00  0.00    -0.354 N 
ATOM     46  C   UNL A   1      38.958  29.499  29.649  1.00  0.00     0.074 A 
ATOM     47  C   UNL A   1      39.027  29.063  28.268  1.00  0.00     0.031 C 
ATOM     48  C   UNL A   1      44.204  27.023  32.284  1.00  0.00     0.029 A 
ATOM     49  C   UNL A   1      43.293  27.996  32.873  1.00  0.00     0.049 A 
ATOM     50  H   UNL A   1      41.561  28.781  32.016  1.00  0.00     0.167 HD
ATOM     51  C   UNL A   1      37.946  30.231  30.168  1.00  0.00     0.031 A 
ATOM     52  C   UNL A   1      43.410  28.520  34.109  1.00  0.00     0.031 A 
ATOM     53  C   UNL A   1      37.899  30.728  31.515  1.00  0.00     0.049 A 
ATOM     54  C   UNL A   1      42.348  29.456  34.613  1.00  0.00     0.074 A 
ATOM     55  C   UNL A   1      36.906  31.480  32.120  1.00  0.00     0.029 A 
ATOM     56  N   UNL A   1      38.900  30.559  32.457  1.00  0.00    -0.354 N 
ATOM     57  N   UNL A   1      41.242  29.835  34.023  1.00  0.00    -0.248 NA
ATOM     58  C   UNL A   1      42.538  30.019  35.959  1.00  0.00     0.031 C 
ATOM     59  C   UNL A   1      37.337  31.820  33.406  1.00  0.00     0.029 A 
ATOM     60  C   UNL A   1      38.575  31.238  33.620  1.00  0.00     0.049 A 
ATOM     61  H   UNL A   1      39.721  30.033  32.321  1.00  0.00     0.167 HD
ATOM     62  C   UNL A   1      40.592  30.659  34.930  1.00  0.00     0.074 A 
ATOM     63  C   UNL A   1      41.420  30.715  36.118  1.00  0.00     0.031 C 
ATOM     64  C   UNL A   1      39.411  31.307  34.790  1.00  0.00     0.031 A 
BRANCH  51  65
ATOM     65  C   UNL A   1      36.821  30.566  29.238  1.00  0.00    -0.014 A 
ATOM     66  C   UNL A   1      35.936  29.572  28.794  1.00  0.00     0.009 A 
ATOM     67  C   UNL A   1      36.649  31.885  28.799  1.00  0.00     0.009 A 
ATOM     68  C   UNL A   1      34.915  29.890  27.899  1.00  0.00     0.001 A 
ATOM     69  C   UNL A   1      35.615  32.204  27.920  1.00  0.00     0.001 A 
ATOM     70  C   UNL A   1      34.754  31.206  27.464  1.00  0.00     0.000 A 
ENDBRANCH  51  65
BRANCH  52  71
ATOM     71  C   UNL A   1      44.579  28.188  34.968  1.00  0.00    -0.014 A 
ATOM     72  C   UNL A   1      45.766  28.935  34.885  1.00  0.00     0.009 A 
ATOM     73  C   UNL A   1      44.532  27.087  35.837  1.00  0.00     0.009 A 
ATOM     74  C   UNL A   1      46.888  28.564  35.631  1.00  0.00     0.001 A 
ATOM     75  C   UNL A   1      45.649  26.733  36.598  1.00  0.00     0.001 A 
ATOM     76  C   UNL A   1      46.830  27.465  36.486  1.00  0.00     0.000 A 
ENDBRANCH  52  71
BRANCH  64  77
ATOM     77  C   UNL A   1      38.942  32.140  35.948  1.00  0.00    -0.014 A 
ATOM     78  C   UNL A   1      39.301  33.493  36.054  1.00  0.00     0.009 A 
ATOM     79  C   UNL A   1      38.098  31.581  36.918  1.00  0.00     0.009 A 
ATOM     80  C   UNL A   1      38.839  34.263  37.122  1.00  0.00     0.001 A 
ATOM     81  C   UNL A   1      37.617  32.360  37.971  1.00  0.00     0.001 A 
ATOM     82  C   UNL A   1      37.993  33.699  38.076  1.00  0.00     0.000 A 
ENDBRANCH  64  77
ENDBRANCH  38  39
ENDBRANCH  31  33
ENDBRANCH  30  31
ENDBRANCH  29  30
ENDBRANCH  28  29
ENDBRANCH  27  28
ENDBRANCH  26  27
ENDBRANCH   1  26
TORSDOF 23
ENDMDL
MODEL 3
REMARK VINA RESULT:      -8.8      3.601      5.783
REMARK SMILES C=CCN(CC(=O)OCCOCCOCCOC(=O)c1ccc(-c2c3nc(c(-c4ccccc4)c4ccc([nH]4)c(-c4ccccc4)c4nc(c(-c5ccccc5)c5ccc2[nH]5)C=C4)C=C3)cc1)C(=O)c1cn(C2C[NH2+]C2)nn1
REMARK SMILES IDX 12 1 11 2 10 3 9 4 8 5 6 6 7 7 5 8 4 9 3 10 2 11 1 12 68 13
REMARK SMILES IDX 69 14 70 15 71 16 78 17 72 18 77 19 73 20 74 21 76 22 75 23
REMARK SMILES IDX 13 26 14 27 15 28 16 29 17 30 18 31 19 32 20 33 21 34 67 35
REMARK SMILES IDX 22 36 66 37 23 38 24 39 25 40 60 41 26 42 65 43 59 44 61 45
REMARK SMILES IDX 27 46 64 47 58 48 57 49 28 51 50 52 35 53 49 54 36 55 39 56
REMARK SMILES IDX 48 57 62 58 37 59 38 60 47 62 63 63 40 64 29 65 30 66 34 67
REMARK SMILES IDX 31 68 33 69 32 70 51 71 52 72 56 73 53 74 55 75 54 76 41 77
REMARK SMILES IDX 42 78 46 79 43 80 45 81 44 82
REMARK H PARENT 75 24 75 25 61 50 39 61
REMARK Flexibility Score: inf
ROOT
ATOM      1  C   UNL A   1      40.431  21.465  26.099  1.00  0.00     0.188 C 
ENDROOT
BRANCH   1   2
ATOM      2  O   UNL A   1      39.069  21.761  26.380  1.00  0.00    -0.376 OA
BRANCH   2   3
ATOM      3  C   UNL A   1      38.126  21.360  25.390  1.00  0.00     0.202 C 
BRANCH   3   4
ATOM      4  C   UNL A   1      37.374  22.508  24.703  1.00  0.00     0.261 C 
BRANCH   4   5
ATOM      5  O   UNL A   1      36.255  22.044  23.912  1.00  0.00    -0.462 OA
BRANCH   5   6
ATOM      6  C   UNL A   1      35.252  22.965  23.807  1.00  0.00     0.325 C 
ATOM      7  O   UNL A   1      34.922  23.496  22.750  1.00  0.00    -0.250 OA
BRANCH   6   8
ATOM      8  C   UNL A   1      34.554  23.293  25.132  1.00  0.00     0.242 C 
BRANCH   8   9
ATOM      9  N   UNL A   1      33.148  23.726  25.097  1.00  0.00    -0.322 N 
BRANCH   9  10
ATOM     10  C   UNL A   1      32.890  25.110  25.471  1.00  0.00     0.147 C 
BRANCH  10  11
ATOM     11  C   UNL A   1      33.246  26.012  24.327  1.00  0.00    -0.014 C 
ATOM     12  C   UNL A   1      33.368  27.343  24.441  1.00  0.00     0.006 C 
ENDBRANCH  10  11
ENDBRANCH   9  10
BRANCH   9  13
ATOM     13  C   UNL A   1      32.044  22.904  24.842  1.00  0.00     0.276 C 
ATOM     14  O   UNL A   1      30.901  23.255  25.134  1.00  0.00    -0.267 OA
BRANCH  13  15
ATOM     15  C   UNL A   1      32.262  21.545  24.349  1.00  0.00     0.170 A 
ATOM     16  C   UNL A   1      32.648  20.478  25.133  1.00  0.00     0.145 A 
ATOM     17  N   UNL A   1      32.154  21.110  23.057  1.00  0.00    -0.125 NA
ATOM     18  N   UNL A   1      32.896  19.471  24.255  1.00  0.00    -0.237 N 
ATOM     19  N   UNL A   1      32.539  19.840  23.010  1.00  0.00    -0.066 NA
BRANCH  18  20
ATOM     20  C   UNL A   1      33.475  18.192  24.534  1.00  0.00     0.218 C 
ATOM     21  C   UNL A   1      32.538  17.360  25.421  1.00  0.00     0.294 C 
ATOM     22  C   UNL A   1      33.333  17.060  23.511  1.00  0.00     0.294 C 
ATOM     23  N   UNL A   1      32.828  16.181  24.583  1.00  0.00    -0.342 N 
ATOM     24  H   UNL A   1      32.001  15.642  24.324  1.00  0.00     0.346 HD
ATOM     25  H   UNL A   1      33.408  15.424  24.944  1.00  0.00     0.346 HD
ENDBRANCH  18  20
ENDBRANCH  13  15
ENDBRANCH   9  13
ENDBRANCH   8   9
ENDBRANCH   6   8
ENDBRANCH   5   6
ENDBRANCH   4   5
ENDBRANCH   3   4
ENDBRANCH   2   3
ENDBRANCH   1   2
BRANCH   1  26
ATOM     26  C   UNL A   1      40.875  20.017  26.330  1.00  0.00     0.188 C 
BRANCH  26  27
ATOM     27  O   UNL A   1      41.878  19.667  25.378  1.00  0.00    -0.376 OA
BRANCH  27  28
ATOM     28  C   UNL A   1      43.209  19.760  25.900  1.00  0.00     0.202 C 
BRANCH  28  29
ATOM     29  C   UNL A   1      43.947  20.938  25.254  1.00  0.00     0.261 C 
BRANCH  29  30
ATOM     30  O   UNL A   1      44.029  22.106  26.099  1.00  0.00    -0.460 OA
BRANCH  30  31
ATOM     31  C   UNL A   1      43.731  23.298  25.510  1.00  0.00     0.338 C 
ATOM     32  O   UNL A   1      43.778  23.551  24.326  1.00  0.00    -0.246 OA
BRANCH  31  33
ATOM     33  C   UNL A   1      43.315  24.264  26.567  1.00  0.00     0.060 A 
ATOM     34  C   UNL A   1      42.507  23.831  27.624  1.00  0.00     0.016 A 
ATOM     35  C   UNL A   1      43.737  25.598  26.528  1.00  0.00     0.016 A 
ATOM     36  C   UNL A   1      42.151  24.720  28.655  1.00  0.00     0.010 A 
ATOM     37  C   UNL A   1      43.370  26.488  27.548  1.00  0.00     0.010 A 
ATOM     38  C   UNL A   1      42.572  26.059  28.623  1.00  0.00    -0.014 A 
BRANCH  38  39
ATOM     39  C   UNL A   1      42.097  27.051  29.631  1.00  0.00     0.031 A 
ATOM     40  C   UNL A   1      42.779  27.128  30.962  1.00  0.00     0.074 A 
ATOM     41  C   UNL A   1      41.041  27.856  29.407  1.00  0.00     0.049 A 
ATOM     42  N   UNL A   1      42.517  27.918  31.972  1.00  0.00    -0.248 NA
ATOM     43  C   UNL A   1      43.911  26.214  31.176  1.00  0.00     0.031 C 
ATOM     44  C   UNL A   1      40.336  27.955  28.143  1.00  0.00     0.029 A 
ATOM     45  N   UNL A   1      40.367  28.734  30.222  1.00  0.00    -0.354 N 
ATOM     46  C   UNL A   1      43.476  27.629  32.927  1.00  0.00     0.074 A 
ATOM     47  C   UNL A   1      44.300  26.561  32.395  1.00  0.00     0.031 C 
ATOM     48  C   UNL A   1      39.284  28.779  28.268  1.00  0.00     0.029 A 
ATOM     49  C   UNL A   1      39.258  29.298  29.630  1.00  0.00     0.049 A 
ATOM     50  H   UNL A   1      40.650  28.939  31.143  1.00  0.00     0.167 HD
ATOM     51  C   UNL A   1      43.664  28.207  34.135  1.00  0.00     0.031 A 
ATOM     52  C   UNL A   1      38.329  30.141  30.121  1.00  0.00     0.031 A 
ATOM     53  C   UNL A   1      42.815  29.217  34.704  1.00  0.00     0.049 A 
ATOM     54  C   UNL A   1      38.474  30.655  31.526  1.00  0.00     0.074 A 
ATOM     55  C   UNL A   1      42.938  29.854  35.927  1.00  0.00     0.029 A 
ATOM     56  N   UNL A   1      41.666  29.712  34.109  1.00  0.00    -0.354 N 
ATOM     57  N   UNL A   1      39.437  30.431  32.386  1.00  0.00    -0.248 NA
ATOM     58  C   UNL A   1      37.419  31.553  32.021  1.00  0.00     0.031 C 
ATOM     59  C   UNL A   1      41.827  30.687  36.100  1.00  0.00     0.029 A 
ATOM     60  C   UNL A   1      41.040  30.605  34.963  1.00  0.00     0.049 A 
ATOM     61  H   UNL A   1      41.343  29.465  33.213  1.00  0.00     0.167 HD
ATOM     62  C   UNL A   1      39.120  31.177  33.512  1.00  0.00     0.074 A 
ATOM     63  C   UNL A   1      37.882  31.871  33.223  1.00  0.00     0.031 C 
ATOM     64  C   UNL A   1      39.798  31.277  34.679  1.00  0.00     0.031 A 
BRANCH  51  65
ATOM     65  C   UNL A   1      44.829  27.712  34.936  1.00  0.00    -0.014 A 
ATOM     66  C   UNL A   1      46.096  28.300  34.799  1.00  0.00     0.009 A 
ATOM     67  C   UNL A   1      44.658  26.647  35.830  1.00  0.00     0.009 A 
ATOM     68  C   UNL A   1      47.181  27.806  35.524  1.00  0.00     0.001 A 
ATOM     69  C   UNL A   1      45.740  26.168  36.568  1.00  0.00     0.001 A 
ATOM     70  C   UNL A   1      47.002  26.741  36.408  1.00  0.00     0.000 A 
ENDBRANCH  51  65
BRANCH  52  71
ATOM     71  C   UNL A   1      37.165  30.556  29.293  1.00  0.00    -0.014 A 
ATOM     72  C   UNL A   1      36.193  29.623  28.901  1.00  0.00     0.009 A 
ATOM     73  C   UNL A   1      37.051  31.881  28.843  1.00  0.00     0.009 A 
ATOM     74  C   UNL A   1      35.149  30.001  28.051  1.00  0.00     0.001 A 
ATOM     75  C   UNL A   1      35.995  32.261  28.011  1.00  0.00     0.001 A 
ATOM     76  C   UNL A   1      35.051  31.319  27.607  1.00  0.00     0.000 A 
ENDBRANCH  52  71
BRANCH  64  77
ATOM     77  C   UNL A   1      39.216  32.168  35.738  1.00  0.00    -0.014 A 
ATOM     78  C   UNL A   1      38.241  31.688  36.626  1.00  0.00     0.009 A 
ATOM     79  C   UNL A   1      39.679  33.484  35.880  1.00  0.00     0.009 A 
ATOM     80  C   UNL A   1      37.724  32.519  37.622  1.00  0.00     0.001 A 
ATOM     81  C   UNL A   1      39.179  34.305  36.893  1.00  0.00     0.001 A 
ATOM     82  C   UNL A   1      38.198  33.823  37.759  1.00  0.00     0.000 A 
ENDBRANCH  64  77
ENDBRANCH  38  39
ENDBRANCH  31  33
ENDBRANCH  30  31
ENDBRANCH  29  30
ENDBRANCH  28  29
ENDBRANCH  27  28
ENDBRANCH  26  27
ENDBRANCH   1  26
TORSDOF 23
ENDMDL
