MODEL 1
REMARK VINA RESULT:     -11.6      0.000      0.000
REMARK SMILES O=C(CC1(CC(=O)OCCOCCOCCOC(=O)c2ccc(-c3c4nc(c(-c5ccccc5)c5ccc([nH]5)c(-c5ccccc5)c5nc(c(-c6ccccc6)c6ccc3[nH]6)C=C5)C=C4)cc2)CCCC1)N[C@H]1CO[C@H]2[C@@H]1OC[C@@H]2n1nnnc1-c1ccccc1
REMARK SMILES IDX 10 1 9 2 8 3 6 4 7 5 5 6 4 7 68 8 71 9 69 10 70 11 3 12 2 13
REMARK SMILES IDX 1 14 72 15 73 17 74 18 77 19 75 20 76 21 78 22 80 23 79 24
REMARK SMILES IDX 81 25 82 26 85 27 83 28 84 29 86 30 87 31 91 32 88 33 90 34
REMARK SMILES IDX 89 35 11 36 12 37 13 38 14 39 15 40 16 41 17 42 18 43 19 44
REMARK SMILES IDX 20 45 21 46 67 47 22 48 66 49 23 50 24 51 25 52 60 53 26 54
REMARK SMILES IDX 65 55 59 56 61 57 27 58 64 59 58 60 57 61 28 63 50 64 35 65
REMARK SMILES IDX 49 66 36 67 39 68 48 69 62 70 37 71 38 72 47 74 63 75 40 76
REMARK SMILES IDX 29 77 30 78 34 79 31 80 33 81 32 82 51 83 52 84 56 85 53 86
REMARK SMILES IDX 55 87 54 88 41 89 42 90 46 91 43 92 45 93 44 94
REMARK H PARENT 72 16 61 62 39 73
REMARK Flexibility Score: inf
ROOT
ATOM      1  C   UNL A   1      37.658  23.047  26.194  1.00  0.00     0.202 C 
ENDROOT
BRANCH   1   2
ATOM      2  C   UNL A   1      36.142  22.830  26.133  1.00  0.00     0.261 C 
BRANCH   2   3
ATOM      3  O   UNL A   1      35.790  21.428  26.046  1.00  0.00    -0.463 OA
BRANCH   3   4
ATOM      4  C   UNL A   1      35.269  21.051  24.848  1.00  0.00     0.306 C 
ATOM      5  O   UNL A   1      35.276  21.749  23.840  1.00  0.00    -0.252 OA
BRANCH   4   6
ATOM      6  C   UNL A   1      34.801  19.611  24.819  1.00  0.00     0.130 C 
BRANCH   6   7
ATOM      7  C   UNL A   1      33.278  19.296  24.731  1.00  0.00    -0.011 C 
ATOM      8  C   UNL A   1      32.955  18.205  25.786  1.00  0.00     0.008 C 
ATOM      9  C   UNL A   1      32.870  18.552  23.449  1.00  0.00     0.008 C 
ATOM     10  C   UNL A   1      33.390  16.885  25.151  1.00  0.00     0.001 C 
ATOM     11  C   UNL A   1      33.322  17.108  23.644  1.00  0.00     0.001 C 
BRANCH   7  12
ATOM     12  C   UNL A   1      32.457  20.572  25.039  1.00  0.00     0.107 C 
BRANCH  12  13
ATOM     13  C   UNL A   1      32.173  21.488  23.861  1.00  0.00     0.220 C 
ATOM     14  O   UNL A   1      31.899  21.048  22.747  1.00  0.00    -0.275 OA
ATOM     15  N   UNL A   1      32.308  22.835  24.132  1.00  0.00    -0.348 N 
ATOM     16  H   UNL A   1      32.669  23.127  25.000  1.00  0.00     0.163 HD
BRANCH  15  17
ATOM     17  C   UNL A   1      31.917  23.828  23.132  1.00  0.00     0.139 C 
ATOM     18  C   UNL A   1      30.439  24.201  23.188  1.00  0.00     0.188 C 
ATOM     19  C   UNL A   1      32.533  25.192  23.384  1.00  0.00     0.174 C 
ATOM     20  O   UNL A   1      30.297  25.157  24.247  1.00  0.00    -0.371 OA
ATOM     21  C   UNL A   1      31.540  25.893  24.306  1.00  0.00     0.176 C 
ATOM     22  O   UNL A   1      32.560  25.956  22.168  1.00  0.00    -0.371 OA
ATOM     23  C   UNL A   1      31.325  27.279  23.709  1.00  0.00     0.169 C 
ATOM     24  C   UNL A   1      32.307  27.312  22.541  1.00  0.00     0.191 C 
BRANCH  23  25
ATOM     25  N   UNL A   1      31.434  28.469  24.515  1.00  0.00    -0.217 N 
ATOM     26  N   UNL A   1      32.409  28.467  25.455  1.00  0.00    -0.044 NA
ATOM     27  C   UNL A   1      30.826  29.703  24.509  1.00  0.00     0.182 A 
ATOM     28  N   UNL A   1      32.379  29.664  26.011  1.00  0.00    -0.023 NA
ATOM     29  N   UNL A   1      31.416  30.440  25.434  1.00  0.00    -0.108 NA
BRANCH  27  30
ATOM     30  C   UNL A   1      29.768  30.189  23.641  1.00  0.00     0.021 A 
ATOM     31  C   UNL A   1      29.081  31.363  23.980  1.00  0.00     0.012 A 
ATOM     32  C   UNL A   1      29.382  29.476  22.500  1.00  0.00     0.012 A 
ATOM     33  C   UNL A   1      28.070  31.855  23.154  1.00  0.00     0.001 A 
ATOM     34  C   UNL A   1      28.373  29.976  21.674  1.00  0.00     0.001 A 
ATOM     35  C   UNL A   1      27.729  31.171  21.990  1.00  0.00     0.000 A 
ENDBRANCH  27  30
ENDBRANCH  23  25
ENDBRANCH  15  17
ENDBRANCH  12  13
ENDBRANCH   7  12
ENDBRANCH   6   7
ENDBRANCH   4   6
ENDBRANCH   3   4
ENDBRANCH   2   3
ENDBRANCH   1   2
BRANCH   1  36
ATOM     36  O   UNL A   1      38.508  21.980  25.758  1.00  0.00    -0.376 OA
BRANCH  36  37
ATOM     37  C   UNL A   1      39.696  21.741  26.499  1.00  0.00     0.188 C 
BRANCH  37  38
ATOM     38  C   UNL A   1      40.321  20.347  26.368  1.00  0.00     0.188 C 
BRANCH  38  39
ATOM     39  O   UNL A   1      41.514  20.279  25.579  1.00  0.00    -0.376 OA
BRANCH  39  40
ATOM     40  C   UNL A   1      42.674  20.734  26.297  1.00  0.00     0.202 C 
BRANCH  40  41
ATOM     41  C   UNL A   1      43.485  21.740  25.479  1.00  0.00     0.261 C 
BRANCH  41  42
ATOM     42  O   UNL A   1      42.754  22.960  25.374  1.00  0.00    -0.460 OA
BRANCH  42  43
ATOM     43  C   UNL A   1      43.521  24.076  25.331  1.00  0.00     0.338 C 
ATOM     44  O   UNL A   1      44.388  24.358  24.523  1.00  0.00    -0.246 OA
BRANCH  43  45
ATOM     45  C   UNL A   1      42.967  25.026  26.306  1.00  0.00     0.060 A 
ATOM     46  C   UNL A   1      43.465  26.336  26.304  1.00  0.00     0.016 A 
ATOM     47  C   UNL A   1      41.916  24.656  27.150  1.00  0.00     0.016 A 
ATOM     48  C   UNL A   1      42.924  27.279  27.167  1.00  0.00     0.010 A 
ATOM     49  C   UNL A   1      41.370  25.598  28.007  1.00  0.00     0.010 A 
ATOM     50  C   UNL A   1      41.897  26.899  28.038  1.00  0.00    -0.014 A 
BRANCH  50  51
ATOM     51  C   UNL A   1      41.492  27.793  29.134  1.00  0.00     0.031 A 
ATOM     52  C   UNL A   1      42.252  27.700  30.422  1.00  0.00     0.074 A 
ATOM     53  C   UNL A   1      40.460  28.637  28.979  1.00  0.00     0.049 A 
ATOM     54  N   UNL A   1      42.022  28.293  31.562  1.00  0.00    -0.248 NA
ATOM     55  C   UNL A   1      43.423  26.804  30.429  1.00  0.00     0.031 C 
ATOM     56  C   UNL A   1      39.691  28.821  27.749  1.00  0.00     0.029 A 
ATOM     57  N   UNL A   1      39.878  29.491  29.876  1.00  0.00    -0.354 N 
ATOM     58  C   UNL A   1      43.008  27.828  32.424  1.00  0.00     0.074 A 
ATOM     59  C   UNL A   1      43.815  26.882  31.689  1.00  0.00     0.031 C 
ATOM     60  C   UNL A   1      38.728  29.732  27.974  1.00  0.00     0.029 A 
ATOM     61  C   UNL A   1      38.790  30.156  29.370  1.00  0.00     0.049 A 
ATOM     62  H   UNL A   1      40.208  29.616  30.795  1.00  0.00     0.167 HD
ATOM     63  C   UNL A   1      43.218  28.169  33.716  1.00  0.00     0.031 A 
ATOM     64  C   UNL A   1      37.931  30.989  29.984  1.00  0.00     0.031 A 
ATOM     65  C   UNL A   1      42.392  29.100  34.432  1.00  0.00     0.049 A 
ATOM     66  C   UNL A   1      38.145  31.296  31.442  1.00  0.00     0.074 A 
ATOM     67  C   UNL A   1      42.511  29.530  35.741  1.00  0.00     0.029 A 
ATOM     68  N   UNL A   1      41.285  29.741  33.893  1.00  0.00    -0.354 N 
ATOM     69  N   UNL A   1      39.088  30.869  32.249  1.00  0.00    -0.248 NA
ATOM     70  C   UNL A   1      37.179  32.205  32.072  1.00  0.00     0.031 C 
ATOM     71  C   UNL A   1      41.439  30.387  36.011  1.00  0.00     0.029 A 
ATOM     72  C   UNL A   1      40.694  30.543  34.851  1.00  0.00     0.049 A 
ATOM     73  H   UNL A   1      40.968  29.637  32.967  1.00  0.00     0.167 HD
ATOM     74  C   UNL A   1      38.848  31.481  33.472  1.00  0.00     0.074 A 
ATOM     75  C   UNL A   1      37.679  32.320  33.295  1.00  0.00     0.031 C 
ATOM     76  C   UNL A   1      39.531  31.366  34.639  1.00  0.00     0.031 A 
BRANCH  63  77
ATOM     77  C   UNL A   1      44.353  27.493  34.431  1.00  0.00    -0.014 A 
ATOM     78  C   UNL A   1      45.638  28.062  34.472  1.00  0.00     0.009 A 
ATOM     79  C   UNL A   1      44.135  26.268  35.078  1.00  0.00     0.009 A 
ATOM     80  C   UNL A   1      46.685  27.399  35.115  1.00  0.00     0.001 A 
ATOM     81  C   UNL A   1      45.176  25.622  35.746  1.00  0.00     0.001 A 
ATOM     82  C   UNL A   1      46.452  26.182  35.755  1.00  0.00     0.000 A 
ENDBRANCH  63  77
BRANCH  64  83
ATOM     83  C   UNL A   1      36.790  31.573  29.233  1.00  0.00    -0.014 A 
ATOM     84  C   UNL A   1      35.624  30.826  29.007  1.00  0.00     0.009 A 
ATOM     85  C   UNL A   1      36.861  32.882  28.729  1.00  0.00     0.009 A 
ATOM     86  C   UNL A   1      34.567  31.366  28.271  1.00  0.00     0.001 A 
ATOM     87  C   UNL A   1      35.791  33.431  28.021  1.00  0.00     0.001 A 
ATOM     88  C   UNL A   1      34.649  32.669  27.783  1.00  0.00     0.000 A 
ENDBRANCH  64  83
BRANCH  76  89
ATOM     89  C   UNL A   1      39.057  32.202  35.795  1.00  0.00    -0.014 A 
ATOM     90  C   UNL A   1      38.158  31.695  36.745  1.00  0.00     0.009 A 
ATOM     91  C   UNL A   1      39.559  33.502  35.957  1.00  0.00     0.009 A 
ATOM     92  C   UNL A   1      37.744  32.489  37.816  1.00  0.00     0.001 A 
ATOM     93  C   UNL A   1      39.171  34.281  37.046  1.00  0.00     0.001 A 
ATOM     94  C   UNL A   1      38.256  33.778  37.969  1.00  0.00     0.000 A 
ENDBRANCH  76  89
ENDBRANCH  50  51
ENDBRANCH  43  45
ENDBRANCH  42  43
ENDBRANCH  41  42
ENDBRANCH  40  41
ENDBRANCH  39  40
ENDBRANCH  38  39
ENDBRANCH  37  38
ENDBRANCH  36  37
ENDBRANCH   1  36
TORSDOF 23
ENDMDL
MODEL 2
REMARK VINA RESULT:     -11.4      3.816      7.986
REMARK SMILES O=C(CC1(CC(=O)OCCOCCOCCOC(=O)c2ccc(-c3c4nc(c(-c5ccccc5)c5ccc([nH]5)c(-c5ccccc5)c5nc(c(-c6ccccc6)c6ccc3[nH]6)C=C5)C=C4)cc2)CCCC1)N[C@H]1CO[C@H]2[C@@H]1OC[C@@H]2n1nnnc1-c1ccccc1
REMARK SMILES IDX 10 1 9 2 8 3 6 4 7 5 5 6 4 7 68 8 71 9 69 10 70 11 3 12 2 13
REMARK SMILES IDX 1 14 72 15 73 17 74 18 77 19 75 20 76 21 78 22 80 23 79 24
REMARK SMILES IDX 81 25 82 26 85 27 83 28 84 29 86 30 87 31 91 32 88 33 90 34
REMARK SMILES IDX 89 35 11 36 12 37 13 38 14 39 15 40 16 41 17 42 18 43 19 44
REMARK SMILES IDX 20 45 21 46 67 47 22 48 66 49 23 50 24 51 25 52 60 53 26 54
REMARK SMILES IDX 65 55 59 56 61 57 27 58 64 59 58 60 57 61 28 63 50 64 35 65
REMARK SMILES IDX 49 66 36 67 39 68 48 69 62 70 37 71 38 72 47 74 63 75 40 76
REMARK SMILES IDX 29 77 30 78 34 79 31 80 33 81 32 82 51 83 52 84 56 85 53 86
REMARK SMILES IDX 55 87 54 88 41 89 42 90 46 91 43 92 45 93 44 94
REMARK H PARENT 72 16 61 62 39 73
REMARK Flexibility Score: inf
ROOT
ATOM      1  C   UNL A   1      31.549  24.078  26.715  1.00  0.00     0.202 C 
ENDROOT
BRANCH   1   2
ATOM      2  C   UNL A   1      32.590  23.057  27.188  1.00  0.00     0.261 C 
BRANCH   2   3
ATOM      3  O   UNL A   1      32.417  21.764  26.561  1.00  0.00    -0.463 OA
BRANCH   3   4
ATOM      4  C   UNL A   1      33.576  21.091  26.330  1.00  0.00     0.306 C 
ATOM      5  O   UNL A   1      33.639  19.910  26.007  1.00  0.00    -0.252 OA
BRANCH   4   6
ATOM      6  C   UNL A   1      34.805  21.977  26.359  1.00  0.00     0.130 C 
BRANCH   6   7
ATOM      7  C   UNL A   1      35.433  22.469  25.021  1.00  0.00    -0.011 C 
ATOM      8  C   UNL A   1      36.535  21.456  24.611  1.00  0.00     0.008 C 
ATOM      9  C   UNL A   1      36.284  23.740  25.165  1.00  0.00     0.008 C 
ATOM     10  C   UNL A   1      37.753  21.817  25.459  1.00  0.00     0.001 C 
ATOM     11  C   UNL A   1      37.595  23.293  25.804  1.00  0.00     0.001 C 
BRANCH   7  12
ATOM     12  C   UNL A   1      34.347  22.527  23.918  1.00  0.00     0.107 C 
BRANCH  12  13
ATOM     13  C   UNL A   1      34.258  23.823  23.133  1.00  0.00     0.220 C 
ATOM     14  O   UNL A   1      34.801  23.959  22.040  1.00  0.00    -0.275 OA
ATOM     15  N   UNL A   1      33.576  24.839  23.772  1.00  0.00    -0.348 N 
ATOM     16  H   UNL A   1      33.284  24.724  24.705  1.00  0.00     0.163 HD
BRANCH  15  17
ATOM     17  C   UNL A   1      33.285  26.086  23.065  1.00  0.00     0.139 C 
ATOM     18  C   UNL A   1      32.634  25.878  21.701  1.00  0.00     0.188 C 
ATOM     19  C   UNL A   1      32.201  26.907  23.740  1.00  0.00     0.174 C 
ATOM     20  O   UNL A   1      31.240  25.646  21.943  1.00  0.00    -0.371 OA
ATOM     21  C   UNL A   1      30.900  26.390  23.134  1.00  0.00     0.176 C 
ATOM     22  O   UNL A   1      32.306  28.285  23.349  1.00  0.00    -0.371 OA
ATOM     23  C   UNL A   1      30.106  27.629  22.735  1.00  0.00     0.169 C 
ATOM     24  C   UNL A   1      30.969  28.778  23.251  1.00  0.00     0.191 C 
BRANCH  23  25
ATOM     25  N   UNL A   1      28.729  27.797  23.126  1.00  0.00    -0.217 N 
ATOM     26  N   UNL A   1      28.150  26.741  23.746  1.00  0.00    -0.044 NA
ATOM     27  C   UNL A   1      27.837  28.844  23.109  1.00  0.00     0.182 A 
ATOM     28  N   UNL A   1      26.936  27.137  24.079  1.00  0.00    -0.023 NA
ATOM     29  N   UNL A   1      26.730  28.432  23.702  1.00  0.00    -0.108 NA
BRANCH  27  30
ATOM     30  C   UNL A   1      28.028  30.191  22.601  1.00  0.00     0.021 A 
ATOM     31  C   UNL A   1      28.160  31.257  23.501  1.00  0.00     0.012 A 
ATOM     32  C   UNL A   1      28.027  30.453  21.225  1.00  0.00     0.012 A 
ATOM     33  C   UNL A   1      28.358  32.557  23.033  1.00  0.00     0.001 A 
ATOM     34  C   UNL A   1      28.231  31.755  20.764  1.00  0.00     0.001 A 
ATOM     35  C   UNL A   1      28.413  32.803  21.664  1.00  0.00     0.000 A 
ENDBRANCH  27  30
ENDBRANCH  23  25
ENDBRANCH  15  17
ENDBRANCH  12  13
ENDBRANCH   7  12
ENDBRANCH   6   7
ENDBRANCH   4   6
ENDBRANCH   3   4
ENDBRANCH   2   3
ENDBRANCH   1   2
BRANCH   1  36
ATOM     36  O   UNL A   1      32.015  25.358  26.272  1.00  0.00    -0.376 OA
BRANCH  36  37
ATOM     37  C   UNL A   1      32.152  26.380  27.249  1.00  0.00     0.188 C 
BRANCH  37  38
ATOM     38  C   UNL A   1      31.342  27.662  27.021  1.00  0.00     0.188 C 
BRANCH  38  39
ATOM     39  O   UNL A   1      31.877  28.845  27.626  1.00  0.00    -0.376 OA
BRANCH  39  40
ATOM     40  C   UNL A   1      31.913  29.958  26.716  1.00  0.00     0.202 C 
BRANCH  40  41
ATOM     41  C   UNL A   1      33.069  30.909  27.034  1.00  0.00     0.261 C 
BRANCH  41  42
ATOM     42  O   UNL A   1      33.974  30.267  27.930  1.00  0.00    -0.460 OA
BRANCH  42  43
ATOM     43  C   UNL A   1      34.827  31.106  28.566  1.00  0.00     0.338 C 
ATOM     44  O   UNL A   1      34.564  32.144  29.146  1.00  0.00    -0.246 OA
BRANCH  43  45
ATOM     45  C   UNL A   1      36.129  30.428  28.648  1.00  0.00     0.060 A 
ATOM     46  C   UNL A   1      36.448  29.757  29.836  1.00  0.00     0.016 A 
ATOM     47  C   UNL A   1      36.984  30.383  27.543  1.00  0.00     0.016 A 
ATOM     48  C   UNL A   1      37.640  29.052  29.929  1.00  0.00     0.010 A 
ATOM     49  C   UNL A   1      38.172  29.674  27.632  1.00  0.00     0.010 A 
ATOM     50  C   UNL A   1      38.514  29.037  28.836  1.00  0.00    -0.014 A 
BRANCH  50  51
ATOM     51  C   UNL A   1      39.885  28.530  28.995  1.00  0.00     0.031 A 
ATOM     52  C   UNL A   1      40.929  29.490  29.480  1.00  0.00     0.074 A 
ATOM     53  C   UNL A   1      40.181  27.257  28.688  1.00  0.00     0.049 A 
ATOM     54  N   UNL A   1      42.218  29.321  29.596  1.00  0.00    -0.248 NA
ATOM     55  C   UNL A   1      40.454  30.829  29.874  1.00  0.00     0.031 C 
ATOM     56  C   UNL A   1      39.221  26.245  28.248  1.00  0.00     0.029 A 
ATOM     57  N   UNL A   1      41.385  26.607  28.692  1.00  0.00    -0.354 N 
ATOM     58  C   UNL A   1      42.708  30.536  30.058  1.00  0.00     0.074 A 
ATOM     59  C   UNL A   1      41.588  31.441  30.170  1.00  0.00     0.031 C 
ATOM     60  C   UNL A   1      39.881  25.096  28.016  1.00  0.00     0.029 A 
ATOM     61  C   UNL A   1      41.306  25.311  28.250  1.00  0.00     0.049 A 
ATOM     62  H   UNL A   1      42.225  27.029  28.983  1.00  0.00     0.167 HD
ATOM     63  C   UNL A   1      43.984  30.860  30.365  1.00  0.00     0.031 A 
ATOM     64  C   UNL A   1      42.287  24.416  28.036  1.00  0.00     0.031 A 
ATOM     65  C   UNL A   1      45.086  29.949  30.230  1.00  0.00     0.049 A 
ATOM     66  C   UNL A   1      43.709  24.825  28.316  1.00  0.00     0.074 A 
ATOM     67  C   UNL A   1      46.421  30.160  30.517  1.00  0.00     0.029 A 
ATOM     68  N   UNL A   1      44.973  28.647  29.760  1.00  0.00    -0.354 N 
ATOM     69  N   UNL A   1      44.167  25.969  28.771  1.00  0.00    -0.248 NA
ATOM     70  C   UNL A   1      44.747  23.819  28.060  1.00  0.00     0.031 C 
ATOM     71  C   UNL A   1      47.126  29.004  30.164  1.00  0.00     0.029 A 
ATOM     72  C   UNL A   1      46.219  28.051  29.723  1.00  0.00     0.049 A 
ATOM     73  H   UNL A   1      44.130  28.215  29.492  1.00  0.00     0.167 HD
ATOM     74  C   UNL A   1      45.542  25.809  28.886  1.00  0.00     0.074 A 
ATOM     75  C   UNL A   1      45.839  24.453  28.467  1.00  0.00     0.031 C 
ATOM     76  C   UNL A   1      46.478  26.698  29.301  1.00  0.00     0.031 A 
BRANCH  63  77
ATOM     77  C   UNL A   1      44.246  32.265  30.827  1.00  0.00    -0.014 A 
ATOM     78  C   UNL A   1      44.687  33.260  29.938  1.00  0.00     0.009 A 
ATOM     79  C   UNL A   1      44.045  32.601  32.175  1.00  0.00     0.009 A 
ATOM     80  C   UNL A   1      44.956  34.551  30.398  1.00  0.00     0.001 A 
ATOM     81  C   UNL A   1      44.285  33.901  32.625  1.00  0.00     0.001 A 
ATOM     82  C   UNL A   1      44.749  34.871  31.740  1.00  0.00     0.000 A 
ENDBRANCH  63  77
BRANCH  64  83
ATOM     83  C   UNL A   1      41.964  23.062  27.515  1.00  0.00    -0.014 A 
ATOM     84  C   UNL A   1      42.130  22.761  26.155  1.00  0.00     0.009 A 
ATOM     85  C   UNL A   1      41.480  22.063  28.374  1.00  0.00     0.009 A 
ATOM     86  C   UNL A   1      41.792  21.498  25.663  1.00  0.00     0.001 A 
ATOM     87  C   UNL A   1      41.174  20.792  27.887  1.00  0.00     0.001 A 
ATOM     88  C   UNL A   1      41.320  20.513  26.529  1.00  0.00     0.000 A 
ENDBRANCH  64  83
BRANCH  76  89
ATOM     89  C   UNL A   1      47.899  26.214  29.367  1.00  0.00    -0.014 A 
ATOM     90  C   UNL A   1      48.729  26.222  28.236  1.00  0.00     0.009 A 
ATOM     91  C   UNL A   1      48.427  25.790  30.597  1.00  0.00     0.009 A 
ATOM     92  C   UNL A   1      50.050  25.779  28.329  1.00  0.00     0.001 A 
ATOM     93  C   UNL A   1      49.756  25.382  30.694  1.00  0.00     0.001 A 
ATOM     94  C   UNL A   1      50.563  25.366  29.559  1.00  0.00     0.000 A 
ENDBRANCH  76  89
ENDBRANCH  50  51
ENDBRANCH  43  45
ENDBRANCH  42  43
ENDBRANCH  41  42
ENDBRANCH  40  41
ENDBRANCH  39  40
ENDBRANCH  38  39
ENDBRANCH  37  38
ENDBRANCH  36  37
ENDBRANCH   1  36
TORSDOF 23
ENDMDL
MODEL 3
REMARK VINA RESULT:     -10.8      3.250     10.103
REMARK SMILES O=C(CC1(CC(=O)OCCOCCOCCOC(=O)c2ccc(-c3c4nc(c(-c5ccccc5)c5ccc([nH]5)c(-c5ccccc5)c5nc(c(-c6ccccc6)c6ccc3[nH]6)C=C5)C=C4)cc2)CCCC1)N[C@H]1CO[C@H]2[C@@H]1OC[C@@H]2n1nnnc1-c1ccccc1
REMARK SMILES IDX 10 1 9 2 8 3 6 4 7 5 5 6 4 7 68 8 71 9 69 10 70 11 3 12 2 13
REMARK SMILES IDX 1 14 72 15 73 17 74 18 77 19 75 20 76 21 78 22 80 23 79 24
REMARK SMILES IDX 81 25 82 26 85 27 83 28 84 29 86 30 87 31 91 32 88 33 90 34
REMARK SMILES IDX 89 35 11 36 12 37 13 38 14 39 15 40 16 41 17 42 18 43 19 44
REMARK SMILES IDX 20 45 21 46 67 47 22 48 66 49 23 50 24 51 25 52 60 53 26 54
REMARK SMILES IDX 65 55 59 56 61 57 27 58 64 59 58 60 57 61 28 63 50 64 35 65
REMARK SMILES IDX 49 66 36 67 39 68 48 69 62 70 37 71 38 72 47 74 63 75 40 76
REMARK SMILES IDX 29 77 30 78 34 79 31 80 33 81 32 82 51 83 52 84 56 85 53 86
REMARK SMILES IDX 55 87 54 88 41 89 42 90 46 91 43 92 45 93 44 94
REMARK H PARENT 72 16 61 62 39 73
REMARK Flexibility Score: inf
ROOT
ATOM      1  C   UNL A   1      33.630  27.892  23.906  1.00  0.00     0.202 C 
ENDROOT
BRANCH   1   2
ATOM      2  C   UNL A   1      33.295  26.575  23.196  1.00  0.00     0.261 C 
BRANCH   2   3
ATOM      3  O   UNL A   1      33.302  25.445  24.101  1.00  0.00    -0.463 OA
BRANCH   3   4
ATOM      4  C   UNL A   1      34.298  24.548  23.874  1.00  0.00     0.306 C 
ATOM      5  O   UNL A   1      34.729  24.258  22.763  1.00  0.00    -0.252 OA
BRANCH   4   6
ATOM      6  C   UNL A   1      34.949  24.034  25.142  1.00  0.00     0.130 C 
BRANCH   6   7
ATOM      7  C   UNL A   1      35.426  22.554  25.220  1.00  0.00    -0.011 C 
ATOM      8  C   UNL A   1      34.479  21.701  24.335  1.00  0.00     0.008 C 
ATOM      9  C   UNL A   1      35.179  21.893  26.585  1.00  0.00     0.008 C 
ATOM     10  C   UNL A   1      33.230  21.471  25.184  1.00  0.00     0.001 C 
ATOM     11  C   UNL A   1      33.687  21.583  26.634  1.00  0.00     0.001 C 
BRANCH   7  12
ATOM     12  C   UNL A   1      36.875  22.438  24.687  1.00  0.00     0.107 C 
BRANCH  12  13
ATOM     13  C   UNL A   1      37.983  22.712  25.689  1.00  0.00     0.220 C 
ATOM     14  O   UNL A   1      38.032  23.757  26.332  1.00  0.00    -0.275 OA
ATOM     15  N   UNL A   1      38.948  21.728  25.766  1.00  0.00    -0.348 N 
ATOM     16  H   UNL A   1      38.938  20.980  25.127  1.00  0.00     0.163 HD
BRANCH  15  17
ATOM     17  C   UNL A   1      39.984  21.794  26.797  1.00  0.00     0.139 C 
ATOM     18  C   UNL A   1      40.881  20.562  26.841  1.00  0.00     0.188 C 
ATOM     19  C   UNL A   1      41.028  22.859  26.514  1.00  0.00     0.174 C 
ATOM     20  O   UNL A   1      41.854  20.725  25.800  1.00  0.00    -0.371 OA
ATOM     21  C   UNL A   1      42.076  22.147  25.664  1.00  0.00     0.176 C 
ATOM     22  O   UNL A   1      41.689  23.240  27.731  1.00  0.00    -0.371 OA
ATOM     23  C   UNL A   1      43.423  22.500  26.284  1.00  0.00     0.169 C 
ATOM     24  C   UNL A   1      43.053  23.490  27.385  1.00  0.00     0.191 C 
BRANCH  23  25
ATOM     25  N   UNL A   1      44.512  22.998  25.481  1.00  0.00    -0.217 N 
ATOM     26  N   UNL A   1      44.632  22.469  24.241  1.00  0.00    -0.044 NA
ATOM     27  C   UNL A   1      45.452  23.991  25.632  1.00  0.00     0.182 A 
ATOM     28  N   UNL A   1      45.628  23.115  23.665  1.00  0.00    -0.023 NA
ATOM     29  N   UNL A   1      46.138  24.062  24.505  1.00  0.00    -0.108 NA
BRANCH  27  30
ATOM     30  C   UNL A   1      45.670  24.870  26.767  1.00  0.00     0.021 A 
ATOM     31  C   UNL A   1      46.234  24.354  27.942  1.00  0.00     0.012 A 
ATOM     32  C   UNL A   1      45.275  26.213  26.731  1.00  0.00     0.012 A 
ATOM     33  C   UNL A   1      46.464  25.184  29.040  1.00  0.00     0.001 A 
ATOM     34  C   UNL A   1      45.512  27.040  27.831  1.00  0.00     0.001 A 
ATOM     35  C   UNL A   1      46.120  26.532  28.977  1.00  0.00     0.000 A 
ENDBRANCH  27  30
ENDBRANCH  23  25
ENDBRANCH  15  17
ENDBRANCH  12  13
ENDBRANCH   7  12
ENDBRANCH   6   7
ENDBRANCH   4   6
ENDBRANCH   3   4
ENDBRANCH   2   3
ENDBRANCH   1   2
BRANCH   1  36
ATOM     36  O   UNL A   1      32.671  28.421  24.828  1.00  0.00    -0.376 OA
BRANCH  36  37
ATOM     37  C   UNL A   1      33.151  29.279  25.854  1.00  0.00     0.188 C 
BRANCH  37  38
ATOM     38  C   UNL A   1      32.193  30.373  26.340  1.00  0.00     0.188 C 
BRANCH  38  39
ATOM     39  O   UNL A   1      32.754  31.320  27.256  1.00  0.00    -0.376 OA
BRANCH  39  40
ATOM     40  C   UNL A   1      32.041  32.569  27.259  1.00  0.00     0.202 C 
BRANCH  40  41
ATOM     41  C   UNL A   1      32.985  33.757  27.454  1.00  0.00     0.261 C 
BRANCH  41  42
ATOM     42  O   UNL A   1      32.437  34.640  28.432  1.00  0.00    -0.460 OA
BRANCH  42  43
ATOM     43  C   UNL A   1      33.356  35.340  29.138  1.00  0.00     0.338 C 
ATOM     44  O   UNL A   1      33.266  36.479  29.561  1.00  0.00    -0.246 OA
BRANCH  43  45
ATOM     45  C   UNL A   1      34.420  34.403  29.524  1.00  0.00     0.060 A 
ATOM     46  C   UNL A   1      34.066  33.284  30.289  1.00  0.00     0.016 A 
ATOM     47  C   UNL A   1      35.730  34.579  29.068  1.00  0.00     0.016 A 
ATOM     48  C   UNL A   1      35.032  32.343  30.620  1.00  0.00     0.010 A 
ATOM     49  C   UNL A   1      36.694  33.637  29.392  1.00  0.00     0.010 A 
ATOM     50  C   UNL A   1      36.351  32.538  30.195  1.00  0.00    -0.014 A 
BRANCH  50  51
ATOM     51  C   UNL A   1      37.433  31.709  30.748  1.00  0.00     0.031 A 
ATOM     52  C   UNL A   1      37.753  31.866  32.203  1.00  0.00     0.074 A 
ATOM     53  C   UNL A   1      38.117  30.866  29.958  1.00  0.00     0.049 A 
ATOM     54  N   UNL A   1      38.725  31.339  32.897  1.00  0.00    -0.248 NA
ATOM     55  C   UNL A   1      36.865  32.752  32.977  1.00  0.00     0.031 C 
ATOM     56  C   UNL A   1      37.847  30.621  28.542  1.00  0.00     0.029 A 
ATOM     57  N   UNL A   1      39.191  30.067  30.244  1.00  0.00    -0.354 N 
ATOM     58  C   UNL A   1      38.574  31.843  34.184  1.00  0.00     0.074 A 
ATOM     59  C   UNL A   1      37.442  32.740  34.167  1.00  0.00     0.031 C 
ATOM     60  C   UNL A   1      38.742  29.731  28.079  1.00  0.00     0.029 A 
ATOM     61  C   UNL A   1      39.668  29.385  29.154  1.00  0.00     0.049 A 
ATOM     62  H   UNL A   1      39.583  29.991  31.144  1.00  0.00     0.167 HD
ATOM     63  C   UNL A   1      39.317  31.572  35.280  1.00  0.00     0.031 A 
ATOM     64  C   UNL A   1      40.750  28.593  29.043  1.00  0.00     0.031 A 
ATOM     65  C   UNL A   1      40.449  30.689  35.270  1.00  0.00     0.049 A 
ATOM     66  C   UNL A   1      41.603  28.366  30.262  1.00  0.00     0.074 A 
ATOM     67  C   UNL A   1      41.274  30.331  36.319  1.00  0.00     0.029 A 
ATOM     68  N   UNL A   1      40.917  30.029  34.142  1.00  0.00    -0.354 N 
ATOM     69  N   UNL A   1      41.447  28.829  31.481  1.00  0.00    -0.248 NA
ATOM     70  C   UNL A   1      42.778  27.501  30.092  1.00  0.00     0.031 C 
ATOM     71  C   UNL A   1      42.278  29.499  35.814  1.00  0.00     0.029 A 
ATOM     72  C   UNL A   1      42.036  29.285  34.464  1.00  0.00     0.049 A 
ATOM     73  H   UNL A   1      40.512  30.083  33.247  1.00  0.00     0.167 HD
ATOM     74  C   UNL A   1      42.483  28.287  32.229  1.00  0.00     0.074 A 
ATOM     75  C   UNL A   1      43.252  27.450  31.330  1.00  0.00     0.031 C 
ATOM     76  C   UNL A   1      42.777  28.461  33.543  1.00  0.00     0.031 A 
BRANCH  63  77
ATOM     77  C   UNL A   1      38.947  32.277  36.554  1.00  0.00    -0.014 A 
ATOM     78  C   UNL A   1      39.571  33.477  36.937  1.00  0.00     0.009 A 
ATOM     79  C   UNL A   1      37.954  31.735  37.384  1.00  0.00     0.009 A 
ATOM     80  C   UNL A   1      39.234  34.096  38.142  1.00  0.00     0.001 A 
ATOM     81  C   UNL A   1      37.597  32.373  38.573  1.00  0.00     0.001 A 
ATOM     82  C   UNL A   1      38.244  33.547  38.956  1.00  0.00     0.000 A 
ENDBRANCH  63  77
BRANCH  64  83
ATOM     83  C   UNL A   1      41.096  27.978  27.735  1.00  0.00    -0.014 A 
ATOM     84  C   UNL A   1      41.988  28.614  26.859  1.00  0.00     0.009 A 
ATOM     85  C   UNL A   1      40.529  26.753  27.350  1.00  0.00     0.009 A 
ATOM     86  C   UNL A   1      42.284  28.050  25.616  1.00  0.00     0.001 A 
ATOM     87  C   UNL A   1      40.850  26.175  26.122  1.00  0.00     0.001 A 
ATOM     88  C   UNL A   1      41.720  26.829  25.250  1.00  0.00     0.000 A 
ENDBRANCH  64  83
BRANCH  76  89
ATOM     89  C   UNL A   1      43.948  27.694  34.089  1.00  0.00    -0.014 A 
ATOM     90  C   UNL A   1      45.211  28.288  34.230  1.00  0.00     0.009 A 
ATOM     91  C   UNL A   1      43.767  26.369  34.515  1.00  0.00     0.009 A 
ATOM     92  C   UNL A   1      46.278  27.556  34.753  1.00  0.00     0.001 A 
ATOM     93  C   UNL A   1      44.825  25.652  35.070  1.00  0.00     0.001 A 
ATOM     94  C   UNL A   1      46.083  26.241  35.178  1.00  0.00     0.000 A 
ENDBRANCH  76  89
ENDBRANCH  50  51
ENDBRANCH  43  45
ENDBRANCH  42  43
ENDBRANCH  41  42
ENDBRANCH  40  41
ENDBRANCH  39  40
ENDBRANCH  38  39
ENDBRANCH  37  38
ENDBRANCH  36  37
ENDBRANCH   1  36
TORSDOF 23
ENDMDL
