MODEL 1
REMARK VINA RESULT:     -11.3      0.000      0.000
REMARK SMILES Cc1ccccc1[C@@H]1[NH2+][C@@H](C(=O)OCCOCCOCCOC(=O)c2ccc(-c3c4nc(c(-c5ccccc5)c5ccc([nH]5)c(-c5ccccc5)c5nc(c(-c6ccccc6)c6ccc3[nH]6)C=C5)C=C4)cc2)CC2=c3ccccc3=N[C@H]21
REMARK SMILES IDX 18 1 17 2 16 3 15 4 14 5 13 6 11 7 12 8 10 9 8 10 9 11 82 12
REMARK SMILES IDX 74 15 81 16 73 17 75 18 80 19 76 20 79 21 77 22 78 23 7 24
REMARK SMILES IDX 1 25 2 26 3 27 4 28 6 29 5 30 19 31 20 32 21 33 22 34 23 35
REMARK SMILES IDX 24 36 25 37 26 38 72 39 27 40 71 41 28 42 29 43 30 44 65 45
REMARK SMILES IDX 31 46 70 47 64 48 66 49 32 50 69 51 63 52 62 53 33 55 55 56
REMARK SMILES IDX 40 57 54 58 41 59 44 60 53 61 67 62 42 63 43 64 52 66 68 67
REMARK SMILES IDX 45 68 34 69 35 70 39 71 36 72 38 73 37 74 56 75 57 76 61 77
REMARK SMILES IDX 58 78 60 79 59 80 46 81 47 82 51 83 48 84 50 85 49 86
REMARK H PARENT 9 13 9 14 66 54 44 65
REMARK Flexibility Score: inf
ROOT
ATOM      1  C   UNL A   1      36.861  23.202  25.290  1.00  0.00     0.188 C 
ENDROOT
BRANCH   1   2
ATOM      2  C   UNL A   1      35.732  22.518  26.082  1.00  0.00     0.188 C 
BRANCH   2   3
ATOM      3  O   UNL A   1      34.331  22.873  25.982  1.00  0.00    -0.376 OA
BRANCH   3   4
ATOM      4  C   UNL A   1      33.305  22.519  26.939  1.00  0.00     0.202 C 
BRANCH   4   5
ATOM      5  C   UNL A   1      31.668  22.458  26.534  1.00  0.00     0.261 C 
BRANCH   5   6
ATOM      6  O   UNL A   1      30.779  23.609  25.793  1.00  0.00    -0.459 OA
BRANCH   6   7
ATOM      7  C   UNL A   1      30.581  25.003  25.971  1.00  0.00     0.365 C 
ATOM      8  O   UNL A   1      29.663  25.602  26.540  1.00  0.00    -0.245 OA
BRANCH   7   9
ATOM      9  C   UNL A   1      31.627  25.986  25.469  1.00  0.00     0.298 C 
ATOM     10  C   UNL A   1      31.773  28.563  25.987  1.00  0.00     0.243 C 
ATOM     11  N   UNL A   1      31.695  27.149  26.471  1.00  0.00    -0.326 N 
ATOM     12  C   UNL A   1      31.629  28.788  24.449  1.00  0.00     0.196 C 
ATOM     13  H   UNL A   1      30.859  27.083  27.052  1.00  0.00     0.347 HD
ATOM     14  H   UNL A   1      32.598  27.009  26.925  1.00  0.00     0.347 HD
ATOM     15  C   UNL A   1      30.687  27.736  23.947  1.00  0.00    -0.024 C 
ATOM     16  N   UNL A   1      30.946  30.080  24.128  1.00  0.00    -0.270 NA
ATOM     17  C   UNL A   1      31.169  26.335  24.054  1.00  0.00     0.111 C 
ATOM     18  C   UNL A   1      29.506  28.257  23.637  1.00  0.00     0.002 A 
ATOM     19  C   UNL A   1      29.785  29.703  23.684  1.00  0.00     0.066 A 
ATOM     20  C   UNL A   1      28.202  27.752  23.365  1.00  0.00     0.010 A 
ATOM     21  C   UNL A   1      28.710  30.586  23.178  1.00  0.00     0.028 A 
ATOM     22  C   UNL A   1      27.236  28.624  23.031  1.00  0.00     0.001 A 
ATOM     23  C   UNL A   1      27.520  30.042  22.866  1.00  0.00     0.002 A 
BRANCH  10  24
ATOM     24  C   UNL A   1      32.977  29.317  26.578  1.00  0.00     0.015 A 
ATOM     25  C   UNL A   1      31.705  31.520  26.933  1.00  0.00     0.045 C 
ATOM     26  C   UNL A   1      32.920  30.650  27.034  1.00  0.00    -0.042 A 
ATOM     27  C   UNL A   1      34.035  31.216  27.683  1.00  0.00     0.004 A 
ATOM     28  C   UNL A   1      35.219  30.506  27.847  1.00  0.00     0.000 A 
ATOM     29  C   UNL A   1      34.204  28.624  26.730  1.00  0.00     0.010 A 
ATOM     30  C   UNL A   1      35.311  29.212  27.354  1.00  0.00     0.001 A 
ENDBRANCH  10  24
ENDBRANCH   7   9
ENDBRANCH   6   7
ENDBRANCH   5   6
ENDBRANCH   4   5
ENDBRANCH   3   4
ENDBRANCH   2   3
ENDBRANCH   1   2
BRANCH   1  31
ATOM     31  O   UNL A   1      37.848  22.269  24.894  1.00  0.00    -0.376 OA
BRANCH  31  32
ATOM     32  C   UNL A   1      38.752  21.832  25.900  1.00  0.00     0.202 C 
BRANCH  32  33
ATOM     33  C   UNL A   1      39.440  20.474  25.602  1.00  0.00     0.261 C 
BRANCH  33  34
ATOM     34  O   UNL A   1      40.521  20.200  26.537  1.00  0.00    -0.460 OA
BRANCH  34  35
ATOM     35  C   UNL A   1      41.806  20.533  26.165  1.00  0.00     0.338 C 
ATOM     36  O   UNL A   1      42.488  19.873  25.393  1.00  0.00    -0.246 OA
BRANCH  35  37
ATOM     37  C   UNL A   1      42.303  21.704  26.976  1.00  0.00     0.060 A 
ATOM     38  C   UNL A   1      42.564  21.823  28.352  1.00  0.00     0.016 A 
ATOM     39  C   UNL A   1      42.247  22.887  26.329  1.00  0.00     0.016 A 
ATOM     40  C   UNL A   1      42.695  23.141  29.021  1.00  0.00     0.010 A 
ATOM     41  C   UNL A   1      42.125  24.050  27.081  1.00  0.00     0.010 A 
ATOM     42  C   UNL A   1      42.451  24.357  28.378  1.00  0.00    -0.014 A 
BRANCH  42  43
ATOM     43  C   UNL A   1      42.209  25.856  28.846  1.00  0.00     0.031 A 
ATOM     44  C   UNL A   1      40.969  26.949  28.760  1.00  0.00     0.074 A 
ATOM     45  C   UNL A   1      43.186  26.265  29.688  1.00  0.00     0.049 A 
ATOM     46  N   UNL A   1      41.143  28.246  28.974  1.00  0.00    -0.248 NA
ATOM     47  C   UNL A   1      39.512  26.809  28.451  1.00  0.00     0.031 C 
ATOM     48  C   UNL A   1      43.186  27.379  30.629  1.00  0.00     0.029 A 
ATOM     49  N   UNL A   1      44.498  25.796  29.725  1.00  0.00    -0.354 N 
ATOM     50  C   UNL A   1      39.899  28.894  29.064  1.00  0.00     0.074 A 
ATOM     51  C   UNL A   1      38.960  28.006  28.520  1.00  0.00     0.031 C 
ATOM     52  C   UNL A   1      44.456  27.701  30.912  1.00  0.00     0.029 A 
ATOM     53  C   UNL A   1      45.304  26.889  30.061  1.00  0.00     0.049 A 
ATOM     54  H   UNL A   1      44.800  24.875  29.549  1.00  0.00     0.167 HD
ATOM     55  C   UNL A   1      39.681  30.062  29.732  1.00  0.00     0.031 A 
ATOM     56  C   UNL A   1      46.243  27.340  29.184  1.00  0.00     0.031 A 
ATOM     57  C   UNL A   1      40.940  30.662  30.094  1.00  0.00     0.049 A 
ATOM     58  C   UNL A   1      46.066  28.788  28.790  1.00  0.00     0.074 A 
ATOM     59  C   UNL A   1      41.628  30.842  31.276  1.00  0.00     0.029 A 
ATOM     60  N   UNL A   1      41.815  30.952  29.066  1.00  0.00    -0.354 N 
ATOM     61  N   UNL A   1      45.047  29.526  29.136  1.00  0.00    -0.248 NA
ATOM     62  C   UNL A   1      47.002  29.520  27.943  1.00  0.00     0.031 C 
ATOM     63  C   UNL A   1      42.960  31.210  30.939  1.00  0.00     0.029 A 
ATOM     64  C   UNL A   1      43.050  31.290  29.560  1.00  0.00     0.049 A 
ATOM     65  H   UNL A   1      41.584  30.919  28.109  1.00  0.00     0.167 HD
ATOM     66  C   UNL A   1      45.118  30.748  28.519  1.00  0.00     0.074 A 
ATOM     67  C   UNL A   1      46.388  30.712  27.823  1.00  0.00     0.031 C 
ATOM     68  C   UNL A   1      44.090  31.643  28.606  1.00  0.00     0.031 A 
BRANCH  55  69
ATOM     69  C   UNL A   1      38.323  30.600  30.217  1.00  0.00    -0.014 A 
ATOM     70  C   UNL A   1      38.043  31.974  30.075  1.00  0.00     0.009 A 
ATOM     71  C   UNL A   1      37.312  29.871  30.881  1.00  0.00     0.009 A 
ATOM     72  C   UNL A   1      36.884  32.577  30.604  1.00  0.00     0.001 A 
ATOM     73  C   UNL A   1      36.149  30.462  31.413  1.00  0.00     0.001 A 
ATOM     74  C   UNL A   1      35.941  31.822  31.287  1.00  0.00     0.000 A 
ENDBRANCH  55  69
BRANCH  56  75
ATOM     75  C   UNL A   1      46.822  26.245  28.344  1.00  0.00    -0.014 A 
ATOM     76  C   UNL A   1      46.369  26.144  27.009  1.00  0.00     0.009 A 
ATOM     77  C   UNL A   1      48.025  25.608  28.681  1.00  0.00     0.009 A 
ATOM     78  C   UNL A   1      47.147  25.531  26.021  1.00  0.00     0.001 A 
ATOM     79  C   UNL A   1      48.783  24.956  27.693  1.00  0.00     0.001 A 
ATOM     80  C   UNL A   1      48.367  24.956  26.359  1.00  0.00     0.000 A 
ENDBRANCH  56  75
BRANCH  68  81
ATOM     81  C   UNL A   1      43.876  32.907  27.788  1.00  0.00    -0.014 A 
ATOM     82  C   UNL A   1      43.520  34.153  28.311  1.00  0.00     0.009 A 
ATOM     83  C   UNL A   1      44.172  32.881  26.400  1.00  0.00     0.009 A 
ATOM     84  C   UNL A   1      43.449  35.297  27.499  1.00  0.00     0.001 A 
ATOM     85  C   UNL A   1      44.157  34.025  25.598  1.00  0.00     0.001 A 
ATOM     86  C   UNL A   1      43.784  35.237  26.150  1.00  0.00     0.000 A 
ENDBRANCH  68  81
ENDBRANCH  42  43
ENDBRANCH  35  37
ENDBRANCH  34  35
ENDBRANCH  33  34
ENDBRANCH  32  33
ENDBRANCH  31  32
ENDBRANCH   1  31
TORSDOF 18
ENDMDL
MODEL 2
REMARK VINA RESULT:     -11.3      3.576      9.975
REMARK SMILES Cc1ccccc1[C@@H]1[NH2+][C@@H](C(=O)OCCOCCOCCOC(=O)c2ccc(-c3c4nc(c(-c5ccccc5)c5ccc([nH]5)c(-c5ccccc5)c5nc(c(-c6ccccc6)c6ccc3[nH]6)C=C5)C=C4)cc2)CC2=c3ccccc3=N[C@H]21
REMARK SMILES IDX 18 1 17 2 16 3 15 4 14 5 13 6 11 7 12 8 10 9 8 10 9 11 82 12
REMARK SMILES IDX 74 15 81 16 73 17 75 18 80 19 76 20 79 21 77 22 78 23 7 24
REMARK SMILES IDX 1 25 2 26 3 27 4 28 6 29 5 30 19 31 20 32 21 33 22 34 23 35
REMARK SMILES IDX 24 36 25 37 26 38 72 39 27 40 71 41 28 42 29 43 30 44 65 45
REMARK SMILES IDX 31 46 70 47 64 48 66 49 32 50 69 51 63 52 62 53 33 55 55 56
REMARK SMILES IDX 40 57 54 58 41 59 44 60 53 61 67 62 42 63 43 64 52 66 68 67
REMARK SMILES IDX 45 68 34 69 35 70 39 71 36 72 38 73 37 74 56 75 57 76 61 77
REMARK SMILES IDX 58 78 60 79 59 80 46 81 47 82 51 83 48 84 50 85 49 86
REMARK H PARENT 9 13 9 14 66 54 44 65
REMARK Flexibility Score: inf
ROOT
ATOM      1  C   UNL A   1      32.152  30.436  26.575  1.00  0.00     0.188 C 
ENDROOT
BRANCH   1   2
ATOM      2  C   UNL A   1      32.016  29.732  25.212  1.00  0.00     0.188 C 
BRANCH   2   3
ATOM      3  O   UNL A   1      33.126  29.450  24.324  1.00  0.00    -0.376 OA
BRANCH   3   4
ATOM      4  C   UNL A   1      33.717  28.148  24.107  1.00  0.00     0.202 C 
BRANCH   4   5
ATOM      5  C   UNL A   1      32.972  26.718  24.604  1.00  0.00     0.261 C 
BRANCH   5   6
ATOM      6  O   UNL A   1      33.308  25.824  25.928  1.00  0.00    -0.459 OA
BRANCH   6   7
ATOM      7  C   UNL A   1      33.555  24.450  26.183  1.00  0.00     0.365 C 
ATOM      8  O   UNL A   1      33.500  23.825  27.246  1.00  0.00    -0.245 OA
BRANCH   7   9
ATOM      9  C   UNL A   1      33.891  23.514  25.032  1.00  0.00     0.298 C 
ATOM     10  C   UNL A   1      34.847  21.067  25.193  1.00  0.00     0.243 C 
ATOM     11  N   UNL A   1      33.802  22.074  25.560  1.00  0.00    -0.326 N 
ATOM     12  C   UNL A   1      36.080  21.594  24.393  1.00  0.00     0.196 C 
ATOM     13  H   UNL A   1      33.799  22.136  26.578  1.00  0.00     0.347 HD
ATOM     14  H   UNL A   1      32.963  21.713  25.104  1.00  0.00     0.347 HD
ATOM     15  C   UNL A   1      36.332  22.994  24.864  1.00  0.00    -0.024 C 
ATOM     16  N   UNL A   1      37.334  20.855  24.736  1.00  0.00    -0.270 NA
ATOM     17  C   UNL A   1      35.265  23.980  24.556  1.00  0.00     0.111 C 
ATOM     18  C   UNL A   1      37.419  23.056  25.623  1.00  0.00     0.002 A 
ATOM     19  C   UNL A   1      38.021  21.728  25.410  1.00  0.00     0.066 A 
ATOM     20  C   UNL A   1      37.993  24.006  26.516  1.00  0.00     0.010 A 
ATOM     21  C   UNL A   1      39.380  21.537  25.964  1.00  0.00     0.028 A 
ATOM     22  C   UNL A   1      39.175  23.716  27.084  1.00  0.00     0.001 A 
ATOM     23  C   UNL A   1      39.902  22.503  26.741  1.00  0.00     0.002 A 
BRANCH  10  24
ATOM     24  C   UNL A   1      34.242  19.799  24.567  1.00  0.00     0.015 A 
ATOM     25  C   UNL A   1      32.224  21.006  23.531  1.00  0.00     0.045 C 
ATOM     26  C   UNL A   1      33.066  19.794  23.787  1.00  0.00    -0.042 A 
ATOM     27  C   UNL A   1      32.658  18.609  23.144  1.00  0.00     0.004 A 
ATOM     28  C   UNL A   1      33.363  17.420  23.295  1.00  0.00     0.000 A 
ATOM     29  C   UNL A   1      34.925  18.568  24.730  1.00  0.00     0.010 A 
ATOM     30  C   UNL A   1      34.489  17.394  24.105  1.00  0.00     0.001 A 
ENDBRANCH  10  24
ENDBRANCH   7   9
ENDBRANCH   6   7
ENDBRANCH   5   6
ENDBRANCH   4   5
ENDBRANCH   3   4
ENDBRANCH   2   3
ENDBRANCH   1   2
BRANCH   1  31
ATOM     31  O   UNL A   1      31.280  31.546  26.668  1.00  0.00    -0.376 OA
BRANCH  31  32
ATOM     32  C   UNL A   1      31.879  32.807  26.940  1.00  0.00     0.202 C 
BRANCH  32  33
ATOM     33  C   UNL A   1      33.202  32.732  27.744  1.00  0.00     0.261 C 
BRANCH  33  34
ATOM     34  O   UNL A   1      33.583  34.029  28.279  1.00  0.00    -0.460 OA
BRANCH  34  35
ATOM     35  C   UNL A   1      33.988  34.100  29.596  1.00  0.00     0.338 C 
ATOM     36  O   UNL A   1      33.272  34.483  30.511  1.00  0.00    -0.246 OA
BRANCH  35  37
ATOM     37  C   UNL A   1      35.465  33.818  29.711  1.00  0.00     0.060 A 
ATOM     38  C   UNL A   1      36.532  34.148  28.857  1.00  0.00     0.016 A 
ATOM     39  C   UNL A   1      35.779  32.892  30.640  1.00  0.00     0.016 A 
ATOM     40  C   UNL A   1      37.853  33.479  28.946  1.00  0.00     0.010 A 
ATOM     41  C   UNL A   1      36.945  32.152  30.473  1.00  0.00     0.010 A 
ATOM     42  C   UNL A   1      38.109  32.393  29.787  1.00  0.00    -0.014 A 
BRANCH  42  43
ATOM     43  C   UNL A   1      39.254  31.298  29.905  1.00  0.00     0.031 A 
ATOM     44  C   UNL A   1      39.494  29.756  29.354  1.00  0.00     0.074 A 
ATOM     45  C   UNL A   1      40.385  31.833  30.418  1.00  0.00     0.049 A 
ATOM     46  N   UNL A   1      40.424  28.954  29.853  1.00  0.00    -0.248 NA
ATOM     47  C   UNL A   1      38.821  28.940  28.295  1.00  0.00     0.031 C 
ATOM     48  C   UNL A   1      41.753  31.329  30.359  1.00  0.00     0.029 A 
ATOM     49  N   UNL A   1      40.470  32.929  31.275  1.00  0.00    -0.354 N 
ATOM     50  C   UNL A   1      40.556  27.806  29.053  1.00  0.00     0.074 A 
ATOM     51  C   UNL A   1      39.407  27.758  28.253  1.00  0.00     0.031 C 
ATOM     52  C   UNL A   1      42.461  31.895  31.347  1.00  0.00     0.029 A 
ATOM     53  C   UNL A   1      41.536  32.675  32.145  1.00  0.00     0.049 A 
ATOM     54  H   UNL A   1      39.891  33.727  31.270  1.00  0.00     0.167 HD
ATOM     55  C   UNL A   1      41.684  27.044  28.973  1.00  0.00     0.031 A 
ATOM     56  C   UNL A   1      41.311  32.548  33.482  1.00  0.00     0.031 A 
ATOM     57  C   UNL A   1      42.606  27.422  30.014  1.00  0.00     0.049 A 
ATOM     58  C   UNL A   1      41.756  31.223  34.053  1.00  0.00     0.074 A 
ATOM     59  C   UNL A   1      43.813  28.089  30.049  1.00  0.00     0.029 A 
ATOM     60  N   UNL A   1      42.156  27.328  31.315  1.00  0.00    -0.354 N 
ATOM     61  N   UNL A   1      42.196  30.224  33.340  1.00  0.00    -0.248 NA
ATOM     62  C   UNL A   1      41.710  30.894  35.475  1.00  0.00     0.031 C 
ATOM     63  C   UNL A   1      44.067  28.434  31.405  1.00  0.00     0.029 A 
ATOM     64  C   UNL A   1      43.033  27.936  32.178  1.00  0.00     0.049 A 
ATOM     65  H   UNL A   1      41.319  26.885  31.587  1.00  0.00     0.167 HD
ATOM     66  C   UNL A   1      42.397  29.127  34.137  1.00  0.00     0.074 A 
ATOM     67  C   UNL A   1      42.126  29.615  35.473  1.00  0.00     0.031 C 
ATOM     68  C   UNL A   1      42.716  27.912  33.598  1.00  0.00     0.031 A 
BRANCH  55  69
ATOM     69  C   UNL A   1      42.043  26.056  27.850  1.00  0.00    -0.014 A 
ATOM     70  C   UNL A   1      42.668  24.837  28.186  1.00  0.00     0.009 A 
ATOM     71  C   UNL A   1      41.885  26.258  26.462  1.00  0.00     0.009 A 
ATOM     72  C   UNL A   1      43.148  23.932  27.219  1.00  0.00     0.001 A 
ATOM     73  C   UNL A   1      42.359  25.360  25.485  1.00  0.00     0.001 A 
ATOM     74  C   UNL A   1      43.006  24.199  25.865  1.00  0.00     0.000 A 
ENDBRANCH  55  69
BRANCH  56  75
ATOM     75  C   UNL A   1      40.174  33.397  33.959  1.00  0.00    -0.014 A 
ATOM     76  C   UNL A   1      38.881  32.825  33.929  1.00  0.00     0.009 A 
ATOM     77  C   UNL A   1      40.376  34.523  34.769  1.00  0.00     0.009 A 
ATOM     78  C   UNL A   1      37.861  33.286  34.767  1.00  0.00     0.001 A 
ATOM     79  C   UNL A   1      39.334  35.009  35.580  1.00  0.00     0.001 A 
ATOM     80  C   UNL A   1      38.095  34.365  35.611  1.00  0.00     0.000 A 
ENDBRANCH  56  75
BRANCH  68  81
ATOM     81  C   UNL A   1      42.712  26.554  34.281  1.00  0.00    -0.014 A 
ATOM     82  C   UNL A   1      41.678  26.057  35.078  1.00  0.00     0.009 A 
ATOM     83  C   UNL A   1      43.773  25.649  34.011  1.00  0.00     0.009 A 
ATOM     84  C   UNL A   1      41.705  24.747  35.584  1.00  0.00     0.001 A 
ATOM     85  C   UNL A   1      43.780  24.328  34.465  1.00  0.00     0.001 A 
ATOM     86  C   UNL A   1      42.744  23.879  35.263  1.00  0.00     0.000 A 
ENDBRANCH  68  81
ENDBRANCH  42  43
ENDBRANCH  35  37
ENDBRANCH  34  35
ENDBRANCH  33  34
ENDBRANCH  32  33
ENDBRANCH  31  32
ENDBRANCH   1  31
TORSDOF 18
ENDMDL
MODEL 3
REMARK VINA RESULT:     -11.1      3.304      8.519
REMARK SMILES Cc1ccccc1[C@@H]1[NH2+][C@@H](C(=O)OCCOCCOCCOC(=O)c2ccc(-c3c4nc(c(-c5ccccc5)c5ccc([nH]5)c(-c5ccccc5)c5nc(c(-c6ccccc6)c6ccc3[nH]6)C=C5)C=C4)cc2)CC2=c3ccccc3=N[C@H]21
REMARK SMILES IDX 18 1 17 2 16 3 15 4 14 5 13 6 11 7 12 8 10 9 8 10 9 11 82 12
REMARK SMILES IDX 74 15 81 16 73 17 75 18 80 19 76 20 79 21 77 22 78 23 7 24
REMARK SMILES IDX 1 25 2 26 3 27 4 28 6 29 5 30 19 31 20 32 21 33 22 34 23 35
REMARK SMILES IDX 24 36 25 37 26 38 72 39 27 40 71 41 28 42 29 43 30 44 65 45
REMARK SMILES IDX 31 46 70 47 64 48 66 49 32 50 69 51 63 52 62 53 33 55 55 56
REMARK SMILES IDX 40 57 54 58 41 59 44 60 53 61 67 62 42 63 43 64 52 66 68 67
REMARK SMILES IDX 45 68 34 69 35 70 39 71 36 72 38 73 37 74 56 75 57 76 61 77
REMARK SMILES IDX 58 78 60 79 59 80 46 81 47 82 51 83 48 84 50 85 49 86
REMARK H PARENT 9 13 9 14 66 54 44 65
REMARK Flexibility Score: inf
ROOT
ATOM      1  C   UNL A   1      33.728  29.273  24.405  1.00  0.00     0.188 C 
ENDROOT
BRANCH   1   2
ATOM      2  C   UNL A   1      33.282  27.823  24.143  1.00  0.00     0.188 C 
BRANCH   2   3
ATOM      3  O   UNL A   1      33.872  26.659  24.773  1.00  0.00    -0.376 OA
BRANCH   3   4
ATOM      4  C   UNL A   1      33.432  26.064  26.016  1.00  0.00     0.202 C 
BRANCH   4   5
ATOM      5  C   UNL A   1      31.813  26.049  26.493  1.00  0.00     0.261 C 
BRANCH   5   6
ATOM      6  O   UNL A   1      30.775  24.790  26.463  1.00  0.00    -0.459 OA
BRANCH   6   7
ATOM      7  C   UNL A   1      30.843  23.416  26.814  1.00  0.00     0.365 C 
ATOM      8  O   UNL A   1      30.320  22.819  27.759  1.00  0.00    -0.245 OA
BRANCH   7   9
ATOM      9  C   UNL A   1      31.604  22.444  25.926  1.00  0.00     0.298 C 
ATOM     10  C   UNL A   1      33.929  22.837  24.757  1.00  0.00     0.243 C 
ATOM     11  N   UNL A   1      33.094  22.813  25.999  1.00  0.00    -0.326 N 
ATOM     12  C   UNL A   1      33.182  22.623  23.403  1.00  0.00     0.196 C 
ATOM     13  H   UNL A   1      33.144  23.748  26.404  1.00  0.00     0.347 HD
ATOM     14  H   UNL A   1      33.496  22.043  26.533  1.00  0.00     0.347 HD
ATOM     15  C   UNL A   1      31.822  23.232  23.561  1.00  0.00    -0.024 C 
ATOM     16  N   UNL A   1      33.807  23.395  22.285  1.00  0.00    -0.270 NA
ATOM     17  C   UNL A   1      30.936  22.579  24.559  1.00  0.00     0.111 C 
ATOM     18  C   UNL A   1      31.720  24.362  22.874  1.00  0.00     0.002 A 
ATOM     19  C   UNL A   1      32.940  24.333  22.048  1.00  0.00     0.066 A 
ATOM     20  C   UNL A   1      30.813  25.460  22.836  1.00  0.00     0.010 A 
ATOM     21  C   UNL A   1      33.034  25.370  20.996  1.00  0.00     0.028 A 
ATOM     22  C   UNL A   1      31.028  26.435  21.937  1.00  0.00     0.001 A 
ATOM     23  C   UNL A   1      32.105  26.343  20.964  1.00  0.00     0.002 A 
BRANCH  10  24
ATOM     24  C   UNL A   1      35.183  21.953  24.880  1.00  0.00     0.015 A 
ATOM     25  C   UNL A   1      33.887  19.736  24.920  1.00  0.00     0.045 C 
ATOM     26  C   UNL A   1      35.148  20.543  24.920  1.00  0.00    -0.042 A 
ATOM     27  C   UNL A   1      36.352  19.813  24.899  1.00  0.00     0.004 A 
ATOM     28  C   UNL A   1      37.588  20.449  24.888  1.00  0.00     0.000 A 
ATOM     29  C   UNL A   1      36.455  22.578  24.899  1.00  0.00     0.010 A 
ATOM     30  C   UNL A   1      37.641  21.835  24.906  1.00  0.00     0.001 A 
ENDBRANCH  10  24
ENDBRANCH   7   9
ENDBRANCH   6   7
ENDBRANCH   5   6
ENDBRANCH   4   5
ENDBRANCH   3   4
ENDBRANCH   2   3
ENDBRANCH   1   2
BRANCH   1  31
ATOM     31  O   UNL A   1      32.825  29.940  25.267  1.00  0.00    -0.376 OA
BRANCH  31  32
ATOM     32  C   UNL A   1      32.967  29.687  26.659  1.00  0.00     0.202 C 
BRANCH  32  33
ATOM     33  C   UNL A   1      33.130  30.958  27.532  1.00  0.00     0.261 C 
BRANCH  33  34
ATOM     34  O   UNL A   1      34.339  31.693  27.196  1.00  0.00    -0.460 OA
BRANCH  34  35
ATOM     35  C   UNL A   1      35.221  31.999  28.211  1.00  0.00     0.338 C 
ATOM     36  O   UNL A   1      35.411  33.131  28.634  1.00  0.00    -0.246 OA
BRANCH  35  37
ATOM     37  C   UNL A   1      36.034  30.785  28.587  1.00  0.00     0.060 A 
ATOM     38  C   UNL A   1      36.301  30.211  29.843  1.00  0.00     0.016 A 
ATOM     39  C   UNL A   1      36.834  30.329  27.600  1.00  0.00     0.016 A 
ATOM     40  C   UNL A   1      37.408  29.246  30.053  1.00  0.00     0.010 A 
ATOM     41  C   UNL A   1      37.988  29.635  27.948  1.00  0.00     0.010 A 
ATOM     42  C   UNL A   1      38.344  28.924  29.067  1.00  0.00    -0.014 A 
BRANCH  42  43
ATOM     43  C   UNL A   1      39.761  28.207  29.043  1.00  0.00     0.031 A 
ATOM     44  C   UNL A   1      40.362  26.763  28.502  1.00  0.00     0.074 A 
ATOM     45  C   UNL A   1      40.747  29.073  29.372  1.00  0.00     0.049 A 
ATOM     46  N   UNL A   1      41.542  26.293  28.880  1.00  0.00    -0.248 NA
ATOM     47  C   UNL A   1      39.821  25.723  27.573  1.00  0.00     0.031 C 
ATOM     48  C   UNL A   1      42.182  28.975  29.128  1.00  0.00     0.029 A 
ATOM     49  N   UNL A   1      40.623  30.203  30.181  1.00  0.00    -0.354 N 
ATOM     50  C   UNL A   1      41.894  25.179  28.098  1.00  0.00     0.074 A 
ATOM     51  C   UNL A   1      40.713  24.755  27.475  1.00  0.00     0.031 C 
ATOM     52  C   UNL A   1      42.820  29.781  29.987  1.00  0.00     0.029 A 
ATOM     53  C   UNL A   1      41.823  30.319  30.892  1.00  0.00     0.049 A 
ATOM     54  H   UNL A   1      39.843  30.802  30.240  1.00  0.00     0.167 HD
ATOM     55  C   UNL A   1      43.174  24.764  27.874  1.00  0.00     0.031 A 
ATOM     56  C   UNL A   1      41.823  30.222  32.250  1.00  0.00     0.031 A 
ATOM     57  C   UNL A   1      44.076  25.455  28.759  1.00  0.00     0.049 A 
ATOM     58  C   UNL A   1      42.704  29.117  32.783  1.00  0.00     0.074 A 
ATOM     59  C   UNL A   1      45.032  26.437  28.601  1.00  0.00     0.029 A 
ATOM     60  N   UNL A   1      43.849  25.323  30.114  1.00  0.00    -0.354 N 
ATOM     61  N   UNL A   1      43.316  28.239  32.038  1.00  0.00    -0.248 NA
ATOM     62  C   UNL A   1      42.944  28.883  34.204  1.00  0.00     0.031 C 
ATOM     63  C   UNL A   1      45.352  26.929  29.897  1.00  0.00     0.029 A 
ATOM     64  C   UNL A   1      44.618  26.210  30.825  1.00  0.00     0.049 A 
ATOM     65  H   UNL A   1      43.220  24.681  30.516  1.00  0.00     0.167 HD
ATOM     66  C   UNL A   1      43.930  27.299  32.825  1.00  0.00     0.074 A 
ATOM     67  C   UNL A   1      43.709  27.777  34.174  1.00  0.00     0.031 C 
ATOM     68  C   UNL A   1      44.513  26.191  32.276  1.00  0.00     0.031 A 
BRANCH  55  69
ATOM     69  C   UNL A   1      43.652  23.846  26.735  1.00  0.00    -0.014 A 
ATOM     70  C   UNL A   1      44.774  23.020  26.949  1.00  0.00     0.009 A 
ATOM     71  C   UNL A   1      43.129  23.779  25.426  1.00  0.00     0.009 A 
ATOM     72  C   UNL A   1      45.360  22.246  25.928  1.00  0.00     0.001 A 
ATOM     73  C   UNL A   1      43.704  23.007  24.397  1.00  0.00     0.001 A 
ATOM     74  C   UNL A   1      44.832  22.250  24.645  1.00  0.00     0.000 A 
ENDBRANCH  55  69
BRANCH  56  75
ATOM     75  C   UNL A   1      40.563  30.743  32.866  1.00  0.00    -0.014 A 
ATOM     76  C   UNL A   1      39.596  29.793  33.268  1.00  0.00     0.009 A 
ATOM     77  C   UNL A   1      40.477  32.035  33.405  1.00  0.00     0.009 A 
ATOM     78  C   UNL A   1      38.655  30.086  34.259  1.00  0.00     0.001 A 
ATOM     79  C   UNL A   1      39.502  32.338  34.371  1.00  0.00     0.001 A 
ATOM     80  C   UNL A   1      38.622  31.353  34.828  1.00  0.00     0.000 A 
ENDBRANCH  56  75
BRANCH  68  81
ATOM     81  C   UNL A   1      44.993  24.935  32.986  1.00  0.00    -0.014 A 
ATOM     82  C   UNL A   1      46.245  24.780  33.585  1.00  0.00     0.009 A 
ATOM     83  C   UNL A   1      44.079  23.866  33.177  1.00  0.00     0.009 A 
ATOM     84  C   UNL A   1      46.570  23.625  34.317  1.00  0.00     0.001 A 
ATOM     85  C   UNL A   1      44.376  22.741  33.949  1.00  0.00     0.001 A 
ATOM     86  C   UNL A   1      45.633  22.617  34.514  1.00  0.00     0.000 A 
ENDBRANCH  68  81
ENDBRANCH  42  43
ENDBRANCH  35  37
ENDBRANCH  34  35
ENDBRANCH  33  34
ENDBRANCH  32  33
ENDBRANCH  31  32
ENDBRANCH   1  31
TORSDOF 18
ENDMDL
