MODEL 1
REMARK VINA RESULT:      -5.0      0.000      0.000
REMARK SMILES CCCCCCNC(=O)Oc1cccc(-c2ccc([C@@H](C)C(=O)OCCOCCOCCOC(=O)c3ccc(-c4c5nc(c(-c6ccccc6)c6ccc([nH]6)c(-c6ccccc6)c6nc(c(-c7ccccc7)c7ccc4[nH]7)C=C6)C=C5)cc3)cc2C(F)(F)F)c1
REMARK SMILES IDX 25 1 24 2 22 3 23 4 20 5 21 6 19 7 16 8 17 9 85 10 18 11
REMARK SMILES IDX 84 12 15 13 11 14 12 15 90 16 13 17 14 18 10 19 8 20 7 21
REMARK SMILES IDX 9 23 6 24 5 25 4 26 3 27 2 28 1 29 86 30 87 31 88 32 89 33
REMARK SMILES IDX 26 34 27 35 28 36 29 37 30 38 31 39 32 40 33 41 34 42 35 43
REMARK SMILES IDX 36 44 37 45 83 46 38 47 82 48 39 49 40 50 41 51 76 52 42 53
REMARK SMILES IDX 81 54 75 55 77 56 43 57 80 58 74 59 73 60 44 62 66 63 51 64
REMARK SMILES IDX 65 65 52 66 55 67 64 68 78 69 53 70 54 71 63 73 79 74 56 75
REMARK SMILES IDX 45 76 46 77 50 78 47 79 49 80 48 81 67 82 68 83 72 84 69 85
REMARK SMILES IDX 71 86 70 87 57 88 58 89 62 90 59 91 61 92 60 93
REMARK H PARENT 7 22 77 61 55 72
REMARK Flexibility Score: inf
ROOT
ATOM      1  C   UNL A   1      44.778  41.666  36.770  1.00  0.00     0.261 C 
ENDROOT
BRANCH   1   2
ATOM      2  O   UNL A   1      44.727  40.225  36.670  1.00  0.00    -0.463 OA
BRANCH   2   3
ATOM      3  C   UNL A   1      44.327  39.558  37.780  1.00  0.00     0.313 C 
ATOM      4  O   UNL A   1      43.764  40.102  38.729  1.00  0.00    -0.252 OA
BRANCH   3   5
ATOM      5  C   UNL A   1      44.621  38.058  37.814  1.00  0.00     0.126 C 
ATOM      6  C   UNL A   1      45.735  37.758  36.811  1.00  0.00     0.025 C 
BRANCH   5   7
ATOM      7  C   UNL A   1      43.504  37.018  37.701  1.00  0.00    -0.033 A 
ATOM      8  C   UNL A   1      41.358  35.137  37.349  1.00  0.00    -0.006 A 
ATOM      9  C   UNL A   1      41.850  35.489  38.625  1.00  0.00     0.009 A 
ATOM     10  C   UNL A   1      41.935  35.771  36.231  1.00  0.00     0.064 A 
ATOM     11  C   UNL A   1      42.886  36.424  38.802  1.00  0.00     0.005 A 
ATOM     12  C   UNL A   1      43.008  36.681  36.425  1.00  0.00     0.018 A 
BRANCH   8  13
ATOM     13  C   UNL A   1      40.224  34.192  37.245  1.00  0.00    -0.014 A 
ATOM     14  C   UNL A   1      39.283  32.008  36.740  1.00  0.00     0.133 A 
ATOM     15  C   UNL A   1      37.988  32.497  36.899  1.00  0.00     0.047 A 
ATOM     16  C   UNL A   1      40.401  32.835  36.916  1.00  0.00     0.056 A 
ATOM     17  C   UNL A   1      37.801  33.828  37.255  1.00  0.00     0.004 A 
ATOM     18  C   UNL A   1      38.908  34.666  37.420  1.00  0.00     0.009 A 
BRANCH  14  19
ATOM     19  O   UNL A   1      39.393  30.699  36.236  1.00  0.00    -0.410 OA
BRANCH  19  20
ATOM     20  C   UNL A   1      40.597  30.287  35.686  1.00  0.00     0.412 C 
ATOM     21  N   UNL A   1      40.588  30.289  34.313  1.00  0.00    -0.321 N 
ATOM     22  H   UNL A   1      41.442  30.080  33.870  1.00  0.00     0.167 HD
ATOM     23  O   UNL A   1      41.584  29.922  36.310  1.00  0.00    -0.224 OA
BRANCH  21  24
ATOM     24  C   UNL A   1      39.459  30.564  33.444  1.00  0.00     0.119 C 
BRANCH  24  25
ATOM     25  C   UNL A   1      39.870  31.247  32.138  1.00  0.00     0.021 C 
BRANCH  25  26
ATOM     26  C   UNL A   1      40.017  32.772  32.215  1.00  0.00     0.002 C 
BRANCH  26  27
ATOM     27  C   UNL A   1      38.833  33.585  31.675  1.00  0.00    -0.000 C 
BRANCH  27  28
ATOM     28  C   UNL A   1      39.166  34.579  30.560  1.00  0.00    -0.003 C 
ATOM     29  C   UNL A   1      38.593  34.187  29.206  1.00  0.00     0.004 C 
ENDBRANCH  27  28
ENDBRANCH  26  27
ENDBRANCH  25  26
ENDBRANCH  24  25
ENDBRANCH  21  24
ENDBRANCH  19  20
ENDBRANCH  14  19
ENDBRANCH   8  13
BRANCH  10  30
ATOM     30  C   UNL A   1      41.467  35.528  34.808  1.00  0.00     0.417 C 
ATOM     31  F   UNL A   1      40.121  35.719  34.671  1.00  0.00    -0.166 F 
ATOM     32  F   UNL A   1      42.038  36.395  33.926  1.00  0.00    -0.166 F 
ATOM     33  F   UNL A   1      41.694  34.282  34.317  1.00  0.00    -0.166 F 
ENDBRANCH  10  30
ENDBRANCH   5   7
ENDBRANCH   3   5
ENDBRANCH   2   3
ENDBRANCH   1   2
BRANCH   1  34
ATOM     34  C   UNL A   1      44.804  42.400  35.426  1.00  0.00     0.202 C 
BRANCH  34  35
ATOM     35  O   UNL A   1      43.710  43.260  35.144  1.00  0.00    -0.376 OA
BRANCH  35  36
ATOM     36  C   UNL A   1      42.501  42.711  34.628  1.00  0.00     0.188 C 
BRANCH  36  37
ATOM     37  C   UNL A   1      42.436  42.241  33.170  1.00  0.00     0.188 C 
BRANCH  37  38
ATOM     38  O   UNL A   1      42.751  43.251  32.230  1.00  0.00    -0.376 OA
BRANCH  38  39
ATOM     39  C   UNL A   1      43.271  42.785  30.997  1.00  0.00     0.202 C 
BRANCH  39  40
ATOM     40  C   UNL A   1      44.323  41.700  31.242  1.00  0.00     0.261 C 
BRANCH  40  41
ATOM     41  O   UNL A   1      44.240  40.578  30.341  1.00  0.00    -0.460 OA
BRANCH  41  42
ATOM     42  C   UNL A   1      45.378  39.869  30.155  1.00  0.00     0.338 C 
ATOM     43  O   UNL A   1      46.500  40.304  29.985  1.00  0.00    -0.246 OA
BRANCH  42  44
ATOM     44  C   UNL A   1      45.075  38.445  30.414  1.00  0.00     0.060 A 
ATOM     45  C   UNL A   1      43.771  38.093  30.784  1.00  0.00     0.016 A 
ATOM     46  C   UNL A   1      46.064  37.468  30.300  1.00  0.00     0.016 A 
ATOM     47  C   UNL A   1      43.457  36.767  31.078  1.00  0.00     0.010 A 
ATOM     48  C   UNL A   1      45.753  36.142  30.608  1.00  0.00     0.010 A 
ATOM     49  C   UNL A   1      44.457  35.790  31.027  1.00  0.00    -0.014 A 
BRANCH  49  50
ATOM     50  C   UNL A   1      44.207  34.433  31.567  1.00  0.00     0.031 A 
ATOM     51  C   UNL A   1      44.637  34.130  32.975  1.00  0.00     0.074 A 
ATOM     52  C   UNL A   1      43.621  33.478  30.824  1.00  0.00     0.049 A 
ATOM     53  N   UNL A   1      44.610  32.996  33.628  1.00  0.00    -0.248 NA
ATOM     54  C   UNL A   1      45.175  35.261  33.748  1.00  0.00     0.031 C 
ATOM     55  C   UNL A   1      43.101  33.655  29.471  1.00  0.00     0.029 A 
ATOM     56  N   UNL A   1      43.375  32.159  31.114  1.00  0.00    -0.354 N 
ATOM     57  C   UNL A   1      45.144  33.273  34.880  1.00  0.00     0.074 A 
ATOM     58  C   UNL A   1      45.505  34.674  34.887  1.00  0.00     0.031 C 
ATOM     59  C   UNL A   1      42.602  32.481  29.043  1.00  0.00     0.029 A 
ATOM     60  C   UNL A   1      42.808  31.465  30.074  1.00  0.00     0.049 A 
ATOM     61  H   UNL A   1      43.585  31.750  31.985  1.00  0.00     0.167 HD
ATOM     62  C   UNL A   1      45.321  32.436  35.931  1.00  0.00     0.031 A 
ATOM     63  C   UNL A   1      42.518  30.155  29.958  1.00  0.00     0.031 A 
ATOM     64  C   UNL A   1      44.982  31.039  35.919  1.00  0.00     0.049 A 
ATOM     65  C   UNL A   1      42.823  29.221  31.098  1.00  0.00     0.074 A 
ATOM     66  C   UNL A   1      45.104  30.113  36.940  1.00  0.00     0.029 A 
ATOM     67  N   UNL A   1      44.469  30.361  34.824  1.00  0.00    -0.354 N 
ATOM     68  N   UNL A   1      43.311  29.493  32.285  1.00  0.00    -0.248 NA
ATOM     69  C   UNL A   1      42.542  27.794  30.879  1.00  0.00     0.031 C 
ATOM     70  C   UNL A   1      44.725  28.862  36.442  1.00  0.00     0.029 A 
ATOM     71  C   UNL A   1      44.307  29.020  35.131  1.00  0.00     0.049 A 
ATOM     72  H   UNL A   1      44.252  30.773  33.957  1.00  0.00     0.167 HD
ATOM     73  C   UNL A   1      43.371  28.279  32.960  1.00  0.00     0.074 A 
ATOM     74  C   UNL A   1      42.858  27.271  32.054  1.00  0.00     0.031 C 
ATOM     75  C   UNL A   1      43.809  28.024  34.218  1.00  0.00     0.031 A 
BRANCH  62  76
ATOM     76  C   UNL A   1      45.968  33.011  37.159  1.00  0.00    -0.014 A 
ATOM     77  C   UNL A   1      47.354  32.927  37.366  1.00  0.00     0.009 A 
ATOM     78  C   UNL A   1      45.174  33.647  38.126  1.00  0.00     0.009 A 
ATOM     79  C   UNL A   1      47.924  33.425  38.541  1.00  0.00     0.001 A 
ATOM     80  C   UNL A   1      45.750  34.171  39.284  1.00  0.00     0.001 A 
ATOM     81  C   UNL A   1      47.122  34.049  39.496  1.00  0.00     0.000 A 
ENDBRANCH  62  76
BRANCH  63  82
ATOM     82  C   UNL A   1      41.919  29.637  28.700  1.00  0.00    -0.014 A 
ATOM     83  C   UNL A   1      42.730  29.361  27.588  1.00  0.00     0.009 A 
ATOM     84  C   UNL A   1      40.536  29.425  28.600  1.00  0.00     0.009 A 
ATOM     85  C   UNL A   1      42.164  28.898  26.398  1.00  0.00     0.001 A 
ATOM     86  C   UNL A   1      39.976  28.935  27.418  1.00  0.00     0.001 A 
ATOM     87  C   UNL A   1      40.790  28.679  26.316  1.00  0.00     0.000 A 
ENDBRANCH  63  82
BRANCH  75  88
ATOM     88  C   UNL A   1      43.729  26.602  34.702  1.00  0.00    -0.014 A 
ATOM     89  C   UNL A   1      44.821  25.729  34.585  1.00  0.00     0.009 A 
ATOM     90  C   UNL A   1      42.557  26.144  35.326  1.00  0.00     0.009 A 
ATOM     91  C   UNL A   1      44.729  24.416  35.055  1.00  0.00     0.001 A 
ATOM     92  C   UNL A   1      42.479  24.841  35.821  1.00  0.00     0.001 A 
ATOM     93  C   UNL A   1      43.562  23.975  35.677  1.00  0.00     0.000 A 
ENDBRANCH  75  88
ENDBRANCH  49  50
ENDBRANCH  42  44
ENDBRANCH  41  42
ENDBRANCH  40  41
ENDBRANCH  39  40
ENDBRANCH  38  39
ENDBRANCH  37  38
ENDBRANCH  36  37
ENDBRANCH  35  36
ENDBRANCH  34  35
ENDBRANCH   1  34
TORSDOF 27
ENDMDL
MODEL 2
REMARK VINA RESULT:      -4.8      4.869     11.765
REMARK SMILES CCCCCCNC(=O)Oc1cccc(-c2ccc([C@@H](C)C(=O)OCCOCCOCCOC(=O)c3ccc(-c4c5nc(c(-c6ccccc6)c6ccc([nH]6)c(-c6ccccc6)c6nc(c(-c7ccccc7)c7ccc4[nH]7)C=C6)C=C5)cc3)cc2C(F)(F)F)c1
REMARK SMILES IDX 25 1 24 2 22 3 23 4 20 5 21 6 19 7 16 8 17 9 85 10 18 11
REMARK SMILES IDX 84 12 15 13 11 14 12 15 90 16 13 17 14 18 10 19 8 20 7 21
REMARK SMILES IDX 9 23 6 24 5 25 4 26 3 27 2 28 1 29 86 30 87 31 88 32 89 33
REMARK SMILES IDX 26 34 27 35 28 36 29 37 30 38 31 39 32 40 33 41 34 42 35 43
REMARK SMILES IDX 36 44 37 45 83 46 38 47 82 48 39 49 40 50 41 51 76 52 42 53
REMARK SMILES IDX 81 54 75 55 77 56 43 57 80 58 74 59 73 60 44 62 66 63 51 64
REMARK SMILES IDX 65 65 52 66 55 67 64 68 78 69 53 70 54 71 63 73 79 74 56 75
REMARK SMILES IDX 45 76 46 77 50 78 47 79 49 80 48 81 67 82 68 83 72 84 69 85
REMARK SMILES IDX 71 86 70 87 57 88 58 89 62 90 59 91 61 92 60 93
REMARK H PARENT 7 22 77 61 55 72
REMARK Flexibility Score: inf
ROOT
ATOM      1  C   UNL A   1      44.515  29.412  26.549  1.00  0.00     0.261 C 
ENDROOT
BRANCH   1   2
ATOM      2  O   UNL A   1      44.404  30.448  27.551  1.00  0.00    -0.463 OA
BRANCH   2   3
ATOM      3  C   UNL A   1      44.593  31.721  27.123  1.00  0.00     0.313 C 
ATOM      4  O   UNL A   1      44.666  32.030  25.935  1.00  0.00    -0.252 OA
BRANCH   3   5
ATOM      5  C   UNL A   1      44.727  32.788  28.208  1.00  0.00     0.126 C 
ATOM      6  C   UNL A   1      44.312  32.177  29.547  1.00  0.00     0.025 C 
BRANCH   5   7
ATOM      7  C   UNL A   1      44.117  34.182  28.044  1.00  0.00    -0.033 A 
ATOM      8  C   UNL A   1      43.115  36.865  27.784  1.00  0.00    -0.006 A 
ATOM      9  C   UNL A   1      42.275  35.773  28.096  1.00  0.00     0.009 A 
ATOM     10  C   UNL A   1      44.492  36.605  27.635  1.00  0.00     0.064 A 
ATOM     11  C   UNL A   1      42.764  34.463  28.244  1.00  0.00     0.005 A 
ATOM     12  C   UNL A   1      44.963  35.270  27.747  1.00  0.00     0.018 A 
BRANCH   8  13
ATOM     13  C   UNL A   1      42.538  38.224  27.706  1.00  0.00    -0.014 A 
ATOM     14  C   UNL A   1      41.905  40.226  26.478  1.00  0.00     0.133 A 
ATOM     15  C   UNL A   1      41.584  40.886  27.663  1.00  0.00     0.047 A 
ATOM     16  C   UNL A   1      42.370  38.904  26.484  1.00  0.00     0.056 A 
ATOM     17  C   UNL A   1      41.715  40.216  28.874  1.00  0.00     0.004 A 
ATOM     18  C   UNL A   1      42.192  38.901  28.894  1.00  0.00     0.009 A 
BRANCH  14  19
ATOM     19  O   UNL A   1      41.892  41.009  25.310  1.00  0.00    -0.410 OA
BRANCH  19  20
ATOM     20  C   UNL A   1      43.010  41.765  24.993  1.00  0.00     0.412 C 
ATOM     21  N   UNL A   1      42.754  42.738  24.060  1.00  0.00    -0.321 N 
ATOM     22  H   UNL A   1      43.494  43.354  23.854  1.00  0.00     0.167 HD
ATOM     23  O   UNL A   1      44.136  41.605  25.444  1.00  0.00    -0.224 OA
BRANCH  21  24
ATOM     24  C   UNL A   1      41.513  42.958  23.340  1.00  0.00     0.119 C 
BRANCH  24  25
ATOM     25  C   UNL A   1      41.557  42.426  21.907  1.00  0.00     0.021 C 
BRANCH  25  26
ATOM     26  C   UNL A   1      42.910  42.561  21.199  1.00  0.00     0.002 C 
BRANCH  26  27
ATOM     27  C   UNL A   1      43.058  43.769  20.266  1.00  0.00    -0.000 C 
BRANCH  27  28
ATOM     28  C   UNL A   1      42.106  43.802  19.067  1.00  0.00    -0.003 C 
ATOM     29  C   UNL A   1      42.820  43.908  17.728  1.00  0.00     0.004 C 
ENDBRANCH  27  28
ENDBRANCH  26  27
ENDBRANCH  25  26
ENDBRANCH  24  25
ENDBRANCH  21  24
ENDBRANCH  19  20
ENDBRANCH  14  19
ENDBRANCH   8  13
BRANCH  10  30
ATOM     30  C   UNL A   1      45.514  37.691  27.354  1.00  0.00     0.417 C 
ATOM     31  F   UNL A   1      45.466  38.693  28.282  1.00  0.00    -0.166 F 
ATOM     32  F   UNL A   1      46.790  37.219  27.410  1.00  0.00    -0.166 F 
ATOM     33  F   UNL A   1      45.393  38.319  26.156  1.00  0.00    -0.166 F 
ENDBRANCH  10  30
ENDBRANCH   5   7
ENDBRANCH   3   5
ENDBRANCH   2   3
ENDBRANCH   1   2
BRANCH   1  34
ATOM     34  C   UNL A   1      44.091  28.018  27.023  1.00  0.00     0.202 C 
BRANCH  34  35
ATOM     35  O   UNL A   1      43.668  27.102  26.022  1.00  0.00    -0.376 OA
BRANCH  35  36
ATOM     36  C   UNL A   1      42.380  27.255  25.433  1.00  0.00     0.188 C 
BRANCH  36  37
ATOM     37  C   UNL A   1      41.165  27.557  26.319  1.00  0.00     0.188 C 
BRANCH  37  38
ATOM     38  O   UNL A   1      40.751  28.910  26.278  1.00  0.00    -0.376 OA
BRANCH  38  39
ATOM     39  C   UNL A   1      39.697  29.244  27.164  1.00  0.00     0.202 C 
BRANCH  39  40
ATOM     40  C   UNL A   1      39.131  27.979  27.814  1.00  0.00     0.261 C 
BRANCH  40  41
ATOM     41  O   UNL A   1      38.963  28.070  29.243  1.00  0.00    -0.460 OA
BRANCH  41  42
ATOM     42  C   UNL A   1      40.072  27.879  29.994  1.00  0.00     0.338 C 
ATOM     43  O   UNL A   1      41.032  27.181  29.729  1.00  0.00    -0.246 OA
BRANCH  42  44
ATOM     44  C   UNL A   1      40.037  28.844  31.113  1.00  0.00     0.060 A 
ATOM     45  C   UNL A   1      39.318  30.035  30.950  1.00  0.00     0.016 A 
ATOM     46  C   UNL A   1      40.709  28.584  32.308  1.00  0.00     0.016 A 
ATOM     47  C   UNL A   1      39.297  30.989  31.967  1.00  0.00     0.010 A 
ATOM     48  C   UNL A   1      40.699  29.545  33.321  1.00  0.00     0.010 A 
ATOM     49  C   UNL A   1      40.019  30.763  33.144  1.00  0.00    -0.014 A 
BRANCH  49  50
ATOM     50  C   UNL A   1      40.210  31.856  34.126  1.00  0.00     0.031 A 
ATOM     51  C   UNL A   1      41.228  32.921  33.827  1.00  0.00     0.074 A 
ATOM     52  C   UNL A   1      39.506  31.904  35.270  1.00  0.00     0.049 A 
ATOM     53  N   UNL A   1      41.636  33.916  34.573  1.00  0.00    -0.248 NA
ATOM     54  C   UNL A   1      41.877  32.847  32.508  1.00  0.00     0.031 C 
ATOM     55  C   UNL A   1      38.447  30.974  35.655  1.00  0.00     0.029 A 
ATOM     56  N   UNL A   1      39.590  32.779  36.325  1.00  0.00    -0.354 N 
ATOM     57  C   UNL A   1      42.601  34.575  33.823  1.00  0.00     0.074 A 
ATOM     58  C   UNL A   1      42.733  33.854  32.574  1.00  0.00     0.031 C 
ATOM     59  C   UNL A   1      37.984  31.324  36.868  1.00  0.00     0.029 A 
ATOM     60  C   UNL A   1      38.743  32.473  37.360  1.00  0.00     0.049 A 
ATOM     61  H   UNL A   1      40.201  33.551  36.337  1.00  0.00     0.167 HD
ATOM     62  C   UNL A   1      43.317  35.679  34.143  1.00  0.00     0.031 A 
ATOM     63  C   UNL A   1      38.616  33.038  38.577  1.00  0.00     0.031 A 
ATOM     64  C   UNL A   1      43.203  36.384  35.391  1.00  0.00     0.049 A 
ATOM     65  C   UNL A   1      39.498  34.198  38.954  1.00  0.00     0.074 A 
ATOM     66  C   UNL A   1      43.869  37.526  35.801  1.00  0.00     0.029 A 
ATOM     67  N   UNL A   1      42.378  36.005  36.438  1.00  0.00    -0.354 N 
ATOM     68  N   UNL A   1      40.395  34.826  38.233  1.00  0.00    -0.248 NA
ATOM     69  C   UNL A   1      39.352  34.722  40.320  1.00  0.00     0.031 C 
ATOM     70  C   UNL A   1      43.494  37.799  37.121  1.00  0.00     0.029 A 
ATOM     71  C   UNL A   1      42.548  36.865  37.510  1.00  0.00     0.049 A 
ATOM     72  H   UNL A   1      41.762  35.237  36.422  1.00  0.00     0.167 HD
ATOM     73  C   UNL A   1      40.901  35.833  39.047  1.00  0.00     0.074 A 
ATOM     74  C   UNL A   1      40.202  35.740  40.312  1.00  0.00     0.031 C 
ATOM     75  C   UNL A   1      41.857  36.755  38.769  1.00  0.00     0.031 A 
BRANCH  62  76
ATOM     76  C   UNL A   1      44.332  36.148  33.139  1.00  0.00    -0.014 A 
ATOM     77  C   UNL A   1      45.683  35.776  33.233  1.00  0.00     0.009 A 
ATOM     78  C   UNL A   1      43.928  36.980  32.083  1.00  0.00     0.009 A 
ATOM     79  C   UNL A   1      46.615  36.267  32.315  1.00  0.00     0.001 A 
ATOM     80  C   UNL A   1      44.857  37.444  31.151  1.00  0.00     0.001 A 
ATOM     81  C   UNL A   1      46.201  37.098  31.275  1.00  0.00     0.000 A 
ENDBRANCH  62  76
BRANCH  63  82
ATOM     82  C   UNL A   1      37.624  32.501  39.544  1.00  0.00    -0.014 A 
ATOM     83  C   UNL A   1      38.050  31.839  40.706  1.00  0.00     0.009 A 
ATOM     84  C   UNL A   1      36.247  32.637  39.308  1.00  0.00     0.009 A 
ATOM     85  C   UNL A   1      37.118  31.312  41.603  1.00  0.00     0.001 A 
ATOM     86  C   UNL A   1      35.317  32.133  40.220  1.00  0.00     0.001 A 
ATOM     87  C   UNL A   1      35.753  31.465  41.362  1.00  0.00     0.000 A 
ENDBRANCH  63  82
BRANCH  75  88
ATOM     88  C   UNL A   1      42.186  37.754  39.844  1.00  0.00    -0.014 A 
ATOM     89  C   UNL A   1      42.976  37.404  40.949  1.00  0.00     0.009 A 
ATOM     90  C   UNL A   1      41.736  39.079  39.724  1.00  0.00     0.009 A 
ATOM     91  C   UNL A   1      43.283  38.353  41.928  1.00  0.00     0.001 A 
ATOM     92  C   UNL A   1      42.068  40.032  40.688  1.00  0.00     0.001 A 
ATOM     93  C   UNL A   1      42.834  39.666  41.794  1.00  0.00     0.000 A 
ENDBRANCH  75  88
ENDBRANCH  49  50
ENDBRANCH  42  44
ENDBRANCH  41  42
ENDBRANCH  40  41
ENDBRANCH  39  40
ENDBRANCH  38  39
ENDBRANCH  37  38
ENDBRANCH  36  37
ENDBRANCH  35  36
ENDBRANCH  34  35
ENDBRANCH   1  34
TORSDOF 27
ENDMDL
MODEL 3
REMARK VINA RESULT:      -4.8      3.919     10.255
REMARK SMILES CCCCCCNC(=O)Oc1cccc(-c2ccc([C@@H](C)C(=O)OCCOCCOCCOC(=O)c3ccc(-c4c5nc(c(-c6ccccc6)c6ccc([nH]6)c(-c6ccccc6)c6nc(c(-c7ccccc7)c7ccc4[nH]7)C=C6)C=C5)cc3)cc2C(F)(F)F)c1
REMARK SMILES IDX 25 1 24 2 22 3 23 4 20 5 21 6 19 7 16 8 17 9 85 10 18 11
REMARK SMILES IDX 84 12 15 13 11 14 12 15 90 16 13 17 14 18 10 19 8 20 7 21
REMARK SMILES IDX 9 23 6 24 5 25 4 26 3 27 2 28 1 29 86 30 87 31 88 32 89 33
REMARK SMILES IDX 26 34 27 35 28 36 29 37 30 38 31 39 32 40 33 41 34 42 35 43
REMARK SMILES IDX 36 44 37 45 83 46 38 47 82 48 39 49 40 50 41 51 76 52 42 53
REMARK SMILES IDX 81 54 75 55 77 56 43 57 80 58 74 59 73 60 44 62 66 63 51 64
REMARK SMILES IDX 65 65 52 66 55 67 64 68 78 69 53 70 54 71 63 73 79 74 56 75
REMARK SMILES IDX 45 76 46 77 50 78 47 79 49 80 48 81 67 82 68 83 72 84 69 85
REMARK SMILES IDX 71 86 70 87 57 88 58 89 62 90 59 91 61 92 60 93
REMARK H PARENT 7 22 77 61 55 72
REMARK Flexibility Score: inf
ROOT
ATOM      1  C   UNL A   1      40.900  32.609  41.257  1.00  0.00     0.261 C 
ENDROOT
BRANCH   1   2
ATOM      2  O   UNL A   1      40.885  34.054  41.290  1.00  0.00    -0.463 OA
BRANCH   2   3
ATOM      3  C   UNL A   1      41.278  34.685  40.157  1.00  0.00     0.313 C 
ATOM      4  O   UNL A   1      42.429  34.646  39.727  1.00  0.00    -0.252 OA
BRANCH   3   5
ATOM      5  C   UNL A   1      40.204  35.482  39.416  1.00  0.00     0.126 C 
ATOM      6  C   UNL A   1      38.898  35.389  40.206  1.00  0.00     0.025 C 
BRANCH   5   7
ATOM      7  C   UNL A   1      39.942  35.282  37.922  1.00  0.00    -0.033 A 
ATOM      8  C   UNL A   1      39.480  34.743  35.135  1.00  0.00    -0.006 A 
ATOM      9  C   UNL A   1      39.953  35.993  35.594  1.00  0.00     0.009 A 
ATOM     10  C   UNL A   1      39.269  33.735  36.096  1.00  0.00     0.064 A 
ATOM     11  C   UNL A   1      40.199  36.253  36.954  1.00  0.00     0.005 A 
ATOM     12  C   UNL A   1      39.483  34.028  37.470  1.00  0.00     0.018 A 
BRANCH   8  13
ATOM     13  C   UNL A   1      39.304  34.524  33.683  1.00  0.00    -0.014 A 
ATOM     14  C   UNL A   1      37.923  34.197  31.709  1.00  0.00     0.133 A 
ATOM     15  C   UNL A   1      39.048  33.928  30.931  1.00  0.00     0.047 A 
ATOM     16  C   UNL A   1      38.036  34.502  33.072  1.00  0.00     0.056 A 
ATOM     17  C   UNL A   1      40.308  33.978  31.516  1.00  0.00     0.004 A 
ATOM     18  C   UNL A   1      40.433  34.268  32.878  1.00  0.00     0.009 A 
BRANCH  14  19
ATOM     19  O   UNL A   1      36.677  33.983  31.090  1.00  0.00    -0.410 OA
BRANCH  19  20
ATOM     20  C   UNL A   1      35.808  33.048  31.632  1.00  0.00     0.412 C 
ATOM     21  N   UNL A   1      35.682  31.921  30.859  1.00  0.00    -0.321 N 
ATOM     22  H   UNL A   1      35.137  31.192  31.233  1.00  0.00     0.167 HD
ATOM     23  O   UNL A   1      35.173  33.175  32.670  1.00  0.00    -0.224 OA
BRANCH  21  24
ATOM     24  C   UNL A   1      36.260  31.687  29.548  1.00  0.00     0.119 C 
BRANCH  24  25
ATOM     25  C   UNL A   1      35.749  32.667  28.491  1.00  0.00     0.021 C 
BRANCH  25  26
ATOM     26  C   UNL A   1      34.238  32.622  28.232  1.00  0.00     0.002 C 
BRANCH  26  27
ATOM     27  C   UNL A   1      33.507  33.968  28.307  1.00  0.00    -0.000 C 
BRANCH  27  28
ATOM     28  C   UNL A   1      33.689  34.749  29.612  1.00  0.00    -0.003 C 
ATOM     29  C   UNL A   1      32.928  36.066  29.641  1.00  0.00     0.004 C 
ENDBRANCH  27  28
ENDBRANCH  26  27
ENDBRANCH  25  26
ENDBRANCH  24  25
ENDBRANCH  21  24
ENDBRANCH  19  20
ENDBRANCH  14  19
ENDBRANCH   8  13
BRANCH  10  30
ATOM     30  C   UNL A   1      38.816  32.332  35.738  1.00  0.00     0.417 C 
ATOM     31  F   UNL A   1      39.573  31.787  34.739  1.00  0.00    -0.166 F 
ATOM     32  F   UNL A   1      38.940  31.471  36.786  1.00  0.00    -0.166 F 
ATOM     33  F   UNL A   1      37.533  32.219  35.304  1.00  0.00    -0.166 F 
ENDBRANCH  10  30
ENDBRANCH   5   7
ENDBRANCH   3   5
ENDBRANCH   2   3
ENDBRANCH   1   2
BRANCH   1  34
ATOM     34  C   UNL A   1      42.286  31.980  41.430  1.00  0.00     0.202 C 
BRANCH  34  35
ATOM     35  O   UNL A   1      42.358  30.791  42.205  1.00  0.00    -0.376 OA
BRANCH  35  36
ATOM     36  C   UNL A   1      43.598  30.414  42.796  1.00  0.00     0.188 C 
BRANCH  36  37
ATOM     37  C   UNL A   1      44.720  29.844  41.919  1.00  0.00     0.188 C 
BRANCH  37  38
ATOM     38  O   UNL A   1      45.983  30.442  42.147  1.00  0.00    -0.376 OA
BRANCH  38  39
ATOM     39  C   UNL A   1      46.712  30.773  40.977  1.00  0.00     0.202 C 
BRANCH  39  40
ATOM     40  C   UNL A   1      45.865  31.659  40.060  1.00  0.00     0.261 C 
BRANCH  40  41
ATOM     41  O   UNL A   1      46.007  31.366  38.655  1.00  0.00    -0.460 OA
BRANCH  41  42
ATOM     42  C   UNL A   1      44.866  31.107  37.976  1.00  0.00     0.338 C 
ATOM     43  O   UNL A   1      44.048  30.238  38.209  1.00  0.00    -0.246 OA
BRANCH  42  44
ATOM     44  C   UNL A   1      44.648  32.207  37.013  1.00  0.00     0.060 A 
ATOM     45  C   UNL A   1      43.333  32.601  36.731  1.00  0.00     0.016 A 
ATOM     46  C   UNL A   1      45.723  32.841  36.391  1.00  0.00     0.016 A 
ATOM     47  C   UNL A   1      43.085  33.606  35.796  1.00  0.00     0.010 A 
ATOM     48  C   UNL A   1      45.474  33.839  35.445  1.00  0.00     0.010 A 
ATOM     49  C   UNL A   1      44.155  34.205  35.122  1.00  0.00    -0.014 A 
BRANCH  49  50
ATOM     50  C   UNL A   1      43.906  35.091  33.960  1.00  0.00     0.031 A 
ATOM     51  C   UNL A   1      43.857  34.480  32.588  1.00  0.00     0.074 A 
ATOM     52  C   UNL A   1      43.737  36.416  34.111  1.00  0.00     0.049 A 
ATOM     53  N   UNL A   1      43.749  35.062  31.421  1.00  0.00    -0.248 NA
ATOM     54  C   UNL A   1      43.948  33.012  32.527  1.00  0.00     0.031 C 
ATOM     55  C   UNL A   1      43.699  37.127  35.386  1.00  0.00     0.029 A 
ATOM     56  N   UNL A   1      43.574  37.399  33.168  1.00  0.00    -0.354 N 
ATOM     57  C   UNL A   1      43.778  34.035  30.486  1.00  0.00     0.074 A 
ATOM     58  C   UNL A   1      43.935  32.797  31.220  1.00  0.00     0.031 C 
ATOM     59  C   UNL A   1      43.531  38.439  35.145  1.00  0.00     0.029 A 
ATOM     60  C   UNL A   1      43.494  38.662  33.700  1.00  0.00     0.049 A 
ATOM     61  H   UNL A   1      43.520  37.216  32.202  1.00  0.00     0.167 HD
ATOM     62  C   UNL A   1      43.685  34.112  29.137  1.00  0.00     0.031 A 
ATOM     63  C   UNL A   1      43.429  39.861  33.090  1.00  0.00     0.031 A 
ATOM     64  C   UNL A   1      43.549  35.342  28.405  1.00  0.00     0.049 A 
ATOM     65  C   UNL A   1      43.435  39.932  31.586  1.00  0.00     0.074 A 
ATOM     66  C   UNL A   1      43.426  35.523  27.038  1.00  0.00     0.029 A 
ATOM     67  N   UNL A   1      43.536  36.604  28.978  1.00  0.00    -0.354 N 
ATOM     68  N   UNL A   1      43.445  38.956  30.710  1.00  0.00    -0.248 NA
ATOM     69  C   UNL A   1      43.429  41.275  30.987  1.00  0.00     0.031 C 
ATOM     70  C   UNL A   1      43.402  36.898  26.780  1.00  0.00     0.029 A 
ATOM     71  C   UNL A   1      43.448  37.571  27.990  1.00  0.00     0.049 A 
ATOM     72  H   UNL A   1      43.581  36.785  29.944  1.00  0.00     0.167 HD
ATOM     73  C   UNL A   1      43.420  39.565  29.461  1.00  0.00     0.074 A 
ATOM     74  C   UNL A   1      43.383  40.995  29.693  1.00  0.00     0.031 C 
ATOM     75  C   UNL A   1      43.424  38.991  28.232  1.00  0.00     0.031 A 
BRANCH  62  76
ATOM     76  C   UNL A   1      43.790  32.824  28.372  1.00  0.00    -0.014 A 
ATOM     77  C   UNL A   1      43.017  31.701  28.712  1.00  0.00     0.009 A 
ATOM     78  C   UNL A   1      44.681  32.732  27.291  1.00  0.00     0.009 A 
ATOM     79  C   UNL A   1      43.172  30.501  28.015  1.00  0.00     0.001 A 
ATOM     80  C   UNL A   1      44.810  31.540  26.578  1.00  0.00     0.001 A 
ATOM     81  C   UNL A   1      44.065  30.422  26.948  1.00  0.00     0.000 A 
ENDBRANCH  62  76
BRANCH  63  82
ATOM     82  C   UNL A   1      43.372  41.104  33.902  1.00  0.00    -0.014 A 
ATOM     83  C   UNL A   1      42.269  41.967  33.804  1.00  0.00     0.009 A 
ATOM     84  C   UNL A   1      44.421  41.441  34.770  1.00  0.00     0.009 A 
ATOM     85  C   UNL A   1      42.226  43.148  34.548  1.00  0.00     0.001 A 
ATOM     86  C   UNL A   1      44.363  42.609  35.534  1.00  0.00     0.001 A 
ATOM     87  C   UNL A   1      43.270  43.465  35.417  1.00  0.00     0.000 A 
ENDBRANCH  63  82
BRANCH  75  88
ATOM     88  C   UNL A   1      43.362  39.908  27.041  1.00  0.00    -0.014 A 
ATOM     89  C   UNL A   1      44.528  40.406  26.441  1.00  0.00     0.009 A 
ATOM     90  C   UNL A   1      42.116  40.240  26.483  1.00  0.00     0.009 A 
ATOM     91  C   UNL A   1      44.446  41.244  25.325  1.00  0.00     0.001 A 
ATOM     92  C   UNL A   1      42.039  41.053  25.352  1.00  0.00     0.001 A 
ATOM     93  C   UNL A   1      43.204  41.562  24.779  1.00  0.00     0.000 A 
ENDBRANCH  75  88
ENDBRANCH  49  50
ENDBRANCH  42  44
ENDBRANCH  41  42
ENDBRANCH  40  41
ENDBRANCH  39  40
ENDBRANCH  38  39
ENDBRANCH  37  38
ENDBRANCH  36  37
ENDBRANCH  35  36
ENDBRANCH  34  35
ENDBRANCH   1  34
TORSDOF 27
ENDMDL
