MODEL 1
REMARK VINA RESULT:      -9.9      0.000      0.000
REMARK SMILES CC(C)Cc1cc2c(cc1Cl)C=C(C(=O)OCCOCCOCCOC(=O)c1ccc(-c3c4nc(c(-c5ccccc5)c5ccc([nH]5)c(-c5ccccc5)c5nc(c(-c6ccccc6)c6ccc3[nH]6)C=C5)C=C4)cc1)[C@H](C(F)(F)F)O2
REMARK SMILES IDX 20 1 19 2 18 3 17 4 16 5 14 6 15 7 13 8 5 9 6 10 10 11 7 12
REMARK SMILES IDX 9 13 11 14 8 15 81 16 12 17 76 18 4 19 2 20 1 21 3 22 77 23
REMARK SMILES IDX 78 24 79 25 80 26 21 27 22 28 23 29 24 30 25 31 26 32 27 33
REMARK SMILES IDX 28 34 29 35 75 36 30 37 74 38 31 39 32 40 33 41 68 42 34 43
REMARK SMILES IDX 73 44 67 45 69 46 35 47 72 48 66 49 65 50 36 52 58 53 43 54
REMARK SMILES IDX 57 55 44 56 47 57 56 58 70 59 45 60 46 61 55 63 71 64 48 65
REMARK SMILES IDX 37 66 38 67 42 68 39 69 41 70 40 71 59 72 60 73 64 74 61 75
REMARK SMILES IDX 63 76 62 77 49 78 50 79 54 80 51 81 53 82 52 83
REMARK H PARENT 69 51 47 62
REMARK Flexibility Score: inf
ROOT
ATOM      1  C   UNL A   1      34.210  30.959  27.406  1.00  0.00     0.188 C 
ENDROOT
BRANCH   1   2
ATOM      2  O   UNL A   1      33.163  30.029  27.521  1.00  0.00    -0.376 OA
BRANCH   2   3
ATOM      3  C   UNL A   1      31.929  30.218  26.850  1.00  0.00     0.202 C 
BRANCH   3   4
ATOM      4  C   UNL A   1      31.675  30.030  25.341  1.00  0.00     0.261 C 
BRANCH   4   5
ATOM      5  O   UNL A   1      31.797  28.713  24.803  1.00  0.00    -0.460 OA
BRANCH   5   6
ATOM      6  C   UNL A   1      33.003  28.404  24.279  1.00  0.00     0.338 C 
ATOM      7  O   UNL A   1      33.926  29.177  24.071  1.00  0.00    -0.246 OA
BRANCH   6   8
ATOM      8  C   UNL A   1      33.130  26.947  24.116  1.00  0.00     0.087 C 
ATOM      9  C   UNL A   1      34.406  22.140  24.816  1.00  0.00    -0.025 A 
ATOM     10  C   UNL A   1      34.328  22.998  23.703  1.00  0.00     0.052 A 
ATOM     11  C   UNL A   1      34.086  22.659  26.081  1.00  0.00     0.045 A 
ATOM     12  C   UNL A   1      33.935  24.326  23.846  1.00  0.00     0.128 A 
ATOM     13  C   UNL A   1      33.715  24.001  26.227  1.00  0.00     0.032 A 
ATOM     14  Cl  UNL A   1      34.160  21.694  27.512  1.00  0.00    -0.084 Cl
ATOM     15  C   UNL A   1      33.639  24.836  25.109  1.00  0.00     0.019 A 
ATOM     16  O   UNL A   1      33.938  25.089  22.708  1.00  0.00    -0.475 OA
ATOM     17  C   UNL A   1      33.346  26.254  25.244  1.00  0.00     0.027 C 
ATOM     18  C   UNL A   1      33.171  26.329  22.743  1.00  0.00     0.316 C 
BRANCH   9  19
ATOM     19  C   UNL A   1      34.833  20.707  24.586  1.00  0.00     0.040 C 
BRANCH  19  20
ATOM     20  C   UNL A   1      33.694  19.674  24.712  1.00  0.00    -0.013 C 
ATOM     21  C   UNL A   1      32.569  19.904  23.698  1.00  0.00     0.008 C 
ATOM     22  C   UNL A   1      34.263  18.265  24.521  1.00  0.00     0.008 C 
ENDBRANCH  19  20
ENDBRANCH   9  19
BRANCH  18  23
ATOM     23  C   UNL A   1      31.807  26.085  22.066  1.00  0.00     0.430 C 
ATOM     24  F   UNL A   1      31.079  25.140  22.703  1.00  0.00    -0.167 F 
ATOM     25  F   UNL A   1      31.070  27.213  21.991  1.00  0.00    -0.167 F 
ATOM     26  F   UNL A   1      31.978  25.661  20.788  1.00  0.00    -0.167 F 
ENDBRANCH  18  23
ENDBRANCH   6   8
ENDBRANCH   5   6
ENDBRANCH   4   5
ENDBRANCH   3   4
ENDBRANCH   2   3
ENDBRANCH   1   2
BRANCH   1  27
ATOM     27  C   UNL A   1      34.145  32.208  28.305  1.00  0.00     0.188 C 
BRANCH  27  28
ATOM     28  O   UNL A   1      33.109  33.161  28.156  1.00  0.00    -0.376 OA
BRANCH  28  29
ATOM     29  C   UNL A   1      33.386  34.537  28.364  1.00  0.00     0.202 C 
BRANCH  29  30
ATOM     30  C   UNL A   1      33.039  35.217  29.696  1.00  0.00     0.261 C 
BRANCH  30  31
ATOM     31  O   UNL A   1      34.125  35.308  30.628  1.00  0.00    -0.460 OA
BRANCH  31  32
ATOM     32  C   UNL A   1      34.074  34.436  31.670  1.00  0.00     0.338 C 
ATOM     33  O   UNL A   1      33.144  34.221  32.417  1.00  0.00    -0.246 OA
BRANCH  32  34
ATOM     34  C   UNL A   1      35.299  33.612  31.635  1.00  0.00     0.060 A 
ATOM     35  C   UNL A   1      36.344  33.938  30.771  1.00  0.00     0.016 A 
ATOM     36  C   UNL A   1      35.391  32.497  32.481  1.00  0.00     0.016 A 
ATOM     37  C   UNL A   1      37.498  33.154  30.774  1.00  0.00     0.010 A 
ATOM     38  C   UNL A   1      36.537  31.702  32.468  1.00  0.00     0.010 A 
ATOM     39  C   UNL A   1      37.608  32.043  31.633  1.00  0.00    -0.014 A 
BRANCH  39  40
ATOM     40  C   UNL A   1      38.924  31.383  31.796  1.00  0.00     0.031 A 
ATOM     41  C   UNL A   1      39.875  31.753  32.889  1.00  0.00     0.074 A 
ATOM     42  C   UNL A   1      39.236  30.407  30.923  1.00  0.00     0.049 A 
ATOM     43  N   UNL A   1      40.986  31.153  33.236  1.00  0.00    -0.248 NA
ATOM     44  C   UNL A   1      39.552  32.942  33.689  1.00  0.00     0.031 C 
ATOM     45  C   UNL A   1      38.392  29.995  29.799  1.00  0.00     0.029 A 
ATOM     46  N   UNL A   1      40.322  29.574  30.852  1.00  0.00    -0.354 N 
ATOM     47  C   UNL A   1      41.485  31.872  34.313  1.00  0.00     0.074 A 
ATOM     48  C   UNL A   1      40.581  32.985  34.529  1.00  0.00     0.031 C 
ATOM     49  C   UNL A   1      38.969  28.955  29.181  1.00  0.00     0.029 A 
ATOM     50  C   UNL A   1      40.234  28.648  29.841  1.00  0.00     0.049 A 
ATOM     51  H   UNL A   1      41.090  29.633  31.467  1.00  0.00     0.167 HD
ATOM     52  C   UNL A   1      42.585  31.608  35.057  1.00  0.00     0.031 A 
ATOM     53  C   UNL A   1      41.066  27.650  29.490  1.00  0.00     0.031 A 
ATOM     54  C   UNL A   1      43.487  30.509  34.809  1.00  0.00     0.049 A 
ATOM     55  C   UNL A   1      42.299  27.404  30.311  1.00  0.00     0.074 A 
ATOM     56  C   UNL A   1      44.598  30.132  35.544  1.00  0.00     0.029 A 
ATOM     57  N   UNL A   1      43.396  29.625  33.744  1.00  0.00    -0.354 N 
ATOM     58  N   UNL A   1      42.704  28.026  31.392  1.00  0.00    -0.248 NA
ATOM     59  C   UNL A   1      43.179  26.311  29.880  1.00  0.00     0.031 C 
ATOM     60  C   UNL A   1      45.227  29.078  34.879  1.00  0.00     0.029 A 
ATOM     61  C   UNL A   1      44.458  28.734  33.779  1.00  0.00     0.049 A 
ATOM     62  H   UNL A   1      42.684  29.629  33.065  1.00  0.00     0.167 HD
ATOM     63  C   UNL A   1      43.876  27.390  31.780  1.00  0.00     0.074 A 
ATOM     64  C   UNL A   1      44.101  26.317  30.833  1.00  0.00     0.031 C 
ATOM     65  C   UNL A   1      44.688  27.675  32.827  1.00  0.00     0.031 A 
BRANCH  52  66
ATOM     66  C   UNL A   1      42.892  32.503  36.228  1.00  0.00    -0.014 A 
ATOM     67  C   UNL A   1      42.289  32.260  37.474  1.00  0.00     0.009 A 
ATOM     68  C   UNL A   1      43.658  33.667  36.064  1.00  0.00     0.009 A 
ATOM     69  C   UNL A   1      42.426  33.175  38.521  1.00  0.00     0.001 A 
ATOM     70  C   UNL A   1      43.819  34.565  37.123  1.00  0.00     0.001 A 
ATOM     71  C   UNL A   1      43.193  34.326  38.345  1.00  0.00     0.000 A 
ENDBRANCH  52  66
BRANCH  53  72
ATOM     72  C   UNL A   1      40.712  26.789  28.332  1.00  0.00    -0.014 A 
ATOM     73  C   UNL A   1      39.896  25.657  28.510  1.00  0.00     0.009 A 
ATOM     74  C   UNL A   1      41.245  27.045  27.062  1.00  0.00     0.009 A 
ATOM     75  C   UNL A   1      39.651  24.784  27.448  1.00  0.00     0.001 A 
ATOM     76  C   UNL A   1      40.968  26.189  25.992  1.00  0.00     0.001 A 
ATOM     77  C   UNL A   1      40.184  25.053  26.189  1.00  0.00     0.000 A 
ENDBRANCH  53  72
BRANCH  65  78
ATOM     78  C   UNL A   1      45.916  26.824  33.019  1.00  0.00    -0.014 A 
ATOM     79  C   UNL A   1      47.116  27.169  32.374  1.00  0.00     0.009 A 
ATOM     80  C   UNL A   1      45.859  25.624  33.746  1.00  0.00     0.009 A 
ATOM     81  C   UNL A   1      48.222  26.322  32.430  1.00  0.00     0.001 A 
ATOM     82  C   UNL A   1      46.981  24.796  33.831  1.00  0.00     0.001 A 
ATOM     83  C   UNL A   1      48.156  25.137  33.163  1.00  0.00     0.000 A 
ENDBRANCH  65  78
ENDBRANCH  39  40
ENDBRANCH  32  34
ENDBRANCH  31  32
ENDBRANCH  30  31
ENDBRANCH  29  30
ENDBRANCH  28  29
ENDBRANCH  27  28
ENDBRANCH   1  27
TORSDOF 20
ENDMDL
MODEL 2
REMARK VINA RESULT:      -9.4      2.674      4.547
REMARK SMILES CC(C)Cc1cc2c(cc1Cl)C=C(C(=O)OCCOCCOCCOC(=O)c1ccc(-c3c4nc(c(-c5ccccc5)c5ccc([nH]5)c(-c5ccccc5)c5nc(c(-c6ccccc6)c6ccc3[nH]6)C=C5)C=C4)cc1)[C@H](C(F)(F)F)O2
REMARK SMILES IDX 20 1 19 2 18 3 17 4 16 5 14 6 15 7 13 8 5 9 6 10 10 11 7 12
REMARK SMILES IDX 9 13 11 14 8 15 81 16 12 17 76 18 4 19 2 20 1 21 3 22 77 23
REMARK SMILES IDX 78 24 79 25 80 26 21 27 22 28 23 29 24 30 25 31 26 32 27 33
REMARK SMILES IDX 28 34 29 35 75 36 30 37 74 38 31 39 32 40 33 41 68 42 34 43
REMARK SMILES IDX 73 44 67 45 69 46 35 47 72 48 66 49 65 50 36 52 58 53 43 54
REMARK SMILES IDX 57 55 44 56 47 57 56 58 70 59 45 60 46 61 55 63 71 64 48 65
REMARK SMILES IDX 37 66 38 67 42 68 39 69 41 70 40 71 59 72 60 73 64 74 61 75
REMARK SMILES IDX 63 76 62 77 49 78 50 79 54 80 51 81 53 82 52 83
REMARK H PARENT 69 51 47 62
REMARK Flexibility Score: inf
ROOT
ATOM      1  C   UNL A   1      34.111  30.123  26.953  1.00  0.00     0.188 C 
ENDROOT
BRANCH   1   2
ATOM      2  O   UNL A   1      33.113  29.137  27.044  1.00  0.00    -0.376 OA
BRANCH   2   3
ATOM      3  C   UNL A   1      31.834  29.325  26.464  1.00  0.00     0.202 C 
BRANCH   3   4
ATOM      4  C   UNL A   1      31.547  29.762  25.014  1.00  0.00     0.261 C 
BRANCH   4   5
ATOM      5  O   UNL A   1      31.626  28.768  23.990  1.00  0.00    -0.460 OA
BRANCH   5   6
ATOM      6  C   UNL A   1      32.860  28.541  23.489  1.00  0.00     0.338 C 
ATOM      7  O   UNL A   1      33.689  29.385  23.186  1.00  0.00    -0.246 OA
BRANCH   6   8
ATOM      8  C   UNL A   1      33.152  27.099  23.490  1.00  0.00     0.087 C 
ATOM      9  C   UNL A   1      34.920  22.568  24.741  1.00  0.00    -0.025 A 
ATOM     10  C   UNL A   1      34.791  23.289  23.540  1.00  0.00     0.052 A 
ATOM     11  C   UNL A   1      34.497  23.177  25.933  1.00  0.00     0.045 A 
ATOM     12  C   UNL A   1      34.250  24.572  23.527  1.00  0.00     0.128 A 
ATOM     13  C   UNL A   1      33.975  24.477  25.923  1.00  0.00     0.032 A 
ATOM     14  Cl  UNL A   1      34.622  22.383  27.463  1.00  0.00    -0.084 Cl
ATOM     15  C   UNL A   1      33.851  25.175  24.719  1.00  0.00     0.019 A 
ATOM     16  O   UNL A   1      34.212  25.207  22.314  1.00  0.00    -0.475 OA
ATOM     17  C   UNL A   1      33.400  26.557  24.691  1.00  0.00     0.027 C 
ATOM     18  C   UNL A   1      33.313  26.348  22.193  1.00  0.00     0.316 C 
BRANCH   9  19
ATOM     19  C   UNL A   1      35.510  21.176  24.679  1.00  0.00     0.040 C 
BRANCH  19  20
ATOM     20  C   UNL A   1      37.048  21.139  24.564  1.00  0.00    -0.013 C 
ATOM     21  C   UNL A   1      37.734  22.176  25.460  1.00  0.00     0.008 C 
ATOM     22  C   UNL A   1      37.552  19.742  24.935  1.00  0.00     0.008 C 
ENDBRANCH  19  20
ENDBRANCH   9  19
BRANCH  18  23
ATOM     23  C   UNL A   1      32.011  25.882  21.511  1.00  0.00     0.430 C 
ATOM     24  F   UNL A   1      32.185  25.618  20.197  1.00  0.00    -0.167 F 
ATOM     25  F   UNL A   1      31.495  24.783  22.102  1.00  0.00    -0.167 F 
ATOM     26  F   UNL A   1      31.055  26.842  21.601  1.00  0.00    -0.167 F 
ENDBRANCH  18  23
ENDBRANCH   6   8
ENDBRANCH   5   6
ENDBRANCH   4   5
ENDBRANCH   3   4
ENDBRANCH   2   3
ENDBRANCH   1   2
BRANCH   1  27
ATOM     27  C   UNL A   1      34.248  31.099  28.137  1.00  0.00     0.188 C 
BRANCH  27  28
ATOM     28  O   UNL A   1      33.731  32.414  28.061  1.00  0.00    -0.376 OA
BRANCH  28  29
ATOM     29  C   UNL A   1      34.623  33.518  28.045  1.00  0.00     0.202 C 
BRANCH  29  30
ATOM     30  C   UNL A   1      35.187  34.094  29.353  1.00  0.00     0.261 C 
BRANCH  30  31
ATOM     31  O   UNL A   1      36.100  33.233  30.046  1.00  0.00    -0.460 OA
BRANCH  31  32
ATOM     32  C   UNL A   1      35.671  32.778  31.253  1.00  0.00     0.338 C 
ATOM     33  O   UNL A   1      34.529  32.593  31.617  1.00  0.00    -0.246 OA
BRANCH  32  34
ATOM     34  C   UNL A   1      36.853  32.338  32.021  1.00  0.00     0.060 A 
ATOM     35  C   UNL A   1      38.136  32.516  31.504  1.00  0.00     0.016 A 
ATOM     36  C   UNL A   1      36.662  31.737  33.274  1.00  0.00     0.016 A 
ATOM     37  C   UNL A   1      39.235  32.108  32.260  1.00  0.00     0.010 A 
ATOM     38  C   UNL A   1      37.762  31.312  34.019  1.00  0.00     0.010 A 
ATOM     39  C   UNL A   1      39.057  31.520  33.527  1.00  0.00    -0.014 A 
BRANCH  39  40
ATOM     40  C   UNL A   1      40.232  31.328  34.407  1.00  0.00     0.031 A 
ATOM     41  C   UNL A   1      40.744  32.407  35.307  1.00  0.00     0.074 A 
ATOM     42  C   UNL A   1      40.827  30.121  34.385  1.00  0.00     0.049 A 
ATOM     43  N   UNL A   1      41.663  32.323  36.235  1.00  0.00    -0.248 NA
ATOM     44  C   UNL A   1      40.165  33.748  35.147  1.00  0.00     0.031 C 
ATOM     45  C   UNL A   1      40.427  29.011  33.517  1.00  0.00     0.029 A 
ATOM     46  N   UNL A   1      41.869  29.615  35.119  1.00  0.00    -0.354 N 
ATOM     47  C   UNL A   1      41.757  33.590  36.792  1.00  0.00     0.074 A 
ATOM     48  C   UNL A   1      40.837  34.439  36.062  1.00  0.00     0.031 C 
ATOM     49  C   UNL A   1      41.181  27.941  33.803  1.00  0.00     0.029 A 
ATOM     50  C   UNL A   1      42.136  28.295  34.849  1.00  0.00     0.049 A 
ATOM     51  H   UNL A   1      42.374  30.146  35.777  1.00  0.00     0.167 HD
ATOM     52  C   UNL A   1      42.529  33.992  37.830  1.00  0.00     0.031 A 
ATOM     53  C   UNL A   1      43.037  27.453  35.389  1.00  0.00     0.031 A 
ATOM     54  C   UNL A   1      43.459  33.136  38.528  1.00  0.00     0.049 A 
ATOM     55  C   UNL A   1      43.906  27.938  36.513  1.00  0.00     0.074 A 
ATOM     56  C   UNL A   1      44.245  33.443  39.626  1.00  0.00     0.029 A 
ATOM     57  N   UNL A   1      43.743  31.821  38.191  1.00  0.00    -0.354 N 
ATOM     58  N   UNL A   1      43.911  29.109  37.103  1.00  0.00    -0.248 NA
ATOM     59  C   UNL A   1      44.880  26.984  37.061  1.00  0.00     0.031 C 
ATOM     60  C   UNL A   1      45.063  32.346  39.900  1.00  0.00     0.029 A 
ATOM     61  C   UNL A   1      44.725  31.321  39.032  1.00  0.00     0.049 A 
ATOM     62  H   UNL A   1      43.312  31.319  37.463  1.00  0.00     0.167 HD
ATOM     63  C   UNL A   1      44.873  29.029  38.101  1.00  0.00     0.074 A 
ATOM     64  C   UNL A   1      45.412  27.685  38.053  1.00  0.00     0.031 C 
ATOM     65  C   UNL A   1      45.270  29.986  38.974  1.00  0.00     0.031 A 
BRANCH  52  66
ATOM     66  C   UNL A   1      42.410  35.416  38.304  1.00  0.00    -0.014 A 
ATOM     67  C   UNL A   1      43.270  36.401  37.790  1.00  0.00     0.009 A 
ATOM     68  C   UNL A   1      41.550  35.755  39.360  1.00  0.00     0.009 A 
ATOM     69  C   UNL A   1      43.291  37.685  38.340  1.00  0.00     0.001 A 
ATOM     70  C   UNL A   1      41.550  37.049  39.888  1.00  0.00     0.001 A 
ATOM     71  C   UNL A   1      42.429  38.008  39.387  1.00  0.00     0.000 A 
ENDBRANCH  52  66
BRANCH  53  72
ATOM     72  C   UNL A   1      43.106  26.055  34.892  1.00  0.00    -0.014 A 
ATOM     73  C   UNL A   1      42.320  25.049  35.483  1.00  0.00     0.009 A 
ATOM     74  C   UNL A   1      44.010  25.700  33.881  1.00  0.00     0.009 A 
ATOM     75  C   UNL A   1      42.463  23.716  35.094  1.00  0.00     0.001 A 
ATOM     76  C   UNL A   1      44.124  24.370  33.469  1.00  0.00     0.001 A 
ATOM     77  C   UNL A   1      43.361  23.378  34.085  1.00  0.00     0.000 A 
ENDBRANCH  53  72
BRANCH  65  78
ATOM     78  C   UNL A   1      46.353  29.636  39.961  1.00  0.00    -0.014 A 
ATOM     79  C   UNL A   1      47.703  29.808  39.610  1.00  0.00     0.009 A 
ATOM     80  C   UNL A   1      46.045  29.034  41.191  1.00  0.00     0.009 A 
ATOM     81  C   UNL A   1      48.719  29.363  40.456  1.00  0.00     0.001 A 
ATOM     82  C   UNL A   1      47.065  28.623  42.053  1.00  0.00     0.001 A 
ATOM     83  C   UNL A   1      48.400  28.775  41.679  1.00  0.00     0.000 A 
ENDBRANCH  65  78
ENDBRANCH  39  40
ENDBRANCH  32  34
ENDBRANCH  31  32
ENDBRANCH  30  31
ENDBRANCH  29  30
ENDBRANCH  28  29
ENDBRANCH  27  28
ENDBRANCH   1  27
TORSDOF 20
ENDMDL
MODEL 3
REMARK VINA RESULT:      -9.3      4.011      7.351
REMARK SMILES CC(C)Cc1cc2c(cc1Cl)C=C(C(=O)OCCOCCOCCOC(=O)c1ccc(-c3c4nc(c(-c5ccccc5)c5ccc([nH]5)c(-c5ccccc5)c5nc(c(-c6ccccc6)c6ccc3[nH]6)C=C5)C=C4)cc1)[C@H](C(F)(F)F)O2
REMARK SMILES IDX 20 1 19 2 18 3 17 4 16 5 14 6 15 7 13 8 5 9 6 10 10 11 7 12
REMARK SMILES IDX 9 13 11 14 8 15 81 16 12 17 76 18 4 19 2 20 1 21 3 22 77 23
REMARK SMILES IDX 78 24 79 25 80 26 21 27 22 28 23 29 24 30 25 31 26 32 27 33
REMARK SMILES IDX 28 34 29 35 75 36 30 37 74 38 31 39 32 40 33 41 68 42 34 43
REMARK SMILES IDX 73 44 67 45 69 46 35 47 72 48 66 49 65 50 36 52 58 53 43 54
REMARK SMILES IDX 57 55 44 56 47 57 56 58 70 59 45 60 46 61 55 63 71 64 48 65
REMARK SMILES IDX 37 66 38 67 42 68 39 69 41 70 40 71 59 72 60 73 64 74 61 75
REMARK SMILES IDX 63 76 62 77 49 78 50 79 54 80 51 81 53 82 52 83
REMARK H PARENT 69 51 47 62
REMARK Flexibility Score: inf
ROOT
ATOM      1  C   UNL A   1      34.036  32.498  27.802  1.00  0.00     0.188 C 
ENDROOT
BRANCH   1   2
ATOM      2  O   UNL A   1      34.318  31.123  27.733  1.00  0.00    -0.376 OA
BRANCH   2   3
ATOM      3  C   UNL A   1      33.510  30.241  26.973  1.00  0.00     0.202 C 
BRANCH   3   4
ATOM      4  C   UNL A   1      34.009  29.075  26.096  1.00  0.00     0.261 C 
BRANCH   4   5
ATOM      5  O   UNL A   1      33.120  28.557  25.105  1.00  0.00    -0.460 OA
BRANCH   5   6
ATOM      6  C   UNL A   1      33.706  28.087  23.983  1.00  0.00     0.338 C 
ATOM      7  O   UNL A   1      34.379  28.728  23.190  1.00  0.00    -0.246 OA
BRANCH   6   8
ATOM      8  C   UNL A   1      33.554  26.626  23.901  1.00  0.00     0.087 C 
ATOM      9  C   UNL A   1      33.941  21.708  24.840  1.00  0.00    -0.025 A 
ATOM     10  C   UNL A   1      33.979  22.506  23.682  1.00  0.00     0.052 A 
ATOM     11  C   UNL A   1      33.775  22.341  26.082  1.00  0.00     0.045 A 
ATOM     12  C   UNL A   1      33.846  23.890  23.759  1.00  0.00     0.128 A 
ATOM     13  C   UNL A   1      33.666  23.736  26.161  1.00  0.00     0.032 A 
ATOM     14  Cl  UNL A   1      33.727  21.455  27.564  1.00  0.00    -0.084 Cl
ATOM     15  C   UNL A   1      33.701  24.511  24.999  1.00  0.00     0.019 A 
ATOM     16  O   UNL A   1      33.944  24.580  22.580  1.00  0.00    -0.475 OA
ATOM     17  C   UNL A   1      33.683  25.963  25.060  1.00  0.00     0.027 C 
ATOM     18  C   UNL A   1      33.422  25.941  22.565  1.00  0.00     0.316 C 
BRANCH   9  19
ATOM     19  C   UNL A   1      34.085  20.210  24.680  1.00  0.00     0.040 C 
BRANCH  19  20
ATOM     20  C   UNL A   1      32.747  19.446  24.597  1.00  0.00    -0.013 C 
ATOM     21  C   UNL A   1      32.403  19.008  23.170  1.00  0.00     0.008 C 
ATOM     22  C   UNL A   1      32.809  18.212  25.501  1.00  0.00     0.008 C 
ENDBRANCH  19  20
ENDBRANCH   9  19
BRANCH  18  23
ATOM     23  C   UNL A   1      32.011  25.924  21.946  1.00  0.00     0.430 C 
ATOM     24  F   UNL A   1      31.985  25.304  20.744  1.00  0.00    -0.167 F 
ATOM     25  F   UNL A   1      31.110  25.324  22.753  1.00  0.00    -0.167 F 
ATOM     26  F   UNL A   1      31.559  27.189  21.751  1.00  0.00    -0.167 F 
ENDBRANCH  18  23
ENDBRANCH   6   8
ENDBRANCH   5   6
ENDBRANCH   4   5
ENDBRANCH   3   4
ENDBRANCH   2   3
ENDBRANCH   1   2
BRANCH   1  27
ATOM     27  C   UNL A   1      35.216  33.445  28.091  1.00  0.00     0.188 C 
BRANCH  27  28
ATOM     28  O   UNL A   1      35.298  34.158  29.311  1.00  0.00    -0.376 OA
BRANCH  28  29
ATOM     29  C   UNL A   1      36.016  33.601  30.402  1.00  0.00     0.202 C 
BRANCH  29  30
ATOM     30  C   UNL A   1      35.653  32.217  30.958  1.00  0.00     0.261 C 
BRANCH  30  31
ATOM     31  O   UNL A   1      36.345  31.121  30.346  1.00  0.00    -0.460 OA
BRANCH  31  32
ATOM     32  C   UNL A   1      36.769  30.149  31.197  1.00  0.00     0.338 C 
ATOM     33  O   UNL A   1      36.193  29.707  32.168  1.00  0.00    -0.246 OA
BRANCH  32  34
ATOM     34  C   UNL A   1      37.993  29.549  30.630  1.00  0.00     0.060 A 
ATOM     35  C   UNL A   1      38.370  29.822  29.316  1.00  0.00     0.016 A 
ATOM     36  C   UNL A   1      38.766  28.698  31.435  1.00  0.00     0.016 A 
ATOM     37  C   UNL A   1      39.542  29.257  28.813  1.00  0.00     0.010 A 
ATOM     38  C   UNL A   1      39.927  28.118  30.924  1.00  0.00     0.010 A 
ATOM     39  C   UNL A   1      40.335  28.416  29.618  1.00  0.00    -0.014 A 
BRANCH  39  40
ATOM     40  C   UNL A   1      41.688  28.035  29.151  1.00  0.00     0.031 A 
ATOM     41  C   UNL A   1      41.994  26.677  28.605  1.00  0.00     0.074 A 
ATOM     42  C   UNL A   1      42.650  28.975  29.217  1.00  0.00     0.049 A 
ATOM     43  N   UNL A   1      43.091  26.264  28.022  1.00  0.00    -0.248 NA
ATOM     44  C   UNL A   1      40.950  25.650  28.730  1.00  0.00     0.031 C 
ATOM     45  C   UNL A   1      42.463  30.320  29.766  1.00  0.00     0.029 A 
ATOM     46  N   UNL A   1      43.957  28.957  28.806  1.00  0.00    -0.354 N 
ATOM     47  C   UNL A   1      42.866  24.937  27.685  1.00  0.00     0.074 A 
ATOM     48  C   UNL A   1      41.544  24.599  28.174  1.00  0.00     0.031 C 
ATOM     49  C   UNL A   1      43.598  31.014  29.612  1.00  0.00     0.029 A 
ATOM     50  C   UNL A   1      44.601  30.158  28.985  1.00  0.00     0.049 A 
ATOM     51  H   UNL A   1      44.391  28.163  28.418  1.00  0.00     0.167 HD
ATOM     52  C   UNL A   1      43.685  24.095  27.011  1.00  0.00     0.031 A 
ATOM     53  C   UNL A   1      45.852  30.539  28.668  1.00  0.00     0.031 A 
ATOM     54  C   UNL A   1      45.009  24.444  26.555  1.00  0.00     0.049 A 
ATOM     55  C   UNL A   1      46.752  29.570  27.955  1.00  0.00     0.074 A 
ATOM     56  C   UNL A   1      45.890  23.671  25.817  1.00  0.00     0.029 A 
ATOM     57  N   UNL A   1      45.648  25.649  26.803  1.00  0.00    -0.354 N 
ATOM     58  N   UNL A   1      46.490  28.353  27.547  1.00  0.00    -0.248 NA
ATOM     59  C   UNL A   1      48.111  30.031  27.642  1.00  0.00     0.031 C 
ATOM     60  C   UNL A   1      47.090  24.374  25.692  1.00  0.00     0.029 A 
ATOM     61  C   UNL A   1      46.929  25.622  26.272  1.00  0.00     0.049 A 
ATOM     62  H   UNL A   1      45.252  26.410  27.284  1.00  0.00     0.167 HD
ATOM     63  C   UNL A   1      47.642  27.907  26.913  1.00  0.00     0.074 A 
ATOM     64  C   UNL A   1      48.596  28.995  26.970  1.00  0.00     0.031 C 
ATOM     65  C   UNL A   1      47.882  26.702  26.341  1.00  0.00     0.031 A 
BRANCH  52  66
ATOM     66  C   UNL A   1      43.190  22.707  26.701  1.00  0.00    -0.014 A 
ATOM     67  C   UNL A   1      42.460  21.991  27.665  1.00  0.00     0.009 A 
ATOM     68  C   UNL A   1      43.568  22.055  25.518  1.00  0.00     0.009 A 
ATOM     69  C   UNL A   1      42.143  20.645  27.462  1.00  0.00     0.001 A 
ATOM     70  C   UNL A   1      43.222  20.717  25.304  1.00  0.00     0.001 A 
ATOM     71  C   UNL A   1      42.522  20.011  26.281  1.00  0.00     0.000 A 
ENDBRANCH  52  66
BRANCH  53  72
ATOM     72  C   UNL A   1      46.288  31.923  28.987  1.00  0.00    -0.014 A 
ATOM     73  C   UNL A   1      46.821  32.229  30.252  1.00  0.00     0.009 A 
ATOM     74  C   UNL A   1      46.105  32.960  28.062  1.00  0.00     0.009 A 
ATOM     75  C   UNL A   1      47.128  33.547  30.593  1.00  0.00     0.001 A 
ATOM     76  C   UNL A   1      46.447  34.274  28.394  1.00  0.00     0.001 A 
ATOM     77  C   UNL A   1      46.945  34.568  29.663  1.00  0.00     0.000 A 
ENDBRANCH  53  72
BRANCH  65  78
ATOM     78  C   UNL A   1      49.236  26.472  25.724  1.00  0.00    -0.014 A 
ATOM     79  C   UNL A   1      50.242  25.825  26.463  1.00  0.00     0.009 A 
ATOM     80  C   UNL A   1      49.555  26.991  24.459  1.00  0.00     0.009 A 
ATOM     81  C   UNL A   1      51.540  25.724  25.961  1.00  0.00     0.001 A 
ATOM     82  C   UNL A   1      50.846  26.855  23.944  1.00  0.00     0.001 A 
ATOM     83  C   UNL A   1      51.840  26.235  24.700  1.00  0.00     0.000 A 
ENDBRANCH  65  78
ENDBRANCH  39  40
ENDBRANCH  32  34
ENDBRANCH  31  32
ENDBRANCH  30  31
ENDBRANCH  29  30
ENDBRANCH  28  29
ENDBRANCH  27  28
ENDBRANCH   1  27
TORSDOF 20
ENDMDL
