MODEL 1
REMARK VINA RESULT:     -10.5      0.000      0.000
REMARK SMILES C[N@@H+]1[C@H]2CC[C@@H]1[C@@H](C(=O)OCCOCCOCCOC(=O)c1ccc(-c3c4nc(c(-c5ccccc5)c5ccc([nH]5)c(-c5ccccc5)c5nc(c(-c6ccccc6)c6ccc3[nH]6)C=C5)C=C4)cc1)[C@@H](OC(=O)c1ccccc1)C2
REMARK SMILES IDX 14 1 13 2 12 3 11 4 10 5 8 6 9 7 7 8 1 9 2 10 3 11 6 12 4 14
REMARK SMILES IDX 80 15 5 16 70 17 71 18 72 19 73 20 74 21 75 22 79 23 76 24
REMARK SMILES IDX 78 25 77 26 15 27 16 28 17 29 18 30 19 31 20 32 21 33 22 34
REMARK SMILES IDX 23 35 69 36 24 37 68 38 25 39 26 40 27 41 62 42 28 43 67 44
REMARK SMILES IDX 61 45 63 46 29 47 66 48 60 49 59 50 30 52 52 53 37 54 51 55
REMARK SMILES IDX 38 56 41 57 50 58 64 59 39 60 40 61 49 63 65 64 42 65 31 66
REMARK SMILES IDX 32 67 36 68 33 69 35 70 34 71 53 72 54 73 58 74 55 75 57 76
REMARK SMILES IDX 56 77 43 78 44 79 48 80 45 81 47 82 46 83
REMARK H PARENT 2 13 63 51 41 62
REMARK Flexibility Score: inf
ROOT
ATOM      1  C   UNL A   1      39.774  21.698  26.102  1.00  0.00     0.188 C 
ENDROOT
BRANCH   1   2
ATOM      2  O   UNL A   1      38.363  21.824  26.099  1.00  0.00    -0.376 OA
BRANCH   2   3
ATOM      3  C   UNL A   1      37.646  21.458  24.912  1.00  0.00     0.202 C 
BRANCH   3   4
ATOM      4  C   UNL A   1      36.154  21.077  24.998  1.00  0.00     0.261 C 
BRANCH   4   5
ATOM      5  O   UNL A   1      35.283  22.133  25.515  1.00  0.00    -0.463 OA
BRANCH   5   6
ATOM      6  C   UNL A   1      34.936  23.101  24.639  1.00  0.00     0.318 C 
ATOM      7  O   UNL A   1      35.649  24.090  24.439  1.00  0.00    -0.252 OA
BRANCH   6   8
ATOM      8  C   UNL A   1      33.568  23.037  23.946  1.00  0.00     0.198 C 
ATOM      9  C   UNL A   1      32.914  24.961  26.236  1.00  0.00     0.333 C 
ATOM     10  N   UNL A   1      32.399  25.079  24.885  1.00  0.00    -0.332 N 
ATOM     11  C   UNL A   1      31.112  24.440  24.641  1.00  0.00     0.188 C 
ATOM     12  C   UNL A   1      33.245  24.563  23.804  1.00  0.00     0.202 C 
ATOM     13  H   UNL A   1      32.343  26.097  24.853  1.00  0.00     0.348 HD
ATOM     14  C   UNL A   1      30.935  24.775  23.151  1.00  0.00     0.071 C 
ATOM     15  C   UNL A   1      31.146  22.928  24.914  1.00  0.00     0.111 C 
ATOM     16  C   UNL A   1      32.355  24.861  22.595  1.00  0.00     0.072 C 
ATOM     17  C   UNL A   1      32.249  22.148  24.177  1.00  0.00     0.203 C 
BRANCH  17  18
ATOM     18  O   UNL A   1      32.334  20.729  24.645  1.00  0.00    -0.457 OA
BRANCH  18  19
ATOM     19  C   UNL A   1      32.493  19.672  23.743  1.00  0.00     0.338 C 
ATOM     20  O   UNL A   1      32.218  19.724  22.550  1.00  0.00    -0.246 OA
BRANCH  19  21
ATOM     21  C   UNL A   1      33.032  18.350  24.272  1.00  0.00     0.060 A 
ATOM     22  C   UNL A   1      34.042  17.653  23.590  1.00  0.00     0.015 A 
ATOM     23  C   UNL A   1      32.536  17.771  25.459  1.00  0.00     0.015 A 
ATOM     24  C   UNL A   1      34.384  16.336  23.958  1.00  0.00     0.001 A 
ATOM     25  C   UNL A   1      32.851  16.439  25.803  1.00  0.00     0.001 A 
ATOM     26  C   UNL A   1      33.750  15.710  25.030  1.00  0.00     0.000 A 
ENDBRANCH  19  21
ENDBRANCH  18  19
ENDBRANCH  17  18
ENDBRANCH   6   8
ENDBRANCH   5   6
ENDBRANCH   4   5
ENDBRANCH   3   4
ENDBRANCH   2   3
ENDBRANCH   1   2
BRANCH   1  27
ATOM     27  C   UNL A   1      40.319  20.285  26.151  1.00  0.00     0.188 C 
BRANCH  27  28
ATOM     28  O   UNL A   1      41.593  20.193  26.740  1.00  0.00    -0.376 OA
BRANCH  28  29
ATOM     29  C   UNL A   1      42.752  19.892  25.993  1.00  0.00     0.202 C 
BRANCH  29  30
ATOM     30  C   UNL A   1      43.474  20.975  25.195  1.00  0.00     0.261 C 
BRANCH  30  31
ATOM     31  O   UNL A   1      42.892  22.298  25.075  1.00  0.00    -0.460 OA
BRANCH  31  32
ATOM     32  C   UNL A   1      43.676  23.392  25.190  1.00  0.00     0.338 C 
ATOM     33  O   UNL A   1      44.405  23.879  24.358  1.00  0.00    -0.246 OA
BRANCH  32  34
ATOM     34  C   UNL A   1      43.306  24.234  26.321  1.00  0.00     0.060 A 
ATOM     35  C   UNL A   1      43.689  25.587  26.214  1.00  0.00     0.016 A 
ATOM     36  C   UNL A   1      42.539  23.765  27.378  1.00  0.00     0.016 A 
ATOM     37  C   UNL A   1      43.314  26.485  27.185  1.00  0.00     0.010 A 
ATOM     38  C   UNL A   1      42.142  24.673  28.343  1.00  0.00     0.010 A 
ATOM     39  C   UNL A   1      42.532  26.020  28.240  1.00  0.00    -0.014 A 
BRANCH  39  40
ATOM     40  C   UNL A   1      42.108  26.961  29.273  1.00  0.00     0.031 A 
ATOM     41  C   UNL A   1      42.880  27.006  30.544  1.00  0.00     0.074 A 
ATOM     42  C   UNL A   1      41.014  27.700  29.032  1.00  0.00     0.049 A 
ATOM     43  N   UNL A   1      42.605  27.645  31.644  1.00  0.00    -0.248 NA
ATOM     44  C   UNL A   1      44.120  26.207  30.593  1.00  0.00     0.031 C 
ATOM     45  C   UNL A   1      40.255  27.705  27.775  1.00  0.00     0.029 A 
ATOM     46  N   UNL A   1      40.345  28.574  29.833  1.00  0.00    -0.354 N 
ATOM     47  C   UNL A   1      43.624  27.315  32.525  1.00  0.00     0.074 A 
ATOM     48  C   UNL A   1      44.507  26.395  31.846  1.00  0.00     0.031 C 
ATOM     49  C   UNL A   1      39.214  28.542  27.899  1.00  0.00     0.029 A 
ATOM     50  C   UNL A   1      39.210  29.080  29.251  1.00  0.00     0.049 A 
ATOM     51  H   UNL A   1      40.644  28.818  30.738  1.00  0.00     0.167 HD
ATOM     52  C   UNL A   1      43.789  27.758  33.791  1.00  0.00     0.031 A 
ATOM     53  C   UNL A   1      38.261  29.866  29.785  1.00  0.00     0.031 A 
ATOM     54  C   UNL A   1      42.859  28.652  34.425  1.00  0.00     0.049 A 
ATOM     55  C   UNL A   1      38.440  30.284  31.215  1.00  0.00     0.074 A 
ATOM     56  C   UNL A   1      42.895  29.178  35.702  1.00  0.00     0.029 A 
ATOM     57  N   UNL A   1      41.713  29.149  33.814  1.00  0.00    -0.354 N 
ATOM     58  N   UNL A   1      39.411  29.984  32.047  1.00  0.00    -0.248 NA
ATOM     59  C   UNL A   1      37.403  31.152  31.778  1.00  0.00     0.031 C 
ATOM     60  C   UNL A   1      41.743  29.951  35.879  1.00  0.00     0.029 A 
ATOM     61  C   UNL A   1      41.023  29.962  34.693  1.00  0.00     0.049 A 
ATOM     62  H   UNL A   1      41.434  28.950  32.891  1.00  0.00     0.167 HD
ATOM     63  C   UNL A   1      39.121  30.655  33.225  1.00  0.00     0.074 A 
ATOM     64  C   UNL A   1      37.892  31.390  32.986  1.00  0.00     0.031 C 
ATOM     65  C   UNL A   1      39.800  30.669  34.399  1.00  0.00     0.031 A 
BRANCH  52  66
ATOM     66  C   UNL A   1      44.981  27.254  34.554  1.00  0.00    -0.014 A 
ATOM     67  C   UNL A   1      46.205  27.944  34.535  1.00  0.00     0.009 A 
ATOM     68  C   UNL A   1      44.880  26.079  35.314  1.00  0.00     0.009 A 
ATOM     69  C   UNL A   1      47.307  27.453  35.237  1.00  0.00     0.001 A 
ATOM     70  C   UNL A   1      45.975  25.606  36.039  1.00  0.00     0.001 A 
ATOM     71  C   UNL A   1      47.190  26.288  35.995  1.00  0.00     0.000 A 
ENDBRANCH  52  66
BRANCH  53  72
ATOM     72  C   UNL A   1      37.092  30.291  28.974  1.00  0.00    -0.014 A 
ATOM     73  C   UNL A   1      36.203  29.335  28.458  1.00  0.00     0.009 A 
ATOM     74  C   UNL A   1      36.845  31.649  28.720  1.00  0.00     0.009 A 
ATOM     75  C   UNL A   1      35.114  29.729  27.678  1.00  0.00     0.001 A 
ATOM     76  C   UNL A   1      35.736  32.042  27.968  1.00  0.00     0.001 A 
ATOM     77  C   UNL A   1      34.879  31.082  27.437  1.00  0.00     0.000 A 
ENDBRANCH  53  72
BRANCH  65  78
ATOM     78  C   UNL A   1      39.239  31.544  35.480  1.00  0.00    -0.014 A 
ATOM     79  C   UNL A   1      38.275  31.064  36.379  1.00  0.00     0.009 A 
ATOM     80  C   UNL A   1      39.709  32.860  35.612  1.00  0.00     0.009 A 
ATOM     81  C   UNL A   1      37.758  31.904  37.366  1.00  0.00     0.001 A 
ATOM     82  C   UNL A   1      39.218  33.684  36.623  1.00  0.00     0.001 A 
ATOM     83  C   UNL A   1      38.235  33.209  37.490  1.00  0.00     0.000 A 
ENDBRANCH  65  78
ENDBRANCH  39  40
ENDBRANCH  32  34
ENDBRANCH  31  32
ENDBRANCH  30  31
ENDBRANCH  29  30
ENDBRANCH  28  29
ENDBRANCH  27  28
ENDBRANCH   1  27
TORSDOF 20
ENDMDL
MODEL 2
REMARK VINA RESULT:     -10.4      1.642      3.607
REMARK SMILES C[N@@H+]1[C@H]2CC[C@@H]1[C@@H](C(=O)OCCOCCOCCOC(=O)c1ccc(-c3c4nc(c(-c5ccccc5)c5ccc([nH]5)c(-c5ccccc5)c5nc(c(-c6ccccc6)c6ccc3[nH]6)C=C5)C=C4)cc1)[C@@H](OC(=O)c1ccccc1)C2
REMARK SMILES IDX 14 1 13 2 12 3 11 4 10 5 8 6 9 7 7 8 1 9 2 10 3 11 6 12 4 14
REMARK SMILES IDX 80 15 5 16 70 17 71 18 72 19 73 20 74 21 75 22 79 23 76 24
REMARK SMILES IDX 78 25 77 26 15 27 16 28 17 29 18 30 19 31 20 32 21 33 22 34
REMARK SMILES IDX 23 35 69 36 24 37 68 38 25 39 26 40 27 41 62 42 28 43 67 44
REMARK SMILES IDX 61 45 63 46 29 47 66 48 60 49 59 50 30 52 52 53 37 54 51 55
REMARK SMILES IDX 38 56 41 57 50 58 64 59 39 60 40 61 49 63 65 64 42 65 31 66
REMARK SMILES IDX 32 67 36 68 33 69 35 70 34 71 53 72 54 73 58 74 55 75 57 76
REMARK SMILES IDX 56 77 43 78 44 79 48 80 45 81 47 82 46 83
REMARK H PARENT 2 13 63 51 41 62
REMARK Flexibility Score: inf
ROOT
ATOM      1  C   UNL A   1      39.608  21.836  26.554  1.00  0.00     0.188 C 
ENDROOT
BRANCH   1   2
ATOM      2  O   UNL A   1      38.946  21.394  25.382  1.00  0.00    -0.376 OA
BRANCH   2   3
ATOM      3  C   UNL A   1      37.714  22.027  25.013  1.00  0.00     0.202 C 
BRANCH   3   4
ATOM      4  C   UNL A   1      37.270  23.325  25.719  1.00  0.00     0.261 C 
BRANCH   4   5
ATOM      5  O   UNL A   1      35.981  23.853  25.273  1.00  0.00    -0.463 OA
BRANCH   5   6
ATOM      6  C   UNL A   1      34.940  23.671  26.113  1.00  0.00     0.318 C 
ATOM      7  O   UNL A   1      35.072  23.121  27.212  1.00  0.00    -0.252 OA
BRANCH   6   8
ATOM      8  C   UNL A   1      33.526  24.055  25.657  1.00  0.00     0.198 C 
ATOM      9  C   UNL A   1      33.293  21.003  25.593  1.00  0.00     0.333 C 
ATOM     10  N   UNL A   1      32.242  21.903  26.029  1.00  0.00    -0.332 N 
ATOM     11  C   UNL A   1      31.290  22.306  25.003  1.00  0.00     0.188 C 
ATOM     12  C   UNL A   1      32.661  23.176  26.623  1.00  0.00     0.202 C 
ATOM     13  H   UNL A   1      31.826  21.289  26.730  1.00  0.00     0.348 HD
ATOM     14  C   UNL A   1      30.384  23.227  25.837  1.00  0.00     0.071 C 
ATOM     15  C   UNL A   1      31.964  23.035  23.830  1.00  0.00     0.111 C 
ATOM     16  C   UNL A   1      31.297  23.801  26.919  1.00  0.00     0.072 C 
ATOM     17  C   UNL A   1      32.838  24.242  24.216  1.00  0.00     0.203 C 
BRANCH  17  18
ATOM     18  O   UNL A   1      33.607  24.769  23.046  1.00  0.00    -0.457 OA
BRANCH  18  19
ATOM     19  C   UNL A   1      33.398  26.065  22.560  1.00  0.00     0.338 C 
ATOM     20  O   UNL A   1      33.683  26.442  21.430  1.00  0.00    -0.246 OA
BRANCH  19  21
ATOM     21  C   UNL A   1      32.785  27.094  23.500  1.00  0.00     0.060 A 
ATOM     22  C   UNL A   1      31.418  27.404  23.445  1.00  0.00     0.015 A 
ATOM     23  C   UNL A   1      33.565  27.781  24.455  1.00  0.00     0.015 A 
ATOM     24  C   UNL A   1      30.897  28.503  24.158  1.00  0.00     0.001 A 
ATOM     25  C   UNL A   1      33.052  28.904  25.139  1.00  0.00     0.001 A 
ATOM     26  C   UNL A   1      31.726  29.286  24.961  1.00  0.00     0.000 A 
ENDBRANCH  19  21
ENDBRANCH  18  19
ENDBRANCH  17  18
ENDBRANCH   6   8
ENDBRANCH   5   6
ENDBRANCH   4   5
ENDBRANCH   3   4
ENDBRANCH   2   3
ENDBRANCH   1   2
BRANCH   1  27
ATOM     27  C   UNL A   1      40.677  20.915  27.106  1.00  0.00     0.188 C 
BRANCH  27  28
ATOM     28  O   UNL A   1      41.235  20.058  26.141  1.00  0.00    -0.376 OA
BRANCH  28  29
ATOM     29  C   UNL A   1      42.605  20.096  25.797  1.00  0.00     0.202 C 
BRANCH  29  30
ATOM     30  C   UNL A   1      43.401  21.396  25.890  1.00  0.00     0.261 C 
BRANCH  30  31
ATOM     31  O   UNL A   1      42.894  22.603  25.269  1.00  0.00    -0.460 OA
BRANCH  31  32
ATOM     32  C   UNL A   1      43.608  23.748  25.338  1.00  0.00     0.338 C 
ATOM     33  O   UNL A   1      44.281  24.261  24.475  1.00  0.00    -0.246 OA
BRANCH  32  34
ATOM     34  C   UNL A   1      43.215  24.590  26.461  1.00  0.00     0.060 A 
ATOM     35  C   UNL A   1      43.684  25.919  26.409  1.00  0.00     0.016 A 
ATOM     36  C   UNL A   1      42.353  24.150  27.455  1.00  0.00     0.016 A 
ATOM     37  C   UNL A   1      43.301  26.820  27.372  1.00  0.00     0.010 A 
ATOM     38  C   UNL A   1      41.949  25.062  28.412  1.00  0.00     0.010 A 
ATOM     39  C   UNL A   1      42.425  26.385  28.364  1.00  0.00    -0.014 A 
BRANCH  39  40
ATOM     40  C   UNL A   1      41.990  27.331  29.388  1.00  0.00     0.031 A 
ATOM     41  C   UNL A   1      42.766  27.402  30.655  1.00  0.00     0.074 A 
ATOM     42  C   UNL A   1      40.885  28.050  29.143  1.00  0.00     0.049 A 
ATOM     43  N   UNL A   1      42.485  28.049  31.749  1.00  0.00    -0.248 NA
ATOM     44  C   UNL A   1      44.018  26.623  30.709  1.00  0.00     0.031 C 
ATOM     45  C   UNL A   1      40.121  28.030  27.889  1.00  0.00     0.029 A 
ATOM     46  N   UNL A   1      40.205  28.924  29.937  1.00  0.00    -0.354 N 
ATOM     47  C   UNL A   1      43.512  27.745  32.630  1.00  0.00     0.074 A 
ATOM     48  C   UNL A   1      44.407  26.830  31.958  1.00  0.00     0.031 C 
ATOM     49  C   UNL A   1      39.067  28.853  28.007  1.00  0.00     0.029 A 
ATOM     50  C   UNL A   1      39.060  29.406  29.354  1.00  0.00     0.049 A 
ATOM     51  H   UNL A   1      40.504  29.182  30.838  1.00  0.00     0.167 HD
ATOM     52  C   UNL A   1      43.675  28.204  33.890  1.00  0.00     0.031 A 
ATOM     53  C   UNL A   1      38.102  30.184  29.881  1.00  0.00     0.031 A 
ATOM     54  C   UNL A   1      42.735  29.092  34.518  1.00  0.00     0.049 A 
ATOM     55  C   UNL A   1      38.279  30.621  31.307  1.00  0.00     0.074 A 
ATOM     56  C   UNL A   1      42.767  29.633  35.788  1.00  0.00     0.029 A 
ATOM     57  N   UNL A   1      41.579  29.564  33.906  1.00  0.00    -0.354 N 
ATOM     58  N   UNL A   1      39.258  30.345  32.138  1.00  0.00    -0.248 NA
ATOM     59  C   UNL A   1      37.232  31.480  31.864  1.00  0.00     0.031 C 
ATOM     60  C   UNL A   1      41.604  30.391  35.961  1.00  0.00     0.029 A 
ATOM     61  C   UNL A   1      40.880  30.377  34.778  1.00  0.00     0.049 A 
ATOM     62  H   UNL A   1      41.300  29.351  32.986  1.00  0.00     0.167 HD
ATOM     63  C   UNL A   1      38.963  31.025  33.310  1.00  0.00     0.074 A 
ATOM     64  C   UNL A   1      37.722  31.739  33.067  1.00  0.00     0.031 C 
ATOM     65  C   UNL A   1      39.646  31.062  34.480  1.00  0.00     0.031 A 
BRANCH  52  66
ATOM     66  C   UNL A   1      44.877  27.728  34.654  1.00  0.00    -0.014 A 
ATOM     67  C   UNL A   1      46.091  28.434  34.621  1.00  0.00     0.009 A 
ATOM     68  C   UNL A   1      44.796  26.561  35.429  1.00  0.00     0.009 A 
ATOM     69  C   UNL A   1      47.204  27.968  35.325  1.00  0.00     0.001 A 
ATOM     70  C   UNL A   1      45.901  26.113  36.156  1.00  0.00     0.001 A 
ATOM     71  C   UNL A   1      47.106  26.811  36.097  1.00  0.00     0.000 A 
ENDBRANCH  52  66
BRANCH  53  72
ATOM     72  C   UNL A   1      36.924  30.582  29.070  1.00  0.00    -0.014 A 
ATOM     73  C   UNL A   1      35.910  29.652  28.791  1.00  0.00     0.009 A 
ATOM     74  C   UNL A   1      36.793  31.891  28.581  1.00  0.00     0.009 A 
ATOM     75  C   UNL A   1      34.810  30.017  28.011  1.00  0.00     0.001 A 
ATOM     76  C   UNL A   1      35.676  32.262  27.830  1.00  0.00     0.001 A 
ATOM     77  C   UNL A   1      34.692  31.322  27.535  1.00  0.00     0.000 A 
ENDBRANCH  53  72
BRANCH  65  78
ATOM     78  C   UNL A   1      39.075  31.942  35.554  1.00  0.00    -0.014 A 
ATOM     79  C   UNL A   1      39.271  33.331  35.539  1.00  0.00     0.009 A 
ATOM     80  C   UNL A   1      38.306  31.366  36.577  1.00  0.00     0.009 A 
ATOM     81  C   UNL A   1      38.742  34.123  36.557  1.00  0.00     0.001 A 
ATOM     82  C   UNL A   1      37.747  32.165  37.571  1.00  0.00     0.001 A 
ATOM     83  C   UNL A   1      37.977  33.540  37.568  1.00  0.00     0.000 A 
ENDBRANCH  65  78
ENDBRANCH  39  40
ENDBRANCH  32  34
ENDBRANCH  31  32
ENDBRANCH  30  31
ENDBRANCH  29  30
ENDBRANCH  28  29
ENDBRANCH  27  28
ENDBRANCH   1  27
TORSDOF 20
ENDMDL
MODEL 3
REMARK VINA RESULT:     -10.4      4.407      7.088
REMARK SMILES C[N@@H+]1[C@H]2CC[C@@H]1[C@@H](C(=O)OCCOCCOCCOC(=O)c1ccc(-c3c4nc(c(-c5ccccc5)c5ccc([nH]5)c(-c5ccccc5)c5nc(c(-c6ccccc6)c6ccc3[nH]6)C=C5)C=C4)cc1)[C@@H](OC(=O)c1ccccc1)C2
REMARK SMILES IDX 14 1 13 2 12 3 11 4 10 5 8 6 9 7 7 8 1 9 2 10 3 11 6 12 4 14
REMARK SMILES IDX 80 15 5 16 70 17 71 18 72 19 73 20 74 21 75 22 79 23 76 24
REMARK SMILES IDX 78 25 77 26 15 27 16 28 17 29 18 30 19 31 20 32 21 33 22 34
REMARK SMILES IDX 23 35 69 36 24 37 68 38 25 39 26 40 27 41 62 42 28 43 67 44
REMARK SMILES IDX 61 45 63 46 29 47 66 48 60 49 59 50 30 52 52 53 37 54 51 55
REMARK SMILES IDX 38 56 41 57 50 58 64 59 39 60 40 61 49 63 65 64 42 65 31 66
REMARK SMILES IDX 32 67 36 68 33 69 35 70 34 71 53 72 54 73 58 74 55 75 57 76
REMARK SMILES IDX 56 77 43 78 44 79 48 80 45 81 47 82 46 83
REMARK H PARENT 2 13 63 51 41 62
REMARK Flexibility Score: inf
ROOT
ATOM      1  C   UNL A   1      39.767  21.348  26.107  1.00  0.00     0.188 C 
ENDROOT
BRANCH   1   2
ATOM      2  O   UNL A   1      39.805  22.056  27.333  1.00  0.00    -0.376 OA
BRANCH   2   3
ATOM      3  C   UNL A   1      39.488  23.454  27.326  1.00  0.00     0.202 C 
BRANCH   3   4
ATOM      4  C   UNL A   1      38.613  24.041  26.199  1.00  0.00     0.261 C 
BRANCH   4   5
ATOM      5  O   UNL A   1      37.189  23.720  26.301  1.00  0.00    -0.463 OA
BRANCH   5   6
ATOM      6  C   UNL A   1      36.512  23.637  25.135  1.00  0.00     0.318 C 
ATOM      7  O   UNL A   1      37.090  23.504  24.050  1.00  0.00    -0.252 OA
BRANCH   6   8
ATOM      8  C   UNL A   1      34.989  23.820  25.132  1.00  0.00     0.198 C 
ATOM      9  C   UNL A   1      35.158  20.769  24.945  1.00  0.00     0.333 C 
ATOM     10  N   UNL A   1      34.171  21.496  25.721  1.00  0.00    -0.332 N 
ATOM     11  C   UNL A   1      32.914  21.777  25.041  1.00  0.00     0.188 C 
ATOM     12  C   UNL A   1      34.573  22.803  26.248  1.00  0.00     0.202 C 
ATOM     13  H   UNL A   1      34.065  20.813  26.471  1.00  0.00     0.348 HD
ATOM     14  C   UNL A   1      32.180  22.537  26.157  1.00  0.00     0.071 C 
ATOM     15  C   UNL A   1      33.109  22.622  23.772  1.00  0.00     0.111 C 
ATOM     16  C   UNL A   1      33.285  23.216  26.964  1.00  0.00     0.072 C 
ATOM     17  C   UNL A   1      33.889  23.935  23.966  1.00  0.00     0.203 C 
BRANCH  17  18
ATOM     18  O   UNL A   1      34.201  24.594  22.659  1.00  0.00    -0.457 OA
BRANCH  18  19
ATOM     19  C   UNL A   1      33.506  25.731  22.231  1.00  0.00     0.338 C 
ATOM     20  O   UNL A   1      33.350  26.055  21.060  1.00  0.00    -0.246 OA
BRANCH  19  21
ATOM     21  C   UNL A   1      32.908  26.648  23.289  1.00  0.00     0.060 A 
ATOM     22  C   UNL A   1      31.522  26.700  23.505  1.00  0.00     0.015 A 
ATOM     23  C   UNL A   1      33.718  27.484  24.087  1.00  0.00     0.015 A 
ATOM     24  C   UNL A   1      30.956  27.698  24.324  1.00  0.00     0.001 A 
ATOM     25  C   UNL A   1      33.149  28.507  24.876  1.00  0.00     0.001 A 
ATOM     26  C   UNL A   1      31.766  28.635  24.965  1.00  0.00     0.000 A 
ENDBRANCH  19  21
ENDBRANCH  18  19
ENDBRANCH  17  18
ENDBRANCH   6   8
ENDBRANCH   5   6
ENDBRANCH   4   5
ENDBRANCH   3   4
ENDBRANCH   2   3
ENDBRANCH   1   2
BRANCH   1  27
ATOM     27  C   UNL A   1      40.368  19.957  26.119  1.00  0.00     0.188 C 
BRANCH  27  28
ATOM     28  O   UNL A   1      41.197  19.712  27.229  1.00  0.00    -0.376 OA
BRANCH  28  29
ATOM     29  C   UNL A   1      42.510  19.209  27.097  1.00  0.00     0.202 C 
BRANCH  29  30
ATOM     30  C   UNL A   1      42.974  18.562  25.794  1.00  0.00     0.261 C 
BRANCH  30  31
ATOM     31  O   UNL A   1      43.305  19.389  24.651  1.00  0.00    -0.460 OA
BRANCH  31  32
ATOM     32  C   UNL A   1      44.588  19.752  24.429  1.00  0.00     0.338 C 
ATOM     33  O   UNL A   1      45.398  19.223  23.705  1.00  0.00    -0.246 OA
BRANCH  32  34
ATOM     34  C   UNL A   1      44.868  21.118  24.852  1.00  0.00     0.060 A 
ATOM     35  C   UNL A   1      44.456  22.122  23.951  1.00  0.00     0.016 A 
ATOM     36  C   UNL A   1      45.403  21.418  26.096  1.00  0.00     0.016 A 
ATOM     37  C   UNL A   1      44.595  23.447  24.290  1.00  0.00     0.010 A 
ATOM     38  C   UNL A   1      45.521  22.750  26.447  1.00  0.00     0.010 A 
ATOM     39  C   UNL A   1      45.119  23.750  25.544  1.00  0.00    -0.014 A 
BRANCH  39  40
ATOM     40  C   UNL A   1      45.257  25.151  25.932  1.00  0.00     0.031 A 
ATOM     41  C   UNL A   1      46.605  25.775  25.845  1.00  0.00     0.074 A 
ATOM     42  C   UNL A   1      44.166  25.783  26.389  1.00  0.00     0.049 A 
ATOM     43  N   UNL A   1      46.993  26.943  26.269  1.00  0.00    -0.248 NA
ATOM     44  C   UNL A   1      47.668  24.969  25.213  1.00  0.00     0.031 C 
ATOM     45  C   UNL A   1      42.817  25.206  26.451  1.00  0.00     0.029 A 
ATOM     46  N   UNL A   1      44.020  27.036  26.901  1.00  0.00    -0.354 N 
ATOM     47  C   UNL A   1      48.347  27.010  25.975  1.00  0.00     0.074 A 
ATOM     48  C   UNL A   1      48.723  25.754  25.365  1.00  0.00     0.031 C 
ATOM     49  C   UNL A   1      41.980  26.111  26.983  1.00  0.00     0.029 A 
ATOM     50  C   UNL A   1      42.746  27.295  27.342  1.00  0.00     0.049 A 
ATOM     51  H   UNL A   1      44.753  27.691  26.949  1.00  0.00     0.167 HD
ATOM     52  C   UNL A   1      49.185  28.044  26.203  1.00  0.00     0.031 A 
ATOM     53  C   UNL A   1      42.277  28.369  27.997  1.00  0.00     0.031 A 
ATOM     54  C   UNL A   1      48.760  29.259  26.841  1.00  0.00     0.049 A 
ATOM     55  C   UNL A   1      43.252  29.471  28.296  1.00  0.00     0.074 A 
ATOM     56  C   UNL A   1      49.499  30.386  27.141  1.00  0.00     0.029 A 
ATOM     57  N   UNL A   1      47.463  29.496  27.283  1.00  0.00    -0.354 N 
ATOM     58  N   UNL A   1      44.531  29.542  28.006  1.00  0.00    -0.248 NA
ATOM     59  C   UNL A   1      42.722  30.641  29.000  1.00  0.00     0.031 C 
ATOM     60  C   UNL A   1      48.661  31.283  27.811  1.00  0.00     0.029 A 
ATOM     61  C   UNL A   1      47.383  30.745  27.870  1.00  0.00     0.049 A 
ATOM     62  H   UNL A   1      46.711  28.866  27.191  1.00  0.00     0.167 HD
ATOM     63  C   UNL A   1      44.955  30.781  28.462  1.00  0.00     0.074 A 
ATOM     64  C   UNL A   1      43.786  31.429  29.031  1.00  0.00     0.031 C 
ATOM     65  C   UNL A   1      46.189  31.339  28.421  1.00  0.00     0.031 A 
BRANCH  52  66
ATOM     66  C   UNL A   1      50.621  27.878  25.793  1.00  0.00    -0.014 A 
ATOM     67  C   UNL A   1      51.064  28.255  24.514  1.00  0.00     0.009 A 
ATOM     68  C   UNL A   1      51.551  27.348  26.700  1.00  0.00     0.009 A 
ATOM     69  C   UNL A   1      52.399  28.080  24.144  1.00  0.00     0.001 A 
ATOM     70  C   UNL A   1      52.891  27.201  26.338  1.00  0.00     0.001 A 
ATOM     71  C   UNL A   1      53.314  27.559  25.059  1.00  0.00     0.000 A 
ENDBRANCH  52  66
BRANCH  53  72
ATOM     72  C   UNL A   1      40.851  28.440  28.402  1.00  0.00    -0.014 A 
ATOM     73  C   UNL A   1      39.907  29.059  27.567  1.00  0.00     0.009 A 
ATOM     74  C   UNL A   1      40.416  27.878  29.612  1.00  0.00     0.009 A 
ATOM     75  C   UNL A   1      38.568  29.145  27.954  1.00  0.00     0.001 A 
ATOM     76  C   UNL A   1      39.069  27.935  29.981  1.00  0.00     0.001 A 
ATOM     77  C   UNL A   1      38.150  28.580  29.157  1.00  0.00     0.000 A 
ENDBRANCH  53  72
BRANCH  65  78
ATOM     78  C   UNL A   1      46.307  32.732  28.967  1.00  0.00    -0.014 A 
ATOM     79  C   UNL A   1      46.092  33.854  28.152  1.00  0.00     0.009 A 
ATOM     80  C   UNL A   1      46.611  32.914  30.324  1.00  0.00     0.009 A 
ATOM     81  C   UNL A   1      46.222  35.138  28.682  1.00  0.00     0.001 A 
ATOM     82  C   UNL A   1      46.703  34.197  30.858  1.00  0.00     0.001 A 
ATOM     83  C   UNL A   1      46.522  35.307  30.033  1.00  0.00     0.000 A 
ENDBRANCH  65  78
ENDBRANCH  39  40
ENDBRANCH  32  34
ENDBRANCH  31  32
ENDBRANCH  30  31
ENDBRANCH  29  30
ENDBRANCH  28  29
ENDBRANCH  27  28
ENDBRANCH   1  27
TORSDOF 20
ENDMDL
