MODEL 1
REMARK VINA RESULT:      -9.9      0.000      0.000
REMARK SMILES Cc1cc(C(=O)N[C@H](CC(C)C)C(=O)OCCOCCOCCOC(=O)c2ccc(-c3c4nc(c(-c5ccccc5)c5ccc([nH]5)c(-c5ccccc5)c5nc(c(-c6ccccc6)c6ccc3[nH]6)C=C5)C=C4)cc2)sc1Br
REMARK SMILES IDX 19 1 18 2 17 3 16 4 15 5 13 6 14 7 8 8 7 9 5 10 6 11 4 13
REMARK SMILES IDX 1 14 2 15 3 16 76 17 75 18 77 19 9 20 10 21 11 22 12 23
REMARK SMILES IDX 20 24 21 25 22 26 23 27 24 28 25 29 26 30 27 31 28 32 74 33
REMARK SMILES IDX 29 34 73 35 30 36 31 37 32 38 67 39 33 40 72 41 66 42 68 43
REMARK SMILES IDX 34 44 71 45 65 46 64 47 35 49 57 50 42 51 56 52 43 53 46 54
REMARK SMILES IDX 55 55 69 56 44 57 45 58 54 60 70 61 47 62 36 63 37 64 41 65
REMARK SMILES IDX 38 66 40 67 39 68 58 69 59 70 63 71 60 72 62 73 61 74 48 75
REMARK SMILES IDX 49 76 53 77 50 78 52 79 51 80
REMARK H PARENT 7 12 68 48 46 59
REMARK Flexibility Score: inf
ROOT
ATOM      1  C   UNL A   1      34.003  31.271  27.954  1.00  0.00     0.188 C 
ENDROOT
BRANCH   1   2
ATOM      2  O   UNL A   1      34.157  30.580  26.720  1.00  0.00    -0.376 OA
BRANCH   2   3
ATOM      3  C   UNL A   1      34.573  29.226  26.719  1.00  0.00     0.202 C 
BRANCH   3   4
ATOM      4  C   UNL A   1      33.491  28.205  27.100  1.00  0.00     0.261 C 
BRANCH   4   5
ATOM      5  O   UNL A   1      32.550  27.797  26.077  1.00  0.00    -0.462 OA
BRANCH   5   6
ATOM      6  C   UNL A   1      31.345  27.332  26.509  1.00  0.00     0.328 C 
ATOM      7  O   UNL A   1      30.938  27.478  27.660  1.00  0.00    -0.250 OA
BRANCH   6   8
ATOM      8  C   UNL A   1      30.613  26.394  25.512  1.00  0.00     0.192 C 
BRANCH   8   9
ATOM      9  N   UNL A   1      30.141  25.226  26.272  1.00  0.00    -0.338 N 
ATOM     10  C   UNL A   1      30.706  24.052  26.699  1.00  0.00     0.262 C 
ATOM     11  O   UNL A   1      29.945  23.338  27.359  1.00  0.00    -0.268 OA
ATOM     12  H   UNL A   1      29.196  25.305  26.534  1.00  0.00     0.164 HD
BRANCH  10  13
ATOM     13  C   UNL A   1      32.065  23.649  26.357  1.00  0.00     0.093 A 
ATOM     14  C   UNL A   1      35.783  24.051  25.776  1.00  0.00     0.046 C 
ATOM     15  C   UNL A   1      34.389  23.521  25.889  1.00  0.00    -0.025 A 
ATOM     16  C   UNL A   1      33.291  24.285  26.433  1.00  0.00     0.030 A 
ATOM     17  C   UNL A   1      33.937  22.279  25.504  1.00  0.00     0.074 A 
ATOM     18  S   UNL A   1      32.278  22.052  25.745  1.00  0.00    -0.123 S 
ATOM     19  Br  UNL A   1      35.007  20.921  24.769  1.00  0.00    -0.039 Br
ENDBRANCH  10  13
ENDBRANCH   8   9
BRANCH   8  20
ATOM     20  C   UNL A   1      30.890  26.063  24.023  1.00  0.00     0.040 C 
BRANCH  20  21
ATOM     21  C   UNL A   1      32.304  25.901  23.428  1.00  0.00    -0.015 C 
ATOM     22  C   UNL A   1      32.425  24.585  22.650  1.00  0.00     0.007 C 
ATOM     23  C   UNL A   1      32.578  27.014  22.398  1.00  0.00     0.007 C 
ENDBRANCH  20  21
ENDBRANCH   8  20
ENDBRANCH   6   8
ENDBRANCH   5   6
ENDBRANCH   4   5
ENDBRANCH   3   4
ENDBRANCH   2   3
ENDBRANCH   1   2
BRANCH   1  24
ATOM     24  C   UNL A   1      33.538  32.730  27.988  1.00  0.00     0.188 C 
BRANCH  24  25
ATOM     25  O   UNL A   1      34.291  33.523  28.892  1.00  0.00    -0.376 OA
BRANCH  25  26
ATOM     26  C   UNL A   1      34.370  34.910  28.591  1.00  0.00     0.202 C 
BRANCH  26  27
ATOM     27  C   UNL A   1      33.244  35.615  29.330  1.00  0.00     0.261 C 
BRANCH  27  28
ATOM     28  O   UNL A   1      32.847  34.885  30.488  1.00  0.00    -0.460 OA
BRANCH  28  29
ATOM     29  C   UNL A   1      32.993  35.511  31.673  1.00  0.00     0.338 C 
ATOM     30  O   UNL A   1      32.415  36.509  32.057  1.00  0.00    -0.246 OA
BRANCH  29  31
ATOM     31  C   UNL A   1      34.019  34.786  32.436  1.00  0.00     0.060 A 
ATOM     32  C   UNL A   1      35.096  35.533  32.916  1.00  0.00     0.016 A 
ATOM     33  C   UNL A   1      34.035  33.384  32.416  1.00  0.00     0.016 A 
ATOM     34  C   UNL A   1      36.300  34.890  33.086  1.00  0.00     0.010 A 
ATOM     35  C   UNL A   1      35.240  32.745  32.553  1.00  0.00     0.010 A 
ATOM     36  C   UNL A   1      36.369  33.529  32.772  1.00  0.00    -0.014 A 
BRANCH  36  37
ATOM     37  C   UNL A   1      37.673  32.960  32.527  1.00  0.00     0.031 A 
ATOM     38  C   UNL A   1      38.598  32.957  33.668  1.00  0.00     0.074 A 
ATOM     39  C   UNL A   1      37.952  32.353  31.359  1.00  0.00     0.049 A 
ATOM     40  N   UNL A   1      39.740  33.552  33.752  1.00  0.00    -0.248 NA
ATOM     41  C   UNL A   1      38.165  32.272  34.893  1.00  0.00     0.031 C 
ATOM     42  C   UNL A   1      37.017  31.993  30.287  1.00  0.00     0.029 A 
ATOM     43  N   UNL A   1      39.128  31.807  30.947  1.00  0.00    -0.354 N 
ATOM     44  C   UNL A   1      40.254  33.185  34.987  1.00  0.00     0.074 A 
ATOM     45  C   UNL A   1      39.192  32.521  35.702  1.00  0.00     0.031 C 
ATOM     46  C   UNL A   1      37.611  31.091  29.474  1.00  0.00     0.029 A 
ATOM     47  C   UNL A   1      38.990  30.910  29.901  1.00  0.00     0.049 A 
ATOM     48  H   UNL A   1      39.996  32.027  31.356  1.00  0.00     0.167 HD
ATOM     49  C   UNL A   1      41.582  33.244  35.258  1.00  0.00     0.031 A 
ATOM     50  C   UNL A   1      39.919  30.017  29.484  1.00  0.00     0.031 A 
ATOM     51  C   UNL A   1      42.307  34.045  34.312  1.00  0.00     0.049 A 
ATOM     52  C   UNL A   1      41.234  30.438  30.021  1.00  0.00     0.074 A 
ATOM     53  C   UNL A   1      42.243  35.363  33.904  1.00  0.00     0.029 A 
ATOM     54  N   UNL A   1      43.047  33.390  33.358  1.00  0.00    -0.354 N 
ATOM     55  N   UNL A   1      41.885  31.489  29.611  1.00  0.00    -0.248 NA
ATOM     56  C   UNL A   1      41.668  29.905  31.303  1.00  0.00     0.031 C 
ATOM     57  C   UNL A   1      42.559  35.342  32.516  1.00  0.00     0.029 A 
ATOM     58  C   UNL A   1      42.819  34.018  32.159  1.00  0.00     0.049 A 
ATOM     59  H   UNL A   1      43.632  32.612  33.506  1.00  0.00     0.167 HD
ATOM     60  C   UNL A   1      42.496  31.997  30.749  1.00  0.00     0.074 A 
ATOM     61  C   UNL A   1      42.436  30.913  31.723  1.00  0.00     0.031 C 
ATOM     62  C   UNL A   1      42.731  33.336  30.886  1.00  0.00     0.031 A 
BRANCH  49  63
ATOM     63  C   UNL A   1      42.255  32.268  36.177  1.00  0.00    -0.014 A 
ATOM     64  C   UNL A   1      42.949  32.747  37.297  1.00  0.00     0.009 A 
ATOM     65  C   UNL A   1      42.441  30.912  35.835  1.00  0.00     0.009 A 
ATOM     66  C   UNL A   1      43.804  31.914  38.024  1.00  0.00     0.001 A 
ATOM     67  C   UNL A   1      43.256  30.067  36.586  1.00  0.00     0.001 A 
ATOM     68  C   UNL A   1      43.956  30.575  37.670  1.00  0.00     0.000 A 
ENDBRANCH  49  63
BRANCH  50  69
ATOM     69  C   UNL A   1      39.700  28.689  28.873  1.00  0.00    -0.014 A 
ATOM     70  C   UNL A   1      40.178  28.409  27.585  1.00  0.00     0.009 A 
ATOM     71  C   UNL A   1      39.234  27.610  29.648  1.00  0.00     0.009 A 
ATOM     72  C   UNL A   1      40.219  27.095  27.104  1.00  0.00     0.001 A 
ATOM     73  C   UNL A   1      39.263  26.299  29.163  1.00  0.00     0.001 A 
ATOM     74  C   UNL A   1      39.771  26.040  27.896  1.00  0.00     0.000 A 
ENDBRANCH  50  69
BRANCH  62  75
ATOM     75  C   UNL A   1      42.582  34.207  29.661  1.00  0.00    -0.014 A 
ATOM     76  C   UNL A   1      41.400  34.906  29.360  1.00  0.00     0.009 A 
ATOM     77  C   UNL A   1      43.710  34.438  28.859  1.00  0.00     0.009 A 
ATOM     78  C   UNL A   1      41.335  35.771  28.264  1.00  0.00     0.001 A 
ATOM     79  C   UNL A   1      43.653  35.321  27.778  1.00  0.00     0.001 A 
ATOM     80  C   UNL A   1      42.463  35.981  27.476  1.00  0.00     0.000 A 
ENDBRANCH  62  75
ENDBRANCH  36  37
ENDBRANCH  29  31
ENDBRANCH  28  29
ENDBRANCH  27  28
ENDBRANCH  26  27
ENDBRANCH  25  26
ENDBRANCH  24  25
ENDBRANCH   1  24
TORSDOF 21
ENDMDL
MODEL 2
REMARK VINA RESULT:      -9.9      1.489      2.071
REMARK SMILES Cc1cc(C(=O)N[C@H](CC(C)C)C(=O)OCCOCCOCCOC(=O)c2ccc(-c3c4nc(c(-c5ccccc5)c5ccc([nH]5)c(-c5ccccc5)c5nc(c(-c6ccccc6)c6ccc3[nH]6)C=C5)C=C4)cc2)sc1Br
REMARK SMILES IDX 19 1 18 2 17 3 16 4 15 5 13 6 14 7 8 8 7 9 5 10 6 11 4 13
REMARK SMILES IDX 1 14 2 15 3 16 76 17 75 18 77 19 9 20 10 21 11 22 12 23
REMARK SMILES IDX 20 24 21 25 22 26 23 27 24 28 25 29 26 30 27 31 28 32 74 33
REMARK SMILES IDX 29 34 73 35 30 36 31 37 32 38 67 39 33 40 72 41 66 42 68 43
REMARK SMILES IDX 34 44 71 45 65 46 64 47 35 49 57 50 42 51 56 52 43 53 46 54
REMARK SMILES IDX 55 55 69 56 44 57 45 58 54 60 70 61 47 62 36 63 37 64 41 65
REMARK SMILES IDX 38 66 40 67 39 68 58 69 59 70 63 71 60 72 62 73 61 74 48 75
REMARK SMILES IDX 49 76 53 77 50 78 52 79 51 80
REMARK H PARENT 7 12 68 48 46 59
REMARK Flexibility Score: inf
ROOT
ATOM      1  C   UNL A   1      34.580  31.131  27.718  1.00  0.00     0.188 C 
ENDROOT
BRANCH   1   2
ATOM      2  O   UNL A   1      34.037  29.832  27.509  1.00  0.00    -0.376 OA
BRANCH   2   3
ATOM      3  C   UNL A   1      32.840  29.680  26.769  1.00  0.00     0.202 C 
BRANCH   3   4
ATOM      4  C   UNL A   1      32.933  28.753  25.548  1.00  0.00     0.261 C 
BRANCH   4   5
ATOM      5  O   UNL A   1      33.029  29.361  24.237  1.00  0.00    -0.462 OA
BRANCH   5   6
ATOM      6  C   UNL A   1      33.270  28.521  23.193  1.00  0.00     0.328 C 
ATOM      7  O   UNL A   1      34.175  28.696  22.380  1.00  0.00    -0.250 OA
BRANCH   6   8
ATOM      8  C   UNL A   1      32.174  27.447  22.954  1.00  0.00     0.192 C 
BRANCH   8   9
ATOM      9  N   UNL A   1      32.561  26.679  21.761  1.00  0.00    -0.338 N 
ATOM     10  C   UNL A   1      32.888  25.371  21.512  1.00  0.00     0.262 C 
ATOM     11  O   UNL A   1      33.124  25.129  20.325  1.00  0.00    -0.268 OA
ATOM     12  H   UNL A   1      32.594  27.236  20.950  1.00  0.00     0.164 HD
BRANCH  10  13
ATOM     13  C   UNL A   1      33.008  24.365  22.560  1.00  0.00     0.093 A 
ATOM     14  C   UNL A   1      32.167  21.224  24.496  1.00  0.00     0.046 C 
ATOM     15  C   UNL A   1      32.771  22.505  24.018  1.00  0.00    -0.025 A 
ATOM     16  C   UNL A   1      32.408  23.137  22.771  1.00  0.00     0.030 A 
ATOM     17  C   UNL A   1      33.721  23.268  24.658  1.00  0.00     0.074 A 
ATOM     18  S   UNL A   1      34.131  24.685  23.828  1.00  0.00    -0.123 S 
ATOM     19  Br  UNL A   1      34.525  22.837  26.300  1.00  0.00    -0.039 Br
ENDBRANCH  10  13
ENDBRANCH   8   9
BRANCH   8  20
ATOM     20  C   UNL A   1      30.638  27.485  23.166  1.00  0.00     0.040 C 
BRANCH  20  21
ATOM     21  C   UNL A   1      29.816  26.292  23.697  1.00  0.00    -0.015 C 
ATOM     22  C   UNL A   1      30.294  25.873  25.093  1.00  0.00     0.007 C 
ATOM     23  C   UNL A   1      28.341  26.701  23.875  1.00  0.00     0.007 C 
ENDBRANCH  20  21
ENDBRANCH   8  20
ENDBRANCH   6   8
ENDBRANCH   5   6
ENDBRANCH   4   5
ENDBRANCH   3   4
ENDBRANCH   2   3
ENDBRANCH   1   2
BRANCH   1  24
ATOM     24  C   UNL A   1      33.666  32.348  27.894  1.00  0.00     0.188 C 
BRANCH  24  25
ATOM     25  O   UNL A   1      34.157  33.265  28.859  1.00  0.00    -0.376 OA
BRANCH  25  26
ATOM     26  C   UNL A   1      34.396  34.588  28.399  1.00  0.00     0.202 C 
BRANCH  26  27
ATOM     27  C   UNL A   1      33.541  35.534  29.228  1.00  0.00     0.261 C 
BRANCH  27  28
ATOM     28  O   UNL A   1      32.923  34.854  30.317  1.00  0.00    -0.460 OA
BRANCH  28  29
ATOM     29  C   UNL A   1      32.991  35.459  31.520  1.00  0.00     0.338 C 
ATOM     30  O   UNL A   1      32.347  36.416  31.903  1.00  0.00    -0.246 OA
BRANCH  29  31
ATOM     31  C   UNL A   1      34.024  34.769  32.307  1.00  0.00     0.060 A 
ATOM     32  C   UNL A   1      35.093  35.543  32.761  1.00  0.00     0.016 A 
ATOM     33  C   UNL A   1      34.055  33.368  32.333  1.00  0.00     0.016 A 
ATOM     34  C   UNL A   1      36.304  34.918  32.952  1.00  0.00     0.010 A 
ATOM     35  C   UNL A   1      35.266  32.746  32.491  1.00  0.00     0.010 A 
ATOM     36  C   UNL A   1      36.387  33.549  32.684  1.00  0.00    -0.014 A 
BRANCH  36  37
ATOM     37  C   UNL A   1      37.697  32.985  32.458  1.00  0.00     0.031 A 
ATOM     38  C   UNL A   1      38.607  32.990  33.610  1.00  0.00     0.074 A 
ATOM     39  C   UNL A   1      37.994  32.376  31.295  1.00  0.00     0.049 A 
ATOM     40  N   UNL A   1      39.744  33.591  33.708  1.00  0.00    -0.248 NA
ATOM     41  C   UNL A   1      38.161  32.307  34.831  1.00  0.00     0.031 C 
ATOM     42  C   UNL A   1      37.075  32.007  30.212  1.00  0.00     0.029 A 
ATOM     43  N   UNL A   1      39.177  31.834  30.900  1.00  0.00    -0.354 N 
ATOM     44  C   UNL A   1      40.244  33.230  34.951  1.00  0.00     0.074 A 
ATOM     45  C   UNL A   1      39.177  32.563  35.654  1.00  0.00     0.031 C 
ATOM     46  C   UNL A   1      37.684  31.106  29.410  1.00  0.00     0.029 A 
ATOM     47  C   UNL A   1      39.058  30.933  29.855  1.00  0.00     0.049 A 
ATOM     48  H   UNL A   1      40.040  32.059  31.320  1.00  0.00     0.167 HD
ATOM     49  C   UNL A   1      41.568  33.296  35.238  1.00  0.00     0.031 A 
ATOM     50  C   UNL A   1      39.997  30.044  29.453  1.00  0.00     0.031 A 
ATOM     51  C   UNL A   1      42.302  34.099  34.299  1.00  0.00     0.049 A 
ATOM     52  C   UNL A   1      41.303  30.473  30.006  1.00  0.00     0.074 A 
ATOM     53  C   UNL A   1      42.236  35.415  33.887  1.00  0.00     0.029 A 
ATOM     54  N   UNL A   1      43.057  33.444  33.357  1.00  0.00    -0.354 N 
ATOM     55  N   UNL A   1      41.953  31.526  29.601  1.00  0.00    -0.248 NA
ATOM     56  C   UNL A   1      41.722  29.946  31.296  1.00  0.00     0.031 C 
ATOM     57  C   UNL A   1      42.571  35.391  32.502  1.00  0.00     0.029 A 
ATOM     58  C   UNL A   1      42.842  34.067  32.154  1.00  0.00     0.049 A 
ATOM     59  H   UNL A   1      43.644  32.669  33.516  1.00  0.00     0.167 HD
ATOM     60  C   UNL A   1      42.547  32.040  30.745  1.00  0.00     0.074 A 
ATOM     61  C   UNL A   1      42.480  30.959  31.723  1.00  0.00     0.031 C 
ATOM     62  C   UNL A   1      42.774  33.381  30.882  1.00  0.00     0.031 A 
BRANCH  49  63
ATOM     63  C   UNL A   1      42.234  32.327  36.169  1.00  0.00    -0.014 A 
ATOM     64  C   UNL A   1      43.047  32.815  37.201  1.00  0.00     0.009 A 
ATOM     65  C   UNL A   1      42.288  30.942  35.906  1.00  0.00     0.009 A 
ATOM     66  C   UNL A   1      43.890  31.961  37.918  1.00  0.00     0.001 A 
ATOM     67  C   UNL A   1      43.092  30.080  36.650  1.00  0.00     0.001 A 
ATOM     68  C   UNL A   1      43.911  30.595  37.645  1.00  0.00     0.000 A 
ENDBRANCH  49  63
BRANCH  50  69
ATOM     69  C   UNL A   1      39.792  28.713  28.844  1.00  0.00    -0.014 A 
ATOM     70  C   UNL A   1      40.355  28.405  27.597  1.00  0.00     0.009 A 
ATOM     71  C   UNL A   1      39.247  27.655  29.595  1.00  0.00     0.009 A 
ATOM     72  C   UNL A   1      40.401  27.084  27.136  1.00  0.00     0.001 A 
ATOM     73  C   UNL A   1      39.281  26.337  29.130  1.00  0.00     0.001 A 
ATOM     74  C   UNL A   1      39.873  26.050  27.906  1.00  0.00     0.000 A 
ENDBRANCH  50  69
BRANCH  62  75
ATOM     75  C   UNL A   1      42.637  34.247  29.652  1.00  0.00    -0.014 A 
ATOM     76  C   UNL A   1      41.462  34.954  29.343  1.00  0.00     0.009 A 
ATOM     77  C   UNL A   1      43.770  34.465  28.853  1.00  0.00     0.009 A 
ATOM     78  C   UNL A   1      41.408  35.815  28.242  1.00  0.00     0.001 A 
ATOM     79  C   UNL A   1      43.724  35.344  27.768  1.00  0.00     0.001 A 
ATOM     80  C   UNL A   1      42.541  36.011  27.458  1.00  0.00     0.000 A 
ENDBRANCH  62  75
ENDBRANCH  36  37
ENDBRANCH  29  31
ENDBRANCH  28  29
ENDBRANCH  27  28
ENDBRANCH  26  27
ENDBRANCH  25  26
ENDBRANCH  24  25
ENDBRANCH   1  24
TORSDOF 21
ENDMDL
MODEL 3
REMARK VINA RESULT:      -9.3      1.332      2.166
REMARK SMILES Cc1cc(C(=O)N[C@H](CC(C)C)C(=O)OCCOCCOCCOC(=O)c2ccc(-c3c4nc(c(-c5ccccc5)c5ccc([nH]5)c(-c5ccccc5)c5nc(c(-c6ccccc6)c6ccc3[nH]6)C=C5)C=C4)cc2)sc1Br
REMARK SMILES IDX 19 1 18 2 17 3 16 4 15 5 13 6 14 7 8 8 7 9 5 10 6 11 4 13
REMARK SMILES IDX 1 14 2 15 3 16 76 17 75 18 77 19 9 20 10 21 11 22 12 23
REMARK SMILES IDX 20 24 21 25 22 26 23 27 24 28 25 29 26 30 27 31 28 32 74 33
REMARK SMILES IDX 29 34 73 35 30 36 31 37 32 38 67 39 33 40 72 41 66 42 68 43
REMARK SMILES IDX 34 44 71 45 65 46 64 47 35 49 57 50 42 51 56 52 43 53 46 54
REMARK SMILES IDX 55 55 69 56 44 57 45 58 54 60 70 61 47 62 36 63 37 64 41 65
REMARK SMILES IDX 38 66 40 67 39 68 58 69 59 70 63 71 60 72 62 73 61 74 48 75
REMARK SMILES IDX 49 76 53 77 50 78 52 79 51 80
REMARK H PARENT 7 12 68 48 46 59
REMARK Flexibility Score: inf
ROOT
ATOM      1  C   UNL A   1      33.220  31.407  27.590  1.00  0.00     0.188 C 
ENDROOT
BRANCH   1   2
ATOM      2  O   UNL A   1      33.269  30.041  27.193  1.00  0.00    -0.376 OA
BRANCH   2   3
ATOM      3  C   UNL A   1      32.781  29.662  25.919  1.00  0.00     0.202 C 
BRANCH   3   4
ATOM      4  C   UNL A   1      32.580  28.153  25.714  1.00  0.00     0.261 C 
BRANCH   4   5
ATOM      5  O   UNL A   1      33.731  27.287  25.866  1.00  0.00    -0.462 OA
BRANCH   5   6
ATOM      6  C   UNL A   1      33.955  26.391  24.865  1.00  0.00     0.328 C 
ATOM      7  O   UNL A   1      33.672  26.608  23.689  1.00  0.00    -0.250 OA
BRANCH   6   8
ATOM      8  C   UNL A   1      34.376  24.974  25.341  1.00  0.00     0.192 C 
BRANCH   8   9
ATOM      9  N   UNL A   1      33.329  24.486  26.252  1.00  0.00    -0.338 N 
ATOM     10  C   UNL A   1      32.540  23.366  26.314  1.00  0.00     0.262 C 
ATOM     11  O   UNL A   1      31.791  23.333  27.295  1.00  0.00    -0.268 OA
ATOM     12  H   UNL A   1      33.153  25.112  26.991  1.00  0.00     0.164 HD
BRANCH  10  13
ATOM     13  C   UNL A   1      32.538  22.334  25.285  1.00  0.00     0.093 A 
ATOM     14  C   UNL A   1      31.891  20.788  21.892  1.00  0.00     0.046 C 
ATOM     15  C   UNL A   1      32.285  21.035  23.313  1.00  0.00    -0.025 A 
ATOM     16  C   UNL A   1      32.227  22.337  23.938  1.00  0.00     0.030 A 
ATOM     17  C   UNL A   1      32.737  20.109  24.225  1.00  0.00     0.074 A 
ATOM     18  S   UNL A   1      33.042  20.755  25.760  1.00  0.00    -0.123 S 
ATOM     19  Br  UNL A   1      33.009  18.285  23.867  1.00  0.00    -0.039 Br
ENDBRANCH  10  13
ENDBRANCH   8   9
BRANCH   8  20
ATOM     20  C   UNL A   1      35.768  24.369  25.655  1.00  0.00     0.040 C 
BRANCH  20  21
ATOM     21  C   UNL A   1      36.497  23.369  24.734  1.00  0.00    -0.015 C 
ATOM     22  C   UNL A   1      36.550  21.974  25.370  1.00  0.00     0.007 C 
ATOM     23  C   UNL A   1      35.715  23.191  23.418  1.00  0.00     0.007 C 
ENDBRANCH  20  21
ENDBRANCH   8  20
ENDBRANCH   6   8
ENDBRANCH   5   6
ENDBRANCH   4   5
ENDBRANCH   3   4
ENDBRANCH   2   3
ENDBRANCH   1   2
BRANCH   1  24
ATOM     24  C   UNL A   1      34.485  32.141  28.046  1.00  0.00     0.188 C 
BRANCH  24  25
ATOM     25  O   UNL A   1      34.521  33.491  27.611  1.00  0.00    -0.376 OA
BRANCH  25  26
ATOM     26  C   UNL A   1      33.811  34.425  28.413  1.00  0.00     0.202 C 
BRANCH  26  27
ATOM     27  C   UNL A   1      34.172  34.163  29.867  1.00  0.00     0.261 C 
BRANCH  27  28
ATOM     28  O   UNL A   1      33.735  35.227  30.709  1.00  0.00    -0.460 OA
BRANCH  28  29
ATOM     29  C   UNL A   1      33.325  34.885  31.947  1.00  0.00     0.338 C 
ATOM     30  O   UNL A   1      32.204  34.984  32.408  1.00  0.00    -0.246 OA
BRANCH  29  31
ATOM     31  C   UNL A   1      34.497  34.385  32.681  1.00  0.00     0.060 A 
ATOM     32  C   UNL A   1      35.541  35.288  32.892  1.00  0.00     0.016 A 
ATOM     33  C   UNL A   1      34.650  33.007  32.887  1.00  0.00     0.016 A 
ATOM     34  C   UNL A   1      36.814  34.780  33.010  1.00  0.00     0.010 A 
ATOM     35  C   UNL A   1      35.919  32.499  32.971  1.00  0.00     0.010 A 
ATOM     36  C   UNL A   1      36.983  33.396  32.915  1.00  0.00    -0.014 A 
BRANCH  36  37
ATOM     37  C   UNL A   1      38.301  32.897  32.602  1.00  0.00     0.031 A 
ATOM     38  C   UNL A   1      39.301  33.006  33.673  1.00  0.00     0.074 A 
ATOM     39  C   UNL A   1      38.538  32.254  31.444  1.00  0.00     0.049 A 
ATOM     40  N   UNL A   1      40.404  33.674  33.649  1.00  0.00    -0.248 NA
ATOM     41  C   UNL A   1      38.999  32.356  34.954  1.00  0.00     0.031 C 
ATOM     42  C   UNL A   1      37.557  31.785  30.459  1.00  0.00     0.029 A 
ATOM     43  N   UNL A   1      39.716  31.762  30.973  1.00  0.00    -0.354 N 
ATOM     44  C   UNL A   1      41.025  33.400  34.859  1.00  0.00     0.074 A 
ATOM     45  C   UNL A   1      40.061  32.707  35.676  1.00  0.00     0.031 C 
ATOM     46  C   UNL A   1      38.151  30.883  29.646  1.00  0.00     0.029 A 
ATOM     47  C   UNL A   1      39.565  30.809  29.980  1.00  0.00     0.049 A 
ATOM     48  H   UNL A   1      40.594  32.055  31.309  1.00  0.00     0.167 HD
ATOM     49  C   UNL A   1      42.362  33.554  35.030  1.00  0.00     0.031 A 
ATOM     50  C   UNL A   1      40.520  29.957  29.536  1.00  0.00     0.031 A 
ATOM     51  C   UNL A   1      42.967  34.353  34.001  1.00  0.00     0.049 A 
ATOM     52  C   UNL A   1      41.838  30.484  29.959  1.00  0.00     0.074 A 
ATOM     53  C   UNL A   1      42.788  35.643  33.542  1.00  0.00     0.029 A 
ATOM     54  N   UNL A   1      43.680  33.699  33.026  1.00  0.00    -0.354 N 
ATOM     55  N   UNL A   1      42.389  31.553  29.458  1.00  0.00    -0.248 NA
ATOM     56  C   UNL A   1      42.393  30.041  31.229  1.00  0.00     0.031 C 
ATOM     57  C   UNL A   1      43.009  35.575  32.136  1.00  0.00     0.029 A 
ATOM     58  C   UNL A   1      43.330  34.254  31.820  1.00  0.00     0.049 A 
ATOM     59  H   UNL A   1      44.323  32.968  33.165  1.00  0.00     0.167 HD
ATOM     60  C   UNL A   1      43.042  32.151  30.525  1.00  0.00     0.074 A 
ATOM     61  C   UNL A   1      43.121  31.114  31.548  1.00  0.00     0.031 C 
ATOM     62  C   UNL A   1      43.198  33.508  30.588  1.00  0.00     0.031 A 
BRANCH  49  63
ATOM     63  C   UNL A   1      43.159  32.667  35.940  1.00  0.00    -0.014 A 
ATOM     64  C   UNL A   1      43.421  31.346  35.553  1.00  0.00     0.009 A 
ATOM     65  C   UNL A   1      43.444  33.015  37.276  1.00  0.00     0.009 A 
ATOM     66  C   UNL A   1      43.921  30.414  36.467  1.00  0.00     0.001 A 
ATOM     67  C   UNL A   1      43.987  32.101  38.178  1.00  0.00     0.001 A 
ATOM     68  C   UNL A   1      44.206  30.792  37.778  1.00  0.00     0.000 A 
ENDBRANCH  49  63
BRANCH  50  69
ATOM     69  C   UNL A   1      40.347  28.590  29.001  1.00  0.00    -0.014 A 
ATOM     70  C   UNL A   1      39.702  27.604  29.761  1.00  0.00     0.009 A 
ATOM     71  C   UNL A   1      40.597  28.312  27.644  1.00  0.00     0.009 A 
ATOM     72  C   UNL A   1      39.293  26.399  29.175  1.00  0.00     0.001 A 
ATOM     73  C   UNL A   1      40.201  27.105  27.062  1.00  0.00     0.001 A 
ATOM     74  C   UNL A   1      39.534  26.154  27.826  1.00  0.00     0.000 A 
ENDBRANCH  50  69
BRANCH  62  75
ATOM     75  C   UNL A   1      42.909  34.308  29.339  1.00  0.00    -0.014 A 
ATOM     76  C   UNL A   1      41.698  34.992  29.135  1.00  0.00     0.009 A 
ATOM     77  C   UNL A   1      43.939  34.489  28.403  1.00  0.00     0.009 A 
ATOM     78  C   UNL A   1      41.507  35.793  28.005  1.00  0.00     0.001 A 
ATOM     79  C   UNL A   1      43.756  35.310  27.287  1.00  0.00     0.001 A 
ATOM     80  C   UNL A   1      42.538  35.954  27.084  1.00  0.00     0.000 A 
ENDBRANCH  62  75
ENDBRANCH  36  37
ENDBRANCH  29  31
ENDBRANCH  28  29
ENDBRANCH  27  28
ENDBRANCH  26  27
ENDBRANCH  25  26
ENDBRANCH  24  25
ENDBRANCH   1  24
TORSDOF 21
ENDMDL
