MODEL 1
REMARK VINA RESULT:     -10.7      0.000      0.000
REMARK SMILES CN(C)S(=O)(=O)c1cccc(-c2cc(Cl)cc(C(=O)OCCOCCOCCOC(=O)c3ccc(-c4c5nc(c(-c6ccccc6)c6ccc([nH]6)c(-c6ccccc6)c6nc(c(-c7ccccc7)c7ccc4[nH]7)C=C6)C=C5)cc3)c2)c1
REMARK SMILES IDX 24 1 23 2 22 3 21 4 20 5 18 6 19 7 17 8 12 9 13 10 80 11
REMARK SMILES IDX 14 12 15 13 16 14 11 15 7 16 8 17 81 18 9 19 10 20 4 21 5 22
REMARK SMILES IDX 6 23 2 24 1 25 3 26 25 27 26 28 27 29 28 30 29 31 30 32
REMARK SMILES IDX 31 33 32 34 33 35 79 36 34 37 78 38 35 39 36 40 37 41 72 42
REMARK SMILES IDX 38 43 77 44 71 45 73 46 39 47 76 48 70 49 69 50 40 52 62 53
REMARK SMILES IDX 47 54 61 55 48 56 51 57 60 58 74 59 49 60 50 61 59 63 75 64
REMARK SMILES IDX 52 65 41 66 42 67 46 68 43 69 45 70 44 71 63 72 64 73 68 74
REMARK SMILES IDX 65 75 67 76 66 77 53 78 54 79 58 80 55 81 57 82 56 83
REMARK H PARENT 73 51 51 62
REMARK Flexibility Score: inf
ROOT
ATOM      1  C   UNL A   1      39.102  22.061  26.096  1.00  0.00     0.188 C 
ENDROOT
BRANCH   1   2
ATOM      2  O   UNL A   1      37.741  21.745  25.818  1.00  0.00    -0.376 OA
BRANCH   2   3
ATOM      3  C   UNL A   1      37.194  22.032  24.535  1.00  0.00     0.202 C 
BRANCH   3   4
ATOM      4  C   UNL A   1      35.690  22.319  24.423  1.00  0.00     0.261 C 
BRANCH   4   5
ATOM      5  O   UNL A   1      35.208  23.282  25.374  1.00  0.00    -0.460 OA
BRANCH   5   6
ATOM      6  C   UNL A   1      34.412  22.789  26.360  1.00  0.00     0.338 C 
ATOM      7  O   UNL A   1      34.721  22.024  27.244  1.00  0.00    -0.246 OA
BRANCH   6   8
ATOM      8  C   UNL A   1      33.108  23.495  26.324  1.00  0.00     0.062 A 
ATOM      9  C   UNL A   1      31.768  25.510  25.967  1.00  0.00    -0.016 A 
ATOM     10  C   UNL A   1      30.634  24.784  26.368  1.00  0.00     0.029 A 
ATOM     11  C   UNL A   1      33.013  24.847  25.981  1.00  0.00     0.024 A 
ATOM     12  C   UNL A   1      30.740  23.438  26.730  1.00  0.00     0.042 A 
ATOM     13  Cl  UNL A   1      29.340  22.582  27.248  1.00  0.00    -0.084 Cl
ATOM     14  C   UNL A   1      31.965  22.782  26.689  1.00  0.00     0.036 A 
BRANCH   9  15
ATOM     15  C   UNL A   1      31.681  26.913  25.515  1.00  0.00    -0.017 A 
ATOM     16  C   UNL A   1      30.594  28.589  24.111  1.00  0.00     0.083 A 
ATOM     17  C   UNL A   1      31.525  29.554  24.487  1.00  0.00     0.022 A 
ATOM     18  C   UNL A   1      30.656  27.295  24.636  1.00  0.00     0.030 A 
ATOM     19  C   UNL A   1      32.522  29.208  25.401  1.00  0.00     0.002 A 
ATOM     20  C   UNL A   1      32.602  27.900  25.904  1.00  0.00     0.009 A 
BRANCH  16  21
ATOM     21  S   UNL A   1      29.332  28.923  22.913  1.00  0.00     0.242 S 
ATOM     22  O   UNL A   1      28.241  28.001  23.158  1.00  0.00    -0.207 OA
ATOM     23  O   UNL A   1      29.993  28.975  21.628  1.00  0.00    -0.207 OA
BRANCH  21  24
ATOM     24  N   UNL A   1      28.742  30.489  23.278  1.00  0.00    -0.204 NA
ATOM     25  C   UNL A   1      29.153  31.474  22.243  1.00  0.00     0.124 C 
ATOM     26  C   UNL A   1      27.285  30.569  23.529  1.00  0.00     0.124 C 
ENDBRANCH  21  24
ENDBRANCH  16  21
ENDBRANCH   9  15
ENDBRANCH   6   8
ENDBRANCH   5   6
ENDBRANCH   4   5
ENDBRANCH   3   4
ENDBRANCH   2   3
ENDBRANCH   1   2
BRANCH   1  27
ATOM     27  C   UNL A   1      40.163  20.939  26.129  1.00  0.00     0.188 C 
BRANCH  27  28
ATOM     28  O   UNL A   1      41.354  21.316  26.780  1.00  0.00    -0.376 OA
BRANCH  28  29
ATOM     29  C   UNL A   1      42.592  20.861  26.269  1.00  0.00     0.202 C 
BRANCH  29  30
ATOM     30  C   UNL A   1      43.453  21.730  25.334  1.00  0.00     0.261 C 
BRANCH  30  31
ATOM     31  O   UNL A   1      42.893  22.965  24.875  1.00  0.00    -0.460 OA
BRANCH  31  32
ATOM     32  C   UNL A   1      43.659  24.071  24.999  1.00  0.00     0.338 C 
ATOM     33  O   UNL A   1      44.694  24.321  24.410  1.00  0.00    -0.246 OA
BRANCH  32  34
ATOM     34  C   UNL A   1      42.941  25.029  25.866  1.00  0.00     0.060 A 
ATOM     35  C   UNL A   1      43.480  26.309  26.045  1.00  0.00     0.016 A 
ATOM     36  C   UNL A   1      41.761  24.657  26.518  1.00  0.00     0.016 A 
ATOM     37  C   UNL A   1      42.867  27.207  26.919  1.00  0.00     0.010 A 
ATOM     38  C   UNL A   1      41.155  25.553  27.403  1.00  0.00     0.010 A 
ATOM     39  C   UNL A   1      41.729  26.816  27.639  1.00  0.00    -0.014 A 
BRANCH  39  40
ATOM     40  C   UNL A   1      41.268  27.638  28.784  1.00  0.00     0.031 A 
ATOM     41  C   UNL A   1      42.002  27.521  30.091  1.00  0.00     0.074 A 
ATOM     42  C   UNL A   1      40.231  28.485  28.670  1.00  0.00     0.049 A 
ATOM     43  N   UNL A   1      41.784  28.134  31.227  1.00  0.00    -0.248 NA
ATOM     44  C   UNL A   1      43.135  26.581  30.119  1.00  0.00     0.031 C 
ATOM     45  C   UNL A   1      39.450  28.712  27.456  1.00  0.00     0.029 A 
ATOM     46  N   UNL A   1      39.655  29.308  29.605  1.00  0.00    -0.354 N 
ATOM     47  C   UNL A   1      42.748  27.652  32.103  1.00  0.00     0.074 A 
ATOM     48  C   UNL A   1      43.528  26.671  31.379  1.00  0.00     0.031 C 
ATOM     49  C   UNL A   1      38.485  29.609  27.725  1.00  0.00     0.029 A 
ATOM     50  C   UNL A   1      38.568  29.999  29.133  1.00  0.00     0.049 A 
ATOM     51  H   UNL A   1      39.990  29.394  30.527  1.00  0.00     0.167 HD
ATOM     52  C   UNL A   1      42.974  27.997  33.393  1.00  0.00     0.031 A 
ATOM     53  C   UNL A   1      37.726  30.837  29.767  1.00  0.00     0.031 A 
ATOM     54  C   UNL A   1      42.184  28.948  34.127  1.00  0.00     0.049 A 
ATOM     55  C   UNL A   1      37.952  31.163  31.219  1.00  0.00     0.074 A 
ATOM     56  C   UNL A   1      42.338  29.375  35.434  1.00  0.00     0.029 A 
ATOM     57  N   UNL A   1      41.078  29.610  33.616  1.00  0.00    -0.354 N 
ATOM     58  N   UNL A   1      38.892  30.732  32.027  1.00  0.00    -0.248 NA
ATOM     59  C   UNL A   1      37.009  32.103  31.842  1.00  0.00     0.031 C 
ATOM     60  C   UNL A   1      41.293  30.255  35.731  1.00  0.00     0.029 A 
ATOM     61  C   UNL A   1      40.523  30.423  34.591  1.00  0.00     0.049 A 
ATOM     62  H   UNL A   1      40.737  29.516  32.698  1.00  0.00     0.167 HD
ATOM     63  C   UNL A   1      38.670  31.370  33.243  1.00  0.00     0.074 A 
ATOM     64  C   UNL A   1      37.513  32.223  33.062  1.00  0.00     0.031 C 
ATOM     65  C   UNL A   1      39.366  31.261  34.401  1.00  0.00     0.031 A 
BRANCH  52  66
ATOM     66  C   UNL A   1      44.103  27.296  34.094  1.00  0.00    -0.014 A 
ATOM     67  C   UNL A   1      43.892  26.104  34.810  1.00  0.00     0.009 A 
ATOM     68  C   UNL A   1      45.394  27.843  34.055  1.00  0.00     0.009 A 
ATOM     69  C   UNL A   1      44.940  25.505  35.512  1.00  0.00     0.001 A 
ATOM     70  C   UNL A   1      46.446  27.226  34.733  1.00  0.00     0.001 A 
ATOM     71  C   UNL A   1      46.216  26.066  35.471  1.00  0.00     0.000 A 
ENDBRANCH  52  66
BRANCH  53  72
ATOM     72  C   UNL A   1      36.578  31.422  29.027  1.00  0.00    -0.014 A 
ATOM     73  C   UNL A   1      35.467  30.636  28.686  1.00  0.00     0.009 A 
ATOM     74  C   UNL A   1      36.587  32.780  28.667  1.00  0.00     0.009 A 
ATOM     75  C   UNL A   1      34.395  31.195  27.986  1.00  0.00     0.001 A 
ATOM     76  C   UNL A   1      35.503  33.341  27.990  1.00  0.00     0.001 A 
ATOM     77  C   UNL A   1      34.410  32.547  27.645  1.00  0.00     0.000 A 
ENDBRANCH  53  72
BRANCH  65  78
ATOM     78  C   UNL A   1      38.918  32.111  35.559  1.00  0.00    -0.014 A 
ATOM     79  C   UNL A   1      38.175  31.572  36.620  1.00  0.00     0.009 A 
ATOM     80  C   UNL A   1      39.287  33.465  35.608  1.00  0.00     0.009 A 
ATOM     81  C   UNL A   1      37.780  32.381  37.689  1.00  0.00     0.001 A 
ATOM     82  C   UNL A   1      38.916  34.265  36.690  1.00  0.00     0.001 A 
ATOM     83  C   UNL A   1      38.155  33.724  37.725  1.00  0.00     0.000 A 
ENDBRANCH  65  78
ENDBRANCH  39  40
ENDBRANCH  32  34
ENDBRANCH  31  32
ENDBRANCH  30  31
ENDBRANCH  29  30
ENDBRANCH  28  29
ENDBRANCH  27  28
ENDBRANCH   1  27
TORSDOF 20
ENDMDL
MODEL 2
REMARK VINA RESULT:     -10.2      0.625      5.740
REMARK SMILES CN(C)S(=O)(=O)c1cccc(-c2cc(Cl)cc(C(=O)OCCOCCOCCOC(=O)c3ccc(-c4c5nc(c(-c6ccccc6)c6ccc([nH]6)c(-c6ccccc6)c6nc(c(-c7ccccc7)c7ccc4[nH]7)C=C6)C=C5)cc3)c2)c1
REMARK SMILES IDX 24 1 23 2 22 3 21 4 20 5 18 6 19 7 17 8 12 9 13 10 80 11
REMARK SMILES IDX 14 12 15 13 16 14 11 15 7 16 8 17 81 18 9 19 10 20 4 21 5 22
REMARK SMILES IDX 6 23 2 24 1 25 3 26 25 27 26 28 27 29 28 30 29 31 30 32
REMARK SMILES IDX 31 33 32 34 33 35 79 36 34 37 78 38 35 39 36 40 37 41 72 42
REMARK SMILES IDX 38 43 77 44 71 45 73 46 39 47 76 48 70 49 69 50 40 52 62 53
REMARK SMILES IDX 47 54 61 55 48 56 51 57 60 58 74 59 49 60 50 61 59 63 75 64
REMARK SMILES IDX 52 65 41 66 42 67 46 68 43 69 45 70 44 71 63 72 64 73 68 74
REMARK SMILES IDX 65 75 67 76 66 77 53 78 54 79 58 80 55 81 57 82 56 83
REMARK H PARENT 73 51 51 62
REMARK Flexibility Score: inf
ROOT
ATOM      1  C   UNL A   1      39.295  22.855  26.472  1.00  0.00     0.188 C 
ENDROOT
BRANCH   1   2
ATOM      2  O   UNL A   1      37.902  23.050  26.246  1.00  0.00    -0.376 OA
BRANCH   2   3
ATOM      3  C   UNL A   1      37.359  22.850  24.945  1.00  0.00     0.202 C 
BRANCH   3   4
ATOM      4  C   UNL A   1      35.840  22.957  24.757  1.00  0.00     0.261 C 
BRANCH   4   5
ATOM      5  O   UNL A   1      35.165  23.630  25.831  1.00  0.00    -0.460 OA
BRANCH   5   6
ATOM      6  C   UNL A   1      34.261  22.883  26.519  1.00  0.00     0.338 C 
ATOM      7  O   UNL A   1      34.478  21.910  27.206  1.00  0.00    -0.246 OA
BRANCH   6   8
ATOM      8  C   UNL A   1      32.942  23.558  26.473  1.00  0.00     0.062 A 
ATOM      9  C   UNL A   1      31.563  25.552  26.142  1.00  0.00    -0.016 A 
ATOM     10  C   UNL A   1      30.438  24.788  26.498  1.00  0.00     0.029 A 
ATOM     11  C   UNL A   1      32.822  24.916  26.166  1.00  0.00     0.024 A 
ATOM     12  C   UNL A   1      30.568  23.435  26.826  1.00  0.00     0.042 A 
ATOM     13  Cl  UNL A   1      29.178  22.533  27.289  1.00  0.00    -0.084 Cl
ATOM     14  C   UNL A   1      31.809  22.809  26.793  1.00  0.00     0.036 A 
BRANCH   9  15
ATOM     15  C   UNL A   1      31.452  26.964  25.727  1.00  0.00    -0.017 A 
ATOM     16  C   UNL A   1      30.519  28.622  24.197  1.00  0.00     0.083 A 
ATOM     17  C   UNL A   1      31.286  29.631  24.772  1.00  0.00     0.022 A 
ATOM     18  C   UNL A   1      30.583  27.312  24.682  1.00  0.00     0.030 A 
ATOM     19  C   UNL A   1      32.118  29.315  25.848  1.00  0.00     0.002 A 
ATOM     20  C   UNL A   1      32.205  27.995  26.315  1.00  0.00     0.009 A 
BRANCH  16  21
ATOM     21  S   UNL A   1      29.481  28.920  22.792  1.00  0.00     0.242 S 
ATOM     22  O   UNL A   1      28.194  28.312  23.061  1.00  0.00    -0.207 OA
ATOM     23  O   UNL A   1      30.255  28.550  21.627  1.00  0.00    -0.207 OA
BRANCH  21  24
ATOM     24  N   UNL A   1      29.225  30.612  22.750  1.00  0.00    -0.204 NA
ATOM     25  C   UNL A   1      28.752  31.053  21.411  1.00  0.00     0.124 C 
ATOM     26  C   UNL A   1      28.345  31.141  23.817  1.00  0.00     0.124 C 
ENDBRANCH  21  24
ENDBRANCH  16  21
ENDBRANCH   9  15
ENDBRANCH   6   8
ENDBRANCH   5   6
ENDBRANCH   4   5
ENDBRANCH   3   4
ENDBRANCH   2   3
ENDBRANCH   1   2
BRANCH   1  27
ATOM     27  C   UNL A   1      39.920  21.457  26.274  1.00  0.00     0.188 C 
BRANCH  27  28
ATOM     28  O   UNL A   1      41.207  21.335  26.832  1.00  0.00    -0.376 OA
BRANCH  28  29
ATOM     29  C   UNL A   1      42.263  20.844  26.029  1.00  0.00     0.202 C 
BRANCH  29  30
ATOM     30  C   UNL A   1      43.277  21.787  25.355  1.00  0.00     0.261 C 
BRANCH  30  31
ATOM     31  O   UNL A   1      42.829  23.102  25.008  1.00  0.00    -0.460 OA
BRANCH  31  32
ATOM     32  C   UNL A   1      43.676  24.125  25.256  1.00  0.00     0.338 C 
ATOM     33  O   UNL A   1      44.739  24.353  24.709  1.00  0.00    -0.246 OA
BRANCH  32  34
ATOM     34  C   UNL A   1      43.017  25.041  26.212  1.00  0.00     0.060 A 
ATOM     35  C   UNL A   1      43.409  26.385  26.234  1.00  0.00     0.016 A 
ATOM     36  C   UNL A   1      42.041  24.571  27.095  1.00  0.00     0.016 A 
ATOM     37  C   UNL A   1      42.861  27.255  27.177  1.00  0.00     0.010 A 
ATOM     38  C   UNL A   1      41.503  25.440  28.049  1.00  0.00     0.010 A 
ATOM     39  C   UNL A   1      41.941  26.774  28.121  1.00  0.00    -0.014 A 
BRANCH  39  40
ATOM     40  C   UNL A   1      41.603  27.604  29.302  1.00  0.00     0.031 A 
ATOM     41  C   UNL A   1      40.396  28.497  29.229  1.00  0.00     0.074 A 
ATOM     42  C   UNL A   1      42.338  27.559  30.427  1.00  0.00     0.049 A 
ATOM     43  N   UNL A   1      39.905  29.311  30.129  1.00  0.00    -0.248 NA
ATOM     44  C   UNL A   1      39.642  28.469  27.965  1.00  0.00     0.031 C 
ATOM     45  C   UNL A   1      43.515  26.720  30.639  1.00  0.00     0.029 A 
ATOM     46  N   UNL A   1      42.195  28.252  31.603  1.00  0.00    -0.354 N 
ATOM     47  C   UNL A   1      38.790  29.892  29.539  1.00  0.00     0.074 A 
ATOM     48  C   UNL A   1      38.698  29.367  28.194  1.00  0.00     0.031 C 
ATOM     49  C   UNL A   1      43.998  26.957  31.871  1.00  0.00     0.029 A 
ATOM     50  C   UNL A   1      43.177  27.979  32.522  1.00  0.00     0.049 A 
ATOM     51  H   UNL A   1      41.459  28.883  31.772  1.00  0.00     0.167 HD
ATOM     52  C   UNL A   1      37.913  30.779  30.068  1.00  0.00     0.031 A 
ATOM     53  C   UNL A   1      43.398  28.505  33.743  1.00  0.00     0.031 A 
ATOM     54  C   UNL A   1      38.017  31.328  31.392  1.00  0.00     0.049 A 
ATOM     55  C   UNL A   1      42.450  29.536  34.292  1.00  0.00     0.074 A 
ATOM     56  C   UNL A   1      37.173  32.224  32.025  1.00  0.00     0.029 A 
ATOM     57  N   UNL A   1      39.039  31.040  32.284  1.00  0.00    -0.354 N 
ATOM     58  N   UNL A   1      41.374  30.049  33.742  1.00  0.00    -0.248 NA
ATOM     59  C   UNL A   1      42.738  30.049  35.639  1.00  0.00     0.031 C 
ATOM     60  C   UNL A   1      37.715  32.520  33.281  1.00  0.00     0.029 A 
ATOM     61  C   UNL A   1      38.863  31.763  33.453  1.00  0.00     0.049 A 
ATOM     62  H   UNL A   1      39.780  30.417  32.112  1.00  0.00     0.167 HD
ATOM     63  C   UNL A   1      40.844  30.923  34.684  1.00  0.00     0.074 A 
ATOM     64  C   UNL A   1      41.710  30.862  35.844  1.00  0.00     0.031 C 
ATOM     65  C   UNL A   1      39.737  31.700  34.597  1.00  0.00     0.031 A 
BRANCH  52  66
ATOM     66  C   UNL A   1      36.792  31.235  29.178  1.00  0.00    -0.014 A 
ATOM     67  C   UNL A   1      36.670  32.579  28.785  1.00  0.00     0.009 A 
ATOM     68  C   UNL A   1      35.832  30.311  28.740  1.00  0.00     0.009 A 
ATOM     69  C   UNL A   1      35.583  32.996  28.015  1.00  0.00     0.001 A 
ATOM     70  C   UNL A   1      34.762  30.725  27.944  1.00  0.00     0.001 A 
ATOM     71  C   UNL A   1      34.630  32.068  27.594  1.00  0.00     0.000 A 
ENDBRANCH  52  66
BRANCH  53  72
ATOM     72  C   UNL A   1      44.581  28.066  34.527  1.00  0.00    -0.014 A 
ATOM     73  C   UNL A   1      45.806  28.741  34.418  1.00  0.00     0.009 A 
ATOM     74  C   UNL A   1      44.485  26.970  35.400  1.00  0.00     0.009 A 
ATOM     75  C   UNL A   1      46.914  28.318  35.156  1.00  0.00     0.001 A 
ATOM     76  C   UNL A   1      45.586  26.566  36.155  1.00  0.00     0.001 A 
ATOM     77  C   UNL A   1      46.802  27.236  36.029  1.00  0.00     0.000 A 
ENDBRANCH  53  72
BRANCH  65  78
ATOM     78  C   UNL A   1      39.374  32.525  35.802  1.00  0.00    -0.014 A 
ATOM     79  C   UNL A   1      39.864  33.829  35.971  1.00  0.00     0.009 A 
ATOM     80  C   UNL A   1      38.493  32.001  36.761  1.00  0.00     0.009 A 
ATOM     81  C   UNL A   1      39.504  34.578  37.095  1.00  0.00     0.001 A 
ATOM     82  C   UNL A   1      38.112  32.762  37.868  1.00  0.00     0.001 A 
ATOM     83  C   UNL A   1      38.626  34.046  38.038  1.00  0.00     0.000 A 
ENDBRANCH  65  78
ENDBRANCH  39  40
ENDBRANCH  32  34
ENDBRANCH  31  32
ENDBRANCH  30  31
ENDBRANCH  29  30
ENDBRANCH  28  29
ENDBRANCH  27  28
ENDBRANCH   1  27
TORSDOF 20
ENDMDL
MODEL 3
REMARK VINA RESULT:      -9.3      5.279     11.761
REMARK SMILES CN(C)S(=O)(=O)c1cccc(-c2cc(Cl)cc(C(=O)OCCOCCOCCOC(=O)c3ccc(-c4c5nc(c(-c6ccccc6)c6ccc([nH]6)c(-c6ccccc6)c6nc(c(-c7ccccc7)c7ccc4[nH]7)C=C6)C=C5)cc3)c2)c1
REMARK SMILES IDX 24 1 23 2 22 3 21 4 20 5 18 6 19 7 17 8 12 9 13 10 80 11
REMARK SMILES IDX 14 12 15 13 16 14 11 15 7 16 8 17 81 18 9 19 10 20 4 21 5 22
REMARK SMILES IDX 6 23 2 24 1 25 3 26 25 27 26 28 27 29 28 30 29 31 30 32
REMARK SMILES IDX 31 33 32 34 33 35 79 36 34 37 78 38 35 39 36 40 37 41 72 42
REMARK SMILES IDX 38 43 77 44 71 45 73 46 39 47 76 48 70 49 69 50 40 52 62 53
REMARK SMILES IDX 47 54 61 55 48 56 51 57 60 58 74 59 49 60 50 61 59 63 75 64
REMARK SMILES IDX 52 65 41 66 42 67 46 68 43 69 45 70 44 71 63 72 64 73 68 74
REMARK SMILES IDX 65 75 67 76 66 77 53 78 54 79 58 80 55 81 57 82 56 83
REMARK H PARENT 73 51 51 62
REMARK Flexibility Score: inf
ROOT
ATOM      1  C   UNL A   1      37.683  33.358  32.413  1.00  0.00     0.188 C 
ENDROOT
BRANCH   1   2
ATOM      2  O   UNL A   1      36.331  33.247  31.978  1.00  0.00    -0.376 OA
BRANCH   2   3
ATOM      3  C   UNL A   1      35.997  33.525  30.622  1.00  0.00     0.202 C 
BRANCH   3   4
ATOM      4  C   UNL A   1      35.758  32.349  29.666  1.00  0.00     0.261 C 
BRANCH   4   5
ATOM      5  O   UNL A   1      36.964  31.765  29.147  1.00  0.00    -0.460 OA
BRANCH   5   6
ATOM      6  C   UNL A   1      36.808  30.597  28.468  1.00  0.00     0.338 C 
ATOM      7  O   UNL A   1      36.058  30.374  27.545  1.00  0.00    -0.246 OA
BRANCH   6   8
ATOM      8  C   UNL A   1      37.861  29.646  28.897  1.00  0.00     0.062 A 
ATOM      9  C   UNL A   1      39.896  28.358  28.463  1.00  0.00    -0.016 A 
ATOM     10  C   UNL A   1      39.758  27.778  29.735  1.00  0.00     0.029 A 
ATOM     11  C   UNL A   1      38.909  29.277  28.048  1.00  0.00     0.024 A 
ATOM     12  C   UNL A   1      38.695  28.136  30.571  1.00  0.00     0.042 A 
ATOM     13  Cl  UNL A   1      38.532  27.386  32.111  1.00  0.00    -0.084 Cl
ATOM     14  C   UNL A   1      37.759  29.083  30.169  1.00  0.00     0.036 A 
BRANCH   9  15
ATOM     15  C   UNL A   1      41.041  28.053  27.583  1.00  0.00    -0.017 A 
ATOM     16  C   UNL A   1      42.583  26.397  26.664  1.00  0.00     0.083 A 
ATOM     17  C   UNL A   1      43.319  27.391  26.024  1.00  0.00     0.022 A 
ATOM     18  C   UNL A   1      41.448  26.720  27.412  1.00  0.00     0.030 A 
ATOM     19  C   UNL A   1      42.901  28.718  26.139  1.00  0.00     0.002 A 
ATOM     20  C   UNL A   1      41.779  29.045  26.916  1.00  0.00     0.009 A 
BRANCH  16  21
ATOM     21  S   UNL A   1      43.073  24.695  26.621  1.00  0.00     0.242 S 
ATOM     22  O   UNL A   1      44.476  24.635  26.979  1.00  0.00    -0.207 OA
ATOM     23  O   UNL A   1      42.598  24.165  25.363  1.00  0.00    -0.207 OA
BRANCH  21  24
ATOM     24  N   UNL A   1      42.211  23.928  27.886  1.00  0.00    -0.204 NA
ATOM     25  C   UNL A   1      41.581  22.665  27.421  1.00  0.00     0.124 C 
ATOM     26  C   UNL A   1      42.987  23.701  29.128  1.00  0.00     0.124 C 
ENDBRANCH  21  24
ENDBRANCH  16  21
ENDBRANCH   9  15
ENDBRANCH   6   8
ENDBRANCH   5   6
ENDBRANCH   4   5
ENDBRANCH   3   4
ENDBRANCH   2   3
ENDBRANCH   1   2
BRANCH   1  27
ATOM     27  C   UNL A   1      38.232  34.723  32.882  1.00  0.00     0.188 C 
BRANCH  27  28
ATOM     28  O   UNL A   1      38.265  34.861  34.283  1.00  0.00    -0.376 OA
BRANCH  28  29
ATOM     29  C   UNL A   1      37.378  34.092  35.073  1.00  0.00     0.202 C 
BRANCH  29  30
ATOM     30  C   UNL A   1      37.641  33.828  36.566  1.00  0.00     0.261 C 
BRANCH  30  31
ATOM     31  O   UNL A   1      38.715  32.943  36.903  1.00  0.00    -0.460 OA
BRANCH  31  32
ATOM     32  C   UNL A   1      38.589  31.652  36.525  1.00  0.00     0.338 C 
ATOM     33  O   UNL A   1      37.776  30.841  36.926  1.00  0.00    -0.246 OA
BRANCH  32  34
ATOM     34  C   UNL A   1      39.516  31.414  35.398  1.00  0.00     0.060 A 
ATOM     35  C   UNL A   1      39.083  30.624  34.326  1.00  0.00     0.016 A 
ATOM     36  C   UNL A   1      40.809  31.944  35.412  1.00  0.00     0.016 A 
ATOM     37  C   UNL A   1      39.961  30.318  33.286  1.00  0.00     0.010 A 
ATOM     38  C   UNL A   1      41.693  31.626  34.377  1.00  0.00     0.010 A 
ATOM     39  C   UNL A   1      41.286  30.778  33.331  1.00  0.00    -0.014 A 
BRANCH  39  40
ATOM     40  C   UNL A   1      42.292  30.202  32.407  1.00  0.00     0.031 A 
ATOM     41  C   UNL A   1      42.690  30.998  31.196  1.00  0.00     0.074 A 
ATOM     42  C   UNL A   1      42.858  29.006  32.640  1.00  0.00     0.049 A 
ATOM     43  N   UNL A   1      43.544  30.704  30.248  1.00  0.00    -0.248 NA
ATOM     44  C   UNL A   1      42.031  32.305  31.030  1.00  0.00     0.031 C 
ATOM     45  C   UNL A   1      42.582  28.145  33.787  1.00  0.00     0.029 A 
ATOM     46  N   UNL A   1      43.785  28.309  31.905  1.00  0.00    -0.354 N 
ATOM     47  C   UNL A   1      43.522  31.784  29.376  1.00  0.00     0.074 A 
ATOM     48  C   UNL A   1      42.545  32.723  29.885  1.00  0.00     0.031 C 
ATOM     49  C   UNL A   1      43.316  27.024  33.673  1.00  0.00     0.029 A 
ATOM     50  C   UNL A   1      44.094  27.081  32.435  1.00  0.00     0.049 A 
ATOM     51  H   UNL A   1      44.190  28.656  31.078  1.00  0.00     0.167 HD
ATOM     52  C   UNL A   1      44.253  31.986  28.253  1.00  0.00     0.031 A 
ATOM     53  C   UNL A   1      44.901  26.109  31.967  1.00  0.00     0.031 A 
ATOM     54  C   UNL A   1      45.202  31.045  27.725  1.00  0.00     0.049 A 
ATOM     55  C   UNL A   1      45.658  26.323  30.684  1.00  0.00     0.074 A 
ATOM     56  C   UNL A   1      46.000  31.161  26.601  1.00  0.00     0.029 A 
ATOM     57  N   UNL A   1      45.470  29.804  28.281  1.00  0.00    -0.354 N 
ATOM     58  N   UNL A   1      45.660  27.365  29.888  1.00  0.00    -0.248 NA
ATOM     59  C   UNL A   1      46.537  25.229  30.245  1.00  0.00     0.031 C 
ATOM     60  C   UNL A   1      46.712  29.966  26.447  1.00  0.00     0.029 A 
ATOM     61  C   UNL A   1      46.402  29.131  27.508  1.00  0.00     0.049 A 
ATOM     62  H   UNL A   1      45.058  29.452  29.103  1.00  0.00     0.167 HD
ATOM     63  C   UNL A   1      46.559  27.065  28.870  1.00  0.00     0.074 A 
ATOM     64  C   UNL A   1      47.090  25.747  29.156  1.00  0.00     0.031 C 
ATOM     65  C   UNL A   1      46.916  27.816  27.799  1.00  0.00     0.031 A 
BRANCH  52  66
ATOM     66  C   UNL A   1      44.006  33.266  27.505  1.00  0.00    -0.014 A 
ATOM     67  C   UNL A   1      43.538  33.261  26.180  1.00  0.00     0.009 A 
ATOM     68  C   UNL A   1      44.263  34.496  28.129  1.00  0.00     0.009 A 
ATOM     69  C   UNL A   1      43.381  34.459  25.480  1.00  0.00     0.001 A 
ATOM     70  C   UNL A   1      44.076  35.694  27.437  1.00  0.00     0.001 A 
ATOM     71  C   UNL A   1      43.649  35.674  26.110  1.00  0.00     0.000 A 
ENDBRANCH  52  66
BRANCH  53  72
ATOM     72  C   UNL A   1      45.023  24.833  32.719  1.00  0.00    -0.014 A 
ATOM     73  C   UNL A   1      45.997  24.678  33.717  1.00  0.00     0.009 A 
ATOM     74  C   UNL A   1      44.153  23.765  32.446  1.00  0.00     0.009 A 
ATOM     75  C   UNL A   1      46.106  23.474  34.416  1.00  0.00     0.001 A 
ATOM     76  C   UNL A   1      44.249  22.572  33.164  1.00  0.00     0.001 A 
ATOM     77  C   UNL A   1      45.229  22.424  34.144  1.00  0.00     0.000 A 
ENDBRANCH  53  72
BRANCH  65  78
ATOM     78  C   UNL A   1      47.956  27.248  26.872  1.00  0.00    -0.014 A 
ATOM     79  C   UNL A   1      49.326  27.387  27.136  1.00  0.00     0.009 A 
ATOM     80  C   UNL A   1      47.552  26.525  25.739  1.00  0.00     0.009 A 
ATOM     81  C   UNL A   1      50.272  26.842  26.264  1.00  0.00     0.001 A 
ATOM     82  C   UNL A   1      48.498  25.956  24.884  1.00  0.00     0.001 A 
ATOM     83  C   UNL A   1      49.857  26.123  25.143  1.00  0.00     0.000 A 
ENDBRANCH  65  78
ENDBRANCH  39  40
ENDBRANCH  32  34
ENDBRANCH  31  32
ENDBRANCH  30  31
ENDBRANCH  29  30
ENDBRANCH  28  29
ENDBRANCH  27  28
ENDBRANCH   1  27
TORSDOF 20
ENDMDL
