MODEL 1
REMARK VINA RESULT:     -10.8      0.000      0.000
REMARK SMILES CN1C(=O)C(=Cc2ccc(OCc3cccc(C(=O)OCCOCCOCCOC(=O)c4ccc(-c5c6nc(c(-c7ccccc7)c7ccc([nH]7)c(-c7ccccc7)c7nc(c(-c8ccccc8)c8ccc5[nH]8)C=C7)C=C6)cc4)c3)c(Cl)c2)C(=O)N(C)C1=S
REMARK SMILES IDX 24 1 23 2 22 3 21 4 20 5 18 6 19 7 17 8 13 9 14 10 80 11
REMARK SMILES IDX 15 12 16 13 12 14 11 15 10 16 7 17 8 18 83 19 9 20 81 21
REMARK SMILES IDX 82 22 6 23 1 24 2 25 3 26 88 27 4 28 5 29 86 30 89 31 84 32
REMARK SMILES IDX 87 33 85 34 25 35 26 36 27 37 28 38 29 39 30 40 31 41 32 42
REMARK SMILES IDX 33 43 79 44 34 45 78 46 35 47 36 48 37 49 72 50 38 51 77 52
REMARK SMILES IDX 71 53 73 54 39 55 76 56 70 57 69 58 40 60 62 61 47 62 61 63
REMARK SMILES IDX 48 64 51 65 60 66 74 67 49 68 50 69 59 71 75 72 52 73 41 74
REMARK SMILES IDX 42 75 46 76 43 77 45 78 44 79 63 80 64 81 68 82 65 83 67 84
REMARK SMILES IDX 66 85 53 86 54 87 58 88 55 89 57 90 56 91
REMARK H PARENT 73 59 51 70
REMARK Flexibility Score: inf
ROOT
ATOM      1  C   UNL A   1      44.639  22.572  26.114  1.00  0.00     0.188 C 
ENDROOT
BRANCH   1   2
ATOM      2  O   UNL A   1      43.446  22.162  26.770  1.00  0.00    -0.376 OA
BRANCH   2   3
ATOM      3  C   UNL A   1      42.191  22.307  26.128  1.00  0.00     0.202 C 
BRANCH   3   4
ATOM      4  C   UNL A   1      41.264  21.086  26.055  1.00  0.00     0.261 C 
BRANCH   4   5
ATOM      5  O   UNL A   1      39.878  21.344  26.323  1.00  0.00    -0.460 OA
BRANCH   5   6
ATOM      6  C   UNL A   1      38.984  20.642  25.579  1.00  0.00     0.338 C 
ATOM      7  O   UNL A   1      39.109  19.506  25.156  1.00  0.00    -0.246 OA
BRANCH   6   8
ATOM      8  C   UNL A   1      37.717  21.409  25.502  1.00  0.00     0.060 A 
ATOM      9  C   UNL A   1      35.308  21.518  25.160  1.00  0.00    -0.010 A 
ATOM     10  C   UNL A   1      35.406  22.922  25.154  1.00  0.00     0.007 A 
ATOM     11  C   UNL A   1      36.478  20.768  25.365  1.00  0.00     0.023 A 
ATOM     12  C   UNL A   1      36.634  23.561  25.332  1.00  0.00     0.001 A 
ATOM     13  C   UNL A   1      37.789  22.806  25.509  1.00  0.00     0.016 A 
BRANCH   9  14
ATOM     14  C   UNL A   1      33.928  20.904  24.981  1.00  0.00     0.265 C 
BRANCH  14  15
ATOM     15  O   UNL A   1      33.231  21.115  23.753  1.00  0.00    -0.487 OA
BRANCH  15  16
ATOM     16  C   UNL A   1      32.531  22.270  23.544  1.00  0.00     0.138 A 
ATOM     17  C   UNL A   1      31.507  24.787  22.848  1.00  0.00    -0.023 A 
ATOM     18  C   UNL A   1      32.428  24.153  22.013  1.00  0.00     0.012 A 
ATOM     19  C   UNL A   1      31.059  24.137  23.999  1.00  0.00     0.032 A 
ATOM     20  C   UNL A   1      32.915  22.894  22.349  1.00  0.00     0.048 A 
ATOM     21  C   UNL A   1      31.564  22.879  24.351  1.00  0.00     0.083 A 
ATOM     22  Cl  UNL A   1      30.894  22.167  25.773  1.00  0.00    -0.080 Cl
BRANCH  17  23
ATOM     23  C   UNL A   1      31.024  26.126  22.507  1.00  0.00     0.027 C 
ATOM     24  C   UNL A   1      33.366  27.641  26.133  1.00  0.00     0.156 C 
ATOM     25  N   UNL A   1      32.576  28.072  24.977  1.00  0.00    -0.288 N 
ATOM     26  C   UNL A   1      32.726  27.268  23.858  1.00  0.00     0.265 C 
ATOM     27  C   UNL A   1      31.737  29.204  25.031  1.00  0.00     0.185 C 
ATOM     28  O   UNL A   1      33.720  26.595  23.605  1.00  0.00    -0.268 OA
ATOM     29  C   UNL A   1      31.548  27.266  22.991  1.00  0.00     0.106 C 
ATOM     30  N   UNL A   1      30.851  29.359  23.937  1.00  0.00    -0.288 N 
ATOM     31  S   UNL A   1      31.805  30.300  26.322  1.00  0.00    -0.040 S 
ATOM     32  C   UNL A   1      30.765  28.492  22.842  1.00  0.00     0.265 C 
ATOM     33  C   UNL A   1      29.843  30.420  23.886  1.00  0.00     0.156 C 
ATOM     34  O   UNL A   1      30.040  28.676  21.866  1.00  0.00    -0.268 OA
ENDBRANCH  17  23
ENDBRANCH  15  16
ENDBRANCH  14  15
ENDBRANCH   9  14
ENDBRANCH   6   8
ENDBRANCH   5   6
ENDBRANCH   4   5
ENDBRANCH   3   4
ENDBRANCH   2   3
ENDBRANCH   1   2
BRANCH   1  35
ATOM     35  C   UNL A   1      44.612  23.264  24.735  1.00  0.00     0.188 C 
BRANCH  35  36
ATOM     36  O   UNL A   1      45.094  24.597  24.751  1.00  0.00    -0.376 OA
BRANCH  36  37
ATOM     37  C   UNL A   1      44.236  25.576  25.318  1.00  0.00     0.202 C 
BRANCH  37  38
ATOM     38  C   UNL A   1      42.782  25.503  24.853  1.00  0.00     0.261 C 
BRANCH  38  39
ATOM     39  O   UNL A   1      41.908  26.496  25.408  1.00  0.00    -0.460 OA
BRANCH  39  40
ATOM     40  C   UNL A   1      40.796  26.070  26.045  1.00  0.00     0.338 C 
ATOM     41  O   UNL A   1      40.042  25.175  25.706  1.00  0.00    -0.246 OA
BRANCH  40  42
ATOM     42  C   UNL A   1      40.739  26.787  27.333  1.00  0.00     0.060 A 
ATOM     43  C   UNL A   1      39.891  26.324  28.348  1.00  0.00     0.016 A 
ATOM     44  C   UNL A   1      41.559  27.899  27.543  1.00  0.00     0.016 A 
ATOM     45  C   UNL A   1      39.850  26.993  29.574  1.00  0.00     0.010 A 
ATOM     46  C   UNL A   1      41.509  28.569  28.764  1.00  0.00     0.010 A 
ATOM     47  C   UNL A   1      40.635  28.137  29.776  1.00  0.00    -0.014 A 
BRANCH  47  48
ATOM     48  C   UNL A   1      40.437  28.991  30.972  1.00  0.00     0.031 A 
ATOM     49  C   UNL A   1      39.371  30.051  30.926  1.00  0.00     0.074 A 
ATOM     50  C   UNL A   1      41.202  28.849  32.069  1.00  0.00     0.049 A 
ATOM     51  N   UNL A   1      39.058  30.954  31.820  1.00  0.00    -0.248 NA
ATOM     52  C   UNL A   1      38.556  30.103  29.702  1.00  0.00     0.031 C 
ATOM     53  C   UNL A   1      42.248  27.845  32.251  1.00  0.00     0.029 A 
ATOM     54  N   UNL A   1      41.217  29.570  33.237  1.00  0.00    -0.354 N 
ATOM     55  C   UNL A   1      38.019  31.689  31.260  1.00  0.00     0.074 A 
ATOM     56  C   UNL A   1      37.776  31.146  29.942  1.00  0.00     0.031 C 
ATOM     57  C   UNL A   1      42.808  28.016  33.462  1.00  0.00     0.029 A 
ATOM     58  C   UNL A   1      42.186  29.162  34.122  1.00  0.00     0.049 A 
ATOM     59  H   UNL A   1      40.594  30.308  33.423  1.00  0.00     0.167 HD
ATOM     60  C   UNL A   1      37.325  32.720  31.797  1.00  0.00     0.031 A 
ATOM     61  C   UNL A   1      42.541  29.671  35.318  1.00  0.00     0.031 A 
ATOM     62  C   UNL A   1      37.580  33.274  33.099  1.00  0.00     0.049 A 
ATOM     63  C   UNL A   1      41.807  30.871  35.861  1.00  0.00     0.074 A 
ATOM     64  C   UNL A   1      36.915  34.302  33.743  1.00  0.00     0.029 A 
ATOM     65  N   UNL A   1      38.591  32.855  33.950  1.00  0.00    -0.354 N 
ATOM     66  N   UNL A   1      40.797  31.528  35.344  1.00  0.00    -0.248 NA
ATOM     67  C   UNL A   1      42.261  31.394  37.158  1.00  0.00     0.031 C 
ATOM     68  C   UNL A   1      37.565  34.548  34.957  1.00  0.00     0.029 A 
ATOM     69  C   UNL A   1      38.590  33.625  35.100  1.00  0.00     0.049 A 
ATOM     70  H   UNL A   1      39.217  32.118  33.764  1.00  0.00     0.167 HD
ATOM     71  C   UNL A   1      40.474  32.518  36.266  1.00  0.00     0.074 A 
ATOM     72  C   UNL A   1      41.388  32.366  37.379  1.00  0.00     0.031 C 
ATOM     73  C   UNL A   1      39.505  33.464  36.200  1.00  0.00     0.031 A 
BRANCH  60  74
ATOM     74  C   UNL A   1      36.250  33.341  30.950  1.00  0.00    -0.014 A 
ATOM     75  C   UNL A   1      34.986  33.649  31.477  1.00  0.00     0.009 A 
ATOM     76  C   UNL A   1      36.514  33.642  29.604  1.00  0.00     0.009 A 
ATOM     77  C   UNL A   1      33.997  34.208  30.665  1.00  0.00     0.001 A 
ATOM     78  C   UNL A   1      35.534  34.229  28.802  1.00  0.00     0.001 A 
ATOM     79  C   UNL A   1      34.273  34.502  29.331  1.00  0.00     0.000 A 
ENDBRANCH  60  74
BRANCH  61  80
ATOM     80  C   UNL A   1      43.656  29.059  36.091  1.00  0.00    -0.014 A 
ATOM     81  C   UNL A   1      44.968  29.540  35.956  1.00  0.00     0.009 A 
ATOM     82  C   UNL A   1      43.418  27.974  36.949  1.00  0.00     0.009 A 
ATOM     83  C   UNL A   1      46.020  28.933  36.645  1.00  0.00     0.001 A 
ATOM     84  C   UNL A   1      44.468  27.388  37.661  1.00  0.00     0.001 A 
ATOM     85  C   UNL A   1      45.769  27.862  37.501  1.00  0.00     0.000 A 
ENDBRANCH  61  80
BRANCH  73  86
ATOM     86  C   UNL A   1      39.350  34.383  37.381  1.00  0.00    -0.014 A 
ATOM     87  C   UNL A   1      38.666  33.982  38.540  1.00  0.00     0.009 A 
ATOM     88  C   UNL A   1      39.943  35.655  37.350  1.00  0.00     0.009 A 
ATOM     89  C   UNL A   1      38.550  34.852  39.627  1.00  0.00     0.001 A 
ATOM     90  C   UNL A   1      39.853  36.509  38.450  1.00  0.00     0.001 A 
ATOM     91  C   UNL A   1      39.149  36.111  39.584  1.00  0.00     0.000 A 
ENDBRANCH  73  86
ENDBRANCH  47  48
ENDBRANCH  40  42
ENDBRANCH  39  40
ENDBRANCH  38  39
ENDBRANCH  37  38
ENDBRANCH  36  37
ENDBRANCH  35  36
ENDBRANCH   1  35
TORSDOF 21
ENDMDL
MODEL 2
REMARK VINA RESULT:     -10.1      5.944     12.741
REMARK SMILES CN1C(=O)C(=Cc2ccc(OCc3cccc(C(=O)OCCOCCOCCOC(=O)c4ccc(-c5c6nc(c(-c7ccccc7)c7ccc([nH]7)c(-c7ccccc7)c7nc(c(-c8ccccc8)c8ccc5[nH]8)C=C7)C=C6)cc4)c3)c(Cl)c2)C(=O)N(C)C1=S
REMARK SMILES IDX 24 1 23 2 22 3 21 4 20 5 18 6 19 7 17 8 13 9 14 10 80 11
REMARK SMILES IDX 15 12 16 13 12 14 11 15 10 16 7 17 8 18 83 19 9 20 81 21
REMARK SMILES IDX 82 22 6 23 1 24 2 25 3 26 88 27 4 28 5 29 86 30 89 31 84 32
REMARK SMILES IDX 87 33 85 34 25 35 26 36 27 37 28 38 29 39 30 40 31 41 32 42
REMARK SMILES IDX 33 43 79 44 34 45 78 46 35 47 36 48 37 49 72 50 38 51 77 52
REMARK SMILES IDX 71 53 73 54 39 55 76 56 70 57 69 58 40 60 62 61 47 62 61 63
REMARK SMILES IDX 48 64 51 65 60 66 74 67 49 68 50 69 59 71 75 72 52 73 41 74
REMARK SMILES IDX 42 75 46 76 43 77 45 78 44 79 63 80 64 81 68 82 65 83 67 84
REMARK SMILES IDX 66 85 53 86 54 87 58 88 55 89 57 90 56 91
REMARK H PARENT 73 59 51 70
REMARK Flexibility Score: inf
ROOT
ATOM      1  C   UNL A   1      37.870  31.280  34.713  1.00  0.00     0.188 C 
ENDROOT
BRANCH   1   2
ATOM      2  O   UNL A   1      38.859  31.412  35.727  1.00  0.00    -0.376 OA
BRANCH   2   3
ATOM      3  C   UNL A   1      38.676  32.331  36.789  1.00  0.00     0.202 C 
BRANCH   3   4
ATOM      4  C   UNL A   1      39.585  33.566  36.849  1.00  0.00     0.261 C 
BRANCH   4   5
ATOM      5  O   UNL A   1      40.358  33.824  35.667  1.00  0.00    -0.460 OA
BRANCH   5   6
ATOM      6  C   UNL A   1      40.083  34.984  35.015  1.00  0.00     0.338 C 
ATOM      7  O   UNL A   1      38.990  35.498  34.855  1.00  0.00    -0.246 OA
BRANCH   6   8
ATOM      8  C   UNL A   1      41.360  35.653  34.667  1.00  0.00     0.060 A 
ATOM      9  C   UNL A   1      43.387  35.814  33.326  1.00  0.00    -0.010 A 
ATOM     10  C   UNL A   1      43.846  36.817  34.201  1.00  0.00     0.007 A 
ATOM     11  C   UNL A   1      42.119  35.256  33.558  1.00  0.00     0.023 A 
ATOM     12  C   UNL A   1      43.072  37.242  35.282  1.00  0.00     0.001 A 
ATOM     13  C   UNL A   1      41.828  36.663  35.514  1.00  0.00     0.016 A 
BRANCH   9  14
ATOM     14  C   UNL A   1      44.285  35.427  32.161  1.00  0.00     0.265 C 
BRANCH  14  15
ATOM     15  O   UNL A   1      43.733  35.394  30.844  1.00  0.00    -0.487 OA
BRANCH  15  16
ATOM     16  C   UNL A   1      43.544  34.202  30.203  1.00  0.00     0.138 A 
ATOM     17  C   UNL A   1      43.540  31.910  28.587  1.00  0.00    -0.023 A 
ATOM     18  C   UNL A   1      44.720  32.631  28.773  1.00  0.00     0.012 A 
ATOM     19  C   UNL A   1      42.379  32.304  29.253  1.00  0.00     0.032 A 
ATOM     20  C   UNL A   1      44.723  33.753  29.594  1.00  0.00     0.048 A 
ATOM     21  C   UNL A   1      42.375  33.446  30.065  1.00  0.00     0.083 A 
ATOM     22  Cl  UNL A   1      40.887  33.798  30.866  1.00  0.00    -0.080 Cl
BRANCH  17  23
ATOM     23  C   UNL A   1      43.534  30.750  27.693  1.00  0.00     0.027 C 
ATOM     24  C   UNL A   1      47.461  29.494  29.675  1.00  0.00     0.156 C 
ATOM     25  N   UNL A   1      46.435  29.069  28.720  1.00  0.00    -0.288 N 
ATOM     26  C   UNL A   1      45.154  29.491  29.040  1.00  0.00     0.265 C 
ATOM     27  C   UNL A   1      46.754  28.307  27.576  1.00  0.00     0.185 C 
ATOM     28  O   UNL A   1      44.759  29.734  30.176  1.00  0.00    -0.268 OA
ATOM     29  C   UNL A   1      44.294  29.655  27.868  1.00  0.00     0.106 C 
ATOM     30  N   UNL A   1      45.718  28.181  26.620  1.00  0.00    -0.288 N 
ATOM     31  S   UNL A   1      48.277  27.590  27.383  1.00  0.00    -0.040 S 
ATOM     32  C   UNL A   1      44.441  28.740  26.736  1.00  0.00     0.265 C 
ATOM     33  C   UNL A   1      45.915  27.512  25.331  1.00  0.00     0.156 C 
ATOM     34  O   UNL A   1      43.530  28.566  25.930  1.00  0.00    -0.268 OA
ENDBRANCH  17  23
ENDBRANCH  15  16
ENDBRANCH  14  15
ENDBRANCH   9  14
ENDBRANCH   6   8
ENDBRANCH   5   6
ENDBRANCH   4   5
ENDBRANCH   3   4
ENDBRANCH   2   3
ENDBRANCH   1   2
BRANCH   1  35
ATOM     35  C   UNL A   1      37.229  32.510  34.039  1.00  0.00     0.188 C 
BRANCH  35  36
ATOM     36  O   UNL A   1      35.846  32.662  34.315  1.00  0.00    -0.376 OA
BRANCH  36  37
ATOM     37  C   UNL A   1      35.152  33.642  33.557  1.00  0.00     0.202 C 
BRANCH  37  38
ATOM     38  C   UNL A   1      35.407  33.590  32.051  1.00  0.00     0.261 C 
BRANCH  38  39
ATOM     39  O   UNL A   1      34.841  32.463  31.369  1.00  0.00    -0.460 OA
BRANCH  39  40
ATOM     40  C   UNL A   1      35.258  32.216  30.108  1.00  0.00     0.338 C 
ATOM     41  O   UNL A   1      34.793  32.655  29.071  1.00  0.00    -0.246 OA
BRANCH  40  42
ATOM     42  C   UNL A   1      36.502  31.430  30.215  1.00  0.00     0.060 A 
ATOM     43  C   UNL A   1      36.530  30.282  31.020  1.00  0.00     0.016 A 
ATOM     44  C   UNL A   1      37.629  31.813  29.483  1.00  0.00     0.016 A 
ATOM     45  C   UNL A   1      37.703  29.528  31.108  1.00  0.00     0.010 A 
ATOM     46  C   UNL A   1      38.800  31.063  29.580  1.00  0.00     0.010 A 
ATOM     47  C   UNL A   1      38.852  29.933  30.414  1.00  0.00    -0.014 A 
BRANCH  47  48
ATOM     48  C   UNL A   1      40.162  29.287  30.673  1.00  0.00     0.031 A 
ATOM     49  C   UNL A   1      41.031  29.844  31.766  1.00  0.00     0.074 A 
ATOM     50  C   UNL A   1      40.586  28.244  29.937  1.00  0.00     0.049 A 
ATOM     51  N   UNL A   1      42.236  29.489  32.132  1.00  0.00    -0.248 NA
ATOM     52  C   UNL A   1      40.465  30.957  32.545  1.00  0.00     0.031 C 
ATOM     53  C   UNL A   1      39.829  27.594  28.869  1.00  0.00     0.029 A 
ATOM     54  N   UNL A   1      41.773  27.556  29.979  1.00  0.00    -0.354 N 
ATOM     55  C   UNL A   1      42.576  30.343  33.175  1.00  0.00     0.074 A 
ATOM     56  C   UNL A   1      41.465  31.250  33.362  1.00  0.00     0.031 C 
ATOM     57  C   UNL A   1      40.575  26.601  28.351  1.00  0.00     0.029 A 
ATOM     58  C   UNL A   1      41.871  26.571  29.026  1.00  0.00     0.049 A 
ATOM     59  H   UNL A   1      42.486  27.750  30.628  1.00  0.00     0.167 HD
ATOM     60  C   UNL A   1      43.710  30.368  33.914  1.00  0.00     0.031 A 
ATOM     61  C   UNL A   1      42.899  25.755  28.722  1.00  0.00     0.031 A 
ATOM     62  C   UNL A   1      44.824  29.480  33.715  1.00  0.00     0.049 A 
ATOM     63  C   UNL A   1      44.183  25.854  29.506  1.00  0.00     0.074 A 
ATOM     64  C   UNL A   1      46.007  29.409  34.429  1.00  0.00     0.029 A 
ATOM     65  N   UNL A   1      44.897  28.520  32.719  1.00  0.00    -0.354 N 
ATOM     66  N   UNL A   1      44.477  26.635  30.519  1.00  0.00    -0.248 NA
ATOM     67  C   UNL A   1      45.274  24.954  29.107  1.00  0.00     0.031 C 
ATOM     68  C   UNL A   1      46.823  28.448  33.823  1.00  0.00     0.029 A 
ATOM     69  C   UNL A   1      46.120  27.872  32.777  1.00  0.00     0.049 A 
ATOM     70  H   UNL A   1      44.186  28.326  32.067  1.00  0.00     0.167 HD
ATOM     71  C   UNL A   1      45.771  26.295  30.898  1.00  0.00     0.074 A 
ATOM     72  C   UNL A   1      46.200  25.231  30.015  1.00  0.00     0.031 C 
ATOM     73  C   UNL A   1      46.534  26.815  31.892  1.00  0.00     0.031 A 
BRANCH  60  74
ATOM     74  C   UNL A   1      43.814  31.423  34.980  1.00  0.00    -0.014 A 
ATOM     75  C   UNL A   1      44.617  32.561  34.811  1.00  0.00     0.009 A 
ATOM     76  C   UNL A   1      43.078  31.283  36.168  1.00  0.00     0.009 A 
ATOM     77  C   UNL A   1      44.712  33.517  35.824  1.00  0.00     0.001 A 
ATOM     78  C   UNL A   1      43.151  32.255  37.166  1.00  0.00     0.001 A 
ATOM     79  C   UNL A   1      43.976  33.366  36.998  1.00  0.00     0.000 A 
ENDBRANCH  60  74
BRANCH  61  80
ATOM     80  C   UNL A   1      42.770  24.769  27.615  1.00  0.00    -0.014 A 
ATOM     81  C   UNL A   1      42.332  23.460  27.871  1.00  0.00     0.009 A 
ATOM     82  C   UNL A   1      43.107  25.124  26.300  1.00  0.00     0.009 A 
ATOM     83  C   UNL A   1      42.258  22.522  26.838  1.00  0.00     0.001 A 
ATOM     84  C   UNL A   1      43.002  24.192  25.263  1.00  0.00     0.001 A 
ATOM     85  C   UNL A   1      42.587  22.890  25.535  1.00  0.00     0.000 A 
ENDBRANCH  61  80
BRANCH  73  86
ATOM     86  C   UNL A   1      47.895  26.212  32.109  1.00  0.00    -0.014 A 
ATOM     87  C   UNL A   1      48.993  26.567  31.309  1.00  0.00     0.009 A 
ATOM     88  C   UNL A   1      48.090  25.307  33.164  1.00  0.00     0.009 A 
ATOM     89  C   UNL A   1      50.249  26.002  31.542  1.00  0.00     0.001 A 
ATOM     90  C   UNL A   1      49.353  24.768  33.416  1.00  0.00     0.001 A 
ATOM     91  C   UNL A   1      50.429  25.108  32.599  1.00  0.00     0.000 A 
ENDBRANCH  73  86
ENDBRANCH  47  48
ENDBRANCH  40  42
ENDBRANCH  39  40
ENDBRANCH  38  39
ENDBRANCH  37  38
ENDBRANCH  36  37
ENDBRANCH  35  36
ENDBRANCH   1  35
TORSDOF 21
ENDMDL
MODEL 3
REMARK VINA RESULT:     -10.1     12.230     18.280
REMARK SMILES CN1C(=O)C(=Cc2ccc(OCc3cccc(C(=O)OCCOCCOCCOC(=O)c4ccc(-c5c6nc(c(-c7ccccc7)c7ccc([nH]7)c(-c7ccccc7)c7nc(c(-c8ccccc8)c8ccc5[nH]8)C=C7)C=C6)cc4)c3)c(Cl)c2)C(=O)N(C)C1=S
REMARK SMILES IDX 24 1 23 2 22 3 21 4 20 5 18 6 19 7 17 8 13 9 14 10 80 11
REMARK SMILES IDX 15 12 16 13 12 14 11 15 10 16 7 17 8 18 83 19 9 20 81 21
REMARK SMILES IDX 82 22 6 23 1 24 2 25 3 26 88 27 4 28 5 29 86 30 89 31 84 32
REMARK SMILES IDX 87 33 85 34 25 35 26 36 27 37 28 38 29 39 30 40 31 41 32 42
REMARK SMILES IDX 33 43 79 44 34 45 78 46 35 47 36 48 37 49 72 50 38 51 77 52
REMARK SMILES IDX 71 53 73 54 39 55 76 56 70 57 69 58 40 60 62 61 47 62 61 63
REMARK SMILES IDX 48 64 51 65 60 66 74 67 49 68 50 69 59 71 75 72 52 73 41 74
REMARK SMILES IDX 42 75 46 76 43 77 45 78 44 79 63 80 64 81 68 82 65 83 67 84
REMARK SMILES IDX 66 85 53 86 54 87 58 88 55 89 57 90 56 91
REMARK H PARENT 73 59 51 70
REMARK Flexibility Score: inf
ROOT
ATOM      1  C   UNL A   1      41.921  41.769  24.315  1.00  0.00     0.188 C 
ENDROOT
BRANCH   1   2
ATOM      2  O   UNL A   1      42.273  41.722  22.938  1.00  0.00    -0.376 OA
BRANCH   2   3
ATOM      3  C   UNL A   1      42.493  42.921  22.215  1.00  0.00     0.202 C 
BRANCH   3   4
ATOM      4  C   UNL A   1      41.450  43.345  21.172  1.00  0.00     0.261 C 
BRANCH   4   5
ATOM      5  O   UNL A   1      41.839  43.171  19.801  1.00  0.00    -0.460 OA
BRANCH   5   6
ATOM      6  C   UNL A   1      41.272  44.021  18.906  1.00  0.00     0.338 C 
ATOM      7  O   UNL A   1      40.098  44.071  18.579  1.00  0.00    -0.246 OA
BRANCH   6   8
ATOM      8  C   UNL A   1      42.277  45.034  18.502  1.00  0.00     0.060 A 
ATOM      9  C   UNL A   1      44.517  45.983  18.624  1.00  0.00    -0.010 A 
ATOM     10  C   UNL A   1      44.055  47.082  17.875  1.00  0.00     0.007 A 
ATOM     11  C   UNL A   1      43.614  44.944  18.908  1.00  0.00     0.023 A 
ATOM     12  C   UNL A   1      42.733  47.152  17.434  1.00  0.00     0.001 A 
ATOM     13  C   UNL A   1      41.844  46.127  17.744  1.00  0.00     0.016 A 
BRANCH   9  14
ATOM     14  C   UNL A   1      45.978  45.977  19.045  1.00  0.00     0.265 C 
BRANCH  14  15
ATOM     15  O   UNL A   1      46.772  44.822  18.772  1.00  0.00    -0.487 OA
BRANCH  15  16
ATOM     16  C   UNL A   1      47.040  43.917  19.759  1.00  0.00     0.138 A 
ATOM     17  C   UNL A   1      47.082  42.007  21.814  1.00  0.00    -0.023 A 
ATOM     18  C   UNL A   1      46.032  42.020  20.894  1.00  0.00     0.012 A 
ATOM     19  C   UNL A   1      48.135  42.912  21.671  1.00  0.00     0.032 A 
ATOM     20  C   UNL A   1      46.027  42.953  19.863  1.00  0.00     0.048 A 
ATOM     21  C   UNL A   1      48.122  43.866  20.645  1.00  0.00     0.083 A 
ATOM     22  Cl  UNL A   1      49.504  44.895  20.553  1.00  0.00    -0.080 Cl
BRANCH  17  23
ATOM     23  C   UNL A   1      47.065  41.046  22.918  1.00  0.00     0.027 C 
ATOM     24  C   UNL A   1      46.821  44.640  25.737  1.00  0.00     0.156 C 
ATOM     25  N   UNL A   1      46.776  43.177  25.687  1.00  0.00    -0.288 N 
ATOM     26  C   UNL A   1      46.190  42.667  24.539  1.00  0.00     0.265 C 
ATOM     27  C   UNL A   1      47.301  42.381  26.727  1.00  0.00     0.185 C 
ATOM     28  O   UNL A   1      45.350  43.252  23.862  1.00  0.00    -0.268 OA
ATOM     29  C   UNL A   1      46.695  41.344  24.176  1.00  0.00     0.106 C 
ATOM     30  N   UNL A   1      47.416  41.000  26.439  1.00  0.00    -0.288 N 
ATOM     31  S   UNL A   1      47.749  43.051  28.218  1.00  0.00    -0.040 S 
ATOM     32  C   UNL A   1      47.049  40.396  25.232  1.00  0.00     0.265 C 
ATOM     33  C   UNL A   1      48.037  40.052  27.368  1.00  0.00     0.156 C 
ATOM     34  O   UNL A   1      47.090  39.185  25.020  1.00  0.00    -0.268 OA
ENDBRANCH  17  23
ENDBRANCH  15  16
ENDBRANCH  14  15
ENDBRANCH   9  14
ENDBRANCH   6   8
ENDBRANCH   5   6
ENDBRANCH   4   5
ENDBRANCH   3   4
ENDBRANCH   2   3
ENDBRANCH   1   2
BRANCH   1  35
ATOM     35  C   UNL A   1      42.827  41.162  25.406  1.00  0.00     0.188 C 
BRANCH  35  36
ATOM     36  O   UNL A   1      42.116  40.608  26.501  1.00  0.00    -0.376 OA
BRANCH  36  37
ATOM     37  C   UNL A   1      42.889  39.933  27.483  1.00  0.00     0.202 C 
BRANCH  37  38
ATOM     38  C   UNL A   1      43.562  38.648  27.001  1.00  0.00     0.261 C 
BRANCH  38  39
ATOM     39  O   UNL A   1      42.675  37.648  26.479  1.00  0.00    -0.460 OA
BRANCH  39  40
ATOM     40  C   UNL A   1      42.193  36.724  27.338  1.00  0.00     0.338 C 
ATOM     41  O   UNL A   1      41.162  36.776  27.984  1.00  0.00    -0.246 OA
BRANCH  40  42
ATOM     42  C   UNL A   1      43.075  35.545  27.237  1.00  0.00     0.060 A 
ATOM     43  C   UNL A   1      43.544  34.928  28.405  1.00  0.00     0.016 A 
ATOM     44  C   UNL A   1      43.401  35.030  25.980  1.00  0.00     0.016 A 
ATOM     45  C   UNL A   1      44.365  33.802  28.310  1.00  0.00     0.010 A 
ATOM     46  C   UNL A   1      44.227  33.911  25.889  1.00  0.00     0.010 A 
ATOM     47  C   UNL A   1      44.736  33.307  27.051  1.00  0.00    -0.014 A 
BRANCH  47  48
ATOM     48  C   UNL A   1      45.783  32.265  26.925  1.00  0.00     0.031 A 
ATOM     49  C   UNL A   1      47.217  32.702  26.806  1.00  0.00     0.074 A 
ATOM     50  C   UNL A   1      45.470  30.957  26.889  1.00  0.00     0.049 A 
ATOM     51  N   UNL A   1      48.293  31.981  26.622  1.00  0.00    -0.248 NA
ATOM     52  C   UNL A   1      47.467  34.150  26.899  1.00  0.00     0.031 C 
ATOM     53  C   UNL A   1      44.125  30.403  27.022  1.00  0.00     0.029 A 
ATOM     54  N   UNL A   1      46.275  29.859  26.718  1.00  0.00    -0.354 N 
ATOM     55  C   UNL A   1      49.345  32.888  26.565  1.00  0.00     0.074 A 
ATOM     56  C   UNL A   1      48.775  34.210  26.703  1.00  0.00     0.031 C 
ATOM     57  C   UNL A   1      44.196  29.063  26.923  1.00  0.00     0.029 A 
ATOM     58  C   UNL A   1      45.584  28.671  26.683  1.00  0.00     0.049 A 
ATOM     59  H   UNL A   1      47.253  29.916  26.628  1.00  0.00     0.167 HD
ATOM     60  C   UNL A   1      50.668  32.643  26.415  1.00  0.00     0.031 A 
ATOM     61  C   UNL A   1      46.022  27.417  26.462  1.00  0.00     0.031 A 
ATOM     62  C   UNL A   1      51.233  31.330  26.257  1.00  0.00     0.049 A 
ATOM     63  C   UNL A   1      47.490  27.176  26.218  1.00  0.00     0.074 A 
ATOM     64  C   UNL A   1      52.565  30.975  26.124  1.00  0.00     0.029 A 
ATOM     65  N   UNL A   1      50.497  30.158  26.193  1.00  0.00    -0.354 N 
ATOM     66  N   UNL A   1      48.481  28.036  26.211  1.00  0.00    -0.248 NA
ATOM     67  C   UNL A   1      47.899  25.788  25.957  1.00  0.00     0.031 C 
ATOM     68  C   UNL A   1      52.628  29.594  25.916  1.00  0.00     0.029 A 
ATOM     69  C   UNL A   1      51.343  29.080  25.990  1.00  0.00     0.049 A 
ATOM     70  H   UNL A   1      49.519  30.099  26.280  1.00  0.00     0.167 HD
ATOM     71  C   UNL A   1      49.631  27.289  25.979  1.00  0.00     0.074 A 
ATOM     72  C   UNL A   1      49.217  25.906  25.864  1.00  0.00     0.031 C 
ATOM     73  C   UNL A   1      50.917  27.710  25.877  1.00  0.00     0.031 A 
BRANCH  60  74
ATOM     74  C   UNL A   1      51.588  33.831  26.373  1.00  0.00    -0.014 A 
ATOM     75  C   UNL A   1      52.048  34.445  27.549  1.00  0.00     0.009 A 
ATOM     76  C   UNL A   1      52.017  34.333  25.134  1.00  0.00     0.009 A 
ATOM     77  C   UNL A   1      52.887  35.560  27.484  1.00  0.00     0.001 A 
ATOM     78  C   UNL A   1      52.880  35.428  25.072  1.00  0.00     0.001 A 
ATOM     79  C   UNL A   1      53.305  36.047  26.247  1.00  0.00     0.000 A 
ENDBRANCH  60  74
BRANCH  61  80
ATOM     80  C   UNL A   1      45.062  26.280  26.451  1.00  0.00    -0.014 A 
ATOM     81  C   UNL A   1      44.783  25.569  27.629  1.00  0.00     0.009 A 
ATOM     82  C   UNL A   1      44.439  25.883  25.257  1.00  0.00     0.009 A 
ATOM     83  C   UNL A   1      43.918  24.472  27.606  1.00  0.00     0.001 A 
ATOM     84  C   UNL A   1      43.552  24.804  25.244  1.00  0.00     0.001 A 
ATOM     85  C   UNL A   1      43.299  24.094  26.417  1.00  0.00     0.000 A 
ENDBRANCH  61  80
BRANCH  73  86
ATOM     86  C   UNL A   1      51.975  26.661  25.672  1.00  0.00    -0.014 A 
ATOM     87  C   UNL A   1      52.401  26.286  24.387  1.00  0.00     0.009 A 
ATOM     88  C   UNL A   1      52.591  26.072  26.788  1.00  0.00     0.009 A 
ATOM     89  C   UNL A   1      53.396  25.319  24.227  1.00  0.00     0.001 A 
ATOM     90  C   UNL A   1      53.609  25.130  26.626  1.00  0.00     0.001 A 
ATOM     91  C   UNL A   1      54.003  24.747  25.346  1.00  0.00     0.000 A 
ENDBRANCH  73  86
ENDBRANCH  47  48
ENDBRANCH  40  42
ENDBRANCH  39  40
ENDBRANCH  38  39
ENDBRANCH  37  38
ENDBRANCH  36  37
ENDBRANCH  35  36
ENDBRANCH   1  35
TORSDOF 21
ENDMDL
