MODEL 1
REMARK VINA RESULT:     -10.9      0.000      0.000
REMARK SMILES Cc1nc2ccc(Cl)cc2cc1C(=O)N1CCC(C(=O)OCCOCCOCCOC(=O)c2ccc(-c3c4nc(c(-c5ccccc5)c5ccc([nH]5)c(-c5ccccc5)c5nc(c(-c6ccccc6)c6ccc3[nH]6)C=C5)C=C4)cc2)CC1
REMARK SMILES IDX 26 1 25 2 24 3 23 4 22 5 21 6 19 7 20 8 18 9 13 10 14 11
REMARK SMILES IDX 15 12 16 13 82 14 17 15 81 16 12 17 1 18 2 19 3 20 4 21
REMARK SMILES IDX 11 22 5 23 10 24 6 25 9 26 7 27 8 28 27 29 28 30 29 31 30 32
REMARK SMILES IDX 31 33 32 34 33 35 34 36 80 37 35 38 79 39 36 40 37 41 38 42
REMARK SMILES IDX 73 43 39 44 78 45 72 46 74 47 40 48 77 49 71 50 70 51 41 53
REMARK SMILES IDX 63 54 48 55 62 56 49 57 52 58 61 59 75 60 50 61 51 62 60 64
REMARK SMILES IDX 76 65 53 66 42 67 43 68 47 69 44 70 46 71 45 72 64 73 65 74
REMARK SMILES IDX 69 75 66 76 68 77 67 78 54 79 55 80 59 81 56 82 58 83 57 84
REMARK H PARENT 74 52 52 63
REMARK Flexibility Score: inf
ROOT
ATOM      1  C   UNL A   1      45.749  19.984  25.110  1.00  0.00     0.188 C 
ENDROOT
BRANCH   1   2
ATOM      2  C   UNL A   1      44.293  20.157  24.679  1.00  0.00     0.188 C 
BRANCH   2   3
ATOM      3  O   UNL A   1      43.455  19.015  24.809  1.00  0.00    -0.376 OA
BRANCH   3   4
ATOM      4  C   UNL A   1      42.468  19.051  25.840  1.00  0.00     0.202 C 
BRANCH   4   5
ATOM      5  C   UNL A   1      42.112  20.435  26.399  1.00  0.00     0.261 C 
BRANCH   5   6
ATOM      6  O   UNL A   1      41.057  21.103  25.680  1.00  0.00    -0.463 OA
BRANCH   6   7
ATOM      7  C   UNL A   1      40.067  21.633  26.447  1.00  0.00     0.309 C 
ATOM      8  O   UNL A   1      40.180  21.929  27.631  1.00  0.00    -0.252 OA
BRANCH   7   9
ATOM      9  C   UNL A   1      38.786  21.917  25.678  1.00  0.00     0.103 C 
ATOM     10  C   UNL A   1      34.582  22.644  25.172  1.00  0.00     0.255 C 
ATOM     11  O   UNL A   1      33.785  21.719  25.306  1.00  0.00    -0.269 OA
ATOM     12  N   UNL A   1      35.970  22.476  25.255  1.00  0.00    -0.339 N 
ATOM     13  C   UNL A   1      36.524  21.195  24.822  1.00  0.00     0.120 C 
ATOM     14  C   UNL A   1      36.910  23.574  25.481  1.00  0.00     0.120 C 
ATOM     15  C   UNL A   1      37.777  20.769  25.584  1.00  0.00     0.037 C 
ATOM     16  C   UNL A   1      38.109  23.136  26.307  1.00  0.00     0.037 C 
BRANCH  10  17
ATOM     17  C   UNL A   1      34.052  23.966  24.751  1.00  0.00     0.061 A 
ATOM     18  C   UNL A   1      34.327  23.491  22.267  1.00  0.00     0.067 C 
ATOM     19  C   UNL A   1      33.965  24.376  23.424  1.00  0.00     0.051 A 
ATOM     20  N   UNL A   1      33.593  25.647  23.082  1.00  0.00    -0.252 NA
ATOM     21  C   UNL A   1      33.305  26.536  24.051  1.00  0.00     0.071 A 
ATOM     22  C   UNL A   1      33.764  24.902  25.750  1.00  0.00     0.026 A 
ATOM     23  C   UNL A   1      32.955  27.840  23.725  1.00  0.00     0.030 A 
ATOM     24  C   UNL A   1      33.362  26.195  25.415  1.00  0.00     0.002 A 
ATOM     25  C   UNL A   1      32.643  28.789  24.709  1.00  0.00     0.023 A 
ATOM     26  C   UNL A   1      33.040  27.133  26.410  1.00  0.00     0.030 A 
ATOM     27  C   UNL A   1      32.677  28.425  26.049  1.00  0.00     0.041 A 
ATOM     28  Cl  UNL A   1      32.273  29.569  27.267  1.00  0.00    -0.084 Cl
ENDBRANCH  10  17
ENDBRANCH   7   9
ENDBRANCH   6   7
ENDBRANCH   5   6
ENDBRANCH   4   5
ENDBRANCH   3   4
ENDBRANCH   2   3
ENDBRANCH   1   2
BRANCH   1  29
ATOM     29  O   UNL A   1      46.486  21.190  25.253  1.00  0.00    -0.376 OA
BRANCH  29  30
ATOM     30  C   UNL A   1      46.006  22.300  24.482  1.00  0.00     0.202 C 
BRANCH  30  31
ATOM     31  C   UNL A   1      45.922  23.648  25.228  1.00  0.00     0.261 C 
BRANCH  31  32
ATOM     32  O   UNL A   1      44.968  24.580  24.674  1.00  0.00    -0.460 OA
BRANCH  32  33
ATOM     33  C   UNL A   1      43.659  24.250  24.766  1.00  0.00     0.338 C 
ATOM     34  O   UNL A   1      43.127  23.254  24.305  1.00  0.00    -0.246 OA
BRANCH  33  35
ATOM     35  C   UNL A   1      43.015  25.154  25.753  1.00  0.00     0.060 A 
ATOM     36  C   UNL A   1      43.588  26.418  25.958  1.00  0.00     0.016 A 
ATOM     37  C   UNL A   1      41.837  24.807  26.422  1.00  0.00     0.016 A 
ATOM     38  C   UNL A   1      43.014  27.315  26.862  1.00  0.00     0.010 A 
ATOM     39  C   UNL A   1      41.270  25.699  27.338  1.00  0.00     0.010 A 
ATOM     40  C   UNL A   1      41.875  26.944  27.589  1.00  0.00    -0.014 A 
BRANCH  40  41
ATOM     41  C   UNL A   1      41.454  27.748  28.763  1.00  0.00     0.031 A 
ATOM     42  C   UNL A   1      42.220  27.580  30.048  1.00  0.00     0.074 A 
ATOM     43  C   UNL A   1      40.433  28.623  28.708  1.00  0.00     0.049 A 
ATOM     44  N   UNL A   1      42.023  28.140  31.214  1.00  0.00    -0.248 NA
ATOM     45  C   UNL A   1      43.363  26.651  30.009  1.00  0.00     0.031 C 
ATOM     46  C   UNL A   1      39.633  28.927  27.524  1.00  0.00     0.029 A 
ATOM     47  N   UNL A   1      39.895  29.417  29.693  1.00  0.00    -0.354 N 
ATOM     48  C   UNL A   1      43.012  27.630  32.046  1.00  0.00     0.074 A 
ATOM     49  C   UNL A   1      43.790  26.697  31.261  1.00  0.00     0.031 C 
ATOM     50  C   UNL A   1      38.697  29.838  27.855  1.00  0.00     0.029 A 
ATOM     51  C   UNL A   1      38.815  30.156  29.279  1.00  0.00     0.049 A 
ATOM     52  H   UNL A   1      40.251  29.451  30.611  1.00  0.00     0.167 HD
ATOM     53  C   UNL A   1      43.259  27.912  33.346  1.00  0.00     0.031 A 
ATOM     54  C   UNL A   1      38.002  30.978  29.972  1.00  0.00     0.031 A 
ATOM     55  C   UNL A   1      42.484  28.818  34.146  1.00  0.00     0.049 A 
ATOM     56  C   UNL A   1      38.239  31.204  31.445  1.00  0.00     0.074 A 
ATOM     57  C   UNL A   1      42.669  29.169  35.472  1.00  0.00     0.029 A 
ATOM     58  N   UNL A   1      41.371  29.510  33.699  1.00  0.00    -0.354 N 
ATOM     59  N   UNL A   1      39.193  30.737  32.212  1.00  0.00    -0.248 NA
ATOM     60  C   UNL A   1      37.282  32.076  32.144  1.00  0.00     0.031 C 
ATOM     61  C   UNL A   1      41.633  30.033  35.844  1.00  0.00     0.029 A 
ATOM     62  C   UNL A   1      40.840  30.263  34.732  1.00  0.00     0.049 A 
ATOM     63  H   UNL A   1      41.011  29.470  32.784  1.00  0.00     0.167 HD
ATOM     64  C   UNL A   1      38.969  31.279  33.473  1.00  0.00     0.074 A 
ATOM     65  C   UNL A   1      37.796  32.121  33.365  1.00  0.00     0.031 C 
ATOM     66  C   UNL A   1      39.675  31.100  34.616  1.00  0.00     0.031 A 
BRANCH  53  67
ATOM     67  C   UNL A   1      44.406  27.192  33.993  1.00  0.00    -0.014 A 
ATOM     68  C   UNL A   1      44.201  26.026  34.747  1.00  0.00     0.009 A 
ATOM     69  C   UNL A   1      45.712  27.680  33.830  1.00  0.00     0.009 A 
ATOM     70  C   UNL A   1      45.280  25.380  35.352  1.00  0.00     0.001 A 
ATOM     71  C   UNL A   1      46.791  27.016  34.414  1.00  0.00     0.001 A 
ATOM     72  C   UNL A   1      46.574  25.873  35.181  1.00  0.00     0.000 A 
ENDBRANCH  53  67
BRANCH  54  73
ATOM     73  C   UNL A   1      36.855  31.642  29.298  1.00  0.00    -0.014 A 
ATOM     74  C   UNL A   1      35.601  31.015  29.234  1.00  0.00     0.009 A 
ATOM     75  C   UNL A   1      37.025  32.886  28.670  1.00  0.00     0.009 A 
ATOM     76  C   UNL A   1      34.548  31.609  28.532  1.00  0.00     0.001 A 
ATOM     77  C   UNL A   1      35.963  33.488  27.992  1.00  0.00     0.001 A 
ATOM     78  C   UNL A   1      34.730  32.845  27.915  1.00  0.00     0.000 A 
ENDBRANCH  54  73
BRANCH  66  79
ATOM     79  C   UNL A   1      39.229  31.856  35.837  1.00  0.00    -0.014 A 
ATOM     80  C   UNL A   1      38.203  31.369  36.662  1.00  0.00     0.009 A 
ATOM     81  C   UNL A   1      39.885  33.043  36.197  1.00  0.00     0.009 A 
ATOM     82  C   UNL A   1      37.825  32.075  37.807  1.00  0.00     0.001 A 
ATOM     83  C   UNL A   1      39.523  33.732  37.356  1.00  0.00     0.001 A 
ATOM     84  C   UNL A   1      38.488  33.252  38.155  1.00  0.00     0.000 A 
ENDBRANCH  66  79
ENDBRANCH  40  41
ENDBRANCH  33  35
ENDBRANCH  32  33
ENDBRANCH  31  32
ENDBRANCH  30  31
ENDBRANCH  29  30
ENDBRANCH   1  29
TORSDOF 18
ENDMDL
MODEL 2
REMARK VINA RESULT:     -10.8      1.654      2.684
REMARK SMILES Cc1nc2ccc(Cl)cc2cc1C(=O)N1CCC(C(=O)OCCOCCOCCOC(=O)c2ccc(-c3c4nc(c(-c5ccccc5)c5ccc([nH]5)c(-c5ccccc5)c5nc(c(-c6ccccc6)c6ccc3[nH]6)C=C5)C=C4)cc2)CC1
REMARK SMILES IDX 26 1 25 2 24 3 23 4 22 5 21 6 19 7 20 8 18 9 13 10 14 11
REMARK SMILES IDX 15 12 16 13 82 14 17 15 81 16 12 17 1 18 2 19 3 20 4 21
REMARK SMILES IDX 11 22 5 23 10 24 6 25 9 26 7 27 8 28 27 29 28 30 29 31 30 32
REMARK SMILES IDX 31 33 32 34 33 35 34 36 80 37 35 38 79 39 36 40 37 41 38 42
REMARK SMILES IDX 73 43 39 44 78 45 72 46 74 47 40 48 77 49 71 50 70 51 41 53
REMARK SMILES IDX 63 54 48 55 62 56 49 57 52 58 61 59 75 60 50 61 51 62 60 64
REMARK SMILES IDX 76 65 53 66 42 67 43 68 47 69 44 70 46 71 45 72 64 73 65 74
REMARK SMILES IDX 69 75 66 76 68 77 67 78 54 79 55 80 59 81 56 82 58 83 57 84
REMARK H PARENT 74 52 52 63
REMARK Flexibility Score: inf
ROOT
ATOM      1  C   UNL A   1      41.906  19.322  27.370  1.00  0.00     0.188 C 
ENDROOT
BRANCH   1   2
ATOM      2  C   UNL A   1      40.753  19.962  26.596  1.00  0.00     0.188 C 
BRANCH   2   3
ATOM      3  O   UNL A   1      40.215  21.161  27.139  1.00  0.00    -0.376 OA
BRANCH   3   4
ATOM      4  C   UNL A   1      39.513  22.021  26.241  1.00  0.00     0.202 C 
BRANCH   4   5
ATOM      5  C   UNL A   1      38.442  21.364  25.362  1.00  0.00     0.261 C 
BRANCH   5   6
ATOM      6  O   UNL A   1      37.092  21.605  25.805  1.00  0.00    -0.463 OA
BRANCH   6   7
ATOM      7  C   UNL A   1      36.135  20.827  25.231  1.00  0.00     0.309 C 
ATOM      8  O   UNL A   1      36.294  19.660  24.889  1.00  0.00    -0.252 OA
BRANCH   7   9
ATOM      9  C   UNL A   1      34.783  21.511  25.114  1.00  0.00     0.103 C 
ATOM     10  C   UNL A   1      31.491  23.960  26.392  1.00  0.00     0.255 C 
ATOM     11  O   UNL A   1      30.721  23.543  27.252  1.00  0.00    -0.269 OA
ATOM     12  N   UNL A   1      32.547  23.199  25.875  1.00  0.00    -0.339 N 
ATOM     13  C   UNL A   1      32.367  21.750  25.806  1.00  0.00     0.120 C 
ATOM     14  C   UNL A   1      33.686  23.771  25.156  1.00  0.00     0.120 C 
ATOM     15  C   UNL A   1      33.657  20.953  25.989  1.00  0.00     0.037 C 
ATOM     16  C   UNL A   1      34.970  22.999  25.420  1.00  0.00     0.037 C 
BRANCH  10  17
ATOM     17  C   UNL A   1      31.191  25.273  25.765  1.00  0.00     0.061 A 
ATOM     18  C   UNL A   1      30.371  24.252  23.585  1.00  0.00     0.067 C 
ATOM     19  C   UNL A   1      30.712  25.418  24.466  1.00  0.00     0.051 A 
ATOM     20  N   UNL A   1      30.569  26.645  23.880  1.00  0.00    -0.252 NA
ATOM     21  C   UNL A   1      30.906  27.752  24.569  1.00  0.00     0.071 A 
ATOM     22  C   UNL A   1      31.551  26.429  26.466  1.00  0.00     0.026 A 
ATOM     23  C   UNL A   1      30.798  29.005  23.980  1.00  0.00     0.030 A 
ATOM     24  C   UNL A   1      31.390  27.688  25.889  1.00  0.00     0.002 A 
ATOM     25  C   UNL A   1      31.133  30.177  24.672  1.00  0.00     0.023 A 
ATOM     26  C   UNL A   1      31.719  28.856  26.596  1.00  0.00     0.030 A 
ATOM     27  C   UNL A   1      31.582  30.096  25.983  1.00  0.00     0.041 A 
ATOM     28  Cl  UNL A   1      31.974  31.526  26.854  1.00  0.00    -0.084 Cl
ENDBRANCH  10  17
ENDBRANCH   7   9
ENDBRANCH   6   7
ENDBRANCH   5   6
ENDBRANCH   4   5
ENDBRANCH   3   4
ENDBRANCH   2   3
ENDBRANCH   1   2
BRANCH   1  29
ATOM     29  O   UNL A   1      43.038  18.969  26.588  1.00  0.00    -0.376 OA
BRANCH  29  30
ATOM     30  C   UNL A   1      43.174  19.675  25.347  1.00  0.00     0.202 C 
BRANCH  30  31
ATOM     31  C   UNL A   1      44.589  20.198  25.025  1.00  0.00     0.261 C 
BRANCH  31  32
ATOM     32  O   UNL A   1      44.850  21.543  25.485  1.00  0.00    -0.460 OA
BRANCH  32  33
ATOM     33  C   UNL A   1      44.310  22.555  24.766  1.00  0.00     0.338 C 
ATOM     34  O   UNL A   1      44.154  22.584  23.557  1.00  0.00    -0.246 OA
BRANCH  33  35
ATOM     35  C   UNL A   1      43.685  23.518  25.708  1.00  0.00     0.060 A 
ATOM     36  C   UNL A   1      43.870  24.888  25.467  1.00  0.00     0.016 A 
ATOM     37  C   UNL A   1      42.879  23.102  26.772  1.00  0.00     0.016 A 
ATOM     38  C   UNL A   1      43.291  25.838  26.311  1.00  0.00     0.010 A 
ATOM     39  C   UNL A   1      42.310  24.053  27.626  1.00  0.00     0.010 A 
ATOM     40  C   UNL A   1      42.543  25.425  27.421  1.00  0.00    -0.014 A 
BRANCH  40  41
ATOM     41  C   UNL A   1      42.199  26.402  28.485  1.00  0.00     0.031 A 
ATOM     42  C   UNL A   1      43.088  26.467  29.698  1.00  0.00     0.074 A 
ATOM     43  C   UNL A   1      41.143  27.229  28.389  1.00  0.00     0.049 A 
ATOM     44  N   UNL A   1      42.977  27.206  30.772  1.00  0.00    -0.248 NA
ATOM     45  C   UNL A   1      44.259  25.574  29.697  1.00  0.00     0.031 C 
ATOM     46  C   UNL A   1      40.224  27.313  27.257  1.00  0.00     0.029 A 
ATOM     47  N   UNL A   1      40.666  28.161  29.281  1.00  0.00    -0.354 N 
ATOM     48  C   UNL A   1      44.059  26.866  31.574  1.00  0.00     0.074 A 
ATOM     49  C   UNL A   1      44.799  25.837  30.877  1.00  0.00     0.031 C 
ATOM     50  C   UNL A   1      39.287  28.242  27.526  1.00  0.00     0.029 A 
ATOM     51  C   UNL A   1      39.523  28.794  28.861  1.00  0.00     0.049 A 
ATOM     52  H   UNL A   1      41.105  28.355  30.142  1.00  0.00     0.167 HD
ATOM     53  C   UNL A   1      44.414  27.365  32.781  1.00  0.00     0.031 A 
ATOM     54  C   UNL A   1      38.745  29.698  29.489  1.00  0.00     0.031 A 
ATOM     55  C   UNL A   1      43.680  28.370  33.496  1.00  0.00     0.049 A 
ATOM     56  C   UNL A   1      39.108  30.169  30.876  1.00  0.00     0.074 A 
ATOM     57  C   UNL A   1      43.973  28.940  34.723  1.00  0.00     0.029 A 
ATOM     58  N   UNL A   1      42.503  28.951  33.054  1.00  0.00    -0.354 N 
ATOM     59  N   UNL A   1      40.148  29.860  31.610  1.00  0.00    -0.248 NA
ATOM     60  C   UNL A   1      38.186  31.121  31.515  1.00  0.00     0.031 C 
ATOM     61  C   UNL A   1      42.942  29.827  35.050  1.00  0.00     0.029 A 
ATOM     62  C   UNL A   1      42.040  29.850  33.999  1.00  0.00     0.049 A 
ATOM     63  H   UNL A   1      42.062  28.751  32.198  1.00  0.00     0.167 HD
ATOM     64  C   UNL A   1      40.020  30.597  32.782  1.00  0.00     0.074 A 
ATOM     65  C   UNL A   1      38.808  31.379  32.657  1.00  0.00     0.031 C 
ATOM     66  C   UNL A   1      40.836  30.627  33.864  1.00  0.00     0.031 A 
BRANCH  53  67
ATOM     67  C   UNL A   1      45.645  26.791  33.420  1.00  0.00    -0.014 A 
ATOM     68  C   UNL A   1      45.565  25.707  34.308  1.00  0.00     0.009 A 
ATOM     69  C   UNL A   1      46.903  27.332  33.113  1.00  0.00     0.009 A 
ATOM     70  C   UNL A   1      46.722  25.197  34.901  1.00  0.00     0.001 A 
ATOM     71  C   UNL A   1      48.058  26.803  33.688  1.00  0.00     0.001 A 
ATOM     72  C   UNL A   1      47.967  25.743  34.588  1.00  0.00     0.000 A 
ENDBRANCH  53  67
BRANCH  54  73
ATOM     73  C   UNL A   1      37.514  30.212  28.833  1.00  0.00    -0.014 A 
ATOM     74  C   UNL A   1      37.374  31.578  28.543  1.00  0.00     0.009 A 
ATOM     75  C   UNL A   1      36.451  29.344  28.540  1.00  0.00     0.009 A 
ATOM     76  C   UNL A   1      36.183  32.068  27.998  1.00  0.00     0.001 A 
ATOM     77  C   UNL A   1      35.273  29.832  27.971  1.00  0.00     0.001 A 
ATOM     78  C   UNL A   1      35.137  31.194  27.709  1.00  0.00     0.000 A 
ENDBRANCH  54  73
BRANCH  66  79
ATOM     79  C   UNL A   1      40.475  31.562  34.986  1.00  0.00    -0.014 A 
ATOM     80  C   UNL A   1      41.002  32.860  35.051  1.00  0.00     0.009 A 
ATOM     81  C   UNL A   1      39.550  31.153  35.959  1.00  0.00     0.009 A 
ATOM     82  C   UNL A   1      40.630  33.720  36.088  1.00  0.00     0.001 A 
ATOM     83  C   UNL A   1      39.159  32.024  36.978  1.00  0.00     0.001 A 
ATOM     84  C   UNL A   1      39.707  33.303  37.047  1.00  0.00     0.000 A 
ENDBRANCH  66  79
ENDBRANCH  40  41
ENDBRANCH  33  35
ENDBRANCH  32  33
ENDBRANCH  31  32
ENDBRANCH  30  31
ENDBRANCH  29  30
ENDBRANCH   1  29
TORSDOF 18
ENDMDL
MODEL 3
REMARK VINA RESULT:     -10.6      0.566      5.661
REMARK SMILES Cc1nc2ccc(Cl)cc2cc1C(=O)N1CCC(C(=O)OCCOCCOCCOC(=O)c2ccc(-c3c4nc(c(-c5ccccc5)c5ccc([nH]5)c(-c5ccccc5)c5nc(c(-c6ccccc6)c6ccc3[nH]6)C=C5)C=C4)cc2)CC1
REMARK SMILES IDX 26 1 25 2 24 3 23 4 22 5 21 6 19 7 20 8 18 9 13 10 14 11
REMARK SMILES IDX 15 12 16 13 82 14 17 15 81 16 12 17 1 18 2 19 3 20 4 21
REMARK SMILES IDX 11 22 5 23 10 24 6 25 9 26 7 27 8 28 27 29 28 30 29 31 30 32
REMARK SMILES IDX 31 33 32 34 33 35 34 36 80 37 35 38 79 39 36 40 37 41 38 42
REMARK SMILES IDX 73 43 39 44 78 45 72 46 74 47 40 48 77 49 71 50 70 51 41 53
REMARK SMILES IDX 63 54 48 55 62 56 49 57 52 58 61 59 75 60 50 61 51 62 60 64
REMARK SMILES IDX 76 65 53 66 42 67 43 68 47 69 44 70 46 71 45 72 64 73 65 74
REMARK SMILES IDX 69 75 66 76 68 77 67 78 54 79 55 80 59 81 56 82 58 83 57 84
REMARK H PARENT 74 52 52 63
REMARK Flexibility Score: inf
ROOT
ATOM      1  C   UNL A   1      45.655  20.062  25.093  1.00  0.00     0.188 C 
ENDROOT
BRANCH   1   2
ATOM      2  C   UNL A   1      44.199  20.282  24.681  1.00  0.00     0.188 C 
BRANCH   2   3
ATOM      3  O   UNL A   1      43.349  19.142  24.732  1.00  0.00    -0.376 OA
BRANCH   3   4
ATOM      4  C   UNL A   1      42.376  19.106  25.776  1.00  0.00     0.202 C 
BRANCH   4   5
ATOM      5  C   UNL A   1      42.067  20.440  26.469  1.00  0.00     0.261 C 
BRANCH   5   6
ATOM      6  O   UNL A   1      41.138  21.273  25.749  1.00  0.00    -0.463 OA
BRANCH   6   7
ATOM      7  C   UNL A   1      40.161  21.850  26.498  1.00  0.00     0.309 C 
ATOM      8  O   UNL A   1      40.305  22.251  27.648  1.00  0.00    -0.252 OA
BRANCH   7   9
ATOM      9  C   UNL A   1      38.852  22.041  25.750  1.00  0.00     0.103 C 
ATOM     10  C   UNL A   1      34.606  22.538  25.318  1.00  0.00     0.255 C 
ATOM     11  O   UNL A   1      33.860  21.580  25.501  1.00  0.00    -0.269 OA
ATOM     12  N   UNL A   1      36.002  22.443  25.374  1.00  0.00    -0.339 N 
ATOM     13  C   UNL A   1      36.612  21.177  24.972  1.00  0.00     0.120 C 
ATOM     14  C   UNL A   1      36.889  23.595  25.540  1.00  0.00     0.120 C 
ATOM     15  C   UNL A   1      37.901  20.842  25.719  1.00  0.00     0.037 C 
ATOM     16  C   UNL A   1      38.126  23.247  26.352  1.00  0.00     0.037 C 
BRANCH  10  17
ATOM     17  C   UNL A   1      34.000  23.816  24.864  1.00  0.00     0.061 A 
ATOM     18  C   UNL A   1      34.378  23.332  22.396  1.00  0.00     0.067 C 
ATOM     19  C   UNL A   1      33.924  24.204  23.529  1.00  0.00     0.051 A 
ATOM     20  N   UNL A   1      33.477  25.442  23.160  1.00  0.00    -0.252 NA
ATOM     21  C   UNL A   1      33.102  26.321  24.109  1.00  0.00     0.071 A 
ATOM     22  C   UNL A   1      33.621  24.742  25.841  1.00  0.00     0.026 A 
ATOM     23  C   UNL A   1      32.674  27.595  23.756  1.00  0.00     0.030 A 
ATOM     24  C   UNL A   1      33.142  26.000  25.478  1.00  0.00     0.002 A 
ATOM     25  C   UNL A   1      32.270  28.531  24.717  1.00  0.00     0.023 A 
ATOM     26  C   UNL A   1      32.729  26.926  26.451  1.00  0.00     0.030 A 
ATOM     27  C   UNL A   1      32.290  28.186  26.062  1.00  0.00     0.041 A 
ATOM     28  Cl  UNL A   1      31.775  29.315  27.253  1.00  0.00    -0.084 Cl
ENDBRANCH  10  17
ENDBRANCH   7   9
ENDBRANCH   6   7
ENDBRANCH   5   6
ENDBRANCH   4   5
ENDBRANCH   3   4
ENDBRANCH   2   3
ENDBRANCH   1   2
BRANCH   1  29
ATOM     29  O   UNL A   1      46.413  21.248  25.291  1.00  0.00    -0.376 OA
BRANCH  29  30
ATOM     30  C   UNL A   1      45.855  22.439  24.719  1.00  0.00     0.202 C 
BRANCH  30  31
ATOM     31  C   UNL A   1      46.007  23.722  25.562  1.00  0.00     0.261 C 
BRANCH  31  32
ATOM     32  O   UNL A   1      45.156  24.814  25.150  1.00  0.00    -0.460 OA
BRANCH  32  33
ATOM     33  C   UNL A   1      43.823  24.581  25.127  1.00  0.00     0.338 C 
ATOM     34  O   UNL A   1      43.250  23.697  24.513  1.00  0.00    -0.246 OA
BRANCH  33  35
ATOM     35  C   UNL A   1      43.185  25.403  26.187  1.00  0.00     0.060 A 
ATOM     36  C   UNL A   1      43.774  26.635  26.507  1.00  0.00     0.016 A 
ATOM     37  C   UNL A   1      41.997  25.015  26.815  1.00  0.00     0.016 A 
ATOM     38  C   UNL A   1      43.207  27.456  27.485  1.00  0.00     0.010 A 
ATOM     39  C   UNL A   1      41.436  25.831  27.804  1.00  0.00     0.010 A 
ATOM     40  C   UNL A   1      42.058  27.039  28.169  1.00  0.00    -0.014 A 
BRANCH  40  41
ATOM     41  C   UNL A   1      41.639  27.742  29.407  1.00  0.00     0.031 A 
ATOM     42  C   UNL A   1      40.428  28.634  29.339  1.00  0.00     0.074 A 
ATOM     43  C   UNL A   1      42.291  27.595  30.575  1.00  0.00     0.049 A 
ATOM     44  N   UNL A   1      39.889  29.379  30.271  1.00  0.00    -0.248 NA
ATOM     45  C   UNL A   1      39.733  28.692  28.042  1.00  0.00     0.031 C 
ATOM     46  C   UNL A   1      43.447  26.731  30.803  1.00  0.00     0.029 A 
ATOM     47  N   UNL A   1      42.063  28.185  31.795  1.00  0.00    -0.354 N 
ATOM     48  C   UNL A   1      38.798  29.995  29.673  1.00  0.00     0.074 A 
ATOM     49  C   UNL A   1      38.765  29.560  28.293  1.00  0.00     0.031 C 
ATOM     50  C   UNL A   1      43.833  26.854  32.088  1.00  0.00     0.029 A 
ATOM     51  C   UNL A   1      42.972  27.828  32.760  1.00  0.00     0.049 A 
ATOM     52  H   UNL A   1      41.317  28.807  31.961  1.00  0.00     0.167 HD
ATOM     53  C   UNL A   1      37.896  30.844  30.217  1.00  0.00     0.031 A 
ATOM     54  C   UNL A   1      43.106  28.252  34.033  1.00  0.00     0.031 A 
ATOM     55  C   UNL A   1      37.925  31.303  31.577  1.00  0.00     0.049 A 
ATOM     56  C   UNL A   1      42.145  29.273  34.591  1.00  0.00     0.074 A 
ATOM     57  C   UNL A   1      37.045  32.160  32.216  1.00  0.00     0.029 A 
ATOM     58  N   UNL A   1      38.890  30.952  32.507  1.00  0.00    -0.354 N 
ATOM     59  N   UNL A   1      41.102  29.826  34.022  1.00  0.00    -0.248 NA
ATOM     60  C   UNL A   1      42.383  29.723  35.971  1.00  0.00     0.031 C 
ATOM     61  C   UNL A   1      37.508  32.370  33.519  1.00  0.00     0.029 A 
ATOM     62  C   UNL A   1      38.644  31.599  33.706  1.00  0.00     0.049 A 
ATOM     63  H   UNL A   1      39.639  30.336  32.339  1.00  0.00     0.167 HD
ATOM     64  C   UNL A   1      40.545  30.665  34.982  1.00  0.00     0.074 A 
ATOM     65  C   UNL A   1      41.358  30.539  36.173  1.00  0.00     0.031 C 
ATOM     66  C   UNL A   1      39.455  31.465  34.886  1.00  0.00     0.031 A 
BRANCH  53  67
ATOM     67  C   UNL A   1      36.815  31.361  29.313  1.00  0.00    -0.014 A 
ATOM     68  C   UNL A   1      35.714  30.563  28.965  1.00  0.00     0.009 A 
ATOM     69  C   UNL A   1      36.893  32.672  28.819  1.00  0.00     0.009 A 
ATOM     70  C   UNL A   1      34.728  31.060  28.111  1.00  0.00     0.001 A 
ATOM     71  C   UNL A   1      35.891  33.173  27.988  1.00  0.00     0.001 A 
ATOM     72  C   UNL A   1      34.814  32.365  27.627  1.00  0.00     0.000 A 
ENDBRANCH  53  67
BRANCH  54  73
ATOM     73  C   UNL A   1      44.214  27.740  34.881  1.00  0.00    -0.014 A 
ATOM     74  C   UNL A   1      45.485  28.332  34.834  1.00  0.00     0.009 A 
ATOM     75  C   UNL A   1      44.016  26.621  35.706  1.00  0.00     0.009 A 
ATOM     76  C   UNL A   1      46.543  27.797  35.575  1.00  0.00     0.001 A 
ATOM     77  C   UNL A   1      45.069  26.105  36.465  1.00  0.00     0.001 A 
ATOM     78  C   UNL A   1      46.333  26.688  36.391  1.00  0.00     0.000 A 
ENDBRANCH  54  73
BRANCH  66  79
ATOM     79  C   UNL A   1      39.047  32.238  36.110  1.00  0.00    -0.014 A 
ATOM     80  C   UNL A   1      39.497  33.549  36.329  1.00  0.00     0.009 A 
ATOM     81  C   UNL A   1      38.154  31.664  37.028  1.00  0.00     0.009 A 
ATOM     82  C   UNL A   1      39.083  34.258  37.459  1.00  0.00     0.001 A 
ATOM     83  C   UNL A   1      37.720  32.384  38.143  1.00  0.00     0.001 A 
ATOM     84  C   UNL A   1      38.191  33.677  38.361  1.00  0.00     0.000 A 
ENDBRANCH  66  79
ENDBRANCH  40  41
ENDBRANCH  33  35
ENDBRANCH  32  33
ENDBRANCH  31  32
ENDBRANCH  30  31
ENDBRANCH  29  30
ENDBRANCH   1  29
TORSDOF 18
ENDMDL
