MODEL 1
REMARK VINA RESULT:     -10.4      0.000      0.000
REMARK SMILES C[C@H]1[C@@H](C(=O)OCCOCCOCCOC(=O)c2ccc(-c3c4nc(c(-c5ccccc5)c5ccc([nH]5)c(-c5ccccc5)c5nc(c(-c6ccccc6)c6ccc3[nH]6)C=C5)C=C4)cc2)CCN1C(=O)c1cc2cc(F)ccc2s1
REMARK SMILES IDX 10 1 9 2 8 3 7 4 6 5 4 6 5 7 3 8 1 9 2 10 68 11 66 12 67 13
REMARK SMILES IDX 69 14 70 15 71 16 72 17 80 18 73 19 79 20 74 21 78 22 75 23
REMARK SMILES IDX 77 24 76 25 11 26 12 27 13 28 14 29 15 30 16 31 17 32 18 33
REMARK SMILES IDX 19 34 65 35 20 36 64 37 21 38 22 39 23 40 58 41 24 42 63 43
REMARK SMILES IDX 57 44 59 45 25 46 62 47 56 48 55 49 26 51 48 52 33 53 47 54
REMARK SMILES IDX 34 55 37 56 46 57 60 58 35 59 36 60 45 62 61 63 38 64 27 65
REMARK SMILES IDX 28 66 32 67 29 68 31 69 30 70 49 71 50 72 54 73 51 74 53 75
REMARK SMILES IDX 52 76 39 77 40 78 44 79 41 80 43 81 42 82
REMARK H PARENT 59 50 37 61
REMARK Flexibility Score: inf
ROOT
ATOM      1  C   UNL A   1      40.998  19.607  26.259  1.00  0.00     0.188 C 
ENDROOT
BRANCH   1   2
ATOM      2  O   UNL A   1      40.868  20.950  25.838  1.00  0.00    -0.376 OA
BRANCH   2   3
ATOM      3  C   UNL A   1      39.746  21.706  26.271  1.00  0.00     0.202 C 
BRANCH   3   4
ATOM      4  C   UNL A   1      38.388  21.473  25.606  1.00  0.00     0.261 C 
BRANCH   4   5
ATOM      5  O   UNL A   1      37.458  22.559  25.803  1.00  0.00    -0.463 OA
BRANCH   5   6
ATOM      6  C   UNL A   1      36.573  22.767  24.804  1.00  0.00     0.311 C 
ATOM      7  O   UNL A   1      36.558  22.119  23.760  1.00  0.00    -0.252 OA
BRANCH   6   8
ATOM      8  C   UNL A   1      35.491  23.801  25.073  1.00  0.00     0.123 C 
ATOM      9  C   UNL A   1      34.515  22.581  27.189  1.00  0.00     0.032 C 
ATOM     10  C   UNL A   1      34.413  23.715  26.181  1.00  0.00     0.096 C 
ATOM     11  N   UNL A   1      33.127  23.848  25.484  1.00  0.00    -0.334 N 
ATOM     12  C   UNL A   1      34.750  24.085  23.760  1.00  0.00     0.039 C 
ATOM     13  C   UNL A   1      33.277  23.998  24.058  1.00  0.00     0.121 C 
BRANCH  11  14
ATOM     14  C   UNL A   1      31.890  24.205  26.003  1.00  0.00     0.264 C 
ATOM     15  O   UNL A   1      31.097  23.325  26.348  1.00  0.00    -0.268 OA
BRANCH  14  16
ATOM     16  C   UNL A   1      31.561  25.594  26.253  1.00  0.00     0.093 A 
ATOM     17  C   UNL A   1      32.479  26.614  26.464  1.00  0.00     0.034 A 
ATOM     18  S   UNL A   1      30.294  26.252  25.271  1.00  0.00    -0.130 S 
ATOM     19  C   UNL A   1      32.628  27.316  25.202  1.00  0.00    -0.004 A 
ATOM     20  C   UNL A   1      31.509  27.113  24.381  1.00  0.00     0.035 A 
ATOM     21  C   UNL A   1      33.731  28.017  24.666  1.00  0.00     0.048 A 
ATOM     22  C   UNL A   1      31.471  27.541  23.042  1.00  0.00     0.022 A 
ATOM     23  C   UNL A   1      33.718  28.377  23.319  1.00  0.00     0.123 A 
ATOM     24  C   UNL A   1      32.619  28.134  22.511  1.00  0.00     0.041 A 
ATOM     25  F   UNL A   1      34.815  28.931  22.784  1.00  0.00    -0.207 F 
ENDBRANCH  14  16
ENDBRANCH  11  14
ENDBRANCH   6   8
ENDBRANCH   5   6
ENDBRANCH   4   5
ENDBRANCH   3   4
ENDBRANCH   2   3
ENDBRANCH   1   2
BRANCH   1  26
ATOM     26  C   UNL A   1      42.393  19.012  26.530  1.00  0.00     0.188 C 
BRANCH  26  27
ATOM     27  O   UNL A   1      43.283  18.689  25.485  1.00  0.00    -0.376 OA
BRANCH  27  28
ATOM     28  C   UNL A   1      43.951  19.709  24.765  1.00  0.00     0.202 C 
BRANCH  28  29
ATOM     29  C   UNL A   1      44.754  20.807  25.471  1.00  0.00     0.261 C 
BRANCH  29  30
ATOM     30  O   UNL A   1      43.983  21.868  26.044  1.00  0.00    -0.460 OA
BRANCH  30  31
ATOM     31  C   UNL A   1      43.887  22.984  25.276  1.00  0.00     0.338 C 
ATOM     32  O   UNL A   1      44.104  23.095  24.088  1.00  0.00    -0.246 OA
BRANCH  31  33
ATOM     33  C   UNL A   1      43.302  24.058  26.097  1.00  0.00     0.060 A 
ATOM     34  C   UNL A   1      43.676  25.388  25.852  1.00  0.00     0.016 A 
ATOM     35  C   UNL A   1      42.425  23.741  27.131  1.00  0.00     0.016 A 
ATOM     36  C   UNL A   1      43.165  26.415  26.645  1.00  0.00     0.010 A 
ATOM     37  C   UNL A   1      41.941  24.764  27.943  1.00  0.00     0.010 A 
ATOM     38  C   UNL A   1      42.324  26.100  27.716  1.00  0.00    -0.014 A 
BRANCH  38  39
ATOM     39  C   UNL A   1      41.975  27.113  28.736  1.00  0.00     0.031 A 
ATOM     40  C   UNL A   1      42.787  27.151  29.997  1.00  0.00     0.074 A 
ATOM     41  C   UNL A   1      40.922  27.932  28.578  1.00  0.00     0.049 A 
ATOM     42  N   UNL A   1      42.542  27.764  31.124  1.00  0.00    -0.248 NA
ATOM     43  C   UNL A   1      44.041  26.378  29.985  1.00  0.00     0.031 C 
ATOM     44  C   UNL A   1      40.107  28.044  27.370  1.00  0.00     0.029 A 
ATOM     45  N   UNL A   1      40.340  28.804  29.463  1.00  0.00    -0.354 N 
ATOM     46  C   UNL A   1      43.592  27.424  31.968  1.00  0.00     0.074 A 
ATOM     47  C   UNL A   1      44.470  26.547  31.226  1.00  0.00     0.031 C 
ATOM     48  C   UNL A   1      39.109  28.916  27.602  1.00  0.00     0.029 A 
ATOM     49  C   UNL A   1      39.183  29.371  28.989  1.00  0.00     0.049 A 
ATOM     50  H   UNL A   1      40.716  29.004  30.352  1.00  0.00     0.167 HD
ATOM     51  C   UNL A   1      43.796  27.802  33.251  1.00  0.00     0.031 A 
ATOM     52  C   UNL A   1      38.263  30.125  29.622  1.00  0.00     0.031 A 
ATOM     53  C   UNL A   1      42.907  28.661  33.983  1.00  0.00     0.049 A 
ATOM     54  C   UNL A   1      38.455  30.450  31.083  1.00  0.00     0.074 A 
ATOM     55  C   UNL A   1      43.019  29.106  35.288  1.00  0.00     0.029 A 
ATOM     56  N   UNL A   1      41.735  29.198  33.472  1.00  0.00    -0.354 N 
ATOM     57  N   UNL A   1      39.442  30.119  31.881  1.00  0.00    -0.248 NA
ATOM     58  C   UNL A   1      37.404  31.247  31.732  1.00  0.00     0.031 C 
ATOM     59  C   UNL A   1      41.883  29.863  35.587  1.00  0.00     0.029 A 
ATOM     60  C   UNL A   1      41.102  29.951  34.444  1.00  0.00     0.049 A 
ATOM     61  H   UNL A   1      41.404  29.064  32.555  1.00  0.00     0.167 HD
ATOM     62  C   UNL A   1      39.152  30.703  33.110  1.00  0.00     0.074 A 
ATOM     63  C   UNL A   1      37.897  31.407  32.952  1.00  0.00     0.031 C 
ATOM     64  C   UNL A   1      39.864  30.665  34.262  1.00  0.00     0.031 A 
BRANCH  51  65
ATOM     65  C   UNL A   1      44.997  27.240  33.957  1.00  0.00    -0.014 A 
ATOM     66  C   UNL A   1      44.907  26.097  34.766  1.00  0.00     0.009 A 
ATOM     67  C   UNL A   1      46.248  27.855  33.787  1.00  0.00     0.009 A 
ATOM     68  C   UNL A   1      46.038  25.603  35.419  1.00  0.00     0.001 A 
ATOM     69  C   UNL A   1      47.383  27.340  34.415  1.00  0.00     0.001 A 
ATOM     70  C   UNL A   1      47.276  26.221  35.238  1.00  0.00     0.000 A 
ENDBRANCH  51  65
BRANCH  52  71
ATOM     71  C   UNL A   1      37.050  30.592  28.899  1.00  0.00    -0.014 A 
ATOM     72  C   UNL A   1      36.895  31.946  28.563  1.00  0.00     0.009 A 
ATOM     73  C   UNL A   1      36.029  29.690  28.559  1.00  0.00     0.009 A 
ATOM     74  C   UNL A   1      35.732  32.391  27.928  1.00  0.00     0.001 A 
ATOM     75  C   UNL A   1      34.883  30.132  27.894  1.00  0.00     0.001 A 
ATOM     76  C   UNL A   1      34.731  31.482  27.589  1.00  0.00     0.000 A 
ENDBRANCH  52  71
BRANCH  64  77
ATOM     77  C   UNL A   1      39.357  31.463  35.431  1.00  0.00    -0.014 A 
ATOM     78  C   UNL A   1      39.807  32.767  35.683  1.00  0.00     0.009 A 
ATOM     79  C   UNL A   1      38.336  30.926  36.234  1.00  0.00     0.009 A 
ATOM     80  C   UNL A   1      39.251  33.512  36.726  1.00  0.00     0.001 A 
ATOM     81  C   UNL A   1      37.764  31.684  37.255  1.00  0.00     0.001 A 
ATOM     82  C   UNL A   1      38.225  32.975  37.503  1.00  0.00     0.000 A 
ENDBRANCH  64  77
ENDBRANCH  38  39
ENDBRANCH  31  33
ENDBRANCH  30  31
ENDBRANCH  29  30
ENDBRANCH  28  29
ENDBRANCH  27  28
ENDBRANCH  26  27
ENDBRANCH   1  26
TORSDOF 19
ENDMDL
MODEL 2
REMARK VINA RESULT:     -10.3      1.687      6.102
REMARK SMILES C[C@H]1[C@@H](C(=O)OCCOCCOCCOC(=O)c2ccc(-c3c4nc(c(-c5ccccc5)c5ccc([nH]5)c(-c5ccccc5)c5nc(c(-c6ccccc6)c6ccc3[nH]6)C=C5)C=C4)cc2)CCN1C(=O)c1cc2cc(F)ccc2s1
REMARK SMILES IDX 10 1 9 2 8 3 7 4 6 5 4 6 5 7 3 8 1 9 2 10 68 11 66 12 67 13
REMARK SMILES IDX 69 14 70 15 71 16 72 17 80 18 73 19 79 20 74 21 78 22 75 23
REMARK SMILES IDX 77 24 76 25 11 26 12 27 13 28 14 29 15 30 16 31 17 32 18 33
REMARK SMILES IDX 19 34 65 35 20 36 64 37 21 38 22 39 23 40 58 41 24 42 63 43
REMARK SMILES IDX 57 44 59 45 25 46 62 47 56 48 55 49 26 51 48 52 33 53 47 54
REMARK SMILES IDX 34 55 37 56 46 57 60 58 35 59 36 60 45 62 61 63 38 64 27 65
REMARK SMILES IDX 28 66 32 67 29 68 31 69 30 70 49 71 50 72 54 73 51 74 53 75
REMARK SMILES IDX 52 76 39 77 40 78 44 79 41 80 43 81 42 82
REMARK H PARENT 59 50 37 61
REMARK Flexibility Score: inf
ROOT
ATOM      1  C   UNL A   1      41.409  21.151  27.053  1.00  0.00     0.188 C 
ENDROOT
BRANCH   1   2
ATOM      2  O   UNL A   1      40.169  21.062  26.379  1.00  0.00    -0.376 OA
BRANCH   2   3
ATOM      3  C   UNL A   1      39.319  22.198  26.339  1.00  0.00     0.202 C 
BRANCH   3   4
ATOM      4  C   UNL A   1      37.924  22.066  25.724  1.00  0.00     0.261 C 
BRANCH   4   5
ATOM      5  O   UNL A   1      37.019  23.118  26.121  1.00  0.00    -0.463 OA
BRANCH   5   6
ATOM      6  C   UNL A   1      35.743  22.992  25.693  1.00  0.00     0.311 C 
ATOM      7  O   UNL A   1      34.844  22.496  26.367  1.00  0.00    -0.252 OA
BRANCH   6   8
ATOM      8  C   UNL A   1      35.430  23.605  24.337  1.00  0.00     0.123 C 
ATOM      9  C   UNL A   1      34.443  25.842  25.307  1.00  0.00     0.032 C 
ATOM     10  C   UNL A   1      34.724  24.962  24.099  1.00  0.00     0.096 C 
ATOM     11  N   UNL A   1      33.574  24.657  23.239  1.00  0.00    -0.334 N 
ATOM     12  C   UNL A   1      34.678  22.565  23.495  1.00  0.00     0.039 C 
ATOM     13  C   UNL A   1      33.472  23.254  22.918  1.00  0.00     0.121 C 
BRANCH  11  14
ATOM     14  C   UNL A   1      32.836  25.516  22.435  1.00  0.00     0.264 C 
ATOM     15  O   UNL A   1      33.281  25.854  21.335  1.00  0.00    -0.268 OA
BRANCH  14  16
ATOM     16  C   UNL A   1      31.502  25.930  22.819  1.00  0.00     0.093 A 
ATOM     17  C   UNL A   1      30.872  25.614  24.016  1.00  0.00     0.034 A 
ATOM     18  S   UNL A   1      31.093  27.573  22.455  1.00  0.00    -0.130 S 
ATOM     19  C   UNL A   1      31.023  26.764  24.888  1.00  0.00    -0.004 A 
ATOM     20  C   UNL A   1      31.259  27.929  24.145  1.00  0.00     0.035 A 
ATOM     21  C   UNL A   1      31.095  26.844  26.297  1.00  0.00     0.048 A 
ATOM     22  C   UNL A   1      31.607  29.150  24.750  1.00  0.00     0.022 A 
ATOM     23  C   UNL A   1      31.509  28.036  26.890  1.00  0.00     0.123 A 
ATOM     24  C   UNL A   1      31.777  29.169  26.137  1.00  0.00     0.041 A 
ATOM     25  F   UNL A   1      31.696  28.073  28.216  1.00  0.00    -0.207 F 
ENDBRANCH  14  16
ENDBRANCH  11  14
ENDBRANCH   6   8
ENDBRANCH   5   6
ENDBRANCH   4   5
ENDBRANCH   3   4
ENDBRANCH   2   3
ENDBRANCH   1   2
BRANCH   1  26
ATOM     26  C   UNL A   1      42.685  21.531  26.279  1.00  0.00     0.188 C 
BRANCH  26  27
ATOM     27  O   UNL A   1      42.649  21.932  24.928  1.00  0.00    -0.376 OA
BRANCH  27  28
ATOM     28  C   UNL A   1      43.407  23.043  24.485  1.00  0.00     0.202 C 
BRANCH  28  29
ATOM     29  C   UNL A   1      44.921  23.131  24.704  1.00  0.00     0.261 C 
BRANCH  29  30
ATOM     30  O   UNL A   1      45.343  23.925  25.817  1.00  0.00    -0.460 OA
BRANCH  30  31
ATOM     31  C   UNL A   1      45.306  25.267  25.609  1.00  0.00     0.338 C 
ATOM     32  O   UNL A   1      45.786  25.894  24.689  1.00  0.00    -0.246 OA
BRANCH  31  33
ATOM     33  C   UNL A   1      44.424  25.866  26.626  1.00  0.00     0.060 A 
ATOM     34  C   UNL A   1      44.442  27.256  26.813  1.00  0.00     0.016 A 
ATOM     35  C   UNL A   1      43.620  25.048  27.415  1.00  0.00     0.016 A 
ATOM     36  C   UNL A   1      43.645  27.838  27.798  1.00  0.00     0.010 A 
ATOM     37  C   UNL A   1      42.850  25.626  28.421  1.00  0.00     0.010 A 
ATOM     38  C   UNL A   1      42.874  27.019  28.629  1.00  0.00    -0.014 A 
BRANCH  38  39
ATOM     39  C   UNL A   1      42.227  27.558  29.846  1.00  0.00     0.031 A 
ATOM     40  C   UNL A   1      40.907  28.255  29.692  1.00  0.00     0.074 A 
ATOM     41  C   UNL A   1      42.829  27.492  31.045  1.00  0.00     0.049 A 
ATOM     42  N   UNL A   1      40.264  29.011  30.541  1.00  0.00    -0.248 NA
ATOM     43  C   UNL A   1      40.231  28.084  28.395  1.00  0.00     0.031 C 
ATOM     44  C   UNL A   1      44.069  26.775  31.336  1.00  0.00     0.029 A 
ATOM     45  N   UNL A   1      42.483  28.071  32.240  1.00  0.00    -0.354 N 
ATOM     46  C   UNL A   1      39.124  29.435  29.871  1.00  0.00     0.074 A 
ATOM     47  C   UNL A   1      39.168  28.859  28.545  1.00  0.00     0.031 C 
ATOM     48  C   UNL A   1      44.396  26.983  32.624  1.00  0.00     0.029 A 
ATOM     49  C   UNL A   1      43.424  27.895  33.224  1.00  0.00     0.049 A 
ATOM     50  H   UNL A   1      41.641  28.565  32.378  1.00  0.00     0.167 HD
ATOM     51  C   UNL A   1      38.136  30.243  30.320  1.00  0.00     0.031 A 
ATOM     52  C   UNL A   1      43.514  28.450  34.448  1.00  0.00     0.031 A 
ATOM     53  C   UNL A   1      38.112  30.823  31.634  1.00  0.00     0.049 A 
ATOM     54  C   UNL A   1      42.457  29.430  34.893  1.00  0.00     0.074 A 
ATOM     55  C   UNL A   1      37.159  31.656  32.191  1.00  0.00     0.029 A 
ATOM     56  N   UNL A   1      39.095  30.635  32.595  1.00  0.00    -0.354 N 
ATOM     57  N   UNL A   1      41.386  29.839  34.254  1.00  0.00    -0.248 NA
ATOM     58  C   UNL A   1      42.624  30.032  36.224  1.00  0.00     0.031 C 
ATOM     59  C   UNL A   1      37.596  32.022  33.467  1.00  0.00     0.029 A 
ATOM     60  C   UNL A   1      38.782  31.356  33.733  1.00  0.00     0.049 A 
ATOM     61  H   UNL A   1      39.895  30.071  32.483  1.00  0.00     0.167 HD
ATOM     62  C   UNL A   1      40.732  30.707  35.121  1.00  0.00     0.074 A 
ATOM     63  C   UNL A   1      41.526  30.769  36.330  1.00  0.00     0.031 C 
ATOM     64  C   UNL A   1      39.574  31.386  34.935  1.00  0.00     0.031 A 
BRANCH  51  65
ATOM     65  C   UNL A   1      37.034  30.590  29.360  1.00  0.00    -0.014 A 
ATOM     66  C   UNL A   1      36.968  31.847  28.739  1.00  0.00     0.009 A 
ATOM     67  C   UNL A   1      36.056  29.629  29.055  1.00  0.00     0.009 A 
ATOM     68  C   UNL A   1      35.925  32.145  27.859  1.00  0.00     0.001 A 
ATOM     69  C   UNL A   1      35.034  29.919  28.151  1.00  0.00     0.001 A 
ATOM     70  C   UNL A   1      34.963  31.179  27.561  1.00  0.00     0.000 A 
ENDBRANCH  51  65
BRANCH  52  71
ATOM     71  C   UNL A   1      44.668  28.134  35.332  1.00  0.00    -0.014 A 
ATOM     72  C   UNL A   1      44.582  27.102  36.278  1.00  0.00     0.009 A 
ATOM     73  C   UNL A   1      45.856  28.878  35.248  1.00  0.00     0.009 A 
ATOM     74  C   UNL A   1      45.650  26.840  37.141  1.00  0.00     0.001 A 
ATOM     75  C   UNL A   1      46.935  28.591  36.089  1.00  0.00     0.001 A 
ATOM     76  C   UNL A   1      46.827  27.580  37.041  1.00  0.00     0.000 A 
ENDBRANCH  52  71
BRANCH  64  77
ATOM     77  C   UNL A   1      39.042  32.200  36.083  1.00  0.00    -0.014 A 
ATOM     78  C   UNL A   1      39.382  33.551  36.247  1.00  0.00     0.009 A 
ATOM     79  C   UNL A   1      38.106  31.621  36.955  1.00  0.00     0.009 A 
ATOM     80  C   UNL A   1      38.801  34.300  37.274  1.00  0.00     0.001 A 
ATOM     81  C   UNL A   1      37.507  32.380  37.960  1.00  0.00     0.001 A 
ATOM     82  C   UNL A   1      37.858  33.718  38.121  1.00  0.00     0.000 A 
ENDBRANCH  64  77
ENDBRANCH  38  39
ENDBRANCH  31  33
ENDBRANCH  30  31
ENDBRANCH  29  30
ENDBRANCH  28  29
ENDBRANCH  27  28
ENDBRANCH  26  27
ENDBRANCH   1  26
TORSDOF 19
ENDMDL
MODEL 3
REMARK VINA RESULT:     -10.3      3.844      8.967
REMARK SMILES C[C@H]1[C@@H](C(=O)OCCOCCOCCOC(=O)c2ccc(-c3c4nc(c(-c5ccccc5)c5ccc([nH]5)c(-c5ccccc5)c5nc(c(-c6ccccc6)c6ccc3[nH]6)C=C5)C=C4)cc2)CCN1C(=O)c1cc2cc(F)ccc2s1
REMARK SMILES IDX 10 1 9 2 8 3 7 4 6 5 4 6 5 7 3 8 1 9 2 10 68 11 66 12 67 13
REMARK SMILES IDX 69 14 70 15 71 16 72 17 80 18 73 19 79 20 74 21 78 22 75 23
REMARK SMILES IDX 77 24 76 25 11 26 12 27 13 28 14 29 15 30 16 31 17 32 18 33
REMARK SMILES IDX 19 34 65 35 20 36 64 37 21 38 22 39 23 40 58 41 24 42 63 43
REMARK SMILES IDX 57 44 59 45 25 46 62 47 56 48 55 49 26 51 48 52 33 53 47 54
REMARK SMILES IDX 34 55 37 56 46 57 60 58 35 59 36 60 45 62 61 63 38 64 27 65
REMARK SMILES IDX 28 66 32 67 29 68 31 69 30 70 49 71 50 72 54 73 51 74 53 75
REMARK SMILES IDX 52 76 39 77 40 78 44 79 41 80 43 81 42 82
REMARK H PARENT 59 50 37 61
REMARK Flexibility Score: inf
ROOT
ATOM      1  C   UNL A   1      35.159  29.438  27.247  1.00  0.00     0.188 C 
ENDROOT
BRANCH   1   2
ATOM      2  O   UNL A   1      34.158  28.694  26.580  1.00  0.00    -0.376 OA
BRANCH   2   3
ATOM      3  C   UNL A   1      32.914  28.472  27.227  1.00  0.00     0.202 C 
BRANCH   3   4
ATOM      4  C   UNL A   1      31.631  28.998  26.578  1.00  0.00     0.261 C 
BRANCH   4   5
ATOM      5  O   UNL A   1      31.872  29.863  25.448  1.00  0.00    -0.463 OA
BRANCH   5   6
ATOM      6  C   UNL A   1      31.127  29.617  24.348  1.00  0.00     0.311 C 
ATOM      7  O   UNL A   1      30.021  30.113  24.149  1.00  0.00    -0.252 OA
BRANCH   6   8
ATOM      8  C   UNL A   1      31.779  28.755  23.279  1.00  0.00     0.123 C 
ATOM      9  C   UNL A   1      30.892  26.472  24.237  1.00  0.00     0.032 C 
ATOM     10  C   UNL A   1      31.757  27.209  23.225  1.00  0.00     0.096 C 
ATOM     11  N   UNL A   1      33.166  26.801  23.160  1.00  0.00    -0.334 N 
ATOM     12  C   UNL A   1      33.248  29.178  23.140  1.00  0.00     0.039 C 
ATOM     13  C   UNL A   1      34.074  27.921  23.176  1.00  0.00     0.121 C 
BRANCH  11  14
ATOM     14  C   UNL A   1      33.703  25.593  22.733  1.00  0.00     0.264 C 
ATOM     15  O   UNL A   1      33.728  25.329  21.528  1.00  0.00    -0.268 OA
BRANCH  14  16
ATOM     16  C   UNL A   1      34.338  24.690  23.671  1.00  0.00     0.093 A 
ATOM     17  C   UNL A   1      34.239  24.763  25.055  1.00  0.00     0.034 A 
ATOM     18  S   UNL A   1      34.282  23.011  23.250  1.00  0.00    -0.130 S 
ATOM     19  C   UNL A   1      33.233  23.797  25.456  1.00  0.00    -0.004 A 
ATOM     20  C   UNL A   1      33.075  22.802  24.480  1.00  0.00     0.035 A 
ATOM     21  C   UNL A   1      32.351  23.794  26.560  1.00  0.00     0.048 A 
ATOM     22  C   UNL A   1      32.050  21.842  24.542  1.00  0.00     0.022 A 
ATOM     23  C   UNL A   1      31.293  22.887  26.583  1.00  0.00     0.123 A 
ATOM     24  C   UNL A   1      31.129  21.935  25.589  1.00  0.00     0.041 A 
ATOM     25  F   UNL A   1      30.388  22.968  27.568  1.00  0.00    -0.207 F 
ENDBRANCH  14  16
ENDBRANCH  11  14
ENDBRANCH   6   8
ENDBRANCH   5   6
ENDBRANCH   4   5
ENDBRANCH   3   4
ENDBRANCH   2   3
ENDBRANCH   1   2
BRANCH   1  26
ATOM     26  C   UNL A   1      34.792  30.735  27.992  1.00  0.00     0.188 C 
BRANCH  26  27
ATOM     27  O   UNL A   1      34.276  31.862  27.321  1.00  0.00    -0.376 OA
BRANCH  27  28
ATOM     28  C   UNL A   1      32.932  32.265  27.516  1.00  0.00     0.202 C 
BRANCH  28  29
ATOM     29  C   UNL A   1      32.511  33.737  27.465  1.00  0.00     0.261 C 
BRANCH  29  30
ATOM     30  O   UNL A   1      32.362  34.384  28.732  1.00  0.00    -0.460 OA
BRANCH  30  31
ATOM     31  C   UNL A   1      33.343  35.273  29.039  1.00  0.00     0.338 C 
ATOM     32  O   UNL A   1      33.269  36.483  29.079  1.00  0.00    -0.246 OA
BRANCH  31  33
ATOM     33  C   UNL A   1      34.524  34.518  29.491  1.00  0.00     0.060 A 
ATOM     34  C   UNL A   1      34.425  33.716  30.637  1.00  0.00     0.016 A 
ATOM     35  C   UNL A   1      35.730  34.641  28.806  1.00  0.00     0.016 A 
ATOM     36  C   UNL A   1      35.542  33.024  31.105  1.00  0.00     0.010 A 
ATOM     37  C   UNL A   1      36.854  33.977  29.293  1.00  0.00     0.010 A 
ATOM     38  C   UNL A   1      36.769  33.183  30.453  1.00  0.00    -0.014 A 
BRANCH  38  39
ATOM     39  C   UNL A   1      38.025  32.691  31.060  1.00  0.00     0.031 A 
ATOM     40  C   UNL A   1      38.679  31.488  30.447  1.00  0.00     0.074 A 
ATOM     41  C   UNL A   1      38.535  33.255  32.168  1.00  0.00     0.049 A 
ATOM     42  N   UNL A   1      39.630  30.728  30.921  1.00  0.00    -0.248 NA
ATOM     43  C   UNL A   1      38.178  31.080  29.123  1.00  0.00     0.031 C 
ATOM     44  C   UNL A   1      38.039  34.471  32.808  1.00  0.00     0.029 A 
ATOM     45  N   UNL A   1      39.574  32.849  32.967  1.00  0.00    -0.354 N 
ATOM     46  C   UNL A   1      39.819  29.733  29.971  1.00  0.00     0.074 A 
ATOM     47  C   UNL A   1      38.879  29.980  28.899  1.00  0.00     0.031 C 
ATOM     48  C   UNL A   1      38.757  34.697  33.923  1.00  0.00     0.029 A 
ATOM     49  C   UNL A   1      39.716  33.609  34.102  1.00  0.00     0.049 A 
ATOM     50  H   UNL A   1      40.160  32.088  32.748  1.00  0.00     0.167 HD
ATOM     51  C   UNL A   1      40.690  28.698  29.998  1.00  0.00     0.031 A 
ATOM     52  C   UNL A   1      40.495  33.414  35.185  1.00  0.00     0.031 A 
ATOM     53  C   UNL A   1      41.607  28.453  31.077  1.00  0.00     0.049 A 
ATOM     54  C   UNL A   1      41.385  32.197  35.243  1.00  0.00     0.074 A 
ATOM     55  C   UNL A   1      42.533  27.433  31.206  1.00  0.00     0.029 A 
ATOM     56  N   UNL A   1      41.706  29.235  32.218  1.00  0.00    -0.354 N 
ATOM     57  N   UNL A   1      41.553  31.251  34.350  1.00  0.00    -0.248 NA
ATOM     58  C   UNL A   1      42.187  32.017  36.462  1.00  0.00     0.031 C 
ATOM     59  C   UNL A   1      43.149  27.562  32.453  1.00  0.00     0.029 A 
ATOM     60  C   UNL A   1      42.661  28.706  33.067  1.00  0.00     0.049 A 
ATOM     61  H   UNL A   1      41.176  30.046  32.396  1.00  0.00     0.167 HD
ATOM     62  C   UNL A   1      42.510  30.392  34.879  1.00  0.00     0.074 A 
ATOM     63  C   UNL A   1      42.883  30.927  36.172  1.00  0.00     0.031 C 
ATOM     64  C   UNL A   1      43.036  29.266  34.340  1.00  0.00     0.031 A 
BRANCH  51  65
ATOM     65  C   UNL A   1      40.648  27.725  28.854  1.00  0.00    -0.014 A 
ATOM     66  C   UNL A   1      39.826  26.588  28.884  1.00  0.00     0.009 A 
ATOM     67  C   UNL A   1      41.430  27.968  27.713  1.00  0.00     0.009 A 
ATOM     68  C   UNL A   1      39.816  25.696  27.811  1.00  0.00     0.001 A 
ATOM     69  C   UNL A   1      41.393  27.091  26.628  1.00  0.00     0.001 A 
ATOM     70  C   UNL A   1      40.595  25.951  26.682  1.00  0.00     0.000 A 
ENDBRANCH  51  65
BRANCH  52  71
ATOM     71  C   UNL A   1      40.442  34.365  36.327  1.00  0.00    -0.014 A 
ATOM     72  C   UNL A   1      41.328  35.451  36.395  1.00  0.00     0.009 A 
ATOM     73  C   UNL A   1      39.519  34.180  37.369  1.00  0.00     0.009 A 
ATOM     74  C   UNL A   1      41.309  36.315  37.494  1.00  0.00     0.001 A 
ATOM     75  C   UNL A   1      39.480  35.064  38.450  1.00  0.00     0.001 A 
ATOM     76  C   UNL A   1      40.381  36.123  38.517  1.00  0.00     0.000 A 
ENDBRANCH  52  71
BRANCH  64  77
ATOM     77  C   UNL A   1      44.129  28.565  35.099  1.00  0.00    -0.014 A 
ATOM     78  C   UNL A   1      45.475  28.929  34.955  1.00  0.00     0.009 A 
ATOM     79  C   UNL A   1      43.784  27.588  36.048  1.00  0.00     0.009 A 
ATOM     80  C   UNL A   1      46.456  28.316  35.740  1.00  0.00     0.001 A 
ATOM     81  C   UNL A   1      44.761  27.000  36.850  1.00  0.00     0.001 A 
ATOM     82  C   UNL A   1      46.098  27.361  36.692  1.00  0.00     0.000 A 
ENDBRANCH  64  77
ENDBRANCH  38  39
ENDBRANCH  31  33
ENDBRANCH  30  31
ENDBRANCH  29  30
ENDBRANCH  28  29
ENDBRANCH  27  28
ENDBRANCH  26  27
ENDBRANCH   1  26
TORSDOF 19
ENDMDL
