MODEL 1
REMARK VINA RESULT:     -11.0      0.000      0.000
REMARK SMILES Cc1ccccc1NC(=O)C[NH+]1CCC(CC(=O)OCCOCCOCCOC(=O)c2ccc(-c3c4nc(c(-c5ccccc5)c5ccc([nH]5)c(-c5ccccc5)c5nc(c(-c6ccccc6)c6ccc3[nH]6)C=C5)C=C4)cc2)CC1
REMARK SMILES IDX 23 1 22 2 21 3 20 4 19 5 17 6 18 7 16 8 15 9 12 10 13 11
REMARK SMILES IDX 80 12 14 14 79 15 11 16 9 17 8 18 10 20 7 21 1 22 2 23 3 24
REMARK SMILES IDX 4 25 6 26 5 27 24 28 25 29 26 30 27 31 28 32 29 33 30 34
REMARK SMILES IDX 31 35 32 36 78 37 33 38 77 39 34 40 35 41 36 42 71 43 37 44
REMARK SMILES IDX 76 45 70 46 72 47 38 48 75 49 69 50 68 51 39 53 61 54 46 55
REMARK SMILES IDX 60 56 47 57 50 58 59 59 73 60 48 61 49 62 58 64 74 65 51 66
REMARK SMILES IDX 40 67 41 68 45 69 42 70 44 71 43 72 62 73 63 74 67 75 64 76
REMARK SMILES IDX 66 77 65 78 52 79 53 80 57 81 54 82 56 83 55 84
REMARK H PARENT 12 13 8 19 72 52 50 63
REMARK Flexibility Score: inf
ROOT
ATOM      1  C   UNL A   1      36.131  23.947  25.045  1.00  0.00     0.188 C 
ENDROOT
BRANCH   1   2
ATOM      2  O   UNL A   1      37.446  23.604  25.419  1.00  0.00    -0.376 OA
BRANCH   2   3
ATOM      3  C   UNL A   1      37.733  22.254  25.184  1.00  0.00     0.202 C 
BRANCH   3   4
ATOM      4  C   UNL A   1      38.711  21.450  26.099  1.00  0.00     0.261 C 
BRANCH   4   5
ATOM      5  O   UNL A   1      40.272  21.059  25.977  1.00  0.00    -0.463 OA
BRANCH   5   6
ATOM      6  C   UNL A   1      41.458  20.444  26.474  1.00  0.00     0.306 C 
ATOM      7  O   UNL A   1      41.364  19.921  27.593  1.00  0.00    -0.252 OA
BRANCH   6   8
ATOM      8  C   UNL A   1      43.030  20.312  25.744  1.00  0.00     0.126 C 
BRANCH   8   9
ATOM      9  C   UNL A   1      43.907  21.669  25.456  1.00  0.00     0.011 C 
ATOM     10  N   UNL A   1      45.767  23.916  24.822  1.00  0.00    -0.327 N 
ATOM     11  C   UNL A   1      46.242  22.601  25.224  1.00  0.00     0.262 C 
ATOM     12  C   UNL A   1      44.304  24.083  24.903  1.00  0.00     0.262 C 
ATOM     13  H   UNL A   1      45.927  23.999  23.818  1.00  0.00     0.348 HD
ATOM     14  C   UNL A   1      45.280  21.522  24.719  1.00  0.00     0.066 C 
ATOM     15  C   UNL A   1      43.362  22.853  24.629  1.00  0.00     0.066 C 
BRANCH  10  16
ATOM     16  C   UNL A   1      46.586  25.004  25.440  1.00  0.00     0.363 C 
BRANCH  16  17
ATOM     17  C   UNL A   1      47.215  24.721  26.829  1.00  0.00     0.279 C 
ATOM     18  N   UNL A   1      46.496  24.541  27.983  1.00  0.00    -0.321 N 
ATOM     19  H   UNL A   1      47.035  24.423  28.798  1.00  0.00     0.170 HD
ATOM     20  O   UNL A   1      48.447  24.605  26.928  1.00  0.00    -0.268 OA
BRANCH  18  21
ATOM     21  C   UNL A   1      45.105  24.499  28.177  1.00  0.00     0.044 A 
ATOM     22  C   UNL A   1      44.908  27.066  27.978  1.00  0.00     0.046 C 
ATOM     23  C   UNL A   1      44.394  25.702  28.351  1.00  0.00    -0.027 A 
ATOM     24  C   UNL A   1      43.128  25.643  28.965  1.00  0.00     0.005 A 
ATOM     25  C   UNL A   1      42.551  24.422  29.312  1.00  0.00     0.000 A 
ATOM     26  C   UNL A   1      44.444  23.280  28.364  1.00  0.00     0.026 A 
ATOM     27  C   UNL A   1      43.184  23.238  28.957  1.00  0.00     0.002 A 
ENDBRANCH  18  21
ENDBRANCH  16  17
ENDBRANCH  10  16
ENDBRANCH   8   9
ENDBRANCH   6   8
ENDBRANCH   5   6
ENDBRANCH   4   5
ENDBRANCH   3   4
ENDBRANCH   2   3
ENDBRANCH   1   2
BRANCH   1  28
ATOM     28  C   UNL A   1      35.012  23.082  25.651  1.00  0.00     0.188 C 
BRANCH  28  29
ATOM     29  O   UNL A   1      33.889  22.844  24.796  1.00  0.00    -0.376 OA
BRANCH  29  30
ATOM     30  C   UNL A   1      33.724  23.808  23.747  1.00  0.00     0.202 C 
BRANCH  30  31
ATOM     31  C   UNL A   1      32.490  24.688  23.975  1.00  0.00     0.261 C 
BRANCH  31  32
ATOM     32  O   UNL A   1      32.817  26.055  23.655  1.00  0.00    -0.460 OA
BRANCH  32  33
ATOM     33  C   UNL A   1      31.852  26.925  24.028  1.00  0.00     0.338 C 
ATOM     34  O   UNL A   1      30.732  26.990  23.527  1.00  0.00    -0.246 OA
BRANCH  33  35
ATOM     35  C   UNL A   1      32.478  27.987  24.857  1.00  0.00     0.060 A 
ATOM     36  C   UNL A   1      33.832  28.076  24.740  1.00  0.00     0.016 A 
ATOM     37  C   UNL A   1      31.870  28.682  25.921  1.00  0.00     0.016 A 
ATOM     38  C   UNL A   1      34.510  28.722  25.766  1.00  0.00     0.010 A 
ATOM     39  C   UNL A   1      32.639  29.339  26.940  1.00  0.00     0.010 A 
ATOM     40  C   UNL A   1      34.031  29.324  26.921  1.00  0.00    -0.014 A 
BRANCH  40  41
ATOM     41  C   UNL A   1      34.957  29.827  28.053  1.00  0.00     0.031 A 
ATOM     42  C   UNL A   1      34.867  31.284  28.410  1.00  0.00     0.074 A 
ATOM     43  C   UNL A   1      36.164  29.436  28.605  1.00  0.00     0.049 A 
ATOM     44  N   UNL A   1      35.867  31.993  28.857  1.00  0.00    -0.248 NA
ATOM     45  C   UNL A   1      33.674  32.081  28.142  1.00  0.00     0.031 C 
ATOM     46  C   UNL A   1      36.426  29.575  30.056  1.00  0.00     0.029 A 
ATOM     47  N   UNL A   1      37.307  28.749  28.218  1.00  0.00    -0.354 N 
ATOM     48  C   UNL A   1      35.330  33.162  29.301  1.00  0.00     0.074 A 
ATOM     49  C   UNL A   1      34.060  33.269  28.614  1.00  0.00     0.031 C 
ATOM     50  C   UNL A   1      37.603  29.010  30.384  1.00  0.00     0.029 A 
ATOM     51  C   UNL A   1      38.255  28.513  29.184  1.00  0.00     0.049 A 
ATOM     52  H   UNL A   1      37.431  28.443  27.290  1.00  0.00     0.167 HD
ATOM     53  C   UNL A   1      35.815  33.776  30.417  1.00  0.00     0.031 A 
ATOM     54  C   UNL A   1      39.544  28.100  29.011  1.00  0.00     0.031 A 
ATOM     55  C   UNL A   1      36.910  33.063  31.082  1.00  0.00     0.049 A 
ATOM     56  C   UNL A   1      40.436  29.088  29.690  1.00  0.00     0.074 A 
ATOM     57  C   UNL A   1      36.917  32.232  32.196  1.00  0.00     0.029 A 
ATOM     58  N   UNL A   1      38.184  32.971  30.535  1.00  0.00    -0.354 N 
ATOM     59  N   UNL A   1      39.924  30.175  30.171  1.00  0.00    -0.248 NA
ATOM     60  C   UNL A   1      41.889  29.072  29.804  1.00  0.00     0.031 C 
ATOM     61  C   UNL A   1      38.229  31.753  32.397  1.00  0.00     0.029 A 
ATOM     62  C   UNL A   1      39.024  32.274  31.395  1.00  0.00     0.049 A 
ATOM     63  H   UNL A   1      38.452  33.345  29.664  1.00  0.00     0.167 HD
ATOM     64  C   UNL A   1      40.885  30.995  30.647  1.00  0.00     0.074 A 
ATOM     65  C   UNL A   1      42.117  30.275  30.375  1.00  0.00     0.031 C 
ATOM     66  C   UNL A   1      40.473  32.183  31.170  1.00  0.00     0.031 A 
BRANCH  53  67
ATOM     67  C   UNL A   1      34.934  34.772  31.137  1.00  0.00    -0.014 A 
ATOM     68  C   UNL A   1      35.271  35.209  32.430  1.00  0.00     0.009 A 
ATOM     69  C   UNL A   1      33.711  35.232  30.621  1.00  0.00     0.009 A 
ATOM     70  C   UNL A   1      34.371  35.927  33.222  1.00  0.00     0.001 A 
ATOM     71  C   UNL A   1      32.783  35.900  31.427  1.00  0.00     0.001 A 
ATOM     72  C   UNL A   1      33.107  36.233  32.736  1.00  0.00     0.000 A 
ENDBRANCH  53  67
BRANCH  54  73
ATOM     73  C   UNL A   1      39.928  27.307  27.814  1.00  0.00    -0.014 A 
ATOM     74  C   UNL A   1      40.782  27.893  26.856  1.00  0.00     0.009 A 
ATOM     75  C   UNL A   1      39.625  25.947  27.673  1.00  0.00     0.009 A 
ATOM     76  C   UNL A   1      41.374  27.130  25.840  1.00  0.00     0.001 A 
ATOM     77  C   UNL A   1      40.227  25.182  26.661  1.00  0.00     0.001 A 
ATOM     78  C   UNL A   1      41.119  25.766  25.763  1.00  0.00     0.000 A 
ENDBRANCH  54  73
BRANCH  66  79
ATOM     79  C   UNL A   1      41.322  33.336  31.603  1.00  0.00    -0.014 A 
ATOM     80  C   UNL A   1      42.104  34.130  30.762  1.00  0.00     0.009 A 
ATOM     81  C   UNL A   1      41.318  33.675  32.976  1.00  0.00     0.009 A 
ATOM     82  C   UNL A   1      42.805  35.235  31.262  1.00  0.00     0.001 A 
ATOM     83  C   UNL A   1      42.004  34.778  33.477  1.00  0.00     0.001 A 
ATOM     84  C   UNL A   1      42.743  35.565  32.613  1.00  0.00     0.000 A 
ENDBRANCH  66  79
ENDBRANCH  40  41
ENDBRANCH  33  35
ENDBRANCH  32  33
ENDBRANCH  31  32
ENDBRANCH  30  31
ENDBRANCH  29  30
ENDBRANCH  28  29
ENDBRANCH   1  28
TORSDOF 21
ENDMDL
MODEL 2
REMARK VINA RESULT:     -10.2      3.315      8.675
REMARK SMILES Cc1ccccc1NC(=O)C[NH+]1CCC(CC(=O)OCCOCCOCCOC(=O)c2ccc(-c3c4nc(c(-c5ccccc5)c5ccc([nH]5)c(-c5ccccc5)c5nc(c(-c6ccccc6)c6ccc3[nH]6)C=C5)C=C4)cc2)CC1
REMARK SMILES IDX 23 1 22 2 21 3 20 4 19 5 17 6 18 7 16 8 15 9 12 10 13 11
REMARK SMILES IDX 80 12 14 14 79 15 11 16 9 17 8 18 10 20 7 21 1 22 2 23 3 24
REMARK SMILES IDX 4 25 6 26 5 27 24 28 25 29 26 30 27 31 28 32 29 33 30 34
REMARK SMILES IDX 31 35 32 36 78 37 33 38 77 39 34 40 35 41 36 42 71 43 37 44
REMARK SMILES IDX 76 45 70 46 72 47 38 48 75 49 69 50 68 51 39 53 61 54 46 55
REMARK SMILES IDX 60 56 47 57 50 58 59 59 73 60 48 61 49 62 58 64 74 65 51 66
REMARK SMILES IDX 40 67 41 68 45 69 42 70 44 71 43 72 62 73 63 74 67 75 64 76
REMARK SMILES IDX 66 77 65 78 52 79 53 80 57 81 54 82 56 83 55 84
REMARK H PARENT 12 13 8 19 72 52 50 63
REMARK Flexibility Score: inf
ROOT
ATOM      1  C   UNL A   1      33.798  27.191  24.649  1.00  0.00     0.188 C 
ENDROOT
BRANCH   1   2
ATOM      2  O   UNL A   1      33.626  26.555  23.402  1.00  0.00    -0.376 OA
BRANCH   2   3
ATOM      3  C   UNL A   1      32.336  26.734  22.887  1.00  0.00     0.202 C 
BRANCH   3   4
ATOM      4  C   UNL A   1      31.149  25.809  23.304  1.00  0.00     0.261 C 
BRANCH   4   5
ATOM      5  O   UNL A   1      30.750  25.076  24.685  1.00  0.00    -0.463 OA
BRANCH   5   6
ATOM      6  C   UNL A   1      31.079  24.336  25.858  1.00  0.00     0.306 C 
ATOM      7  O   UNL A   1      31.319  25.010  26.870  1.00  0.00    -0.252 OA
BRANCH   6   8
ATOM      8  C   UNL A   1      31.194  22.617  26.091  1.00  0.00     0.126 C 
BRANCH   8   9
ATOM      9  C   UNL A   1      32.622  21.856  25.818  1.00  0.00     0.011 C 
ATOM     10  N   UNL A   1      35.311  20.570  25.658  1.00  0.00    -0.327 N 
ATOM     11  C   UNL A   1      35.051  21.731  26.494  1.00  0.00     0.262 C 
ATOM     12  C   UNL A   1      34.183  20.182  24.790  1.00  0.00     0.262 C 
ATOM     13  H   UNL A   1      35.378  19.763  26.278  1.00  0.00     0.348 HD
ATOM     14  C   UNL A   1      33.613  21.686  27.018  1.00  0.00     0.066 C 
ATOM     15  C   UNL A   1      32.707  20.410  25.284  1.00  0.00     0.066 C 
BRANCH  10  16
ATOM     16  C   UNL A   1      36.647  20.665  24.992  1.00  0.00     0.363 C 
BRANCH  16  17
ATOM     17  C   UNL A   1      37.108  22.068  24.517  1.00  0.00     0.279 C 
ATOM     18  N   UNL A   1      38.140  22.775  25.080  1.00  0.00    -0.321 N 
ATOM     19  H   UNL A   1      38.282  23.675  24.708  1.00  0.00     0.170 HD
ATOM     20  O   UNL A   1      36.552  22.594  23.541  1.00  0.00    -0.268 OA
BRANCH  18  21
ATOM     21  C   UNL A   1      39.024  22.408  26.108  1.00  0.00     0.044 A 
ATOM     22  C   UNL A   1      38.871  24.745  27.198  1.00  0.00     0.046 C 
ATOM     23  C   UNL A   1      39.500  23.393  26.996  1.00  0.00    -0.027 A 
ATOM     24  C   UNL A   1      40.680  23.124  27.715  1.00  0.00     0.005 A 
ATOM     25  C   UNL A   1      41.316  21.886  27.623  1.00  0.00     0.000 A 
ATOM     26  C   UNL A   1      39.565  21.119  26.162  1.00  0.00     0.026 A 
ATOM     27  C   UNL A   1      40.724  20.864  26.893  1.00  0.00     0.002 A 
ENDBRANCH  18  21
ENDBRANCH  16  17
ENDBRANCH  10  16
ENDBRANCH   8   9
ENDBRANCH   6   8
ENDBRANCH   5   6
ENDBRANCH   4   5
ENDBRANCH   3   4
ENDBRANCH   2   3
ENDBRANCH   1   2
BRANCH   1  28
ATOM     28  C   UNL A   1      33.560  28.712  24.668  1.00  0.00     0.188 C 
BRANCH  28  29
ATOM     29  O   UNL A   1      32.788  29.198  25.770  1.00  0.00    -0.376 OA
BRANCH  29  30
ATOM     30  C   UNL A   1      33.528  29.984  26.715  1.00  0.00     0.202 C 
BRANCH  30  31
ATOM     31  C   UNL A   1      32.716  31.188  27.207  1.00  0.00     0.261 C 
BRANCH  31  32
ATOM     32  O   UNL A   1      33.475  32.394  26.984  1.00  0.00    -0.460 OA
BRANCH  32  33
ATOM     33  C   UNL A   1      33.372  33.273  28.005  1.00  0.00     0.338 C 
ATOM     34  O   UNL A   1      32.564  34.197  28.057  1.00  0.00    -0.246 OA
BRANCH  33  35
ATOM     35  C   UNL A   1      34.594  33.161  28.842  1.00  0.00     0.060 A 
ATOM     36  C   UNL A   1      35.755  33.460  28.196  1.00  0.00     0.016 A 
ATOM     37  C   UNL A   1      34.692  32.523  30.095  1.00  0.00     0.016 A 
ATOM     38  C   UNL A   1      36.930  32.977  28.760  1.00  0.00     0.010 A 
ATOM     39  C   UNL A   1      35.946  32.062  30.618  1.00  0.00     0.010 A 
ATOM     40  C   UNL A   1      37.133  32.230  29.910  1.00  0.00    -0.014 A 
BRANCH  40  41
ATOM     41  C   UNL A   1      38.503  31.612  30.281  1.00  0.00     0.031 A 
ATOM     42  C   UNL A   1      38.859  30.305  29.631  1.00  0.00     0.074 A 
ATOM     43  C   UNL A   1      39.375  31.687  31.352  1.00  0.00     0.049 A 
ATOM     44  N   UNL A   1      39.601  29.389  30.187  1.00  0.00    -0.248 NA
ATOM     45  C   UNL A   1      38.274  29.878  28.364  1.00  0.00     0.031 C 
ATOM     46  C   UNL A   1      40.842  31.653  31.152  1.00  0.00     0.029 A 
ATOM     47  N   UNL A   1      39.323  31.945  32.715  1.00  0.00    -0.354 N 
ATOM     48  C   UNL A   1      39.901  28.499  29.202  1.00  0.00     0.074 A 
ATOM     49  C   UNL A   1      38.873  28.696  28.202  1.00  0.00     0.031 C 
ATOM     50  C   UNL A   1      41.486  31.873  32.313  1.00  0.00     0.029 A 
ATOM     51  C   UNL A   1      40.519  32.000  33.390  1.00  0.00     0.049 A 
ATOM     52  H   UNL A   1      38.465  32.084  33.178  1.00  0.00     0.167 HD
ATOM     53  C   UNL A   1      41.128  27.908  29.140  1.00  0.00     0.031 A 
ATOM     54  C   UNL A   1      40.723  31.982  34.739  1.00  0.00     0.031 A 
ATOM     55  C   UNL A   1      42.066  28.333  30.184  1.00  0.00     0.049 A 
ATOM     56  C   UNL A   1      41.663  30.862  35.045  1.00  0.00     0.074 A 
ATOM     57  C   UNL A   1      43.107  29.253  30.158  1.00  0.00     0.029 A 
ATOM     58  N   UNL A   1      41.917  27.970  31.518  1.00  0.00    -0.354 N 
ATOM     59  N   UNL A   1      42.002  30.046  34.098  1.00  0.00    -0.248 NA
ATOM     60  C   UNL A   1      42.201  30.452  36.336  1.00  0.00     0.031 C 
ATOM     61  C   UNL A   1      43.674  29.335  31.448  1.00  0.00     0.029 A 
ATOM     62  C   UNL A   1      42.966  28.481  32.272  1.00  0.00     0.049 A 
ATOM     63  H   UNL A   1      41.175  27.429  31.875  1.00  0.00     0.167 HD
ATOM     64  C   UNL A   1      42.765  29.039  34.575  1.00  0.00     0.074 A 
ATOM     65  C   UNL A   1      42.849  29.316  35.999  1.00  0.00     0.031 C 
ATOM     66  C   UNL A   1      43.177  28.104  33.676  1.00  0.00     0.031 A 
BRANCH  53  67
ATOM     67  C   UNL A   1      41.584  27.319  27.825  1.00  0.00    -0.014 A 
ATOM     68  C   UNL A   1      42.384  26.163  27.807  1.00  0.00     0.009 A 
ATOM     69  C   UNL A   1      41.333  27.923  26.582  1.00  0.00     0.009 A 
ATOM     70  C   UNL A   1      43.027  25.730  26.645  1.00  0.00     0.001 A 
ATOM     71  C   UNL A   1      42.017  27.532  25.427  1.00  0.00     0.001 A 
ATOM     72  C   UNL A   1      42.880  26.443  25.463  1.00  0.00     0.000 A 
ENDBRANCH  53  67
BRANCH  54  73
ATOM     73  C   UNL A   1      39.670  32.470  35.668  1.00  0.00    -0.014 A 
ATOM     74  C   UNL A   1      38.728  31.548  36.172  1.00  0.00     0.009 A 
ATOM     75  C   UNL A   1      39.669  33.764  36.204  1.00  0.00     0.009 A 
ATOM     76  C   UNL A   1      37.870  31.885  37.228  1.00  0.00     0.001 A 
ATOM     77  C   UNL A   1      38.815  34.096  37.269  1.00  0.00     0.001 A 
ATOM     78  C   UNL A   1      37.936  33.151  37.797  1.00  0.00     0.000 A 
ENDBRANCH  54  73
BRANCH  66  79
ATOM     79  C   UNL A   1      43.875  26.810  33.955  1.00  0.00    -0.014 A 
ATOM     80  C   UNL A   1      45.212  26.531  33.666  1.00  0.00     0.009 A 
ATOM     81  C   UNL A   1      43.134  25.788  34.591  1.00  0.00     0.009 A 
ATOM     82  C   UNL A   1      45.789  25.309  34.039  1.00  0.00     0.001 A 
ATOM     83  C   UNL A   1      43.704  24.576  34.972  1.00  0.00     0.001 A 
ATOM     84  C   UNL A   1      45.040  24.342  34.702  1.00  0.00     0.000 A 
ENDBRANCH  66  79
ENDBRANCH  40  41
ENDBRANCH  33  35
ENDBRANCH  32  33
ENDBRANCH  31  32
ENDBRANCH  30  31
ENDBRANCH  29  30
ENDBRANCH  28  29
ENDBRANCH   1  28
TORSDOF 21
ENDMDL
MODEL 3
REMARK VINA RESULT:      -9.9      5.973     11.335
REMARK SMILES Cc1ccccc1NC(=O)C[NH+]1CCC(CC(=O)OCCOCCOCCOC(=O)c2ccc(-c3c4nc(c(-c5ccccc5)c5ccc([nH]5)c(-c5ccccc5)c5nc(c(-c6ccccc6)c6ccc3[nH]6)C=C5)C=C4)cc2)CC1
REMARK SMILES IDX 23 1 22 2 21 3 20 4 19 5 17 6 18 7 16 8 15 9 12 10 13 11
REMARK SMILES IDX 80 12 14 14 79 15 11 16 9 17 8 18 10 20 7 21 1 22 2 23 3 24
REMARK SMILES IDX 4 25 6 26 5 27 24 28 25 29 26 30 27 31 28 32 29 33 30 34
REMARK SMILES IDX 31 35 32 36 78 37 33 38 77 39 34 40 35 41 36 42 71 43 37 44
REMARK SMILES IDX 76 45 70 46 72 47 38 48 75 49 69 50 68 51 39 53 61 54 46 55
REMARK SMILES IDX 60 56 47 57 50 58 59 59 73 60 48 61 49 62 58 64 74 65 51 66
REMARK SMILES IDX 40 67 41 68 45 69 42 70 44 71 43 72 62 73 63 74 67 75 64 76
REMARK SMILES IDX 66 77 65 78 52 79 53 80 57 81 54 82 56 83 55 84
REMARK H PARENT 12 13 8 19 72 52 50 63
REMARK Flexibility Score: inf
ROOT
ATOM      1  C   UNL A   1      44.433  19.034  24.789  1.00  0.00     0.188 C 
ENDROOT
BRANCH   1   2
ATOM      2  O   UNL A   1      43.523  18.166  25.426  1.00  0.00    -0.376 OA
BRANCH   2   3
ATOM      3  C   UNL A   1      42.759  18.816  26.403  1.00  0.00     0.202 C 
BRANCH   3   4
ATOM      4  C   UNL A   1      41.294  19.281  26.124  1.00  0.00     0.261 C 
BRANCH   4   5
ATOM      5  O   UNL A   1      40.479  20.633  26.459  1.00  0.00    -0.463 OA
BRANCH   5   6
ATOM      6  C   UNL A   1      40.353  21.901  27.100  1.00  0.00     0.306 C 
ATOM      7  O   UNL A   1      40.835  21.979  28.238  1.00  0.00    -0.252 OA
BRANCH   6   8
ATOM      8  C   UNL A   1      39.621  23.368  26.522  1.00  0.00     0.126 C 
BRANCH   8   9
ATOM      9  C   UNL A   1      38.170  23.305  25.758  1.00  0.00     0.011 C 
ATOM     10  N   UNL A   1      35.626  22.858  24.263  1.00  0.00    -0.327 N 
ATOM     11  C   UNL A   1      36.876  22.218  23.883  1.00  0.00     0.262 C 
ATOM     12  C   UNL A   1      35.757  23.853  25.344  1.00  0.00     0.262 C 
ATOM     13  H   UNL A   1      35.048  22.146  24.710  1.00  0.00     0.348 HD
ATOM     14  C   UNL A   1      37.721  21.944  25.130  1.00  0.00     0.066 C 
ATOM     15  C   UNL A   1      36.841  23.646  26.465  1.00  0.00     0.066 C 
BRANCH  10  16
ATOM     16  C   UNL A   1      34.849  23.295  23.062  1.00  0.00     0.363 C 
BRANCH  16  17
ATOM     17  C   UNL A   1      33.411  23.827  23.298  1.00  0.00     0.279 C 
ATOM     18  N   UNL A   1      32.363  23.058  23.734  1.00  0.00    -0.321 N 
ATOM     19  H   UNL A   1      31.497  23.522  23.785  1.00  0.00     0.170 HD
ATOM     20  O   UNL A   1      33.173  25.033  23.127  1.00  0.00    -0.268 OA
BRANCH  18  21
ATOM     21  C   UNL A   1      32.339  21.707  24.118  1.00  0.00     0.044 A 
ATOM     22  C   UNL A   1      32.683  22.313  26.605  1.00  0.00     0.046 C 
ATOM     23  C   UNL A   1      32.668  21.359  25.443  1.00  0.00    -0.027 A 
ATOM     24  C   UNL A   1      33.064  20.032  25.701  1.00  0.00     0.005 A 
ATOM     25  C   UNL A   1      33.047  19.064  24.697  1.00  0.00     0.000 A 
ATOM     26  C   UNL A   1      32.156  20.695  23.169  1.00  0.00     0.026 A 
ATOM     27  C   UNL A   1      32.536  19.383  23.446  1.00  0.00     0.002 A 
ENDBRANCH  18  21
ENDBRANCH  16  17
ENDBRANCH  10  16
ENDBRANCH   8   9
ENDBRANCH   6   8
ENDBRANCH   5   6
ENDBRANCH   4   5
ENDBRANCH   3   4
ENDBRANCH   2   3
ENDBRANCH   1   2
BRANCH   1  28
ATOM     28  C   UNL A   1      45.876  19.006  25.324  1.00  0.00     0.188 C 
BRANCH  28  29
ATOM     29  O   UNL A   1      46.634  20.202  25.109  1.00  0.00    -0.376 OA
BRANCH  29  30
ATOM     30  C   UNL A   1      45.938  21.226  24.384  1.00  0.00     0.202 C 
BRANCH  30  31
ATOM     31  C   UNL A   1      46.281  22.624  24.911  1.00  0.00     0.261 C 
BRANCH  31  32
ATOM     32  O   UNL A   1      45.792  22.753  26.261  1.00  0.00    -0.460 OA
BRANCH  32  33
ATOM     33  C   UNL A   1      46.386  23.762  26.937  1.00  0.00     0.338 C 
ATOM     34  O   UNL A   1      47.564  24.090  26.819  1.00  0.00    -0.246 OA
BRANCH  33  35
ATOM     35  C   UNL A   1      45.503  24.147  28.069  1.00  0.00     0.060 A 
ATOM     36  C   UNL A   1      45.936  25.219  28.788  1.00  0.00     0.016 A 
ATOM     37  C   UNL A   1      44.467  23.368  28.620  1.00  0.00     0.016 A 
ATOM     38  C   UNL A   1      45.420  25.365  30.070  1.00  0.00     0.010 A 
ATOM     39  C   UNL A   1      43.976  23.587  29.952  1.00  0.00     0.010 A 
ATOM     40  C   UNL A   1      44.502  24.589  30.763  1.00  0.00    -0.014 A 
BRANCH  40  41
ATOM     41  C   UNL A   1      44.190  24.795  32.264  1.00  0.00     0.031 A 
ATOM     42  C   UNL A   1      44.031  26.213  32.738  1.00  0.00     0.074 A 
ATOM     43  C   UNL A   1      44.397  24.087  33.434  1.00  0.00     0.049 A 
ATOM     44  N   UNL A   1      44.339  26.623  33.937  1.00  0.00    -0.248 NA
ATOM     45  C   UNL A   1      43.653  27.299  31.840  1.00  0.00     0.031 C 
ATOM     46  C   UNL A   1      43.399  24.100  34.528  1.00  0.00     0.029 A 
ATOM     47  N   UNL A   1      45.287  23.143  33.931  1.00  0.00    -0.354 N 
ATOM     48  C   UNL A   1      43.815  27.873  34.053  1.00  0.00     0.074 A 
ATOM     49  C   UNL A   1      43.645  28.329  32.689  1.00  0.00     0.031 C 
ATOM     50  C   UNL A   1      43.749  23.240  35.502  1.00  0.00     0.029 A 
ATOM     51  C   UNL A   1      45.031  22.636  35.182  1.00  0.00     0.049 A 
ATOM     52  H   UNL A   1      46.068  22.851  33.407  1.00  0.00     0.167 HD
ATOM     53  C   UNL A   1      43.273  28.301  35.229  1.00  0.00     0.031 A 
ATOM     54  C   UNL A   1      45.867  21.912  35.981  1.00  0.00     0.031 A 
ATOM     55  C   UNL A   1      43.286  27.306  36.306  1.00  0.00     0.049 A 
ATOM     56  C   UNL A   1      45.961  22.611  37.298  1.00  0.00     0.074 A 
ATOM     57  C   UNL A   1      42.290  26.460  36.781  1.00  0.00     0.029 A 
ATOM     58  N   UNL A   1      44.455  26.910  36.945  1.00  0.00    -0.354 N 
ATOM     59  N   UNL A   1      45.411  23.776  37.435  1.00  0.00    -0.248 NA
ATOM     60  C   UNL A   1      46.710  22.219  38.485  1.00  0.00     0.031 C 
ATOM     61  C   UNL A   1      42.831  25.653  37.805  1.00  0.00     0.029 A 
ATOM     62  C   UNL A   1      44.163  25.989  37.945  1.00  0.00     0.049 A 
ATOM     63  H   UNL A   1      45.357  27.234  36.722  1.00  0.00     0.167 HD
ATOM     64  C   UNL A   1      45.687  24.303  38.647  1.00  0.00     0.074 A 
ATOM     65  C   UNL A   1      46.532  23.300  39.274  1.00  0.00     0.031 C 
ATOM     66  C   UNL A   1      45.174  25.536  38.910  1.00  0.00     0.031 A 
BRANCH  53  67
ATOM     67  C   UNL A   1      42.306  29.463  35.202  1.00  0.00    -0.014 A 
ATOM     68  C   UNL A   1      42.743  30.754  35.546  1.00  0.00     0.009 A 
ATOM     69  C   UNL A   1      40.934  29.317  34.940  1.00  0.00     0.009 A 
ATOM     70  C   UNL A   1      41.844  31.799  35.773  1.00  0.00     0.001 A 
ATOM     71  C   UNL A   1      40.023  30.340  35.221  1.00  0.00     0.001 A 
ATOM     72  C   UNL A   1      40.478  31.579  35.656  1.00  0.00     0.000 A 
ENDBRANCH  53  67
BRANCH  54  73
ATOM     73  C   UNL A   1      46.956  21.092  35.388  1.00  0.00    -0.014 A 
ATOM     74  C   UNL A   1      46.614  19.928  34.667  1.00  0.00     0.009 A 
ATOM     75  C   UNL A   1      48.293  21.509  35.360  1.00  0.00     0.009 A 
ATOM     76  C   UNL A   1      47.558  19.251  33.883  1.00  0.00     0.001 A 
ATOM     77  C   UNL A   1      49.235  20.834  34.566  1.00  0.00     0.001 A 
ATOM     78  C   UNL A   1      48.863  19.724  33.809  1.00  0.00     0.000 A 
ENDBRANCH  54  73
BRANCH  66  79
ATOM     79  C   UNL A   1      45.460  26.415  40.086  1.00  0.00    -0.014 A 
ATOM     80  C   UNL A   1      46.665  27.076  40.332  1.00  0.00     0.009 A 
ATOM     81  C   UNL A   1      44.419  26.623  41.020  1.00  0.00     0.009 A 
ATOM     82  C   UNL A   1      46.804  27.938  41.428  1.00  0.00     0.001 A 
ATOM     83  C   UNL A   1      44.547  27.485  42.105  1.00  0.00     0.001 A 
ATOM     84  C   UNL A   1      45.742  28.152  42.303  1.00  0.00     0.000 A 
ENDBRANCH  66  79
ENDBRANCH  40  41
ENDBRANCH  33  35
ENDBRANCH  32  33
ENDBRANCH  31  32
ENDBRANCH  30  31
ENDBRANCH  29  30
ENDBRANCH  28  29
ENDBRANCH   1  28
TORSDOF 21
ENDMDL
