MODEL 1
REMARK VINA RESULT:     -10.6      0.000      0.000
REMARK SMILES CCCCc1cc(S(F)(F)(F)(F)F)cc2c1O[C@@H](C(F)(F)F)C(C(=O)OCCOCCOCCOC(=O)c1ccc(-c3c4nc(c(-c5ccccc5)c5ccc([nH]5)c(-c5ccccc5)c5nc(c(-c6ccccc6)c6ccc3[nH]6)C=C5)C=C4)cc1)=C2
REMARK SMILES IDX 30 1 29 2 28 3 27 4 26 5 24 6 25 7 23 8 5 9 6 10 16 11 7 12
REMARK SMILES IDX 15 13 17 14 14 15 86 16 18 17 4 18 3 19 2 20 1 21 8 22 9 23
REMARK SMILES IDX 10 24 11 25 12 26 13 27 19 28 20 29 21 30 22 31 31 32 32 33
REMARK SMILES IDX 33 34 34 35 35 36 36 37 37 38 38 39 39 40 85 41 40 42 84 43
REMARK SMILES IDX 41 44 42 45 43 46 78 47 44 48 83 49 77 50 79 51 45 52 82 53
REMARK SMILES IDX 76 54 75 55 46 57 68 58 53 59 67 60 54 61 57 62 66 63 80 64
REMARK SMILES IDX 55 65 56 66 65 68 81 69 58 70 47 71 48 72 52 73 49 74 51 75
REMARK SMILES IDX 50 76 69 77 70 78 74 79 71 80 73 81 72 82 59 83 60 84 64 85
REMARK SMILES IDX 61 86 63 87 62 88
REMARK H PARENT 79 56 57 67
REMARK Flexibility Score: inf
ROOT
ATOM      1  C   UNL A   1      40.449  21.837  26.117  1.00  0.00     0.188 C 
ENDROOT
BRANCH   1   2
ATOM      2  O   UNL A   1      39.130  22.188  26.509  1.00  0.00    -0.376 OA
BRANCH   2   3
ATOM      3  C   UNL A   1      38.216  21.801  25.495  1.00  0.00     0.202 C 
BRANCH   3   4
ATOM      4  C   UNL A   1      37.213  22.921  25.264  1.00  0.00     0.261 C 
BRANCH   4   5
ATOM      5  O   UNL A   1      36.032  22.386  24.683  1.00  0.00    -0.460 OA
BRANCH   5   6
ATOM      6  C   UNL A   1      34.813  22.404  25.409  1.00  0.00     0.338 C 
ATOM      7  O   UNL A   1      34.533  21.455  26.206  1.00  0.00    -0.246 OA
BRANCH   6   8
ATOM      8  C   UNL A   1      33.841  23.560  25.232  1.00  0.00     0.087 C 
ATOM      9  C   UNL A   1      31.390  26.810  24.293  1.00  0.00    -0.004 A 
ATOM     10  C   UNL A   1      31.499  27.986  25.012  1.00  0.00     0.032 A 
ATOM     11  C   UNL A   1      32.245  25.775  24.587  1.00  0.00     0.131 A 
ATOM     12  C   UNL A   1      32.441  28.126  25.997  1.00  0.00     0.108 A 
ATOM     13  C   UNL A   1      33.196  25.873  25.587  1.00  0.00     0.019 A 
ATOM     14  O   UNL A   1      32.202  24.657  23.792  1.00  0.00    -0.475 OA
ATOM     15  C   UNL A   1      33.282  27.071  26.287  1.00  0.00     0.036 A 
ATOM     16  C   UNL A   1      34.078  24.738  25.796  1.00  0.00     0.027 C 
ATOM     17  C   UNL A   1      32.573  23.390  24.405  1.00  0.00     0.316 C 
BRANCH   9  18
ATOM     18  C   UNL A   1      30.346  26.664  23.198  1.00  0.00     0.039 C 
BRANCH  18  19
ATOM     19  C   UNL A   1      29.129  27.507  23.543  1.00  0.00     0.005 C 
BRANCH  19  20
ATOM     20  C   UNL A   1      28.981  28.623  22.523  1.00  0.00    -0.003 C 
ATOM     21  C   UNL A   1      29.184  29.966  23.206  1.00  0.00     0.004 C 
ENDBRANCH  19  20
ENDBRANCH  18  19
ENDBRANCH   9  18
BRANCH  12  22
ATOM     22  S   UNL A   1      32.583  29.682  26.910  1.00  0.00     0.310 S 
ATOM     23  F   UNL A   1      31.467  30.378  26.023  1.00  0.00    -0.094 F 
ATOM     24  F   UNL A   1      33.638  30.180  25.852  1.00  0.00    -0.094 F 
ATOM     25  F   UNL A   1      32.702  31.016  27.699  1.00  0.00    -0.094 F 
ATOM     26  F   UNL A   1      31.423  29.223  27.879  1.00  0.00    -0.094 F 
ATOM     27  F   UNL A   1      32.369  28.369  26.056  1.00  0.00    -0.094 F 
ENDBRANCH  12  22
BRANCH  17  28
ATOM     28  C   UNL A   1      32.827  22.365  23.313  1.00  0.00     0.430 C 
ATOM     29  F   UNL A   1      33.954  22.667  22.675  1.00  0.00    -0.167 F 
ATOM     30  F   UNL A   1      32.934  21.156  23.855  1.00  0.00    -0.167 F 
ATOM     31  F   UNL A   1      31.813  22.376  22.450  1.00  0.00    -0.167 F 
ENDBRANCH  17  28
ENDBRANCH   6   8
ENDBRANCH   5   6
ENDBRANCH   4   5
ENDBRANCH   3   4
ENDBRANCH   2   3
ENDBRANCH   1   2
BRANCH   1  32
ATOM     32  C   UNL A   1      40.818  20.494  26.727  1.00  0.00     0.188 C 
BRANCH  32  33
ATOM     33  O   UNL A   1      42.117  20.118  26.291  1.00  0.00    -0.376 OA
BRANCH  33  34
ATOM     34  C   UNL A   1      42.234  18.703  26.317  1.00  0.00     0.202 C 
BRANCH  34  35
ATOM     35  C   UNL A   1      43.559  18.293  25.696  1.00  0.00     0.261 C 
BRANCH  35  36
ATOM     36  O   UNL A   1      43.699  18.915  24.427  1.00  0.00    -0.460 OA
BRANCH  36  37
ATOM     37  C   UNL A   1      44.881  19.638  24.118  1.00  0.00     0.338 C 
ATOM     38  O   UNL A   1      45.794  19.096  23.419  1.00  0.00    -0.246 OA
BRANCH  37  39
ATOM     39  C   UNL A   1      45.056  21.060  24.625  1.00  0.00     0.060 A 
ATOM     40  C   UNL A   1      45.532  21.269  25.909  1.00  0.00     0.016 A 
ATOM     41  C   UNL A   1      44.749  22.078  23.830  1.00  0.00     0.016 A 
ATOM     42  C   UNL A   1      45.379  22.598  26.369  1.00  0.00     0.010 A 
ATOM     43  C   UNL A   1      44.751  23.366  24.310  1.00  0.00     0.010 A 
ATOM     44  C   UNL A   1      45.154  23.640  25.587  1.00  0.00    -0.014 A 
BRANCH  44  45
ATOM     45  C   UNL A   1      45.335  25.066  26.083  1.00  0.00     0.031 A 
ATOM     46  C   UNL A   1      46.620  25.611  26.059  1.00  0.00     0.074 A 
ATOM     47  C   UNL A   1      44.215  25.742  26.533  1.00  0.00     0.049 A 
ATOM     48  N   UNL A   1      46.988  26.842  26.417  1.00  0.00    -0.248 NA
ATOM     49  C   UNL A   1      47.816  24.882  25.614  1.00  0.00     0.031 C 
ATOM     50  C   UNL A   1      42.914  25.202  26.552  1.00  0.00     0.029 A 
ATOM     51  N   UNL A   1      44.146  27.024  27.032  1.00  0.00    -0.354 N 
ATOM     52  C   UNL A   1      48.301  27.001  26.236  1.00  0.00     0.074 A 
ATOM     53  C   UNL A   1      48.854  25.741  25.723  1.00  0.00     0.031 C 
ATOM     54  C   UNL A   1      42.076  26.140  27.066  1.00  0.00     0.029 A 
ATOM     55  C   UNL A   1      42.837  27.282  27.377  1.00  0.00     0.049 A 
ATOM     56  H   UNL A   1      44.902  27.648  27.127  1.00  0.00     0.167 HD
ATOM     57  C   UNL A   1      49.058  28.149  26.478  1.00  0.00     0.031 A 
ATOM     58  C   UNL A   1      42.318  28.441  27.932  1.00  0.00     0.031 A 
ATOM     59  C   UNL A   1      48.530  29.323  26.994  1.00  0.00     0.049 A 
ATOM     60  C   UNL A   1      43.086  29.570  28.229  1.00  0.00     0.074 A 
ATOM     61  C   UNL A   1      49.278  30.491  27.235  1.00  0.00     0.029 A 
ATOM     62  N   UNL A   1      47.227  29.572  27.360  1.00  0.00    -0.354 N 
ATOM     63  N   UNL A   1      44.391  29.742  28.011  1.00  0.00    -0.248 NA
ATOM     64  C   UNL A   1      42.554  30.791  28.847  1.00  0.00     0.031 C 
ATOM     65  C   UNL A   1      48.439  31.430  27.750  1.00  0.00     0.029 A 
ATOM     66  C   UNL A   1      47.153  30.863  27.839  1.00  0.00     0.049 A 
ATOM     67  H   UNL A   1      46.476  28.938  27.292  1.00  0.00     0.167 HD
ATOM     68  C   UNL A   1      44.766  30.960  28.408  1.00  0.00     0.074 A 
ATOM     69  C   UNL A   1      43.591  31.650  28.958  1.00  0.00     0.031 C 
ATOM     70  C   UNL A   1      46.040  31.525  28.329  1.00  0.00     0.031 A 
BRANCH  57  71
ATOM     71  C   UNL A   1      50.543  28.109  26.158  1.00  0.00    -0.014 A 
ATOM     72  C   UNL A   1      50.956  28.429  24.875  1.00  0.00     0.009 A 
ATOM     73  C   UNL A   1      51.420  27.829  27.114  1.00  0.00     0.009 A 
ATOM     74  C   UNL A   1      52.318  28.140  24.623  1.00  0.00     0.001 A 
ATOM     75  C   UNL A   1      52.756  27.694  26.821  1.00  0.00     0.001 A 
ATOM     76  C   UNL A   1      53.226  27.937  25.561  1.00  0.00     0.000 A 
ENDBRANCH  57  71
BRANCH  58  77
ATOM     77  C   UNL A   1      40.831  28.486  28.236  1.00  0.00    -0.014 A 
ATOM     78  C   UNL A   1      39.955  28.971  27.279  1.00  0.00     0.009 A 
ATOM     79  C   UNL A   1      40.400  28.109  29.435  1.00  0.00     0.009 A 
ATOM     80  C   UNL A   1      38.674  29.294  27.784  1.00  0.00     0.001 A 
ATOM     81  C   UNL A   1      39.098  28.332  29.813  1.00  0.00     0.001 A 
ATOM     82  C   UNL A   1      38.193  28.863  28.937  1.00  0.00     0.000 A 
ENDBRANCH  58  77
BRANCH  70  83
ATOM     83  C   UNL A   1      46.217  32.956  28.813  1.00  0.00    -0.014 A 
ATOM     84  C   UNL A   1      46.615  33.186  30.120  1.00  0.00     0.009 A 
ATOM     85  C   UNL A   1      45.988  33.961  27.976  1.00  0.00     0.009 A 
ATOM     86  C   UNL A   1      46.465  34.530  30.536  1.00  0.00     0.001 A 
ATOM     87  C   UNL A   1      45.991  35.259  28.424  1.00  0.00     0.001 A 
ATOM     88  C   UNL A   1      46.318  35.556  29.718  1.00  0.00     0.000 A 
ENDBRANCH  70  83
ENDBRANCH  44  45
ENDBRANCH  37  39
ENDBRANCH  36  37
ENDBRANCH  35  36
ENDBRANCH  34  35
ENDBRANCH  33  34
ENDBRANCH  32  33
ENDBRANCH   1  32
TORSDOF 22
ENDMDL
MODEL 2
REMARK VINA RESULT:     -10.4      2.934      7.335
REMARK SMILES CCCCc1cc(S(F)(F)(F)(F)F)cc2c1O[C@@H](C(F)(F)F)C(C(=O)OCCOCCOCCOC(=O)c1ccc(-c3c4nc(c(-c5ccccc5)c5ccc([nH]5)c(-c5ccccc5)c5nc(c(-c6ccccc6)c6ccc3[nH]6)C=C5)C=C4)cc1)=C2
REMARK SMILES IDX 30 1 29 2 28 3 27 4 26 5 24 6 25 7 23 8 5 9 6 10 16 11 7 12
REMARK SMILES IDX 15 13 17 14 14 15 86 16 18 17 4 18 3 19 2 20 1 21 8 22 9 23
REMARK SMILES IDX 10 24 11 25 12 26 13 27 19 28 20 29 21 30 22 31 31 32 32 33
REMARK SMILES IDX 33 34 34 35 35 36 36 37 37 38 38 39 39 40 85 41 40 42 84 43
REMARK SMILES IDX 41 44 42 45 43 46 78 47 44 48 83 49 77 50 79 51 45 52 82 53
REMARK SMILES IDX 76 54 75 55 46 57 68 58 53 59 67 60 54 61 57 62 66 63 80 64
REMARK SMILES IDX 55 65 56 66 65 68 81 69 58 70 47 71 48 72 52 73 49 74 51 75
REMARK SMILES IDX 50 76 69 77 70 78 74 79 71 80 73 81 72 82 59 83 60 84 64 85
REMARK SMILES IDX 61 86 63 87 62 88
REMARK H PARENT 79 56 57 67
REMARK Flexibility Score: inf
ROOT
ATOM      1  C   UNL A   1      34.743  23.278  23.043  1.00  0.00     0.188 C 
ENDROOT
BRANCH   1   2
ATOM      2  O   UNL A   1      33.618  22.442  22.815  1.00  0.00    -0.376 OA
BRANCH   2   3
ATOM      3  C   UNL A   1      33.572  21.429  23.808  1.00  0.00     0.202 C 
BRANCH   3   4
ATOM      4  C   UNL A   1      32.190  21.402  24.441  1.00  0.00     0.261 C 
BRANCH   4   5
ATOM      5  O   UNL A   1      31.447  22.529  24.001  1.00  0.00    -0.460 OA
BRANCH   5   6
ATOM      6  C   UNL A   1      30.939  23.458  24.947  1.00  0.00     0.338 C 
ATOM      7  O   UNL A   1      30.344  23.042  25.991  1.00  0.00    -0.246 OA
BRANCH   6   8
ATOM      8  C   UNL A   1      31.106  24.950  24.712  1.00  0.00     0.087 C 
ATOM      9  C   UNL A   1      31.475  29.109  24.564  1.00  0.00    -0.004 A 
ATOM     10  C   UNL A   1      30.538  29.861  23.879  1.00  0.00     0.032 A 
ATOM     11  C   UNL A   1      31.300  27.748  24.642  1.00  0.00     0.131 A 
ATOM     12  C   UNL A   1      29.453  29.268  23.289  1.00  0.00     0.108 A 
ATOM     13  C   UNL A   1      30.227  27.113  24.044  1.00  0.00     0.019 A 
ATOM     14  O   UNL A   1      32.174  27.030  25.420  1.00  0.00    -0.475 OA
ATOM     15  C   UNL A   1      29.301  27.899  23.367  1.00  0.00     0.036 A 
ATOM     16  C   UNL A   1      30.110  25.675  24.216  1.00  0.00     0.027 C 
ATOM     17  C   UNL A   1      32.421  25.647  25.038  1.00  0.00     0.316 C 
BRANCH   9  18
ATOM     18  C   UNL A   1      32.674  29.775  25.220  1.00  0.00     0.039 C 
BRANCH  18  19
ATOM     19  C   UNL A   1      32.353  30.078  26.674  1.00  0.00     0.005 C 
BRANCH  19  20
ATOM     20  C   UNL A   1      33.589  30.636  27.359  1.00  0.00    -0.003 C 
ATOM     21  C   UNL A   1      34.573  29.509  27.627  1.00  0.00     0.004 C 
ENDBRANCH  19  20
ENDBRANCH  18  19
ENDBRANCH   9  18
BRANCH  12  22
ATOM     22  S   UNL A   1      28.225  30.272  22.418  1.00  0.00     0.310 S 
ATOM     23  F   UNL A   1      29.033  31.610  22.689  1.00  0.00    -0.094 F 
ATOM     24  F   UNL A   1      27.488  30.519  23.787  1.00  0.00    -0.094 F 
ATOM     25  F   UNL A   1      27.173  31.132  21.663  1.00  0.00    -0.094 F 
ATOM     26  F   UNL A   1      29.054  30.130  21.080  1.00  0.00    -0.094 F 
ATOM     27  F   UNL A   1      29.363  29.490  23.188  1.00  0.00    -0.094 F 
ENDBRANCH  12  22
BRANCH  17  28
ATOM     28  C   UNL A   1      33.091  24.925  26.195  1.00  0.00     0.430 C 
ATOM     29  F   UNL A   1      33.490  23.721  25.795  1.00  0.00    -0.167 F 
ATOM     30  F   UNL A   1      34.142  25.628  26.607  1.00  0.00    -0.167 F 
ATOM     31  F   UNL A   1      32.225  24.793  27.197  1.00  0.00    -0.167 F 
ENDBRANCH  17  28
ENDBRANCH   6   8
ENDBRANCH   5   6
ENDBRANCH   4   5
ENDBRANCH   3   4
ENDBRANCH   2   3
ENDBRANCH   1   2
BRANCH   1  32
ATOM     32  C   UNL A   1      35.804  22.503  23.806  1.00  0.00     0.188 C 
BRANCH  32  33
ATOM     33  O   UNL A   1      36.771  23.408  24.322  1.00  0.00    -0.376 OA
BRANCH  33  34
ATOM     34  C   UNL A   1      37.219  22.950  25.590  1.00  0.00     0.202 C 
BRANCH  34  35
ATOM     35  C   UNL A   1      38.233  21.835  25.396  1.00  0.00     0.261 C 
BRANCH  35  36
ATOM     36  O   UNL A   1      39.121  21.805  26.504  1.00  0.00    -0.460 OA
BRANCH  36  37
ATOM     37  C   UNL A   1      40.443  22.304  26.367  1.00  0.00     0.338 C 
ATOM     38  O   UNL A   1      41.342  21.584  25.828  1.00  0.00    -0.246 OA
BRANCH  37  39
ATOM     39  C   UNL A   1      40.784  23.699  26.865  1.00  0.00     0.060 A 
ATOM     40  C   UNL A   1      41.285  23.858  28.147  1.00  0.00     0.016 A 
ATOM     41  C   UNL A   1      40.597  24.742  26.065  1.00  0.00     0.016 A 
ATOM     42  C   UNL A   1      41.289  25.198  28.599  1.00  0.00     0.010 A 
ATOM     43  C   UNL A   1      40.751  26.022  26.537  1.00  0.00     0.010 A 
ATOM     44  C   UNL A   1      41.186  26.255  27.812  1.00  0.00    -0.014 A 
BRANCH  44  45
ATOM     45  C   UNL A   1      41.534  27.652  28.299  1.00  0.00     0.031 A 
ATOM     46  C   UNL A   1      40.487  28.496  28.676  1.00  0.00     0.074 A 
ATOM     47  C   UNL A   1      42.869  28.012  28.339  1.00  0.00     0.049 A 
ATOM     48  N   UNL A   1      40.575  29.737  29.155  1.00  0.00    -0.248 NA
ATOM     49  C   UNL A   1      39.065  28.128  28.602  1.00  0.00     0.031 C 
ATOM     50  C   UNL A   1      43.932  27.164  27.969  1.00  0.00     0.029 A 
ATOM     51  N   UNL A   1      43.410  29.217  28.730  1.00  0.00    -0.354 N 
ATOM     52  C   UNL A   1      39.357  30.216  29.420  1.00  0.00     0.074 A 
ATOM     53  C   UNL A   1      38.369  29.191  29.061  1.00  0.00     0.031 C 
ATOM     54  C   UNL A   1      45.094  27.852  28.123  1.00  0.00     0.029 A 
ATOM     55  C   UNL A   1      44.779  29.140  28.592  1.00  0.00     0.049 A 
ATOM     56  H   UNL A   1      42.904  29.999  29.051  1.00  0.00     0.167 HD
ATOM     57  C   UNL A   1      39.034  31.468  29.947  1.00  0.00     0.031 A 
ATOM     58  C   UNL A   1      45.714  30.128  28.856  1.00  0.00     0.031 A 
ATOM     59  C   UNL A   1      39.974  32.440  30.250  1.00  0.00     0.049 A 
ATOM     60  C   UNL A   1      45.386  31.401  29.328  1.00  0.00     0.074 A 
ATOM     61  C   UNL A   1      39.665  33.703  30.790  1.00  0.00     0.029 A 
ATOM     62  N   UNL A   1      41.339  32.372  30.091  1.00  0.00    -0.354 N 
ATOM     63  N   UNL A   1      44.172  31.865  29.629  1.00  0.00    -0.248 NA
ATOM     64  C   UNL A   1      46.366  32.465  29.580  1.00  0.00     0.031 C 
ATOM     65  C   UNL A   1      40.827  34.392  30.945  1.00  0.00     0.029 A 
ATOM     66  C   UNL A   1      41.882  33.570  30.503  1.00  0.00     0.049 A 
ATOM     67  H   UNL A   1      41.842  31.601  29.741  1.00  0.00     0.167 HD
ATOM     68  C   UNL A   1      44.257  33.122  30.070  1.00  0.00     0.074 A 
ATOM     69  C   UNL A   1      45.669  33.529  30.037  1.00  0.00     0.031 C 
ATOM     70  C   UNL A   1      43.216  33.945  30.502  1.00  0.00     0.031 A 
BRANCH  57  71
ATOM     71  C   UNL A   1      37.568  31.781  30.202  1.00  0.00    -0.014 A 
ATOM     72  C   UNL A   1      36.833  32.386  29.195  1.00  0.00     0.009 A 
ATOM     73  C   UNL A   1      37.003  31.424  31.348  1.00  0.00     0.009 A 
ATOM     74  C   UNL A   1      35.558  32.839  29.611  1.00  0.00     0.001 A 
ATOM     75  C   UNL A   1      35.708  31.784  31.632  1.00  0.00     0.001 A 
ATOM     76  C   UNL A   1      34.941  32.436  30.707  1.00  0.00     0.000 A 
ENDBRANCH  57  71
BRANCH  58  77
ATOM     77  C   UNL A   1      47.180  29.808  28.616  1.00  0.00    -0.014 A 
ATOM     78  C   UNL A   1      47.726  30.025  27.361  1.00  0.00     0.009 A 
ATOM     79  C   UNL A   1      47.899  29.277  29.598  1.00  0.00     0.009 A 
ATOM     80  C   UNL A   1      48.967  29.376  27.157  1.00  0.00     0.001 A 
ATOM     81  C   UNL A   1      49.159  28.786  29.355  1.00  0.00     0.001 A 
ATOM     82  C   UNL A   1      49.739  28.912  28.123  1.00  0.00     0.000 A 
ENDBRANCH  58  77
BRANCH  70  83
ATOM     83  C   UNL A   1      43.566  35.337  31.002  1.00  0.00    -0.014 A 
ATOM     84  C   UNL A   1      43.748  35.545  32.359  1.00  0.00     0.009 A 
ATOM     85  C   UNL A   1      43.692  36.331  30.130  1.00  0.00     0.009 A 
ATOM     86  C   UNL A   1      43.779  36.910  32.731  1.00  0.00     0.001 A 
ATOM     87  C   UNL A   1      43.856  37.624  30.562  1.00  0.00     0.001 A 
ATOM     88  C   UNL A   1      43.985  37.910  31.893  1.00  0.00     0.000 A 
ENDBRANCH  70  83
ENDBRANCH  44  45
ENDBRANCH  37  39
ENDBRANCH  36  37
ENDBRANCH  35  36
ENDBRANCH  34  35
ENDBRANCH  33  34
ENDBRANCH  32  33
ENDBRANCH   1  32
TORSDOF 22
ENDMDL
MODEL 3
REMARK VINA RESULT:     -10.0      4.810      8.332
REMARK SMILES CCCCc1cc(S(F)(F)(F)(F)F)cc2c1O[C@@H](C(F)(F)F)C(C(=O)OCCOCCOCCOC(=O)c1ccc(-c3c4nc(c(-c5ccccc5)c5ccc([nH]5)c(-c5ccccc5)c5nc(c(-c6ccccc6)c6ccc3[nH]6)C=C5)C=C4)cc1)=C2
REMARK SMILES IDX 30 1 29 2 28 3 27 4 26 5 24 6 25 7 23 8 5 9 6 10 16 11 7 12
REMARK SMILES IDX 15 13 17 14 14 15 86 16 18 17 4 18 3 19 2 20 1 21 8 22 9 23
REMARK SMILES IDX 10 24 11 25 12 26 13 27 19 28 20 29 21 30 22 31 31 32 32 33
REMARK SMILES IDX 33 34 34 35 35 36 36 37 37 38 38 39 39 40 85 41 40 42 84 43
REMARK SMILES IDX 41 44 42 45 43 46 78 47 44 48 83 49 77 50 79 51 45 52 82 53
REMARK SMILES IDX 76 54 75 55 46 57 68 58 53 59 67 60 54 61 57 62 66 63 80 64
REMARK SMILES IDX 55 65 56 66 65 68 81 69 58 70 47 71 48 72 52 73 49 74 51 75
REMARK SMILES IDX 50 76 69 77 70 78 74 79 71 80 73 81 72 82 59 83 60 84 64 85
REMARK SMILES IDX 61 86 63 87 62 88
REMARK H PARENT 79 56 57 67
REMARK Flexibility Score: inf
ROOT
ATOM      1  C   UNL A   1      40.379  20.417  26.461  1.00  0.00     0.188 C 
ENDROOT
BRANCH   1   2
ATOM      2  O   UNL A   1      39.444  21.461  26.691  1.00  0.00    -0.376 OA
BRANCH   2   3
ATOM      3  C   UNL A   1      38.568  21.566  25.578  1.00  0.00     0.202 C 
BRANCH   3   4
ATOM      4  C   UNL A   1      37.745  22.838  25.700  1.00  0.00     0.261 C 
BRANCH   4   5
ATOM      5  O   UNL A   1      36.700  22.820  24.738  1.00  0.00    -0.460 OA
BRANCH   5   6
ATOM      6  C   UNL A   1      35.347  22.746  25.160  1.00  0.00     0.338 C 
ATOM      7  O   UNL A   1      34.911  21.689  25.715  1.00  0.00    -0.246 OA
BRANCH   6   8
ATOM      8  C   UNL A   1      34.420  23.932  24.949  1.00  0.00     0.087 C 
ATOM      9  C   UNL A   1      32.140  27.285  23.946  1.00  0.00    -0.004 A 
ATOM     10  C   UNL A   1      32.190  28.416  24.740  1.00  0.00     0.032 A 
ATOM     11  C   UNL A   1      32.940  26.216  24.269  1.00  0.00     0.131 A 
ATOM     12  C   UNL A   1      33.023  28.479  25.826  1.00  0.00     0.108 A 
ATOM     13  C   UNL A   1      33.779  26.236  25.368  1.00  0.00     0.019 A 
ATOM     14  O   UNL A   1      32.964  25.146  23.409  1.00  0.00    -0.475 OA
ATOM     15  C   UNL A   1      33.810  27.390  26.142  1.00  0.00     0.036 A 
ATOM     16  C   UNL A   1      34.615  25.071  25.603  1.00  0.00     0.027 C 
ATOM     17  C   UNL A   1      33.246  23.839  23.984  1.00  0.00     0.316 C 
BRANCH   9  18
ATOM     18  C   UNL A   1      31.217  27.226  22.740  1.00  0.00     0.039 C 
BRANCH  18  19
ATOM     19  C   UNL A   1      29.858  26.695  23.166  1.00  0.00     0.005 C 
BRANCH  19  20
ATOM     20  C   UNL A   1      28.909  27.859  23.396  1.00  0.00    -0.003 C 
ATOM     21  C   UNL A   1      29.281  29.007  22.472  1.00  0.00     0.004 C 
ENDBRANCH  19  20
ENDBRANCH  18  19
ENDBRANCH   9  18
BRANCH  12  22
ATOM     22  S   UNL A   1      33.092  29.978  26.838  1.00  0.00     0.310 S 
ATOM     23  F   UNL A   1      33.584  29.172  28.112  1.00  0.00    -0.094 F 
ATOM     24  F   UNL A   1      31.618  29.697  27.314  1.00  0.00    -0.094 F 
ATOM     25  F   UNL A   1      33.157  31.268  27.704  1.00  0.00    -0.094 F 
ATOM     26  F   UNL A   1      34.614  30.166  26.460  1.00  0.00    -0.094 F 
ATOM     27  F   UNL A   1      33.080  28.612  26.042  1.00  0.00    -0.094 F 
ENDBRANCH  12  22
BRANCH  17  28
ATOM     28  C   UNL A   1      33.598  22.871  22.866  1.00  0.00     0.430 C 
ATOM     29  F   UNL A   1      34.892  22.978  22.579  1.00  0.00    -0.167 F 
ATOM     30  F   UNL A   1      33.331  21.628  23.255  1.00  0.00    -0.167 F 
ATOM     31  F   UNL A   1      32.879  23.162  21.785  1.00  0.00    -0.167 F 
ENDBRANCH  17  28
ENDBRANCH   6   8
ENDBRANCH   5   6
ENDBRANCH   4   5
ENDBRANCH   3   4
ENDBRANCH   2   3
ENDBRANCH   1   2
BRANCH   1  32
ATOM     32  C   UNL A   1      41.776  20.903  26.807  1.00  0.00     0.188 C 
BRANCH  32  33
ATOM     33  O   UNL A   1      42.499  21.157  25.611  1.00  0.00    -0.376 OA
BRANCH  33  34
ATOM     34  C   UNL A   1      42.601  22.559  25.407  1.00  0.00     0.202 C 
BRANCH  34  35
ATOM     35  C   UNL A   1      43.084  23.222  26.685  1.00  0.00     0.261 C 
BRANCH  35  36
ATOM     36  O   UNL A   1      43.591  24.516  26.386  1.00  0.00    -0.460 OA
BRANCH  36  37
ATOM     37  C   UNL A   1      42.695  25.597  26.177  1.00  0.00     0.338 C 
ATOM     38  O   UNL A   1      42.163  25.771  25.036  1.00  0.00    -0.246 OA
BRANCH  37  39
ATOM     39  C   UNL A   1      42.373  26.547  27.319  1.00  0.00     0.060 A 
ATOM     40  C   UNL A   1      41.599  26.098  28.376  1.00  0.00     0.016 A 
ATOM     41  C   UNL A   1      42.837  27.790  27.285  1.00  0.00     0.016 A 
ATOM     42  C   UNL A   1      41.126  27.131  29.220  1.00  0.00     0.010 A 
ATOM     43  C   UNL A   1      42.438  28.713  28.221  1.00  0.00     0.010 A 
ATOM     44  C   UNL A   1      41.627  28.353  29.261  1.00  0.00    -0.014 A 
BRANCH  44  45
ATOM     45  C   UNL A   1      41.317  29.307  30.404  1.00  0.00     0.031 A 
ATOM     46  C   UNL A   1      40.197  30.132  30.285  1.00  0.00     0.074 A 
ATOM     47  C   UNL A   1      42.165  29.306  31.496  1.00  0.00     0.049 A 
ATOM     48  N   UNL A   1      39.735  31.010  31.177  1.00  0.00    -0.248 NA
ATOM     49  C   UNL A   1      39.314  30.159  29.109  1.00  0.00     0.031 C 
ATOM     50  C   UNL A   1      43.292  28.471  31.628  1.00  0.00     0.029 A 
ATOM     51  N   UNL A   1      42.086  30.087  32.629  1.00  0.00    -0.354 N 
ATOM     52  C   UNL A   1      38.629  31.598  30.714  1.00  0.00     0.074 A 
ATOM     53  C   UNL A   1      38.346  31.064  29.375  1.00  0.00     0.031 C 
ATOM     54  C   UNL A   1      43.889  28.752  32.815  1.00  0.00     0.029 A 
ATOM     55  C   UNL A   1      43.147  29.767  33.448  1.00  0.00     0.049 A 
ATOM     56  H   UNL A   1      41.390  30.758  32.820  1.00  0.00     0.167 HD
ATOM     57  C   UNL A   1      37.846  32.558  31.358  1.00  0.00     0.031 A 
ATOM     58  C   UNL A   1      43.465  30.318  34.678  1.00  0.00     0.031 A 
ATOM     59  C   UNL A   1      38.141  33.078  32.608  1.00  0.00     0.049 A 
ATOM     60  C   UNL A   1      42.714  31.321  35.297  1.00  0.00     0.074 A 
ATOM     61  C   UNL A   1      37.358  34.040  33.274  1.00  0.00     0.029 A 
ATOM     62  N   UNL A   1      39.214  32.775  33.415  1.00  0.00    -0.354 N 
ATOM     63  N   UNL A   1      41.587  31.880  34.851  1.00  0.00    -0.248 NA
ATOM     64  C   UNL A   1      43.059  31.935  36.585  1.00  0.00     0.031 C 
ATOM     65  C   UNL A   1      37.955  34.321  34.463  1.00  0.00     0.029 A 
ATOM     66  C   UNL A   1      39.123  33.540  34.558  1.00  0.00     0.049 A 
ATOM     67  H   UNL A   1      39.926  32.126  33.211  1.00  0.00     0.167 HD
ATOM     68  C   UNL A   1      41.148  32.788  35.726  1.00  0.00     0.074 A 
ATOM     69  C   UNL A   1      42.093  32.842  36.850  1.00  0.00     0.031 C 
ATOM     70  C   UNL A   1      39.996  33.570  35.633  1.00  0.00     0.031 A 
BRANCH  57  71
ATOM     71  C   UNL A   1      36.599  33.059  30.647  1.00  0.00    -0.014 A 
ATOM     72  C   UNL A   1      35.371  32.529  31.004  1.00  0.00     0.009 A 
ATOM     73  C   UNL A   1      36.695  34.029  29.746  1.00  0.00     0.009 A 
ATOM     74  C   UNL A   1      34.315  32.891  30.134  1.00  0.00     0.001 A 
ATOM     75  C   UNL A   1      35.594  34.427  29.026  1.00  0.00     0.001 A 
ATOM     76  C   UNL A   1      34.358  33.902  29.285  1.00  0.00     0.000 A 
ENDBRANCH  57  71
BRANCH  58  77
ATOM     77  C   UNL A   1      44.702  29.805  35.395  1.00  0.00    -0.014 A 
ATOM     78  C   UNL A   1      45.930  30.393  35.139  1.00  0.00     0.009 A 
ATOM     79  C   UNL A   1      44.594  28.766  36.216  1.00  0.00     0.009 A 
ATOM     80  C   UNL A   1      47.035  29.626  35.576  1.00  0.00     0.001 A 
ATOM     81  C   UNL A   1      45.716  28.149  36.714  1.00  0.00     0.001 A 
ATOM     82  C   UNL A   1      46.965  28.641  36.453  1.00  0.00     0.000 A 
ENDBRANCH  58  77
BRANCH  70  83
ATOM     83  C   UNL A   1      39.680  34.514  36.783  1.00  0.00    -0.014 A 
ATOM     84  C   UNL A   1      40.078  35.839  36.702  1.00  0.00     0.009 A 
ATOM     85  C   UNL A   1      39.028  34.055  37.844  1.00  0.00     0.009 A 
ATOM     86  C   UNL A   1      39.993  36.538  37.929  1.00  0.00     0.001 A 
ATOM     87  C   UNL A   1      38.863  34.840  38.959  1.00  0.00     0.001 A 
ATOM     88  C   UNL A   1      39.285  36.142  38.970  1.00  0.00     0.000 A 
ENDBRANCH  70  83
ENDBRANCH  44  45
ENDBRANCH  37  39
ENDBRANCH  36  37
ENDBRANCH  35  36
ENDBRANCH  34  35
ENDBRANCH  33  34
ENDBRANCH  32  33
ENDBRANCH   1  32
TORSDOF 22
ENDMDL
