MODEL 1
REMARK VINA RESULT:     -10.0      0.000      0.000
REMARK SMILES C[C@@H]1CN(c2ccc(N)cc2C(=O)OCCOCCOCCOC(=O)c2ccc(-c3c4nc(c(-c5ccccc5)c5ccc([nH]5)c(-c5ccccc5)c5nc(c(-c6ccccc6)c6ccc3[nH]6)C=C5)C=C4)cc2)C[C@H]1C
REMARK SMILES IDX 19 1 18 2 17 3 16 4 15 5 14 6 12 7 13 8 11 9 5 10 6 11 7 12
REMARK SMILES IDX 10 13 8 14 4 15 1 16 2 17 3 18 75 19 74 20 76 21 9 22 20 25
REMARK SMILES IDX 21 26 22 27 23 28 24 29 25 30 26 31 27 32 73 33 28 34 72 35
REMARK SMILES IDX 29 36 30 37 31 38 66 39 32 40 71 41 65 42 67 43 33 44 70 45
REMARK SMILES IDX 64 46 63 47 34 49 56 50 41 51 55 52 42 53 45 54 54 55 68 56
REMARK SMILES IDX 43 57 44 58 53 60 69 61 46 62 35 63 36 64 40 65 37 66 39 67
REMARK SMILES IDX 38 68 57 69 58 70 62 71 59 72 61 73 60 74 47 75 48 76 52 77
REMARK SMILES IDX 49 78 51 79 50 80
REMARK H PARENT 9 23 9 24 67 48 45 59
REMARK Flexibility Score: inf
ROOT
ATOM      1  C   UNL A   1      33.936  32.772  28.442  1.00  0.00     0.188 C 
ENDROOT
BRANCH   1   2
ATOM      2  C   UNL A   1      34.665  31.673  27.638  1.00  0.00     0.188 C 
BRANCH   2   3
ATOM      3  O   UNL A   1      34.404  30.306  27.928  1.00  0.00    -0.376 OA
BRANCH   3   4
ATOM      4  C   UNL A   1      34.797  29.318  26.980  1.00  0.00     0.202 C 
BRANCH   4   5
ATOM      5  C   UNL A   1      33.752  28.726  26.026  1.00  0.00     0.261 C 
BRANCH   5   6
ATOM      6  O   UNL A   1      33.512  27.328  26.255  1.00  0.00    -0.460 OA
BRANCH   6   7
ATOM      7  C   UNL A   1      32.250  26.978  26.604  1.00  0.00     0.340 C 
ATOM      8  O   UNL A   1      31.616  27.428  27.548  1.00  0.00    -0.246 OA
BRANCH   7   9
ATOM      9  C   UNL A   1      31.629  26.118  25.565  1.00  0.00     0.085 A 
ATOM     10  C   UNL A   1      32.271  25.082  24.855  1.00  0.00     0.051 A 
ATOM     11  C   UNL A   1      31.487  24.435  23.875  1.00  0.00     0.029 A 
ATOM     12  C   UNL A   1      30.171  24.812  23.579  1.00  0.00     0.027 A 
ATOM     13  C   UNL A   1      30.302  26.503  25.248  1.00  0.00     0.043 A 
ATOM     14  C   UNL A   1      29.564  25.853  24.263  1.00  0.00     0.032 A 
BRANCH  10  15
ATOM     15  N   UNL A   1      33.583  24.672  24.988  1.00  0.00    -0.370 N 
ATOM     16  C   UNL A   1      35.581  21.811  26.239  1.00  0.00     0.010 C 
ATOM     17  C   UNL A   1      35.321  23.210  25.700  1.00  0.00     0.010 C 
ATOM     18  C   UNL A   1      33.930  23.746  26.080  1.00  0.00     0.120 C 
ATOM     19  C   UNL A   1      35.295  23.301  24.169  1.00  0.00     0.010 C 
ATOM     20  C   UNL A   1      34.610  24.657  23.955  1.00  0.00     0.120 C 
ATOM     21  C   UNL A   1      36.657  23.223  23.503  1.00  0.00     0.010 C 
ENDBRANCH  10  15
BRANCH  14  22
ATOM     22  N   UNL A   1      28.322  26.328  23.875  1.00  0.00    -0.399 N 
ATOM     23  H   UNL A   1      27.741  25.777  23.302  1.00  0.00     0.156 HD
ATOM     24  H   UNL A   1      28.021  27.218  24.170  1.00  0.00     0.156 HD
ENDBRANCH  14  22
ENDBRANCH   7   9
ENDBRANCH   6   7
ENDBRANCH   5   6
ENDBRANCH   4   5
ENDBRANCH   3   4
ENDBRANCH   2   3
ENDBRANCH   1   2
BRANCH   1  25
ATOM     25  O   UNL A   1      34.742  33.788  28.990  1.00  0.00    -0.376 OA
BRANCH  25  26
ATOM     26  C   UNL A   1      34.328  34.498  30.141  1.00  0.00     0.202 C 
BRANCH  26  27
ATOM     27  C   UNL A   1      34.296  33.960  31.587  1.00  0.00     0.261 C 
BRANCH  27  28
ATOM     28  O   UNL A   1      34.645  32.595  31.819  1.00  0.00    -0.460 OA
BRANCH  28  29
ATOM     29  C   UNL A   1      35.665  32.383  32.686  1.00  0.00     0.338 C 
ATOM     30  O   UNL A   1      35.685  32.613  33.879  1.00  0.00    -0.246 OA
BRANCH  29  31
ATOM     31  C   UNL A   1      36.724  31.640  31.976  1.00  0.00     0.060 A 
ATOM     32  C   UNL A   1      37.752  31.047  32.722  1.00  0.00     0.016 A 
ATOM     33  C   UNL A   1      36.703  31.537  30.585  1.00  0.00     0.016 A 
ATOM     34  C   UNL A   1      38.779  30.363  32.073  1.00  0.00     0.010 A 
ATOM     35  C   UNL A   1      37.745  30.872  29.935  1.00  0.00     0.010 A 
ATOM     36  C   UNL A   1      38.800  30.306  30.673  1.00  0.00    -0.014 A 
BRANCH  36  37
ATOM     37  C   UNL A   1      40.004  29.807  29.970  1.00  0.00     0.031 A 
ATOM     38  C   UNL A   1      41.162  30.744  29.769  1.00  0.00     0.074 A 
ATOM     39  C   UNL A   1      40.071  28.545  29.509  1.00  0.00     0.049 A 
ATOM     40  N   UNL A   1      42.288  30.551  29.132  1.00  0.00    -0.248 NA
ATOM     41  C   UNL A   1      41.026  32.083  30.364  1.00  0.00     0.031 C 
ATOM     42  C   UNL A   1      39.035  27.528  29.671  1.00  0.00     0.029 A 
ATOM     43  N   UNL A   1      41.059  27.914  28.794  1.00  0.00    -0.354 N 
ATOM     44  C   UNL A   1      42.987  31.746  29.234  1.00  0.00     0.074 A 
ATOM     45  C   UNL A   1      42.147  32.667  29.970  1.00  0.00     0.031 C 
ATOM     46  C   UNL A   1      39.436  26.400  29.059  1.00  0.00     0.029 A 
ATOM     47  C   UNL A   1      40.737  26.630  28.431  1.00  0.00     0.049 A 
ATOM     48  H   UNL A   1      41.915  28.342  28.564  1.00  0.00     0.167 HD
ATOM     49  C   UNL A   1      44.217  32.053  28.758  1.00  0.00     0.031 A 
ATOM     50  C   UNL A   1      41.403  25.752  27.657  1.00  0.00     0.031 A 
ATOM     51  C   UNL A   1      45.041  31.146  28.005  1.00  0.00     0.049 A 
ATOM     52  C   UNL A   1      42.736  26.139  27.071  1.00  0.00     0.074 A 
ATOM     53  C   UNL A   1      46.314  31.353  27.503  1.00  0.00     0.029 A 
ATOM     54  N   UNL A   1      44.667  29.863  27.633  1.00  0.00    -0.354 N 
ATOM     55  N   UNL A   1      43.406  27.258  27.207  1.00  0.00    -0.248 NA
ATOM     56  C   UNL A   1      43.406  25.136  26.231  1.00  0.00     0.031 C 
ATOM     57  C   UNL A   1      46.680  30.222  26.765  1.00  0.00     0.029 A 
ATOM     58  C   UNL A   1      45.669  29.281  26.873  1.00  0.00     0.049 A 
ATOM     59  H   UNL A   1      43.816  29.431  27.872  1.00  0.00     0.167 HD
ATOM     60  C   UNL A   1      44.588  27.083  26.496  1.00  0.00     0.074 A 
ATOM     61  C   UNL A   1      44.548  25.745  25.942  1.00  0.00     0.031 C 
ATOM     62  C   UNL A   1      45.616  27.951  26.321  1.00  0.00     0.031 A 
BRANCH  49  63
ATOM     63  C   UNL A   1      44.717  33.451  28.996  1.00  0.00    -0.014 A 
ATOM     64  C   UNL A   1      45.475  33.780  30.131  1.00  0.00     0.009 A 
ATOM     65  C   UNL A   1      44.436  34.456  28.056  1.00  0.00     0.009 A 
ATOM     66  C   UNL A   1      45.899  35.094  30.344  1.00  0.00     0.001 A 
ATOM     67  C   UNL A   1      44.889  35.761  28.254  1.00  0.00     0.001 A 
ATOM     68  C   UNL A   1      45.610  36.082  29.403  1.00  0.00     0.000 A 
ENDBRANCH  49  63
BRANCH  50  69
ATOM     69  C   UNL A   1      40.809  24.418  27.372  1.00  0.00    -0.014 A 
ATOM     70  C   UNL A   1      39.724  24.288  26.494  1.00  0.00     0.009 A 
ATOM     71  C   UNL A   1      41.327  23.265  27.984  1.00  0.00     0.009 A 
ATOM     72  C   UNL A   1      39.157  23.034  26.248  1.00  0.00     0.001 A 
ATOM     73  C   UNL A   1      40.779  22.010  27.713  1.00  0.00     0.001 A 
ATOM     74  C   UNL A   1      39.690  21.896  26.852  1.00  0.00     0.000 A 
ENDBRANCH  50  69
BRANCH  62  75
ATOM     75  C   UNL A   1      46.804  27.472  25.531  1.00  0.00    -0.014 A 
ATOM     76  C   UNL A   1      47.785  26.648  26.105  1.00  0.00     0.009 A 
ATOM     77  C   UNL A   1      46.917  27.813  24.174  1.00  0.00     0.009 A 
ATOM     78  C   UNL A   1      48.872  26.207  25.346  1.00  0.00     0.001 A 
ATOM     79  C   UNL A   1      47.985  27.343  23.408  1.00  0.00     0.001 A 
ATOM     80  C   UNL A   1      48.967  26.550  23.997  1.00  0.00     0.000 A 
ENDBRANCH  62  75
ENDBRANCH  36  37
ENDBRANCH  29  31
ENDBRANCH  28  29
ENDBRANCH  27  28
ENDBRANCH  26  27
ENDBRANCH  25  26
ENDBRANCH   1  25
TORSDOF 19
ENDMDL
MODEL 2
REMARK VINA RESULT:     -10.0      3.818      9.062
REMARK SMILES C[C@@H]1CN(c2ccc(N)cc2C(=O)OCCOCCOCCOC(=O)c2ccc(-c3c4nc(c(-c5ccccc5)c5ccc([nH]5)c(-c5ccccc5)c5nc(c(-c6ccccc6)c6ccc3[nH]6)C=C5)C=C4)cc2)C[C@H]1C
REMARK SMILES IDX 19 1 18 2 17 3 16 4 15 5 14 6 12 7 13 8 11 9 5 10 6 11 7 12
REMARK SMILES IDX 10 13 8 14 4 15 1 16 2 17 3 18 75 19 74 20 76 21 9 22 20 25
REMARK SMILES IDX 21 26 22 27 23 28 24 29 25 30 26 31 27 32 73 33 28 34 72 35
REMARK SMILES IDX 29 36 30 37 31 38 66 39 32 40 71 41 65 42 67 43 33 44 70 45
REMARK SMILES IDX 64 46 63 47 34 49 56 50 41 51 55 52 42 53 45 54 54 55 68 56
REMARK SMILES IDX 43 57 44 58 53 60 69 61 46 62 35 63 36 64 40 65 37 66 39 67
REMARK SMILES IDX 38 68 57 69 58 70 62 71 59 72 61 73 60 74 47 75 48 76 52 77
REMARK SMILES IDX 49 78 51 79 50 80
REMARK H PARENT 9 23 9 24 67 48 45 59
REMARK Flexibility Score: inf
ROOT
ATOM      1  C   UNL A   1      41.401  20.935  27.512  1.00  0.00     0.188 C 
ENDROOT
BRANCH   1   2
ATOM      2  C   UNL A   1      40.796  21.501  26.208  1.00  0.00     0.188 C 
BRANCH   2   3
ATOM      3  O   UNL A   1      39.401  21.762  26.141  1.00  0.00    -0.376 OA
BRANCH   3   4
ATOM      4  C   UNL A   1      38.928  23.057  26.503  1.00  0.00     0.202 C 
BRANCH   4   5
ATOM      5  C   UNL A   1      37.636  23.594  25.874  1.00  0.00     0.261 C 
BRANCH   5   6
ATOM      6  O   UNL A   1      36.577  22.623  25.853  1.00  0.00    -0.460 OA
BRANCH   6   7
ATOM      7  C   UNL A   1      36.194  22.168  24.635  1.00  0.00     0.340 C 
ATOM      8  O   UNL A   1      36.939  21.914  23.699  1.00  0.00    -0.246 OA
BRANCH   7   9
ATOM      9  C   UNL A   1      34.755  21.803  24.630  1.00  0.00     0.085 A 
ATOM     10  C   UNL A   1      33.699  22.608  24.155  1.00  0.00     0.051 A 
ATOM     11  C   UNL A   1      32.404  22.067  24.303  1.00  0.00     0.029 A 
ATOM     12  C   UNL A   1      32.157  20.833  24.921  1.00  0.00     0.027 A 
ATOM     13  C   UNL A   1      34.496  20.564  25.268  1.00  0.00     0.043 A 
ATOM     14  C   UNL A   1      33.204  20.068  25.411  1.00  0.00     0.032 A 
BRANCH  10  15
ATOM     15  N   UNL A   1      33.798  23.872  23.609  1.00  0.00    -0.370 N 
ATOM     16  C   UNL A   1      31.824  26.300  21.620  1.00  0.00     0.010 C 
ATOM     17  C   UNL A   1      33.051  25.722  22.310  1.00  0.00     0.010 C 
ATOM     18  C   UNL A   1      33.017  24.187  22.400  1.00  0.00     0.120 C 
ATOM     19  C   UNL A   1      33.196  26.129  23.782  1.00  0.00     0.010 C 
ATOM     20  C   UNL A   1      34.211  25.095  24.286  1.00  0.00     0.120 C 
ATOM     21  C   UNL A   1      33.659  27.557  24.005  1.00  0.00     0.010 C 
ENDBRANCH  10  15
BRANCH  14  22
ATOM     22  N   UNL A   1      32.959  18.924  26.153  1.00  0.00    -0.399 N 
ATOM     23  H   UNL A   1      32.035  18.685  26.397  1.00  0.00     0.156 HD
ATOM     24  H   UNL A   1      33.708  18.352  26.437  1.00  0.00     0.156 HD
ENDBRANCH  14  22
ENDBRANCH   7   9
ENDBRANCH   6   7
ENDBRANCH   5   6
ENDBRANCH   4   5
ENDBRANCH   3   4
ENDBRANCH   2   3
ENDBRANCH   1   2
BRANCH   1  25
ATOM     25  O   UNL A   1      42.046  19.688  27.415  1.00  0.00    -0.376 OA
BRANCH  25  26
ATOM     26  C   UNL A   1      42.103  18.998  26.180  1.00  0.00     0.202 C 
BRANCH  26  27
ATOM     27  C   UNL A   1      43.373  18.452  25.495  1.00  0.00     0.261 C 
BRANCH  27  28
ATOM     28  O   UNL A   1      43.793  19.036  24.261  1.00  0.00    -0.460 OA
BRANCH  28  29
ATOM     29  C   UNL A   1      45.026  19.601  24.263  1.00  0.00     0.338 C 
ATOM     30  O   UNL A   1      46.055  19.136  23.815  1.00  0.00    -0.246 OA
BRANCH  29  31
ATOM     31  C   UNL A   1      44.894  20.988  24.747  1.00  0.00     0.060 A 
ATOM     32  C   UNL A   1      44.607  22.003  23.825  1.00  0.00     0.016 A 
ATOM     33  C   UNL A   1      45.060  21.282  26.101  1.00  0.00     0.016 A 
ATOM     34  C   UNL A   1      44.506  23.326  24.253  1.00  0.00     0.010 A 
ATOM     35  C   UNL A   1      44.981  22.611  26.525  1.00  0.00     0.010 A 
ATOM     36  C   UNL A   1      44.731  23.641  25.599  1.00  0.00    -0.014 A 
BRANCH  36  37
ATOM     37  C   UNL A   1      44.874  25.055  26.017  1.00  0.00     0.031 A 
ATOM     38  C   UNL A   1      46.239  25.682  25.980  1.00  0.00     0.074 A 
ATOM     39  C   UNL A   1      43.813  25.772  26.430  1.00  0.00     0.049 A 
ATOM     40  N   UNL A   1      46.616  26.877  26.356  1.00  0.00    -0.248 NA
ATOM     41  C   UNL A   1      47.327  24.842  25.454  1.00  0.00     0.031 C 
ATOM     42  C   UNL A   1      42.434  25.294  26.476  1.00  0.00     0.029 A 
ATOM     43  N   UNL A   1      43.744  27.059  26.903  1.00  0.00    -0.354 N 
ATOM     44  C   UNL A   1      47.985  26.928  26.128  1.00  0.00     0.074 A 
ATOM     45  C   UNL A   1      48.376  25.636  25.607  1.00  0.00     0.031 C 
ATOM     46  C   UNL A   1      41.653  26.273  26.966  1.00  0.00     0.029 A 
ATOM     47  C   UNL A   1      42.484  27.428  27.303  1.00  0.00     0.049 A 
ATOM     48  H   UNL A   1      44.523  27.658  26.950  1.00  0.00     0.167 HD
ATOM     49  C   UNL A   1      48.841  27.956  26.332  1.00  0.00     0.031 A 
ATOM     50  C   UNL A   1      42.056  28.558  27.898  1.00  0.00     0.031 A 
ATOM     51  C   UNL A   1      48.455  29.233  26.873  1.00  0.00     0.049 A 
ATOM     52  C   UNL A   1      43.039  29.663  28.189  1.00  0.00     0.074 A 
ATOM     53  C   UNL A   1      49.244  30.349  27.092  1.00  0.00     0.029 A 
ATOM     54  N   UNL A   1      47.174  29.558  27.293  1.00  0.00    -0.354 N 
ATOM     55  N   UNL A   1      44.324  29.716  27.933  1.00  0.00    -0.248 NA
ATOM     56  C   UNL A   1      42.508  30.865  28.846  1.00  0.00     0.031 C 
ATOM     57  C   UNL A   1      48.456  31.324  27.713  1.00  0.00     0.029 A 
ATOM     58  C   UNL A   1      47.159  30.844  27.808  1.00  0.00     0.049 A 
ATOM     59  H   UNL A   1      46.393  28.963  27.235  1.00  0.00     0.167 HD
ATOM     60  C   UNL A   1      44.748  30.967  28.369  1.00  0.00     0.074 A 
ATOM     61  C   UNL A   1      43.580  31.644  28.893  1.00  0.00     0.031 C 
ATOM     62  C   UNL A   1      45.992  31.506  28.334  1.00  0.00     0.031 A 
BRANCH  49  63
ATOM     63  C   UNL A   1      50.292  27.717  26.018  1.00  0.00    -0.014 A 
ATOM     64  C   UNL A   1      50.823  27.977  24.745  1.00  0.00     0.009 A 
ATOM     65  C   UNL A   1      51.146  27.233  27.022  1.00  0.00     0.009 A 
ATOM     66  C   UNL A   1      52.167  27.714  24.471  1.00  0.00     0.001 A 
ATOM     67  C   UNL A   1      52.497  27.003  26.755  1.00  0.00     0.001 A 
ATOM     68  C   UNL A   1      53.004  27.232  25.478  1.00  0.00     0.000 A 
ENDBRANCH  49  63
BRANCH  50  69
ATOM     69  C   UNL A   1      40.626  28.697  28.280  1.00  0.00    -0.014 A 
ATOM     70  C   UNL A   1      40.176  28.288  29.543  1.00  0.00     0.009 A 
ATOM     71  C   UNL A   1      39.699  29.240  27.374  1.00  0.00     0.009 A 
ATOM     72  C   UNL A   1      38.826  28.401  29.887  1.00  0.00     0.001 A 
ATOM     73  C   UNL A   1      38.357  29.381  27.731  1.00  0.00     0.001 A 
ATOM     74  C   UNL A   1      37.920  28.955  28.983  1.00  0.00     0.000 A 
ENDBRANCH  50  69
BRANCH  62  75
ATOM     75  C   UNL A   1      46.153  32.915  28.839  1.00  0.00    -0.014 A 
ATOM     76  C   UNL A   1      46.053  34.021  27.980  1.00  0.00     0.009 A 
ATOM     77  C   UNL A   1      46.361  33.140  30.210  1.00  0.00     0.009 A 
ATOM     78  C   UNL A   1      46.194  35.319  28.479  1.00  0.00     0.001 A 
ATOM     79  C   UNL A   1      46.467  34.438  30.711  1.00  0.00     0.001 A 
ATOM     80  C   UNL A   1      46.395  35.526  29.843  1.00  0.00     0.000 A 
ENDBRANCH  62  75
ENDBRANCH  36  37
ENDBRANCH  29  31
ENDBRANCH  28  29
ENDBRANCH  27  28
ENDBRANCH  26  27
ENDBRANCH  25  26
ENDBRANCH   1  25
TORSDOF 19
ENDMDL
MODEL 3
REMARK VINA RESULT:      -9.7      1.324      2.064
REMARK SMILES C[C@@H]1CN(c2ccc(N)cc2C(=O)OCCOCCOCCOC(=O)c2ccc(-c3c4nc(c(-c5ccccc5)c5ccc([nH]5)c(-c5ccccc5)c5nc(c(-c6ccccc6)c6ccc3[nH]6)C=C5)C=C4)cc2)C[C@H]1C
REMARK SMILES IDX 19 1 18 2 17 3 16 4 15 5 14 6 12 7 13 8 11 9 5 10 6 11 7 12
REMARK SMILES IDX 10 13 8 14 4 15 1 16 2 17 3 18 75 19 74 20 76 21 9 22 20 25
REMARK SMILES IDX 21 26 22 27 23 28 24 29 25 30 26 31 27 32 73 33 28 34 72 35
REMARK SMILES IDX 29 36 30 37 31 38 66 39 32 40 71 41 65 42 67 43 33 44 70 45
REMARK SMILES IDX 64 46 63 47 34 49 56 50 41 51 55 52 42 53 45 54 54 55 68 56
REMARK SMILES IDX 43 57 44 58 53 60 69 61 46 62 35 63 36 64 40 65 37 66 39 67
REMARK SMILES IDX 38 68 57 69 58 70 62 71 59 72 61 73 60 74 47 75 48 76 52 77
REMARK SMILES IDX 49 78 51 79 50 80
REMARK H PARENT 9 23 9 24 67 48 45 59
REMARK Flexibility Score: inf
ROOT
ATOM      1  C   UNL A   1      35.200  33.244  28.336  1.00  0.00     0.188 C 
ENDROOT
BRANCH   1   2
ATOM      2  C   UNL A   1      34.163  32.103  28.439  1.00  0.00     0.188 C 
BRANCH   2   3
ATOM      3  O   UNL A   1      33.714  31.458  27.255  1.00  0.00    -0.376 OA
BRANCH   3   4
ATOM      4  C   UNL A   1      33.347  30.083  27.323  1.00  0.00     0.202 C 
BRANCH   4   5
ATOM      5  C   UNL A   1      32.063  29.608  26.630  1.00  0.00     0.261 C 
BRANCH   5   6
ATOM      6  O   UNL A   1      32.171  28.277  26.101  1.00  0.00    -0.460 OA
BRANCH   6   7
ATOM      7  C   UNL A   1      32.271  28.164  24.754  1.00  0.00     0.340 C 
ATOM      8  O   UNL A   1      33.259  27.790  24.138  1.00  0.00    -0.246 OA
BRANCH   7   9
ATOM      9  C   UNL A   1      30.950  28.351  24.103  1.00  0.00     0.085 A 
ATOM     10  C   UNL A   1      29.964  27.357  23.930  1.00  0.00     0.051 A 
ATOM     11  C   UNL A   1      28.805  27.761  23.233  1.00  0.00     0.029 A 
ATOM     12  C   UNL A   1      28.644  29.046  22.698  1.00  0.00     0.027 A 
ATOM     13  C   UNL A   1      30.786  29.644  23.545  1.00  0.00     0.043 A 
ATOM     14  C   UNL A   1      29.636  30.003  22.848  1.00  0.00     0.032 A 
BRANCH  10  15
ATOM     15  N   UNL A   1      30.035  26.038  24.329  1.00  0.00    -0.370 N 
ATOM     16  C   UNL A   1      32.135  23.016  23.880  1.00  0.00     0.010 C 
ATOM     17  C   UNL A   1      30.932  23.832  24.327  1.00  0.00     0.010 C 
ATOM     18  C   UNL A   1      30.679  25.059  23.435  1.00  0.00     0.120 C 
ATOM     19  C   UNL A   1      31.084  24.468  25.715  1.00  0.00     0.010 C 
ATOM     20  C   UNL A   1      29.970  25.524  25.690  1.00  0.00     0.120 C 
ATOM     21  C   UNL A   1      30.945  23.502  26.877  1.00  0.00     0.010 C 
ENDBRANCH  10  15
BRANCH  14  22
ATOM     22  N   UNL A   1      29.550  31.222  22.197  1.00  0.00    -0.399 N 
ATOM     23  H   UNL A   1      28.794  31.825  22.380  1.00  0.00     0.156 HD
ATOM     24  H   UNL A   1      30.244  31.484  21.550  1.00  0.00     0.156 HD
ENDBRANCH  14  22
ENDBRANCH   7   9
ENDBRANCH   6   7
ENDBRANCH   5   6
ENDBRANCH   4   5
ENDBRANCH   3   4
ENDBRANCH   2   3
ENDBRANCH   1   2
BRANCH   1  25
ATOM     25  O   UNL A   1      34.974  34.372  29.148  1.00  0.00    -0.376 OA
BRANCH  25  26
ATOM     26  C   UNL A   1      34.182  34.274  30.317  1.00  0.00     0.202 C 
BRANCH  26  27
ATOM     27  C   UNL A   1      34.676  33.888  31.727  1.00  0.00     0.261 C 
BRANCH  27  28
ATOM     28  O   UNL A   1      34.963  32.517  32.002  1.00  0.00    -0.460 OA
BRANCH  28  29
ATOM     29  C   UNL A   1      35.982  32.287  32.867  1.00  0.00     0.338 C 
ATOM     30  O   UNL A   1      36.002  32.498  34.063  1.00  0.00    -0.246 OA
BRANCH  29  31
ATOM     31  C   UNL A   1      37.037  31.549  32.147  1.00  0.00     0.060 A 
ATOM     32  C   UNL A   1      38.115  31.025  32.874  1.00  0.00     0.016 A 
ATOM     33  C   UNL A   1      36.965  31.384  30.763  1.00  0.00     0.016 A 
ATOM     34  C   UNL A   1      39.139  30.349  32.214  1.00  0.00     0.010 A 
ATOM     35  C   UNL A   1      38.004  30.727  30.100  1.00  0.00     0.010 A 
ATOM     36  C   UNL A   1      39.107  30.231  30.818  1.00  0.00    -0.014 A 
BRANCH  36  37
ATOM     37  C   UNL A   1      40.299  29.741  30.087  1.00  0.00     0.031 A 
ATOM     38  C   UNL A   1      41.440  30.691  29.852  1.00  0.00     0.074 A 
ATOM     39  C   UNL A   1      40.370  28.478  29.633  1.00  0.00     0.049 A 
ATOM     40  N   UNL A   1      42.552  30.508  29.188  1.00  0.00    -0.248 NA
ATOM     41  C   UNL A   1      41.301  32.033  30.441  1.00  0.00     0.031 C 
ATOM     42  C   UNL A   1      39.352  27.449  29.827  1.00  0.00     0.029 A 
ATOM     43  N   UNL A   1      41.348  27.854  28.897  1.00  0.00    -0.354 N 
ATOM     44  C   UNL A   1      43.238  31.713  29.265  1.00  0.00     0.074 A 
ATOM     45  C   UNL A   1      42.405  32.628  30.016  1.00  0.00     0.031 C 
ATOM     46  C   UNL A   1      39.752  26.322  29.212  1.00  0.00     0.029 A 
ATOM     47  C   UNL A   1      41.033  26.564  28.551  1.00  0.00     0.049 A 
ATOM     48  H   UNL A   1      42.192  28.291  28.644  1.00  0.00     0.167 HD
ATOM     49  C   UNL A   1      44.451  32.033  28.757  1.00  0.00     0.031 A 
ATOM     50  C   UNL A   1      41.691  25.689  27.766  1.00  0.00     0.031 A 
ATOM     51  C   UNL A   1      45.268  31.130  27.989  1.00  0.00     0.049 A 
ATOM     52  C   UNL A   1      43.004  26.089  27.144  1.00  0.00     0.074 A 
ATOM     53  C   UNL A   1      46.525  31.350  27.453  1.00  0.00     0.029 A 
ATOM     54  N   UNL A   1      44.901  29.841  27.634  1.00  0.00    -0.354 N 
ATOM     55  N   UNL A   1      43.663  27.218  27.256  1.00  0.00    -0.248 NA
ATOM     56  C   UNL A   1      43.666  25.089  26.294  1.00  0.00     0.031 C 
ATOM     57  C   UNL A   1      46.887  30.220  26.714  1.00  0.00     0.029 A 
ATOM     58  C   UNL A   1      45.891  29.267  26.853  1.00  0.00     0.049 A 
ATOM     59  H   UNL A   1      44.062  29.400  27.897  1.00  0.00     0.167 HD
ATOM     60  C   UNL A   1      44.829  27.052  26.517  1.00  0.00     0.074 A 
ATOM     61  C   UNL A   1      44.793  25.710  25.973  1.00  0.00     0.031 C 
ATOM     62  C   UNL A   1      45.841  27.932  26.311  1.00  0.00     0.031 A 
BRANCH  49  63
ATOM     63  C   UNL A   1      44.940  33.438  28.973  1.00  0.00    -0.014 A 
ATOM     64  C   UNL A   1      45.701  33.789  30.099  1.00  0.00     0.009 A 
ATOM     65  C   UNL A   1      44.643  34.428  28.022  1.00  0.00     0.009 A 
ATOM     66  C   UNL A   1      46.114  35.109  30.293  1.00  0.00     0.001 A 
ATOM     67  C   UNL A   1      45.086  35.739  28.200  1.00  0.00     0.001 A 
ATOM     68  C   UNL A   1      45.810  36.082  29.340  1.00  0.00     0.000 A 
ENDBRANCH  49  63
BRANCH  50  69
ATOM     69  C   UNL A   1      41.107  24.346  27.504  1.00  0.00    -0.014 A 
ATOM     70  C   UNL A   1      40.018  24.194  26.634  1.00  0.00     0.009 A 
ATOM     71  C   UNL A   1      41.639  23.207  28.130  1.00  0.00     0.009 A 
ATOM     72  C   UNL A   1      39.461  22.932  26.411  1.00  0.00     0.001 A 
ATOM     73  C   UNL A   1      41.101  21.943  27.881  1.00  0.00     0.001 A 
ATOM     74  C   UNL A   1      40.007  21.807  27.028  1.00  0.00     0.000 A 
ENDBRANCH  50  69
BRANCH  62  75
ATOM     75  C   UNL A   1      47.015  27.462  25.495  1.00  0.00    -0.014 A 
ATOM     76  C   UNL A   1      48.052  26.707  26.064  1.00  0.00     0.009 A 
ATOM     77  C   UNL A   1      47.059  27.742  24.119  1.00  0.00     0.009 A 
ATOM     78  C   UNL A   1      49.124  26.273  25.281  1.00  0.00     0.001 A 
ATOM     79  C   UNL A   1      48.113  27.278  23.331  1.00  0.00     0.001 A 
ATOM     80  C   UNL A   1      49.151  26.554  23.915  1.00  0.00     0.000 A 
ENDBRANCH  62  75
ENDBRANCH  36  37
ENDBRANCH  29  31
ENDBRANCH  28  29
ENDBRANCH  27  28
ENDBRANCH  26  27
ENDBRANCH  25  26
ENDBRANCH   1  25
TORSDOF 19
ENDMDL
