MODEL 1
REMARK VINA RESULT:      -7.5      0.000      0.000
REMARK SMILES CC(C)c1cc2c(cc1Cl)C=C(C(=O)OCCOCCOCCOC(=O)c1ccc(-c3c4nc(c(-c5ccccc5)c5ccc([nH]5)c(-c5ccccc5)c5nc(c(-c6ccccc6)c6ccc3[nH]6)C=C5)C=C4)cc1)[C@@H](C(F)(F)F)O2
REMARK SMILES IDX 20 1 19 2 18 3 17 4 16 5 15 6 13 7 14 8 12 9 4 10 5 11 9 12
REMARK SMILES IDX 6 13 8 14 10 15 7 16 80 17 11 18 75 19 2 20 1 21 3 22 76 23
REMARK SMILES IDX 77 24 78 25 79 26 21 27 22 28 23 29 24 30 25 31 26 32 27 33
REMARK SMILES IDX 28 34 74 35 29 36 73 37 30 38 31 39 32 40 67 41 33 42 72 43
REMARK SMILES IDX 66 44 68 45 34 46 71 47 65 48 64 49 35 51 57 52 42 53 56 54
REMARK SMILES IDX 43 55 46 56 55 57 69 58 44 59 45 60 54 62 70 63 47 64 36 65
REMARK SMILES IDX 37 66 41 67 38 68 40 69 39 70 58 71 59 72 63 73 60 74 62 75
REMARK SMILES IDX 61 76 48 77 49 78 53 79 50 80 52 81 51 82
REMARK H PARENT 68 50 46 61
REMARK Flexibility Score: inf
ROOT
ATOM      1  C   UNL A   1      44.029  21.490  25.627  1.00  0.00     0.188 C 
ENDROOT
BRANCH   1   2
ATOM      2  C   UNL A   1      43.591  22.657  26.536  1.00  0.00     0.188 C 
BRANCH   2   3
ATOM      3  O   UNL A   1      42.625  23.577  26.082  1.00  0.00    -0.376 OA
BRANCH   3   4
ATOM      4  C   UNL A   1      41.568  24.014  26.918  1.00  0.00     0.202 C 
BRANCH   4   5
ATOM      5  C   UNL A   1      41.720  24.402  28.398  1.00  0.00     0.261 C 
BRANCH   5   6
ATOM      6  O   UNL A   1      41.579  25.790  28.712  1.00  0.00    -0.460 OA
BRANCH   6   7
ATOM      7  C   UNL A   1      40.299  26.226  28.811  1.00  0.00     0.338 C 
ATOM      8  O   UNL A   1      39.287  25.555  28.695  1.00  0.00    -0.246 OA
BRANCH   7   9
ATOM      9  C   UNL A   1      40.290  27.630  29.260  1.00  0.00     0.087 C 
ATOM     10  C   UNL A   1      39.098  31.929  31.585  1.00  0.00    -0.023 A 
ATOM     11  C   UNL A   1      39.832  31.591  30.426  1.00  0.00     0.052 A 
ATOM     12  C   UNL A   1      38.701  30.879  32.432  1.00  0.00     0.045 A 
ATOM     13  C   UNL A   1      40.083  30.261  30.079  1.00  0.00     0.128 A 
ATOM     14  C   UNL A   1      38.962  29.546  32.086  1.00  0.00     0.032 A 
ATOM     15  Cl  UNL A   1      37.835  31.115  33.907  1.00  0.00    -0.084 Cl
ATOM     16  C   UNL A   1      39.614  29.235  30.891  1.00  0.00     0.019 A 
ATOM     17  O   UNL A   1      40.766  30.057  28.914  1.00  0.00    -0.475 OA
ATOM     18  C   UNL A   1      39.723  27.859  30.451  1.00  0.00     0.027 C 
ATOM     19  C   UNL A   1      40.894  28.702  28.395  1.00  0.00     0.316 C 
BRANCH  10  20
ATOM     20  C   UNL A   1      38.721  33.395  31.765  1.00  0.00     0.014 C 
ATOM     21  C   UNL A   1      39.216  34.255  30.598  1.00  0.00     0.012 C 
ATOM     22  C   UNL A   1      37.243  33.644  32.070  1.00  0.00     0.012 C 
ENDBRANCH  10  20
BRANCH  19  23
ATOM     23  C   UNL A   1      40.337  28.679  26.965  1.00  0.00     0.430 C 
ATOM     24  F   UNL A   1      39.136  29.302  26.894  1.00  0.00    -0.167 F 
ATOM     25  F   UNL A   1      41.157  29.318  26.097  1.00  0.00    -0.167 F 
ATOM     26  F   UNL A   1      40.170  27.417  26.509  1.00  0.00    -0.167 F 
ENDBRANCH  19  23
ENDBRANCH   7   9
ENDBRANCH   6   7
ENDBRANCH   5   6
ENDBRANCH   4   5
ENDBRANCH   3   4
ENDBRANCH   2   3
ENDBRANCH   1   2
BRANCH   1  27
ATOM     27  O   UNL A   1      44.321  21.711  24.265  1.00  0.00    -0.376 OA
BRANCH  27  28
ATOM     28  C   UNL A   1      44.977  22.904  23.867  1.00  0.00     0.202 C 
BRANCH  28  29
ATOM     29  C   UNL A   1      46.423  23.250  24.263  1.00  0.00     0.261 C 
BRANCH  29  30
ATOM     30  O   UNL A   1      46.586  24.110  25.397  1.00  0.00    -0.460 OA
BRANCH  30  31
ATOM     31  C   UNL A   1      46.764  25.428  25.110  1.00  0.00     0.338 C 
ATOM     32  O   UNL A   1      47.180  25.910  24.080  1.00  0.00    -0.246 OA
BRANCH  31  33
ATOM     33  C   UNL A   1      46.162  26.226  26.199  1.00  0.00     0.060 A 
ATOM     34  C   UNL A   1      46.955  26.754  27.217  1.00  0.00     0.016 A 
ATOM     35  C   UNL A   1      44.775  26.431  26.197  1.00  0.00     0.016 A 
ATOM     36  C   UNL A   1      46.355  27.502  28.233  1.00  0.00     0.010 A 
ATOM     37  C   UNL A   1      44.175  27.162  27.225  1.00  0.00     0.010 A 
ATOM     38  C   UNL A   1      44.963  27.716  28.243  1.00  0.00    -0.014 A 
BRANCH  38  39
ATOM     39  C   UNL A   1      44.363  28.644  29.231  1.00  0.00     0.031 A 
ATOM     40  C   UNL A   1      43.869  28.171  30.565  1.00  0.00     0.074 A 
ATOM     41  C   UNL A   1      44.264  29.947  28.900  1.00  0.00     0.049 A 
ATOM     42  N   UNL A   1      43.400  28.883  31.560  1.00  0.00    -0.248 NA
ATOM     43  C   UNL A   1      43.899  26.724  30.819  1.00  0.00     0.031 C 
ATOM     44  C   UNL A   1      44.693  30.516  27.622  1.00  0.00     0.029 A 
ATOM     45  N   UNL A   1      43.787  31.022  29.605  1.00  0.00    -0.354 N 
ATOM     46  C   UNL A   1      43.101  27.977  32.568  1.00  0.00     0.074 A 
ATOM     47  C   UNL A   1      43.395  26.658  32.047  1.00  0.00     0.031 C 
ATOM     48  C   UNL A   1      44.488  31.841  27.646  1.00  0.00     0.029 A 
ATOM     49  C   UNL A   1      43.884  32.211  28.923  1.00  0.00     0.049 A 
ATOM     50  H   UNL A   1      43.412  30.949  30.513  1.00  0.00     0.167 HD
ATOM     51  C   UNL A   1      42.641  28.232  33.816  1.00  0.00     0.031 A 
ATOM     52  C   UNL A   1      43.534  33.462  29.281  1.00  0.00     0.031 A 
ATOM     53  C   UNL A   1      42.333  29.548  34.319  1.00  0.00     0.049 A 
ATOM     54  C   UNL A   1      42.973  33.708  30.655  1.00  0.00     0.074 A 
ATOM     55  C   UNL A   1      41.906  29.898  35.589  1.00  0.00     0.029 A 
ATOM     56  N   UNL A   1      42.402  30.721  33.584  1.00  0.00    -0.354 N 
ATOM     57  N   UNL A   1      42.783  32.852  31.629  1.00  0.00    -0.248 NA
ATOM     58  C   UNL A   1      42.596  35.089  30.986  1.00  0.00     0.031 C 
ATOM     59  C   UNL A   1      41.639  31.268  35.598  1.00  0.00     0.029 A 
ATOM     60  C   UNL A   1      41.985  31.789  34.363  1.00  0.00     0.049 A 
ATOM     61  H   UNL A   1      42.703  30.786  32.648  1.00  0.00     0.167 HD
ATOM     62  C   UNL A   1      42.291  33.593  32.696  1.00  0.00     0.074 A 
ATOM     63  C   UNL A   1      42.227  34.971  32.256  1.00  0.00     0.031 C 
ATOM     64  C   UNL A   1      41.927  33.163  33.928  1.00  0.00     0.031 A 
BRANCH  51  65
ATOM     65  C   UNL A   1      42.447  27.075  34.761  1.00  0.00    -0.014 A 
ATOM     66  C   UNL A   1      43.544  26.559  35.471  1.00  0.00     0.009 A 
ATOM     67  C   UNL A   1      41.219  26.399  34.828  1.00  0.00     0.009 A 
ATOM     68  C   UNL A   1      43.422  25.377  36.206  1.00  0.00     0.001 A 
ATOM     69  C   UNL A   1      41.093  25.234  35.589  1.00  0.00     0.001 A 
ATOM     70  C   UNL A   1      42.197  24.717  36.265  1.00  0.00     0.000 A 
ENDBRANCH  51  65
BRANCH  52  71
ATOM     71  C   UNL A   1      43.745  34.578  28.321  1.00  0.00    -0.014 A 
ATOM     72  C   UNL A   1      44.972  35.261  28.280  1.00  0.00     0.009 A 
ATOM     73  C   UNL A   1      42.706  35.005  27.480  1.00  0.00     0.009 A 
ATOM     74  C   UNL A   1      45.145  36.363  27.440  1.00  0.00     0.001 A 
ATOM     75  C   UNL A   1      42.894  36.085  26.615  1.00  0.00     0.001 A 
ATOM     76  C   UNL A   1      44.109  36.770  26.605  1.00  0.00     0.000 A 
ENDBRANCH  52  71
BRANCH  64  77
ATOM     77  C   UNL A   1      41.432  34.177  34.925  1.00  0.00    -0.014 A 
ATOM     78  C   UNL A   1      40.076  34.547  34.926  1.00  0.00     0.009 A 
ATOM     79  C   UNL A   1      42.320  34.863  35.766  1.00  0.00     0.009 A 
ATOM     80  C   UNL A   1      39.626  35.602  35.722  1.00  0.00     0.001 A 
ATOM     81  C   UNL A   1      41.861  35.896  36.587  1.00  0.00     0.001 A 
ATOM     82  C   UNL A   1      40.520  36.275  36.553  1.00  0.00     0.000 A 
ENDBRANCH  64  77
ENDBRANCH  38  39
ENDBRANCH  31  33
ENDBRANCH  30  31
ENDBRANCH  29  30
ENDBRANCH  28  29
ENDBRANCH  27  28
ENDBRANCH   1  27
TORSDOF 19
ENDMDL
MODEL 2
REMARK VINA RESULT:      -7.3      5.600      8.106
REMARK SMILES CC(C)c1cc2c(cc1Cl)C=C(C(=O)OCCOCCOCCOC(=O)c1ccc(-c3c4nc(c(-c5ccccc5)c5ccc([nH]5)c(-c5ccccc5)c5nc(c(-c6ccccc6)c6ccc3[nH]6)C=C5)C=C4)cc1)[C@@H](C(F)(F)F)O2
REMARK SMILES IDX 20 1 19 2 18 3 17 4 16 5 15 6 13 7 14 8 12 9 4 10 5 11 9 12
REMARK SMILES IDX 6 13 8 14 10 15 7 16 80 17 11 18 75 19 2 20 1 21 3 22 76 23
REMARK SMILES IDX 77 24 78 25 79 26 21 27 22 28 23 29 24 30 25 31 26 32 27 33
REMARK SMILES IDX 28 34 74 35 29 36 73 37 30 38 31 39 32 40 67 41 33 42 72 43
REMARK SMILES IDX 66 44 68 45 34 46 71 47 65 48 64 49 35 51 57 52 42 53 56 54
REMARK SMILES IDX 43 55 46 56 55 57 69 58 44 59 45 60 54 62 70 63 47 64 36 65
REMARK SMILES IDX 37 66 41 67 38 68 40 69 39 70 58 71 59 72 63 73 60 74 62 75
REMARK SMILES IDX 61 76 48 77 49 78 53 79 50 80 52 81 51 82
REMARK H PARENT 68 50 46 61
REMARK Flexibility Score: inf
ROOT
ATOM      1  C   UNL A   1      39.672  20.979  25.796  1.00  0.00     0.188 C 
ENDROOT
BRANCH   1   2
ATOM      2  C   UNL A   1      38.132  20.899  25.744  1.00  0.00     0.188 C 
BRANCH   2   3
ATOM      3  O   UNL A   1      37.371  22.076  25.598  1.00  0.00    -0.376 OA
BRANCH   3   4
ATOM      4  C   UNL A   1      36.887  22.493  24.334  1.00  0.00     0.202 C 
BRANCH   4   5
ATOM      5  C   UNL A   1      35.414  22.791  24.010  1.00  0.00     0.261 C 
BRANCH   5   6
ATOM      6  O   UNL A   1      35.027  24.168  24.011  1.00  0.00    -0.460 OA
BRANCH   6   7
ATOM      7  C   UNL A   1      34.108  24.503  24.950  1.00  0.00     0.338 C 
ATOM      8  O   UNL A   1      34.121  24.192  26.129  1.00  0.00    -0.246 OA
BRANCH   7   9
ATOM      9  C   UNL A   1      33.146  25.462  24.379  1.00  0.00     0.087 C 
ATOM     10  C   UNL A   1      30.038  29.371  23.765  1.00  0.00    -0.023 A 
ATOM     11  C   UNL A   1      30.198  28.114  23.138  1.00  0.00     0.052 A 
ATOM     12  C   UNL A   1      31.030  29.772  24.679  1.00  0.00     0.045 A 
ATOM     13  C   UNL A   1      31.250  27.256  23.473  1.00  0.00     0.128 A 
ATOM     14  C   UNL A   1      32.088  28.913  25.006  1.00  0.00     0.032 A 
ATOM     15  Cl  UNL A   1      31.014  31.289  25.502  1.00  0.00    -0.084 Cl
ATOM     16  C   UNL A   1      32.174  27.641  24.437  1.00  0.00     0.019 A 
ATOM     17  O   UNL A   1      31.276  26.051  22.832  1.00  0.00    -0.475 OA
ATOM     18  C   UNL A   1      33.163  26.692  24.908  1.00  0.00     0.027 C 
ATOM     19  C   UNL A   1      32.224  25.036  23.268  1.00  0.00     0.316 C 
BRANCH  10  20
ATOM     20  C   UNL A   1      28.757  30.140  23.463  1.00  0.00     0.014 C 
ATOM     21  C   UNL A   1      29.027  31.370  22.590  1.00  0.00     0.012 C 
ATOM     22  C   UNL A   1      27.615  29.288  22.909  1.00  0.00     0.012 C 
ENDBRANCH  10  20
BRANCH  19  23
ATOM     23  C   UNL A   1      31.443  23.763  23.618  1.00  0.00     0.430 C 
ATOM     24  F   UNL A   1      31.191  23.688  24.948  1.00  0.00    -0.167 F 
ATOM     25  F   UNL A   1      30.241  23.724  22.994  1.00  0.00    -0.167 F 
ATOM     26  F   UNL A   1      32.116  22.644  23.267  1.00  0.00    -0.167 F 
ENDBRANCH  19  23
ENDBRANCH   7   9
ENDBRANCH   6   7
ENDBRANCH   5   6
ENDBRANCH   4   5
ENDBRANCH   3   4
ENDBRANCH   2   3
ENDBRANCH   1   2
BRANCH   1  27
ATOM     27  O   UNL A   1      40.344  21.094  27.031  1.00  0.00    -0.376 OA
BRANCH  27  28
ATOM     28  C   UNL A   1      41.759  20.991  27.077  1.00  0.00     0.202 C 
BRANCH  28  29
ATOM     29  C   UNL A   1      42.690  21.618  26.025  1.00  0.00     0.261 C 
BRANCH  29  30
ATOM     30  O   UNL A   1      42.217  22.808  25.382  1.00  0.00    -0.460 OA
BRANCH  30  31
ATOM     31  C   UNL A   1      43.080  23.860  25.394  1.00  0.00     0.338 C 
ATOM     32  O   UNL A   1      43.979  24.088  24.616  1.00  0.00    -0.246 OA
BRANCH  31  33
ATOM     33  C   UNL A   1      42.615  24.829  26.411  1.00  0.00     0.060 A 
ATOM     34  C   UNL A   1      41.455  24.589  27.144  1.00  0.00     0.016 A 
ATOM     35  C   UNL A   1      43.358  26.001  26.613  1.00  0.00     0.016 A 
ATOM     36  C   UNL A   1      41.041  25.525  28.096  1.00  0.00     0.010 A 
ATOM     37  C   UNL A   1      42.932  26.944  27.550  1.00  0.00     0.010 A 
ATOM     38  C   UNL A   1      41.778  26.706  28.309  1.00  0.00    -0.014 A 
BRANCH  38  39
ATOM     39  C   UNL A   1      41.422  27.609  29.430  1.00  0.00     0.031 A 
ATOM     40  C   UNL A   1      40.281  28.577  29.337  1.00  0.00     0.074 A 
ATOM     41  C   UNL A   1      42.161  27.544  30.556  1.00  0.00     0.049 A 
ATOM     42  N   UNL A   1      39.803  29.365  30.269  1.00  0.00    -0.248 NA
ATOM     43  C   UNL A   1      39.589  28.680  28.045  1.00  0.00     0.031 C 
ATOM     44  C   UNL A   1      43.306  26.655  30.751  1.00  0.00     0.029 A 
ATOM     45  N   UNL A   1      42.054  28.223  31.743  1.00  0.00    -0.354 N 
ATOM     46  C   UNL A   1      38.741  30.042  29.685  1.00  0.00     0.074 A 
ATOM     47  C   UNL A   1      38.674  29.607  28.305  1.00  0.00     0.031 C 
ATOM     48  C   UNL A   1      43.778  26.821  31.995  1.00  0.00     0.029 A 
ATOM     49  C   UNL A   1      42.993  27.849  32.673  1.00  0.00     0.049 A 
ATOM     50  H   UNL A   1      41.371  28.912  31.912  1.00  0.00     0.167 HD
ATOM     51  C   UNL A   1      37.893  30.928  30.260  1.00  0.00     0.031 A 
ATOM     52  C   UNL A   1      43.203  28.277  33.934  1.00  0.00     0.031 A 
ATOM     53  C   UNL A   1      37.980  31.368  31.631  1.00  0.00     0.049 A 
ATOM     54  C   UNL A   1      42.278  29.303  34.529  1.00  0.00     0.074 A 
ATOM     55  C   UNL A   1      37.131  32.230  32.306  1.00  0.00     0.029 A 
ATOM     56  N   UNL A   1      38.971  31.000  32.527  1.00  0.00    -0.354 N 
ATOM     57  N   UNL A   1      41.222  29.865  33.994  1.00  0.00    -0.248 NA
ATOM     58  C   UNL A   1      42.561  29.743  35.903  1.00  0.00     0.031 C 
ATOM     59  C   UNL A   1      37.653  32.447  33.582  1.00  0.00     0.029 A 
ATOM     60  C   UNL A   1      38.776  31.652  33.736  1.00  0.00     0.049 A 
ATOM     61  H   UNL A   1      39.703  30.371  32.335  1.00  0.00     0.167 HD
ATOM     62  C   UNL A   1      40.699  30.701  34.972  1.00  0.00     0.074 A 
ATOM     63  C   UNL A   1      41.543  30.562  36.139  1.00  0.00     0.031 C 
ATOM     64  C   UNL A   1      39.614  31.509  34.901  1.00  0.00     0.031 A 
BRANCH  51  65
ATOM     65  C   UNL A   1      36.768  31.489  29.431  1.00  0.00    -0.014 A 
ATOM     66  C   UNL A   1      35.677  30.675  29.087  1.00  0.00     0.009 A 
ATOM     67  C   UNL A   1      36.865  32.768  28.860  1.00  0.00     0.009 A 
ATOM     68  C   UNL A   1      34.720  31.117  28.170  1.00  0.00     0.001 A 
ATOM     69  C   UNL A   1      35.890  33.219  27.967  1.00  0.00     0.001 A 
ATOM     70  C   UNL A   1      34.827  32.389  27.612  1.00  0.00     0.000 A 
ENDBRANCH  51  65
BRANCH  52  71
ATOM     71  C   UNL A   1      44.321  27.694  34.723  1.00  0.00    -0.014 A 
ATOM     72  C   UNL A   1      44.131  26.520  35.470  1.00  0.00     0.009 A 
ATOM     73  C   UNL A   1      45.567  28.337  34.780  1.00  0.00     0.009 A 
ATOM     74  C   UNL A   1      45.154  26.018  36.278  1.00  0.00     0.001 A 
ATOM     75  C   UNL A   1      46.599  27.813  35.560  1.00  0.00     0.001 A 
ATOM     76  C   UNL A   1      46.388  26.661  36.318  1.00  0.00     0.000 A 
ENDBRANCH  52  71
BRANCH  64  77
ATOM     77  C   UNL A   1      39.239  32.315  36.117  1.00  0.00    -0.014 A 
ATOM     78  C   UNL A   1      38.232  31.846  36.979  1.00  0.00     0.009 A 
ATOM     79  C   UNL A   1      39.777  33.592  36.337  1.00  0.00     0.009 A 
ATOM     80  C   UNL A   1      37.750  32.649  38.014  1.00  0.00     0.001 A 
ATOM     81  C   UNL A   1      39.317  34.380  37.395  1.00  0.00     0.001 A 
ATOM     82  C   UNL A   1      38.294  33.915  38.222  1.00  0.00     0.000 A 
ENDBRANCH  64  77
ENDBRANCH  38  39
ENDBRANCH  31  33
ENDBRANCH  30  31
ENDBRANCH  29  30
ENDBRANCH  28  29
ENDBRANCH  27  28
ENDBRANCH   1  27
TORSDOF 19
ENDMDL
MODEL 3
REMARK VINA RESULT:      -7.3      5.412      8.805
REMARK SMILES CC(C)c1cc2c(cc1Cl)C=C(C(=O)OCCOCCOCCOC(=O)c1ccc(-c3c4nc(c(-c5ccccc5)c5ccc([nH]5)c(-c5ccccc5)c5nc(c(-c6ccccc6)c6ccc3[nH]6)C=C5)C=C4)cc1)[C@@H](C(F)(F)F)O2
REMARK SMILES IDX 20 1 19 2 18 3 17 4 16 5 15 6 13 7 14 8 12 9 4 10 5 11 9 12
REMARK SMILES IDX 6 13 8 14 10 15 7 16 80 17 11 18 75 19 2 20 1 21 3 22 76 23
REMARK SMILES IDX 77 24 78 25 79 26 21 27 22 28 23 29 24 30 25 31 26 32 27 33
REMARK SMILES IDX 28 34 74 35 29 36 73 37 30 38 31 39 32 40 67 41 33 42 72 43
REMARK SMILES IDX 66 44 68 45 34 46 71 47 65 48 64 49 35 51 57 52 42 53 56 54
REMARK SMILES IDX 43 55 46 56 55 57 69 58 44 59 45 60 54 62 70 63 47 64 36 65
REMARK SMILES IDX 37 66 41 67 38 68 40 69 39 70 58 71 59 72 63 73 60 74 62 75
REMARK SMILES IDX 61 76 48 77 49 78 53 79 50 80 52 81 51 82
REMARK H PARENT 68 50 46 61
REMARK Flexibility Score: inf
ROOT
ATOM      1  C   UNL A   1      40.780  21.122  27.489  1.00  0.00     0.188 C 
ENDROOT
BRANCH   1   2
ATOM      2  C   UNL A   1      39.956  21.751  26.345  1.00  0.00     0.188 C 
BRANCH   2   3
ATOM      3  O   UNL A   1      38.564  21.909  26.487  1.00  0.00    -0.376 OA
BRANCH   3   4
ATOM      4  C   UNL A   1      37.822  22.749  25.618  1.00  0.00     0.202 C 
BRANCH   4   5
ATOM      5  C   UNL A   1      36.848  22.254  24.536  1.00  0.00     0.261 C 
BRANCH   5   6
ATOM      6  O   UNL A   1      35.884  21.280  24.943  1.00  0.00    -0.460 OA
BRANCH   6   7
ATOM      7  C   UNL A   1      34.936  21.737  25.798  1.00  0.00     0.338 C 
ATOM      8  O   UNL A   1      34.800  21.433  26.971  1.00  0.00    -0.246 OA
BRANCH   7   9
ATOM      9  C   UNL A   1      34.166  22.814  25.149  1.00  0.00     0.087 C 
ATOM     10  C   UNL A   1      31.434  26.961  24.344  1.00  0.00    -0.023 A 
ATOM     11  C   UNL A   1      31.681  25.772  23.621  1.00  0.00     0.052 A 
ATOM     12  C   UNL A   1      32.208  27.194  25.495  1.00  0.00     0.045 A 
ATOM     13  C   UNL A   1      32.595  24.816  24.072  1.00  0.00     0.128 A 
ATOM     14  C   UNL A   1      33.131  26.238  25.940  1.00  0.00     0.032 A 
ATOM     15  Cl  UNL A   1      32.067  28.611  26.471  1.00  0.00    -0.084 Cl
ATOM     16  C   UNL A   1      33.292  25.032  25.255  1.00  0.00     0.019 A 
ATOM     17  O   UNL A   1      32.718  23.689  23.312  1.00  0.00    -0.475 OA
ATOM     18  C   UNL A   1      34.111  23.975  25.814  1.00  0.00     0.027 C 
ATOM     19  C   UNL A   1      33.503  22.572  23.820  1.00  0.00     0.316 C 
BRANCH  10  20
ATOM     20  C   UNL A   1      30.285  27.840  23.863  1.00  0.00     0.014 C 
ATOM     21  C   UNL A   1      30.723  28.776  22.731  1.00  0.00     0.012 C 
ATOM     22  C   UNL A   1      29.003  27.084  23.514  1.00  0.00     0.012 C 
ENDBRANCH  10  20
BRANCH  19  23
ATOM     23  C   UNL A   1      32.613  21.323  23.833  1.00  0.00     0.430 C 
ATOM     24  F   UNL A   1      31.786  21.295  22.760  1.00  0.00    -0.167 F 
ATOM     25  F   UNL A   1      33.346  20.184  23.788  1.00  0.00    -0.167 F 
ATOM     26  F   UNL A   1      31.842  21.263  24.943  1.00  0.00    -0.167 F 
ENDBRANCH  19  23
ENDBRANCH   7   9
ENDBRANCH   6   7
ENDBRANCH   5   6
ENDBRANCH   4   5
ENDBRANCH   3   4
ENDBRANCH   2   3
ENDBRANCH   1   2
BRANCH   1  27
ATOM     27  O   UNL A   1      41.610  20.008  27.248  1.00  0.00    -0.376 OA
BRANCH  27  28
ATOM     28  C   UNL A   1      42.196  19.827  25.968  1.00  0.00     0.202 C 
BRANCH  28  29
ATOM     29  C   UNL A   1      43.180  18.691  25.638  1.00  0.00     0.261 C 
BRANCH  29  30
ATOM     30  O   UNL A   1      44.533  19.079  25.366  1.00  0.00    -0.460 OA
BRANCH  30  31
ATOM     31  C   UNL A   1      44.705  19.859  24.265  1.00  0.00     0.338 C 
ATOM     32  O   UNL A   1      44.489  19.568  23.110  1.00  0.00    -0.246 OA
BRANCH  31  33
ATOM     33  C   UNL A   1      45.011  21.235  24.715  1.00  0.00     0.060 A 
ATOM     34  C   UNL A   1      44.953  22.305  23.824  1.00  0.00     0.016 A 
ATOM     35  C   UNL A   1      45.374  21.440  26.054  1.00  0.00     0.016 A 
ATOM     36  C   UNL A   1      45.250  23.592  24.281  1.00  0.00     0.010 A 
ATOM     37  C   UNL A   1      45.690  22.724  26.503  1.00  0.00     0.010 A 
ATOM     38  C   UNL A   1      45.615  23.812  25.622  1.00  0.00    -0.014 A 
BRANCH  38  39
ATOM     39  C   UNL A   1      45.768  25.196  26.132  1.00  0.00     0.031 A 
ATOM     40  C   UNL A   1      47.087  25.908  26.112  1.00  0.00     0.074 A 
ATOM     41  C   UNL A   1      44.676  25.815  26.625  1.00  0.00     0.049 A 
ATOM     42  N   UNL A   1      47.349  27.148  26.446  1.00  0.00    -0.248 NA
ATOM     43  C   UNL A   1      48.259  25.140  25.670  1.00  0.00     0.031 C 
ATOM     44  C   UNL A   1      43.345  25.212  26.711  1.00  0.00     0.029 A 
ATOM     45  N   UNL A   1      44.508  27.079  27.131  1.00  0.00    -0.354 N 
ATOM     46  C   UNL A   1      48.710  27.319  26.232  1.00  0.00     0.074 A 
ATOM     47  C   UNL A   1      49.229  26.041  25.787  1.00  0.00     0.031 C 
ATOM     48  C   UNL A   1      42.491  26.117  27.211  1.00  0.00     0.029 A 
ATOM     49  C   UNL A   1      43.216  27.349  27.511  1.00  0.00     0.049 A 
ATOM     50  H   UNL A   1      45.243  27.729  27.214  1.00  0.00     0.167 HD
ATOM     51  C   UNL A   1      49.447  28.445  26.378  1.00  0.00     0.031 A 
ATOM     52  C   UNL A   1      42.668  28.461  28.037  1.00  0.00     0.031 A 
ATOM     53  C   UNL A   1      48.925  29.708  26.840  1.00  0.00     0.049 A 
ATOM     54  C   UNL A   1      43.524  29.682  28.241  1.00  0.00     0.074 A 
ATOM     55  C   UNL A   1      49.596  30.912  26.972  1.00  0.00     0.029 A 
ATOM     56  N   UNL A   1      47.622  29.929  27.257  1.00  0.00    -0.354 N 
ATOM     57  N   UNL A   1      44.789  29.855  27.946  1.00  0.00    -0.248 NA
ATOM     58  C   UNL A   1      42.876  30.863  28.829  1.00  0.00     0.031 C 
ATOM     59  C   UNL A   1      48.723  31.839  27.545  1.00  0.00     0.029 A 
ATOM     60  C   UNL A   1      47.482  31.240  27.685  1.00  0.00     0.049 A 
ATOM     61  H   UNL A   1      46.903  29.257  27.249  1.00  0.00     0.167 HD
ATOM     62  C   UNL A   1      45.082  31.169  28.288  1.00  0.00     0.074 A 
ATOM     63  C   UNL A   1      43.860  31.754  28.796  1.00  0.00     0.031 C 
ATOM     64  C   UNL A   1      46.263  31.826  28.186  1.00  0.00     0.031 A 
BRANCH  51  65
ATOM     65  C   UNL A   1      50.911  28.399  26.024  1.00  0.00    -0.014 A 
ATOM     66  C   UNL A   1      51.869  28.196  27.030  1.00  0.00     0.009 A 
ATOM     67  C   UNL A   1      51.347  28.712  24.726  1.00  0.00     0.009 A 
ATOM     68  C   UNL A   1      53.231  28.334  26.752  1.00  0.00     0.001 A 
ATOM     69  C   UNL A   1      52.711  28.819  24.445  1.00  0.00     0.001 A 
ATOM     70  C   UNL A   1      53.651  28.644  25.460  1.00  0.00     0.000 A 
ENDBRANCH  51  65
BRANCH  52  71
ATOM     71  C   UNL A   1      41.218  28.470  28.370  1.00  0.00    -0.014 A 
ATOM     72  C   UNL A   1      40.766  27.965  29.600  1.00  0.00     0.009 A 
ATOM     73  C   UNL A   1      40.274  28.930  27.440  1.00  0.00     0.009 A 
ATOM     74  C   UNL A   1      39.399  27.894  29.880  1.00  0.00     0.001 A 
ATOM     75  C   UNL A   1      38.910  28.891  27.738  1.00  0.00     0.001 A 
ATOM     76  C   UNL A   1      38.474  28.362  28.952  1.00  0.00     0.000 A 
ENDBRANCH  52  71
BRANCH  64  77
ATOM     77  C   UNL A   1      46.321  33.268  28.615  1.00  0.00    -0.014 A 
ATOM     78  C   UNL A   1      46.573  33.584  29.961  1.00  0.00     0.009 A 
ATOM     79  C   UNL A   1      45.995  34.304  27.727  1.00  0.00     0.009 A 
ATOM     80  C   UNL A   1      46.466  34.900  30.416  1.00  0.00     0.001 A 
ATOM     81  C   UNL A   1      45.922  35.625  28.177  1.00  0.00     0.001 A 
ATOM     82  C   UNL A   1      46.141  35.919  29.523  1.00  0.00     0.000 A 
ENDBRANCH  64  77
ENDBRANCH  38  39
ENDBRANCH  31  33
ENDBRANCH  30  31
ENDBRANCH  29  30
ENDBRANCH  28  29
ENDBRANCH  27  28
ENDBRANCH   1  27
TORSDOF 19
ENDMDL
