MODEL 1
REMARK VINA RESULT:      -6.8      0.000      0.000
REMARK SMILES CCc1cccc(CC)c1N1/C(=[NH+]/C(=O)CCCC(=O)OCCOCCOCCOC(=O)c2ccc(-c3c4nc(c(-c5ccccc5)c5ccc([nH]5)c(-c5ccccc5)c5nc(c(-c6ccccc6)c6ccc3[nH]6)C=C5)C=C4)cc2)S[C@@H]2CS(=O)(=O)C[C@@H]21
REMARK SMILES IDX 24 1 23 2 22 3 21 4 19 5 20 6 18 7 17 8 16 9 14 10 11 11
REMARK SMILES IDX 12 12 88 13 13 14 81 15 82 16 87 17 83 19 84 20 15 21 85 22
REMARK SMILES IDX 86 23 10 24 3 25 4 26 5 27 7 28 6 29 2 30 1 31 8 32 9 33
REMARK SMILES IDX 25 34 26 35 27 36 28 37 29 38 30 39 31 40 32 41 33 42 34 43
REMARK SMILES IDX 80 44 35 45 79 46 36 47 37 48 38 49 73 50 39 51 78 52 72 53
REMARK SMILES IDX 74 54 40 55 77 56 71 57 70 58 41 60 63 61 48 62 62 63 49 64
REMARK SMILES IDX 52 65 61 66 75 67 50 68 51 69 60 71 76 72 53 73 42 74 43 75
REMARK SMILES IDX 47 76 44 77 46 78 45 79 64 80 65 81 69 82 66 83 68 84 67 85
REMARK SMILES IDX 54 86 55 87 59 88 56 89 58 90 57 91
REMARK H PARENT 13 18 74 59 52 70
REMARK Flexibility Score: inf
ROOT
ATOM      1  O   UNL A   1      34.527  32.674  30.739  1.00  0.00    -0.376 OA
ENDROOT
BRANCH   1   2
ATOM      2  C   UNL A   1      35.715  31.883  30.751  1.00  0.00     0.202 C 
BRANCH   2   3
ATOM      3  C   UNL A   1      35.902  30.775  29.697  1.00  0.00     0.261 C 
BRANCH   3   4
ATOM      4  O   UNL A   1      37.267  30.582  29.266  1.00  0.00    -0.463 OA
BRANCH   4   5
ATOM      5  C   UNL A   1      38.174  30.263  30.220  1.00  0.00     0.305 C 
ATOM      6  O   UNL A   1      39.098  30.999  30.551  1.00  0.00    -0.252 OA
BRANCH   5   7
ATOM      7  C   UNL A   1      37.886  28.971  30.986  1.00  0.00     0.123 C 
BRANCH   7   8
ATOM      8  C   UNL A   1      38.775  27.729  30.929  1.00  0.00     0.024 C 
BRANCH   8   9
ATOM      9  C   UNL A   1      40.060  27.846  30.128  1.00  0.00     0.128 C 
BRANCH   9  10
ATOM     10  C   UNL A   1      40.052  26.926  28.928  1.00  0.00     0.307 C 
ATOM     11  N   UNL A   1      42.615  24.954  27.187  1.00  0.00    -0.216 N 
ATOM     12  C   UNL A   1      41.487  25.713  27.522  1.00  0.00     0.319 C 
ATOM     13  C   UNL A   1      42.447  24.050  26.023  1.00  0.00     0.212 C 
ATOM     14  N   UNL A   1      41.298  26.440  28.572  1.00  0.00    -0.204 N 
ATOM     15  S   UNL A   1      40.252  25.437  26.262  1.00  0.00    -0.029 SA
ATOM     16  C   UNL A   1      40.935  23.822  25.886  1.00  0.00     0.120 C 
ATOM     17  C   UNL A   1      43.087  22.674  26.144  1.00  0.00     0.188 C 
ATOM     18  H   UNL A   1      42.070  26.657  29.142  1.00  0.00     0.316 HD
ATOM     19  C   UNL A   1      40.538  22.790  26.931  1.00  0.00     0.156 C 
ATOM     20  S   UNL A   1      41.835  21.588  26.794  1.00  0.00     0.155 S 
ATOM     21  O   UNL A   1      38.963  26.588  28.471  1.00  0.00    -0.247 OA
ATOM     22  O   UNL A   1      42.213  21.146  28.121  1.00  0.00    -0.229 OA
ATOM     23  O   UNL A   1      41.465  20.658  25.752  1.00  0.00    -0.229 OA
BRANCH  11  24
ATOM     24  C   UNL A   1      43.940  25.150  27.653  1.00  0.00     0.134 A 
ATOM     25  C   UNL A   1      44.418  24.456  28.807  1.00  0.00    -0.001 A 
ATOM     26  C   UNL A   1      45.778  24.555  29.163  1.00  0.00     0.008 A 
ATOM     27  C   UNL A   1      46.682  25.264  28.389  1.00  0.00     0.001 A 
ATOM     28  C   UNL A   1      44.873  25.912  26.888  1.00  0.00    -0.001 A 
ATOM     29  C   UNL A   1      46.235  25.926  27.257  1.00  0.00     0.008 A 
BRANCH  25  30
ATOM     30  C   UNL A   1      43.511  23.690  29.749  1.00  0.00     0.036 C 
ATOM     31  C   UNL A   1      44.000  23.433  31.171  1.00  0.00     0.009 C 
ENDBRANCH  25  30
BRANCH  28  32
ATOM     32  C   UNL A   1      44.497  26.696  25.644  1.00  0.00     0.036 C 
ATOM     33  C   UNL A   1      45.661  27.444  24.999  1.00  0.00     0.009 C 
ENDBRANCH  28  32
ENDBRANCH  11  24
ENDBRANCH   9  10
ENDBRANCH   8   9
ENDBRANCH   7   8
ENDBRANCH   5   7
ENDBRANCH   4   5
ENDBRANCH   3   4
ENDBRANCH   2   3
ENDBRANCH   1   2
BRANCH   1  34
ATOM     34  C   UNL A   1      34.628  34.062  31.013  1.00  0.00     0.188 C 
BRANCH  34  35
ATOM     35  C   UNL A   1      34.782  34.509  32.467  1.00  0.00     0.188 C 
BRANCH  35  36
ATOM     36  O   UNL A   1      36.098  34.596  32.943  1.00  0.00    -0.376 OA
BRANCH  36  37
ATOM     37  C   UNL A   1      36.415  34.196  34.264  1.00  0.00     0.202 C 
BRANCH  37  38
ATOM     38  C   UNL A   1      37.142  32.873  34.586  1.00  0.00     0.261 C 
BRANCH  38  39
ATOM     39  O   UNL A   1      37.958  32.811  35.767  1.00  0.00    -0.460 OA
BRANCH  39  40
ATOM     40  C   UNL A   1      38.323  31.584  36.223  1.00  0.00     0.338 C 
ATOM     41  O   UNL A   1      37.703  30.878  36.995  1.00  0.00    -0.246 OA
BRANCH  40  42
ATOM     42  C   UNL A   1      39.458  31.126  35.370  1.00  0.00     0.060 A 
ATOM     43  C   UNL A   1      39.242  30.077  34.461  1.00  0.00     0.016 A 
ATOM     44  C   UNL A   1      40.684  31.792  35.384  1.00  0.00     0.016 A 
ATOM     45  C   UNL A   1      40.247  29.694  33.567  1.00  0.00     0.010 A 
ATOM     46  C   UNL A   1      41.701  31.387  34.512  1.00  0.00     0.010 A 
ATOM     47  C   UNL A   1      41.496  30.328  33.607  1.00  0.00    -0.014 A 
BRANCH  47  48
ATOM     48  C   UNL A   1      42.643  29.805  32.822  1.00  0.00     0.031 A 
ATOM     49  C   UNL A   1      43.397  28.619  33.357  1.00  0.00     0.074 A 
ATOM     50  C   UNL A   1      43.037  30.379  31.671  1.00  0.00     0.049 A 
ATOM     51  N   UNL A   1      44.503  28.070  32.923  1.00  0.00    -0.248 NA
ATOM     52  C   UNL A   1      42.825  27.971  34.548  1.00  0.00     0.031 C 
ATOM     53  C   UNL A   1      42.371  31.496  31.006  1.00  0.00     0.029 A 
ATOM     54  N   UNL A   1      44.120  30.105  30.868  1.00  0.00    -0.354 N 
ATOM     55  C   UNL A   1      44.765  27.018  33.791  1.00  0.00     0.074 A 
ATOM     56  C   UNL A   1      43.719  27.025  34.793  1.00  0.00     0.031 C 
ATOM     57  C   UNL A   1      43.073  31.830  29.910  1.00  0.00     0.029 A 
ATOM     58  C   UNL A   1      44.262  30.982  29.821  1.00  0.00     0.049 A 
ATOM     59  H   UNL A   1      44.734  29.352  31.029  1.00  0.00     0.167 HD
ATOM     60  C   UNL A   1      45.784  26.126  33.761  1.00  0.00     0.031 A 
ATOM     61  C   UNL A   1      45.256  31.115  28.920  1.00  0.00     0.031 A 
ATOM     62  C   UNL A   1      46.843  26.136  32.788  1.00  0.00     0.049 A 
ATOM     63  C   UNL A   1      46.442  30.185  28.973  1.00  0.00     0.074 A 
ATOM     64  C   UNL A   1      47.917  25.269  32.674  1.00  0.00     0.029 A 
ATOM     65  N   UNL A   1      46.974  27.068  31.771  1.00  0.00    -0.354 N 
ATOM     66  N   UNL A   1      46.673  29.181  29.784  1.00  0.00    -0.248 NA
ATOM     67  C   UNL A   1      47.508  30.409  27.982  1.00  0.00     0.031 C 
ATOM     68  C   UNL A   1      48.733  25.718  31.631  1.00  0.00     0.029 A 
ATOM     69  C   UNL A   1      48.130  26.822  31.050  1.00  0.00     0.049 A 
ATOM     70  H   UNL A   1      46.337  27.796  31.588  1.00  0.00     0.167 HD
ATOM     71  C   UNL A   1      47.895  28.645  29.392  1.00  0.00     0.074 A 
ATOM     72  C   UNL A   1      48.347  29.420  28.256  1.00  0.00     0.031 C 
ATOM     73  C   UNL A   1      48.581  27.605  29.928  1.00  0.00     0.031 A 
BRANCH  60  74
ATOM     74  C   UNL A   1      45.820  25.089  34.851  1.00  0.00    -0.014 A 
ATOM     75  C   UNL A   1      46.486  25.326  36.064  1.00  0.00     0.009 A 
ATOM     76  C   UNL A   1      45.161  23.863  34.666  1.00  0.00     0.009 A 
ATOM     77  C   UNL A   1      46.525  24.339  37.052  1.00  0.00     0.001 A 
ATOM     78  C   UNL A   1      45.174  22.892  35.668  1.00  0.00     0.001 A 
ATOM     79  C   UNL A   1      45.867  23.127  36.855  1.00  0.00     0.000 A 
ENDBRANCH  60  74
BRANCH  61  80
ATOM     80  C   UNL A   1      45.205  32.210  27.913  1.00  0.00    -0.014 A 
ATOM     81  C   UNL A   1      45.805  33.453  28.167  1.00  0.00     0.009 A 
ATOM     82  C   UNL A   1      44.534  32.021  26.692  1.00  0.00     0.009 A 
ATOM     83  C   UNL A   1      45.719  34.487  27.231  1.00  0.00     0.001 A 
ATOM     84  C   UNL A   1      44.478  33.045  25.745  1.00  0.00     0.001 A 
ATOM     85  C   UNL A   1      45.062  34.280  26.019  1.00  0.00     0.000 A 
ENDBRANCH  61  80
BRANCH  73  86
ATOM     86  C   UNL A   1      49.888  27.227  29.283  1.00  0.00    -0.014 A 
ATOM     87  C   UNL A   1      49.935  26.360  28.181  1.00  0.00     0.009 A 
ATOM     88  C   UNL A   1      51.086  27.792  29.751  1.00  0.00     0.009 A 
ATOM     89  C   UNL A   1      51.156  26.043  27.580  1.00  0.00     0.001 A 
ATOM     90  C   UNL A   1      52.301  27.499  29.129  1.00  0.00     0.001 A 
ATOM     91  C   UNL A   1      52.336  26.618  28.049  1.00  0.00     0.000 A 
ENDBRANCH  73  86
ENDBRANCH  47  48
ENDBRANCH  40  42
ENDBRANCH  39  40
ENDBRANCH  38  39
ENDBRANCH  37  38
ENDBRANCH  36  37
ENDBRANCH  35  36
ENDBRANCH  34  35
ENDBRANCH   1  34
TORSDOF 23
ENDMDL
MODEL 2
REMARK VINA RESULT:      -6.8      6.911     12.020
REMARK SMILES CCc1cccc(CC)c1N1/C(=[NH+]/C(=O)CCCC(=O)OCCOCCOCCOC(=O)c2ccc(-c3c4nc(c(-c5ccccc5)c5ccc([nH]5)c(-c5ccccc5)c5nc(c(-c6ccccc6)c6ccc3[nH]6)C=C5)C=C4)cc2)S[C@@H]2CS(=O)(=O)C[C@@H]21
REMARK SMILES IDX 24 1 23 2 22 3 21 4 19 5 20 6 18 7 17 8 16 9 14 10 11 11
REMARK SMILES IDX 12 12 88 13 13 14 81 15 82 16 87 17 83 19 84 20 15 21 85 22
REMARK SMILES IDX 86 23 10 24 3 25 4 26 5 27 7 28 6 29 2 30 1 31 8 32 9 33
REMARK SMILES IDX 25 34 26 35 27 36 28 37 29 38 30 39 31 40 32 41 33 42 34 43
REMARK SMILES IDX 80 44 35 45 79 46 36 47 37 48 38 49 73 50 39 51 78 52 72 53
REMARK SMILES IDX 74 54 40 55 77 56 71 57 70 58 41 60 63 61 48 62 62 63 49 64
REMARK SMILES IDX 52 65 61 66 75 67 50 68 51 69 60 71 76 72 53 73 42 74 43 75
REMARK SMILES IDX 47 76 44 77 46 78 45 79 64 80 65 81 69 82 66 83 68 84 67 85
REMARK SMILES IDX 54 86 55 87 59 88 56 89 58 90 57 91
REMARK H PARENT 13 18 74 59 52 70
REMARK Flexibility Score: inf
ROOT
ATOM      1  O   UNL A   1      45.009  42.183  38.037  1.00  0.00    -0.376 OA
ENDROOT
BRANCH   1   2
ATOM      2  C   UNL A   1      45.607  42.771  36.883  1.00  0.00     0.202 C 
BRANCH   2   3
ATOM      3  C   UNL A   1      44.912  42.637  35.515  1.00  0.00     0.261 C 
BRANCH   3   4
ATOM      4  O   UNL A   1      43.475  42.785  35.555  1.00  0.00    -0.463 OA
BRANCH   4   5
ATOM      5  C   UNL A   1      42.860  43.139  34.402  1.00  0.00     0.305 C 
ATOM      6  O   UNL A   1      41.817  42.629  34.004  1.00  0.00    -0.252 OA
BRANCH   5   7
ATOM      7  C   UNL A   1      43.469  44.343  33.682  1.00  0.00     0.123 C 
BRANCH   7   8
ATOM      8  C   UNL A   1      43.946  44.318  32.231  1.00  0.00     0.024 C 
BRANCH   8   9
ATOM      9  C   UNL A   1      43.007  43.692  31.215  1.00  0.00     0.128 C 
BRANCH   9  10
ATOM     10  C   UNL A   1      43.548  42.380  30.693  1.00  0.00     0.307 C 
ATOM     11  N   UNL A   1      44.223  41.029  27.345  1.00  0.00    -0.216 N 
ATOM     12  C   UNL A   1      43.914  41.195  28.702  1.00  0.00     0.319 C 
ATOM     13  C   UNL A   1      44.802  39.712  26.985  1.00  0.00     0.212 C 
ATOM     14  N   UNL A   1      43.566  42.277  29.314  1.00  0.00    -0.204 N 
ATOM     15  S   UNL A   1      44.175  39.626  29.515  1.00  0.00    -0.029 SA
ATOM     16  C   UNL A   1      45.388  39.143  28.285  1.00  0.00     0.120 C 
ATOM     17  C   UNL A   1      45.934  39.732  25.968  1.00  0.00     0.188 C 
ATOM     18  H   UNL A   1      43.305  43.060  28.778  1.00  0.00     0.316 HD
ATOM     19  C   UNL A   1      46.725  39.831  28.516  1.00  0.00     0.156 C 
ATOM     20  S   UNL A   1      47.450  39.812  26.898  1.00  0.00     0.155 S 
ATOM     21  O   UNL A   1      44.037  41.598  31.505  1.00  0.00    -0.247 OA
ATOM     22  O   UNL A   1      48.104  41.083  26.657  1.00  0.00    -0.229 OA
ATOM     23  O   UNL A   1      48.139  38.553  26.739  1.00  0.00    -0.229 OA
BRANCH  11  24
ATOM     24  C   UNL A   1      43.803  41.854  26.271  1.00  0.00     0.134 A 
ATOM     25  C   UNL A   1      44.573  42.994  25.883  1.00  0.00    -0.001 A 
ATOM     26  C   UNL A   1      44.215  43.712  24.724  1.00  0.00     0.008 A 
ATOM     27  C   UNL A   1      43.167  43.307  23.914  1.00  0.00     0.001 A 
ATOM     28  C   UNL A   1      42.700  41.472  25.452  1.00  0.00    -0.001 A 
ATOM     29  C   UNL A   1      42.425  42.191  24.269  1.00  0.00     0.008 A 
BRANCH  25  30
ATOM     30  C   UNL A   1      45.709  43.552  26.718  1.00  0.00     0.036 C 
ATOM     31  C   UNL A   1      46.925  44.118  25.993  1.00  0.00     0.009 C 
ENDBRANCH  25  30
BRANCH  28  32
ATOM     32  C   UNL A   1      41.803  40.285  25.750  1.00  0.00     0.036 C 
ATOM     33  C   UNL A   1      40.782  40.533  26.857  1.00  0.00     0.009 C 
ENDBRANCH  28  32
ENDBRANCH  11  24
ENDBRANCH   9  10
ENDBRANCH   8   9
ENDBRANCH   7   8
ENDBRANCH   5   7
ENDBRANCH   4   5
ENDBRANCH   3   4
ENDBRANCH   2   3
ENDBRANCH   1   2
BRANCH   1  34
ATOM     34  C   UNL A   1      45.100  40.779  38.214  1.00  0.00     0.188 C 
BRANCH  34  35
ATOM     35  C   UNL A   1      43.808  39.978  38.374  1.00  0.00     0.188 C 
BRANCH  35  36
ATOM     36  O   UNL A   1      43.575  39.442  39.648  1.00  0.00    -0.376 OA
BRANCH  36  37
ATOM     37  C   UNL A   1      42.254  39.284  40.134  1.00  0.00     0.202 C 
BRANCH  37  38
ATOM     38  C   UNL A   1      41.492  37.943  40.064  1.00  0.00     0.261 C 
BRANCH  38  39
ATOM     39  O   UNL A   1      41.002  37.499  38.788  1.00  0.00    -0.460 OA
BRANCH  39  40
ATOM     40  C   UNL A   1      39.714  37.076  38.714  1.00  0.00     0.338 C 
ATOM     41  O   UNL A   1      38.746  37.584  39.247  1.00  0.00    -0.246 OA
BRANCH  40  42
ATOM     42  C   UNL A   1      39.653  36.068  37.616  1.00  0.00     0.060 A 
ATOM     43  C   UNL A   1      38.900  34.897  37.812  1.00  0.00     0.016 A 
ATOM     44  C   UNL A   1      40.234  36.320  36.373  1.00  0.00     0.016 A 
ATOM     45  C   UNL A   1      38.728  33.982  36.768  1.00  0.00     0.010 A 
ATOM     46  C   UNL A   1      40.089  35.388  35.340  1.00  0.00     0.010 A 
ATOM     47  C   UNL A   1      39.347  34.207  35.532  1.00  0.00    -0.014 A 
BRANCH  47  48
ATOM     48  C   UNL A   1      39.357  33.158  34.481  1.00  0.00     0.031 A 
ATOM     49  C   UNL A   1      40.430  32.104  34.530  1.00  0.00     0.074 A 
ATOM     50  C   UNL A   1      38.458  33.145  33.480  1.00  0.00     0.049 A 
ATOM     51  N   UNL A   1      40.722  31.172  33.659  1.00  0.00    -0.248 NA
ATOM     52  C   UNL A   1      41.290  32.111  35.723  1.00  0.00     0.031 C 
ATOM     53  C   UNL A   1      37.334  34.066  33.336  1.00  0.00     0.029 A 
ATOM     54  N   UNL A   1      38.370  32.327  32.378  1.00  0.00    -0.354 N 
ATOM     55  C   UNL A   1      41.805  30.487  34.194  1.00  0.00     0.074 A 
ATOM     56  C   UNL A   1      42.136  31.130  35.448  1.00  0.00     0.031 C 
ATOM     57  C   UNL A   1      36.683  33.781  32.195  1.00  0.00     0.029 A 
ATOM     58  C   UNL A   1      37.371  32.687  31.507  1.00  0.00     0.049 A 
ATOM     59  H   UNL A   1      38.966  31.559  32.227  1.00  0.00     0.167 HD
ATOM     60  C   UNL A   1      42.468  29.419  33.688  1.00  0.00     0.031 A 
ATOM     61  C   UNL A   1      37.070  32.220  30.278  1.00  0.00     0.031 A 
ATOM     62  C   UNL A   1      42.165  28.799  32.426  1.00  0.00     0.049 A 
ATOM     63  C   UNL A   1      37.894  31.107  29.680  1.00  0.00     0.074 A 
ATOM     64  C   UNL A   1      42.779  27.709  31.832  1.00  0.00     0.029 A 
ATOM     65  N   UNL A   1      41.174  29.222  31.554  1.00  0.00    -0.354 N 
ATOM     66  N   UNL A   1      38.903  30.452  30.199  1.00  0.00    -0.248 NA
ATOM     67  C   UNL A   1      37.534  30.671  28.321  1.00  0.00     0.031 C 
ATOM     68  C   UNL A   1      42.205  27.518  30.571  1.00  0.00     0.029 A 
ATOM     69  C   UNL A   1      41.185  28.442  30.411  1.00  0.00     0.049 A 
ATOM     70  H   UNL A   1      40.553  29.967  31.725  1.00  0.00     0.167 HD
ATOM     71  C   UNL A   1      39.286  29.518  29.243  1.00  0.00     0.074 A 
ATOM     72  C   UNL A   1      38.385  29.675  28.121  1.00  0.00     0.031 C 
ATOM     73  C   UNL A   1      40.294  28.612  29.292  1.00  0.00     0.031 A 
BRANCH  60  74
ATOM     74  C   UNL A   1      43.625  28.887  34.490  1.00  0.00    -0.014 A 
ATOM     75  C   UNL A   1      44.941  29.307  34.243  1.00  0.00     0.009 A 
ATOM     76  C   UNL A   1      43.389  27.964  35.521  1.00  0.00     0.009 A 
ATOM     77  C   UNL A   1      46.002  28.781  34.985  1.00  0.00     0.001 A 
ATOM     78  C   UNL A   1      44.446  27.466  36.283  1.00  0.00     0.001 A 
ATOM     79  C   UNL A   1      45.753  27.866  36.006  1.00  0.00     0.000 A 
ENDBRANCH  60  74
BRANCH  61  80
ATOM     80  C   UNL A   1      35.964  32.839  29.498  1.00  0.00    -0.014 A 
ATOM     81  C   UNL A   1      36.165  34.028  28.779  1.00  0.00     0.009 A 
ATOM     82  C   UNL A   1      34.689  32.250  29.484  1.00  0.00     0.009 A 
ATOM     83  C   UNL A   1      35.110  34.621  28.080  1.00  0.00     0.001 A 
ATOM     84  C   UNL A   1      33.645  32.827  28.758  1.00  0.00     0.001 A 
ATOM     85  C   UNL A   1      33.854  34.017  28.064  1.00  0.00     0.000 A 
ENDBRANCH  61  80
BRANCH  73  86
ATOM     86  C   UNL A   1      40.472  27.703  28.104  1.00  0.00    -0.014 A 
ATOM     87  C   UNL A   1      41.391  28.003  27.087  1.00  0.00     0.009 A 
ATOM     88  C   UNL A   1      39.748  26.501  28.031  1.00  0.00     0.009 A 
ATOM     89  C   UNL A   1      41.561  27.132  26.007  1.00  0.00     0.001 A 
ATOM     90  C   UNL A   1      39.943  25.619  26.967  1.00  0.00     0.001 A 
ATOM     91  C   UNL A   1      40.843  25.939  25.951  1.00  0.00     0.000 A 
ENDBRANCH  73  86
ENDBRANCH  47  48
ENDBRANCH  40  42
ENDBRANCH  39  40
ENDBRANCH  38  39
ENDBRANCH  37  38
ENDBRANCH  36  37
ENDBRANCH  35  36
ENDBRANCH  34  35
ENDBRANCH   1  34
TORSDOF 23
ENDMDL
MODEL 3
REMARK VINA RESULT:      -6.5      3.293      7.676
REMARK SMILES CCc1cccc(CC)c1N1/C(=[NH+]/C(=O)CCCC(=O)OCCOCCOCCOC(=O)c2ccc(-c3c4nc(c(-c5ccccc5)c5ccc([nH]5)c(-c5ccccc5)c5nc(c(-c6ccccc6)c6ccc3[nH]6)C=C5)C=C4)cc2)S[C@@H]2CS(=O)(=O)C[C@@H]21
REMARK SMILES IDX 24 1 23 2 22 3 21 4 19 5 20 6 18 7 17 8 16 9 14 10 11 11
REMARK SMILES IDX 12 12 88 13 13 14 81 15 82 16 87 17 83 19 84 20 15 21 85 22
REMARK SMILES IDX 86 23 10 24 3 25 4 26 5 27 7 28 6 29 2 30 1 31 8 32 9 33
REMARK SMILES IDX 25 34 26 35 27 36 28 37 29 38 30 39 31 40 32 41 33 42 34 43
REMARK SMILES IDX 80 44 35 45 79 46 36 47 37 48 38 49 73 50 39 51 78 52 72 53
REMARK SMILES IDX 74 54 40 55 77 56 71 57 70 58 41 60 63 61 48 62 62 63 49 64
REMARK SMILES IDX 52 65 61 66 75 67 50 68 51 69 60 71 76 72 53 73 42 74 43 75
REMARK SMILES IDX 47 76 44 77 46 78 45 79 64 80 65 81 69 82 66 83 68 84 67 85
REMARK SMILES IDX 54 86 55 87 59 88 56 89 58 90 57 91
REMARK H PARENT 13 18 74 59 52 70
REMARK Flexibility Score: inf
ROOT
ATOM      1  O   UNL A   1      39.337  30.261  35.976  1.00  0.00    -0.376 OA
ENDROOT
BRANCH   1   2
ATOM      2  C   UNL A   1      40.494  30.387  35.151  1.00  0.00     0.202 C 
BRANCH   2   3
ATOM      3  C   UNL A   1      40.927  29.205  34.263  1.00  0.00     0.261 C 
BRANCH   3   4
ATOM      4  O   UNL A   1      42.177  28.592  34.650  1.00  0.00    -0.463 OA
BRANCH   4   5
ATOM      5  C   UNL A   1      42.118  27.609  35.580  1.00  0.00     0.305 C 
ATOM      6  O   UNL A   1      42.346  27.789  36.772  1.00  0.00    -0.252 OA
BRANCH   5   7
ATOM      7  C   UNL A   1      41.591  26.265  35.076  1.00  0.00     0.123 C 
BRANCH   7   8
ATOM      8  C   UNL A   1      41.302  25.068  35.980  1.00  0.00     0.024 C 
BRANCH   8   9
ATOM      9  C   UNL A   1      41.727  23.705  35.463  1.00  0.00     0.128 C 
BRANCH   9  10
ATOM     10  C   UNL A   1      43.137  23.732  34.916  1.00  0.00     0.307 C 
ATOM     11  N   UNL A   1      46.362  24.939  36.193  1.00  0.00    -0.216 N 
ATOM     12  C   UNL A   1      45.282  24.556  35.386  1.00  0.00     0.319 C 
ATOM     13  C   UNL A   1      47.694  24.862  35.545  1.00  0.00     0.212 C 
ATOM     14  N   UNL A   1      44.054  24.365  35.736  1.00  0.00    -0.204 N 
ATOM     15  S   UNL A   1      45.910  24.269  33.739  1.00  0.00    -0.029 SA
ATOM     16  C   UNL A   1      47.537  23.873  34.382  1.00  0.00     0.120 C 
ATOM     17  C   UNL A   1      48.832  24.339  36.412  1.00  0.00     0.188 C 
ATOM     18  H   UNL A   1      43.760  24.681  36.620  1.00  0.00     0.316 HD
ATOM     19  C   UNL A   1      47.579  22.471  34.971  1.00  0.00     0.156 C 
ATOM     20  S   UNL A   1      48.919  22.583  36.128  1.00  0.00     0.155 S 
ATOM     21  O   UNL A   1      43.369  23.092  33.894  1.00  0.00    -0.247 OA
ATOM     22  O   UNL A   1      48.559  21.874  37.340  1.00  0.00    -0.229 OA
ATOM     23  O   UNL A   1      50.143  22.306  35.411  1.00  0.00    -0.229 OA
BRANCH  11  24
ATOM     24  C   UNL A   1      46.296  25.630  37.430  1.00  0.00     0.134 A 
ATOM     25  C   UNL A   1      46.192  24.912  38.661  1.00  0.00    -0.001 A 
ATOM     26  C   UNL A   1      46.275  25.613  39.882  1.00  0.00     0.008 A 
ATOM     27  C   UNL A   1      46.513  26.977  39.922  1.00  0.00     0.001 A 
ATOM     28  C   UNL A   1      46.498  27.041  37.484  1.00  0.00    -0.001 A 
ATOM     29  C   UNL A   1      46.635  27.680  38.735  1.00  0.00     0.008 A 
BRANCH  25  30
ATOM     30  C   UNL A   1      45.887  23.429  38.735  1.00  0.00     0.036 C 
ATOM     31  C   UNL A   1      45.522  22.835  40.091  1.00  0.00     0.009 C 
ENDBRANCH  25  30
BRANCH  28  32
ATOM     32  C   UNL A   1      46.624  27.920  36.253  1.00  0.00     0.036 C 
ATOM     33  C   UNL A   1      46.127  29.350  36.450  1.00  0.00     0.009 C 
ENDBRANCH  28  32
ENDBRANCH  11  24
ENDBRANCH   9  10
ENDBRANCH   8   9
ENDBRANCH   7   8
ENDBRANCH   5   7
ENDBRANCH   4   5
ENDBRANCH   3   4
ENDBRANCH   2   3
ENDBRANCH   1   2
BRANCH   1  34
ATOM     34  C   UNL A   1      38.145  30.925  35.588  1.00  0.00     0.188 C 
BRANCH  34  35
ATOM     35  C   UNL A   1      37.940  31.250  34.108  1.00  0.00     0.188 C 
BRANCH  35  36
ATOM     36  O   UNL A   1      36.646  31.648  33.743  1.00  0.00    -0.376 OA
BRANCH  36  37
ATOM     37  C   UNL A   1      36.426  32.899  33.115  1.00  0.00     0.202 C 
BRANCH  37  38
ATOM     38  C   UNL A   1      36.046  33.032  31.626  1.00  0.00     0.261 C 
BRANCH  38  39
ATOM     39  O   UNL A   1      35.096  32.104  31.075  1.00  0.00    -0.460 OA
BRANCH  39  40
ATOM     40  C   UNL A   1      35.347  31.594  29.842  1.00  0.00     0.338 C 
ATOM     41  O   UNL A   1      34.737  31.828  28.817  1.00  0.00    -0.246 OA
BRANCH  40  42
ATOM     42  C   UNL A   1      36.689  30.945  29.908  1.00  0.00     0.060 A 
ATOM     43  C   UNL A   1      36.866  29.839  30.756  1.00  0.00     0.016 A 
ATOM     44  C   UNL A   1      37.726  31.347  29.065  1.00  0.00     0.016 A 
ATOM     45  C   UNL A   1      38.075  29.136  30.762  1.00  0.00     0.010 A 
ATOM     46  C   UNL A   1      38.947  30.664  29.096  1.00  0.00     0.010 A 
ATOM     47  C   UNL A   1      39.136  29.563  29.953  1.00  0.00    -0.014 A 
BRANCH  47  48
ATOM     48  C   UNL A   1      40.491  28.971  30.094  1.00  0.00     0.031 A 
ATOM     49  C   UNL A   1      41.554  29.770  30.796  1.00  0.00     0.074 A 
ATOM     50  C   UNL A   1      40.794  27.761  29.588  1.00  0.00     0.049 A 
ATOM     51  N   UNL A   1      42.832  29.524  30.925  1.00  0.00    -0.248 NA
ATOM     52  C   UNL A   1      41.109  31.020  31.433  1.00  0.00     0.031 C 
ATOM     53  C   UNL A   1      39.855  26.854  28.934  1.00  0.00     0.029 A 
ATOM     54  N   UNL A   1      41.999  27.100  29.532  1.00  0.00    -0.354 N 
ATOM     55  C   UNL A   1      43.348  30.591  31.649  1.00  0.00     0.074 A 
ATOM     56  C   UNL A   1      42.250  31.499  31.905  1.00  0.00     0.031 C 
ATOM     57  C   UNL A   1      40.523  25.764  28.517  1.00  0.00     0.029 A 
ATOM     58  C   UNL A   1      41.944  25.919  28.834  1.00  0.00     0.049 A 
ATOM     59  H   UNL A   1      42.821  27.442  29.951  1.00  0.00     0.167 HD
ATOM     60  C   UNL A   1      44.620  30.799  32.065  1.00  0.00     0.031 A 
ATOM     61  C   UNL A   1      42.928  25.078  28.457  1.00  0.00     0.031 A 
ATOM     62  C   UNL A   1      45.721  29.917  31.784  1.00  0.00     0.049 A 
ATOM     63  C   UNL A   1      44.357  25.387  28.829  1.00  0.00     0.074 A 
ATOM     64  C   UNL A   1      47.045  30.042  32.168  1.00  0.00     0.029 A 
ATOM     65  N   UNL A   1      45.630  28.752  31.037  1.00  0.00    -0.354 N 
ATOM     66  N   UNL A   1      44.833  26.386  29.530  1.00  0.00    -0.248 NA
ATOM     67  C   UNL A   1      45.385  24.447  28.354  1.00  0.00     0.031 C 
ATOM     68  C   UNL A   1      47.768  28.991  31.594  1.00  0.00     0.029 A 
ATOM     69  C   UNL A   1      46.881  28.172  30.914  1.00  0.00     0.049 A 
ATOM     70  H   UNL A   1      44.799  28.392  30.652  1.00  0.00     0.167 HD
ATOM     71  C   UNL A   1      46.208  26.187  29.595  1.00  0.00     0.074 A 
ATOM     72  C   UNL A   1      46.488  24.958  28.883  1.00  0.00     0.031 C 
ATOM     73  C   UNL A   1      47.154  26.955  30.192  1.00  0.00     0.031 A 
BRANCH  60  74
ATOM     74  C   UNL A   1      44.893  32.065  32.831  1.00  0.00    -0.014 A 
ATOM     75  C   UNL A   1      44.812  32.104  34.232  1.00  0.00     0.009 A 
ATOM     76  C   UNL A   1      45.254  33.232  32.139  1.00  0.00     0.009 A 
ATOM     77  C   UNL A   1      45.047  33.297  34.921  1.00  0.00     0.001 A 
ATOM     78  C   UNL A   1      45.521  34.414  32.832  1.00  0.00     0.001 A 
ATOM     79  C   UNL A   1      45.406  34.447  34.222  1.00  0.00     0.000 A 
ENDBRANCH  60  74
BRANCH  61  80
ATOM     80  C   UNL A   1      42.609  23.882  27.632  1.00  0.00    -0.014 A 
ATOM     81  C   UNL A   1      42.170  22.690  28.228  1.00  0.00     0.009 A 
ATOM     82  C   UNL A   1      42.762  23.921  26.235  1.00  0.00     0.009 A 
ATOM     83  C   UNL A   1      41.909  21.560  27.447  1.00  0.00     0.001 A 
ATOM     84  C   UNL A   1      42.468  22.802  25.455  1.00  0.00     0.001 A 
ATOM     85  C   UNL A   1      42.051  21.619  26.062  1.00  0.00     0.000 A 
ENDBRANCH  61  80
BRANCH  73  86
ATOM     86  C   UNL A   1      48.582  26.484  30.118  1.00  0.00    -0.014 A 
ATOM     87  C   UNL A   1      49.131  25.660  31.112  1.00  0.00     0.009 A 
ATOM     88  C   UNL A   1      49.373  26.825  29.008  1.00  0.00     0.009 A 
ATOM     89  C   UNL A   1      50.451  25.211  31.011  1.00  0.00     0.001 A 
ATOM     90  C   UNL A   1      50.680  26.349  28.894  1.00  0.00     0.001 A 
ATOM     91  C   UNL A   1      51.221  25.549  29.900  1.00  0.00     0.000 A 
ENDBRANCH  73  86
ENDBRANCH  47  48
ENDBRANCH  40  42
ENDBRANCH  39  40
ENDBRANCH  38  39
ENDBRANCH  37  38
ENDBRANCH  36  37
ENDBRANCH  35  36
ENDBRANCH  34  35
ENDBRANCH   1  34
TORSDOF 23
ENDMDL
