MODEL 1
REMARK VINA RESULT:      -9.4      0.000      0.000
REMARK SMILES COCCS(=O)(=O)Cc1c(C(=O)OCCOCCOCCOC(=O)c2ccc(-c3c4nc(c(-c5ccccc5)c5ccc([nH]5)c(-c5ccccc5)c5nc(c(-c6ccccc6)c6ccc3[nH]6)C=C5)C=C4)cc2)oc2ccccc12
REMARK SMILES IDX 16 1 15 2 14 3 13 4 11 5 12 6 10 7 9 8 79 9 73 10 74 11
REMARK SMILES IDX 78 12 75 13 77 14 76 15 8 16 5 17 6 18 7 19 4 20 3 21 2 22
REMARK SMILES IDX 1 23 17 24 18 25 19 26 20 27 21 28 22 29 23 30 24 31 25 32
REMARK SMILES IDX 26 33 72 34 27 35 71 36 28 37 29 38 30 39 65 40 31 41 70 42
REMARK SMILES IDX 64 43 66 44 32 45 69 46 63 47 62 48 33 50 55 51 40 52 54 53
REMARK SMILES IDX 41 54 44 55 53 56 67 57 42 58 43 59 52 61 68 62 45 63 34 64
REMARK SMILES IDX 35 65 39 66 36 67 38 68 37 69 56 70 57 71 61 72 58 73 60 74
REMARK SMILES IDX 59 75 46 76 47 77 51 78 48 79 50 80 49 81
REMARK H PARENT 66 49 44 60
REMARK Flexibility Score: inf
ROOT
ATOM      1  O   UNL A   1      38.692  22.968  26.167  1.00  0.00    -0.376 OA
ENDROOT
BRANCH   1   2
ATOM      2  C   UNL A   1      37.468  22.886  25.479  1.00  0.00     0.202 C 
BRANCH   2   3
ATOM      3  C   UNL A   1      36.374  23.976  25.501  1.00  0.00     0.261 C 
BRANCH   3   4
ATOM      4  O   UNL A   1      35.044  23.694  25.036  1.00  0.00    -0.457 OA
BRANCH   4   5
ATOM      5  C   UNL A   1      34.697  24.024  23.756  1.00  0.00     0.374 C 
ATOM      6  O   UNL A   1      35.292  23.622  22.758  1.00  0.00    -0.242 OA
BRANCH   5   7
ATOM      7  C   UNL A   1      33.499  24.859  23.741  1.00  0.00     0.217 A 
ATOM      8  C   UNL A   1      32.119  24.580  23.809  1.00  0.00     0.028 A 
ATOM      9  C   UNL A   1      31.459  25.844  23.670  1.00  0.00     0.025 A 
ATOM     10  O   UNL A   1      33.678  26.218  23.705  1.00  0.00    -0.449 OA
ATOM     11  C   UNL A   1      32.458  26.805  23.689  1.00  0.00     0.135 A 
ATOM     12  C   UNL A   1      30.120  26.282  23.617  1.00  0.00     0.012 A 
ATOM     13  C   UNL A   1      32.226  28.177  23.710  1.00  0.00     0.048 A 
ATOM     14  C   UNL A   1      29.851  27.654  23.677  1.00  0.00     0.001 A 
ATOM     15  C   UNL A   1      30.888  28.585  23.727  1.00  0.00     0.004 A 
BRANCH   8  16
ATOM     16  C   UNL A   1      31.473  23.243  24.051  1.00  0.00     0.177 C 
BRANCH  16  17
ATOM     17  S   UNL A   1      31.601  22.456  25.704  1.00  0.00     0.156 S 
ATOM     18  O   UNL A   1      30.289  21.906  26.006  1.00  0.00    -0.228 OA
ATOM     19  O   UNL A   1      32.144  23.467  26.598  1.00  0.00    -0.228 OA
BRANCH  17  20
ATOM     20  C   UNL A   1      32.781  21.087  25.744  1.00  0.00     0.165 C 
BRANCH  20  21
ATOM     21  C   UNL A   1      33.362  20.666  24.408  1.00  0.00     0.176 C 
BRANCH  21  22
ATOM     22  O   UNL A   1      32.676  19.564  23.816  1.00  0.00    -0.384 OA
ATOM     23  C   UNL A   1      32.459  18.512  24.726  1.00  0.00     0.194 C 
ENDBRANCH  21  22
ENDBRANCH  20  21
ENDBRANCH  17  20
ENDBRANCH  16  17
ENDBRANCH   8  16
ENDBRANCH   5   7
ENDBRANCH   4   5
ENDBRANCH   3   4
ENDBRANCH   2   3
ENDBRANCH   1   2
BRANCH   1  24
ATOM     24  C   UNL A   1      39.508  21.834  26.282  1.00  0.00     0.188 C 
BRANCH  24  25
ATOM     25  C   UNL A   1      40.980  22.180  26.604  1.00  0.00     0.188 C 
BRANCH  25  26
ATOM     26  O   UNL A   1      42.002  21.317  26.124  1.00  0.00    -0.376 OA
BRANCH  26  27
ATOM     27  C   UNL A   1      41.707  19.926  26.039  1.00  0.00     0.202 C 
BRANCH  27  28
ATOM     28  C   UNL A   1      42.859  18.951  25.738  1.00  0.00     0.261 C 
BRANCH  28  29
ATOM     29  O   UNL A   1      43.428  19.066  24.416  1.00  0.00    -0.460 OA
BRANCH  29  30
ATOM     30  C   UNL A   1      44.774  19.295  24.374  1.00  0.00     0.338 C 
ATOM     31  O   UNL A   1      45.641  18.458  24.182  1.00  0.00    -0.246 OA
BRANCH  30  32
ATOM     32  C   UNL A   1      45.079  20.743  24.561  1.00  0.00     0.060 A 
ATOM     33  C   UNL A   1      45.668  21.154  25.743  1.00  0.00     0.016 A 
ATOM     34  C   UNL A   1      44.662  21.730  23.671  1.00  0.00     0.016 A 
ATOM     35  C   UNL A   1      45.882  22.505  26.036  1.00  0.00     0.010 A 
ATOM     36  C   UNL A   1      44.873  23.103  23.967  1.00  0.00     0.010 A 
ATOM     37  C   UNL A   1      45.480  23.512  25.171  1.00  0.00    -0.014 A 
BRANCH  37  38
ATOM     38  C   UNL A   1      45.492  24.930  25.672  1.00  0.00     0.031 A 
ATOM     39  C   UNL A   1      46.768  25.724  25.545  1.00  0.00     0.074 A 
ATOM     40  C   UNL A   1      44.387  25.612  26.056  1.00  0.00     0.049 A 
ATOM     41  N   UNL A   1      47.103  26.863  26.097  1.00  0.00    -0.248 NA
ATOM     42  C   UNL A   1      47.796  25.162  24.653  1.00  0.00     0.031 C 
ATOM     43  C   UNL A   1      43.009  25.122  26.009  1.00  0.00     0.029 A 
ATOM     44  N   UNL A   1      44.252  26.902  26.531  1.00  0.00    -0.354 N 
ATOM     45  C   UNL A   1      48.411  27.105  25.694  1.00  0.00     0.074 A 
ATOM     46  C   UNL A   1      48.795  26.015  24.823  1.00  0.00     0.031 C 
ATOM     47  C   UNL A   1      42.176  26.101  26.403  1.00  0.00     0.029 A 
ATOM     48  C   UNL A   1      42.957  27.250  26.849  1.00  0.00     0.049 A 
ATOM     49  H   UNL A   1      45.014  27.518  26.635  1.00  0.00     0.167 HD
ATOM     50  C   UNL A   1      49.226  28.129  26.038  1.00  0.00     0.031 A 
ATOM     51  C   UNL A   1      42.459  28.332  27.487  1.00  0.00     0.031 A 
ATOM     52  C   UNL A   1      48.831  29.248  26.852  1.00  0.00     0.049 A 
ATOM     53  C   UNL A   1      43.406  29.390  28.002  1.00  0.00     0.074 A 
ATOM     54  C   UNL A   1      49.611  30.290  27.323  1.00  0.00     0.029 A 
ATOM     55  N   UNL A   1      47.539  29.487  27.287  1.00  0.00    -0.354 N 
ATOM     56  N   UNL A   1      44.695  29.520  27.800  1.00  0.00    -0.248 NA
ATOM     57  C   UNL A   1      42.833  30.435  28.869  1.00  0.00     0.031 C 
ATOM     58  C   UNL A   1      48.800  31.132  28.090  1.00  0.00     0.029 A 
ATOM     59  C   UNL A   1      47.503  30.652  28.036  1.00  0.00     0.049 A 
ATOM     60  H   UNL A   1      46.762  28.916  27.092  1.00  0.00     0.167 HD
ATOM     61  C   UNL A   1      45.078  30.662  28.496  1.00  0.00     0.074 A 
ATOM     62  C   UNL A   1      43.883  31.208  29.103  1.00  0.00     0.031 C 
ATOM     63  C   UNL A   1      46.314  31.202  28.629  1.00  0.00     0.031 A 
BRANCH  50  64
ATOM     64  C   UNL A   1      50.667  28.029  25.628  1.00  0.00    -0.014 A 
ATOM     65  C   UNL A   1      51.638  27.412  26.429  1.00  0.00     0.009 A 
ATOM     66  C   UNL A   1      51.046  28.550  24.378  1.00  0.00     0.009 A 
ATOM     67  C   UNL A   1      52.965  27.347  25.998  1.00  0.00     0.001 A 
ATOM     68  C   UNL A   1      52.364  28.454  23.937  1.00  0.00     0.001 A 
ATOM     69  C   UNL A   1      53.325  27.860  24.751  1.00  0.00     0.000 A 
ENDBRANCH  50  64
BRANCH  51  70
ATOM     70  C   UNL A   1      41.004  28.429  27.823  1.00  0.00    -0.014 A 
ATOM     71  C   UNL A   1      40.099  29.094  26.978  1.00  0.00     0.009 A 
ATOM     72  C   UNL A   1      40.529  27.939  29.051  1.00  0.00     0.009 A 
ATOM     73  C   UNL A   1      38.772  29.296  27.371  1.00  0.00     0.001 A 
ATOM     74  C   UNL A   1      39.192  28.102  29.423  1.00  0.00     0.001 A 
ATOM     75  C   UNL A   1      38.317  28.795  28.590  1.00  0.00     0.000 A 
ENDBRANCH  51  70
BRANCH  63  76
ATOM     76  C   UNL A   1      46.440  32.476  29.418  1.00  0.00    -0.014 A 
ATOM     77  C   UNL A   1      46.729  32.464  30.792  1.00  0.00     0.009 A 
ATOM     78  C   UNL A   1      46.318  33.712  28.763  1.00  0.00     0.009 A 
ATOM     79  C   UNL A   1      46.858  33.663  31.498  1.00  0.00     0.001 A 
ATOM     80  C   UNL A   1      46.480  34.909  29.464  1.00  0.00     0.001 A 
ATOM     81  C   UNL A   1      46.740  34.883  30.834  1.00  0.00     0.000 A 
ENDBRANCH  63  76
ENDBRANCH  37  38
ENDBRANCH  30  32
ENDBRANCH  29  30
ENDBRANCH  28  29
ENDBRANCH  27  28
ENDBRANCH  26  27
ENDBRANCH  25  26
ENDBRANCH  24  25
ENDBRANCH   1  24
TORSDOF 22
ENDMDL
MODEL 2
REMARK VINA RESULT:      -8.5      6.626     12.154
REMARK SMILES COCCS(=O)(=O)Cc1c(C(=O)OCCOCCOCCOC(=O)c2ccc(-c3c4nc(c(-c5ccccc5)c5ccc([nH]5)c(-c5ccccc5)c5nc(c(-c6ccccc6)c6ccc3[nH]6)C=C5)C=C4)cc2)oc2ccccc12
REMARK SMILES IDX 16 1 15 2 14 3 13 4 11 5 12 6 10 7 9 8 79 9 73 10 74 11
REMARK SMILES IDX 78 12 75 13 77 14 76 15 8 16 5 17 6 18 7 19 4 20 3 21 2 22
REMARK SMILES IDX 1 23 17 24 18 25 19 26 20 27 21 28 22 29 23 30 24 31 25 32
REMARK SMILES IDX 26 33 72 34 27 35 71 36 28 37 29 38 30 39 65 40 31 41 70 42
REMARK SMILES IDX 64 43 66 44 32 45 69 46 63 47 62 48 33 50 55 51 40 52 54 53
REMARK SMILES IDX 41 54 44 55 53 56 67 57 42 58 43 59 52 61 68 62 45 63 34 64
REMARK SMILES IDX 35 65 39 66 36 67 38 68 37 69 56 70 57 71 61 72 58 73 60 74
REMARK SMILES IDX 59 75 46 76 47 77 51 78 48 79 50 80 49 81
REMARK H PARENT 66 49 44 60
REMARK Flexibility Score: inf
ROOT
ATOM      1  O   UNL A   1      33.673  34.880  31.342  1.00  0.00    -0.376 OA
ENDROOT
BRANCH   1   2
ATOM      2  C   UNL A   1      33.743  35.131  32.724  1.00  0.00     0.202 C 
BRANCH   2   3
ATOM      3  C   UNL A   1      35.047  35.413  33.500  1.00  0.00     0.261 C 
BRANCH   3   4
ATOM      4  O   UNL A   1      35.638  34.407  34.339  1.00  0.00    -0.457 OA
BRANCH   4   5
ATOM      5  C   UNL A   1      36.287  33.351  33.764  1.00  0.00     0.374 C 
ATOM      6  O   UNL A   1      35.760  32.264  33.534  1.00  0.00    -0.242 OA
BRANCH   5   7
ATOM      7  C   UNL A   1      37.657  33.712  33.410  1.00  0.00     0.217 A 
ATOM      8  C   UNL A   1      38.786  34.098  34.161  1.00  0.00     0.028 A 
ATOM      9  C   UNL A   1      39.810  34.389  33.204  1.00  0.00     0.025 A 
ATOM     10  O   UNL A   1      38.007  33.636  32.086  1.00  0.00    -0.449 OA
ATOM     11  C   UNL A   1      39.302  34.015  31.969  1.00  0.00     0.135 A 
ATOM     12  C   UNL A   1      41.142  34.848  33.259  1.00  0.00     0.012 A 
ATOM     13  C   UNL A   1      40.035  34.015  30.786  1.00  0.00     0.048 A 
ATOM     14  C   UNL A   1      41.919  34.821  32.095  1.00  0.00     0.001 A 
ATOM     15  C   UNL A   1      41.375  34.407  30.881  1.00  0.00     0.004 A 
BRANCH   8  16
ATOM     16  C   UNL A   1      38.912  34.128  35.660  1.00  0.00     0.177 C 
BRANCH  16  17
ATOM     17  S   UNL A   1      39.918  35.437  36.463  1.00  0.00     0.156 S 
ATOM     18  O   UNL A   1      39.643  36.671  35.746  1.00  0.00    -0.228 OA
ATOM     19  O   UNL A   1      41.287  34.945  36.485  1.00  0.00    -0.228 OA
BRANCH  17  20
ATOM     20  C   UNL A   1      39.471  35.708  38.194  1.00  0.00     0.165 C 
BRANCH  20  21
ATOM     21  C   UNL A   1      39.227  34.462  39.024  1.00  0.00     0.176 C 
BRANCH  21  22
ATOM     22  O   UNL A   1      39.442  34.664  40.421  1.00  0.00    -0.384 OA
ATOM     23  C   UNL A   1      39.381  33.464  41.154  1.00  0.00     0.194 C 
ENDBRANCH  21  22
ENDBRANCH  20  21
ENDBRANCH  17  20
ENDBRANCH  16  17
ENDBRANCH   8  16
ENDBRANCH   5   7
ENDBRANCH   4   5
ENDBRANCH   3   4
ENDBRANCH   2   3
ENDBRANCH   1   2
BRANCH   1  24
ATOM     24  C   UNL A   1      32.937  35.737  30.511  1.00  0.00     0.188 C 
BRANCH  24  25
ATOM     25  C   UNL A   1      33.220  35.510  29.008  1.00  0.00     0.188 C 
BRANCH  25  26
ATOM     26  O   UNL A   1      34.488  34.997  28.626  1.00  0.00    -0.376 OA
BRANCH  26  27
ATOM     27  C   UNL A   1      34.511  33.869  27.757  1.00  0.00     0.202 C 
BRANCH  27  28
ATOM     28  C   UNL A   1      33.558  32.697  28.055  1.00  0.00     0.261 C 
BRANCH  28  29
ATOM     29  O   UNL A   1      34.205  31.435  28.323  1.00  0.00    -0.460 OA
BRANCH  29  30
ATOM     30  C   UNL A   1      35.071  31.431  29.380  1.00  0.00     0.338 C 
ATOM     31  O   UNL A   1      34.911  32.007  30.443  1.00  0.00    -0.246 OA
BRANCH  30  32
ATOM     32  C   UNL A   1      36.264  30.584  29.095  1.00  0.00     0.060 A 
ATOM     33  C   UNL A   1      36.723  29.724  30.076  1.00  0.00     0.016 A 
ATOM     34  C   UNL A   1      37.040  30.721  27.945  1.00  0.00     0.016 A 
ATOM     35  C   UNL A   1      37.899  28.981  29.924  1.00  0.00     0.010 A 
ATOM     36  C   UNL A   1      38.236  29.973  27.789  1.00  0.00     0.010 A 
ATOM     37  C   UNL A   1      38.692  29.094  28.792  1.00  0.00    -0.014 A 
BRANCH  37  38
ATOM     38  C   UNL A   1      40.065  28.483  28.818  1.00  0.00     0.031 A 
ATOM     39  C   UNL A   1      41.204  29.300  29.377  1.00  0.00     0.074 A 
ATOM     40  C   UNL A   1      40.324  27.180  28.553  1.00  0.00     0.049 A 
ATOM     41  N   UNL A   1      42.495  29.097  29.301  1.00  0.00    -0.248 NA
ATOM     42  C   UNL A   1      40.827  30.497  30.145  1.00  0.00     0.031 C 
ATOM     43  C   UNL A   1      39.334  26.147  28.248  1.00  0.00     0.029 A 
ATOM     44  N   UNL A   1      41.522  26.491  28.540  1.00  0.00    -0.354 N 
ATOM     45  C   UNL A   1      43.083  30.188  29.929  1.00  0.00     0.074 A 
ATOM     46  C   UNL A   1      42.010  31.029  30.413  1.00  0.00     0.031 C 
ATOM     47  C   UNL A   1      39.956  24.962  28.111  1.00  0.00     0.029 A 
ATOM     48  C   UNL A   1      41.400  25.162  28.195  1.00  0.00     0.049 A 
ATOM     49  H   UNL A   1      42.386  26.912  28.755  1.00  0.00     0.167 HD
ATOM     50  C   UNL A   1      44.398  30.475  30.070  1.00  0.00     0.031 A 
ATOM     51  C   UNL A   1      42.334  24.228  27.911  1.00  0.00     0.031 A 
ATOM     52  C   UNL A   1      45.470  29.612  29.649  1.00  0.00     0.049 A 
ATOM     53  C   UNL A   1      43.795  24.614  27.922  1.00  0.00     0.074 A 
ATOM     54  C   UNL A   1      46.834  29.856  29.672  1.00  0.00     0.029 A 
ATOM     55  N   UNL A   1      45.302  28.329  29.158  1.00  0.00    -0.354 N 
ATOM     56  N   UNL A   1      44.356  25.729  28.322  1.00  0.00    -0.248 NA
ATOM     57  C   UNL A   1      44.752  23.621  27.403  1.00  0.00     0.031 C 
ATOM     58  C   UNL A   1      47.488  28.738  29.145  1.00  0.00     0.029 A 
ATOM     59  C   UNL A   1      46.536  27.774  28.860  1.00  0.00     0.049 A 
ATOM     60  H   UNL A   1      44.436  27.878  29.041  1.00  0.00     0.167 HD
ATOM     61  C   UNL A   1      45.722  25.564  28.121  1.00  0.00     0.074 A 
ATOM     62  C   UNL A   1      45.913  24.232  27.590  1.00  0.00     0.031 C 
ATOM     63  C   UNL A   1      46.727  26.445  28.344  1.00  0.00     0.031 A 
BRANCH  50  64
ATOM     64  C   UNL A   1      44.754  31.832  30.604  1.00  0.00    -0.014 A 
ATOM     65  C   UNL A   1      45.031  32.059  31.959  1.00  0.00     0.009 A 
ATOM     66  C   UNL A   1      44.839  32.906  29.702  1.00  0.00     0.009 A 
ATOM     67  C   UNL A   1      45.356  33.343  32.403  1.00  0.00     0.001 A 
ATOM     68  C   UNL A   1      45.197  34.179  30.142  1.00  0.00     0.001 A 
ATOM     69  C   UNL A   1      45.447  34.399  31.495  1.00  0.00     0.000 A 
ENDBRANCH  50  64
BRANCH  51  70
ATOM     70  C   UNL A   1      41.943  22.862  27.443  1.00  0.00    -0.014 A 
ATOM     71  C   UNL A   1      41.622  22.612  26.098  1.00  0.00     0.009 A 
ATOM     72  C   UNL A   1      41.790  21.816  28.369  1.00  0.00     0.009 A 
ATOM     73  C   UNL A   1      41.126  21.365  25.703  1.00  0.00     0.001 A 
ATOM     74  C   UNL A   1      41.337  20.557  27.965  1.00  0.00     0.001 A 
ATOM     75  C   UNL A   1      40.989  20.337  26.635  1.00  0.00     0.000 A 
ENDBRANCH  51  70
BRANCH  63  76
ATOM     76  C   UNL A   1      48.134  25.989  28.068  1.00  0.00    -0.014 A 
ATOM     77  C   UNL A   1      48.697  26.080  26.785  1.00  0.00     0.009 A 
ATOM     78  C   UNL A   1      48.926  25.505  29.122  1.00  0.00     0.009 A 
ATOM     79  C   UNL A   1      50.011  25.664  26.558  1.00  0.00     0.001 A 
ATOM     80  C   UNL A   1      50.250  25.121  28.900  1.00  0.00     0.001 A 
ATOM     81  C   UNL A   1      50.788  25.192  27.616  1.00  0.00     0.000 A 
ENDBRANCH  63  76
ENDBRANCH  37  38
ENDBRANCH  30  32
ENDBRANCH  29  30
ENDBRANCH  28  29
ENDBRANCH  27  28
ENDBRANCH  26  27
ENDBRANCH  25  26
ENDBRANCH  24  25
ENDBRANCH   1  24
TORSDOF 22
ENDMDL
MODEL 3
REMARK VINA RESULT:      -8.1      7.817     13.306
REMARK SMILES COCCS(=O)(=O)Cc1c(C(=O)OCCOCCOCCOC(=O)c2ccc(-c3c4nc(c(-c5ccccc5)c5ccc([nH]5)c(-c5ccccc5)c5nc(c(-c6ccccc6)c6ccc3[nH]6)C=C5)C=C4)cc2)oc2ccccc12
REMARK SMILES IDX 16 1 15 2 14 3 13 4 11 5 12 6 10 7 9 8 79 9 73 10 74 11
REMARK SMILES IDX 78 12 75 13 77 14 76 15 8 16 5 17 6 18 7 19 4 20 3 21 2 22
REMARK SMILES IDX 1 23 17 24 18 25 19 26 20 27 21 28 22 29 23 30 24 31 25 32
REMARK SMILES IDX 26 33 72 34 27 35 71 36 28 37 29 38 30 39 65 40 31 41 70 42
REMARK SMILES IDX 64 43 66 44 32 45 69 46 63 47 62 48 33 50 55 51 40 52 54 53
REMARK SMILES IDX 41 54 44 55 53 56 67 57 42 58 43 59 52 61 68 62 45 63 34 64
REMARK SMILES IDX 35 65 39 66 36 67 38 68 37 69 56 70 57 71 61 72 58 73 60 74
REMARK SMILES IDX 59 75 46 76 47 77 51 78 48 79 50 80 49 81
REMARK H PARENT 66 49 44 60
REMARK Flexibility Score: inf
ROOT
ATOM      1  O   UNL A   1      38.215  33.463  39.810  1.00  0.00    -0.376 OA
ENDROOT
BRANCH   1   2
ATOM      2  C   UNL A   1      37.780  32.382  39.022  1.00  0.00     0.202 C 
BRANCH   2   3
ATOM      3  C   UNL A   1      37.567  32.440  37.495  1.00  0.00     0.261 C 
BRANCH   3   4
ATOM      4  O   UNL A   1      38.680  32.346  36.591  1.00  0.00    -0.457 OA
BRANCH   4   5
ATOM      5  C   UNL A   1      38.792  31.256  35.774  1.00  0.00     0.374 C 
ATOM      6  O   UNL A   1      38.600  30.099  36.144  1.00  0.00    -0.242 OA
BRANCH   5   7
ATOM      7  C   UNL A   1      39.104  31.661  34.407  1.00  0.00     0.217 A 
ATOM      8  C   UNL A   1      39.490  30.957  33.248  1.00  0.00     0.028 A 
ATOM      9  C   UNL A   1      39.717  31.953  32.244  1.00  0.00     0.025 A 
ATOM     10  O   UNL A   1      38.966  32.991  34.096  1.00  0.00    -0.449 OA
ATOM     11  C   UNL A   1      39.308  33.158  32.796  1.00  0.00     0.135 A 
ATOM     12  C   UNL A   1      40.144  31.953  30.901  1.00  0.00     0.012 A 
ATOM     13  C   UNL A   1      39.242  34.359  32.096  1.00  0.00     0.048 A 
ATOM     14  C   UNL A   1      40.052  33.135  30.158  1.00  0.00     0.001 A 
ATOM     15  C   UNL A   1      39.604  34.317  30.746  1.00  0.00     0.004 A 
BRANCH   8  16
ATOM     16  C   UNL A   1      39.576  29.465  33.079  1.00  0.00     0.177 C 
BRANCH  16  17
ATOM     17  S   UNL A   1      38.081  28.517  32.593  1.00  0.00     0.156 S 
ATOM     18  O   UNL A   1      36.973  29.069  33.355  1.00  0.00    -0.228 OA
ATOM     19  O   UNL A   1      38.410  27.112  32.779  1.00  0.00    -0.228 OA
BRANCH  17  20
ATOM     20  C   UNL A   1      37.672  28.693  30.841  1.00  0.00     0.165 C 
BRANCH  20  21
ATOM     21  C   UNL A   1      36.688  29.793  30.492  1.00  0.00     0.176 C 
BRANCH  21  22
ATOM     22  O   UNL A   1      36.601  30.048  29.090  1.00  0.00    -0.384 OA
ATOM     23  C   UNL A   1      37.133  31.302  28.737  1.00  0.00     0.194 C 
ENDBRANCH  21  22
ENDBRANCH  20  21
ENDBRANCH  17  20
ENDBRANCH  16  17
ENDBRANCH   8  16
ENDBRANCH   5   7
ENDBRANCH   4   5
ENDBRANCH   3   4
ENDBRANCH   2   3
ENDBRANCH   1   2
BRANCH   1  24
ATOM     24  C   UNL A   1      38.331  33.314  41.200  1.00  0.00     0.188 C 
BRANCH  24  25
ATOM     25  C   UNL A   1      39.349  34.294  41.828  1.00  0.00     0.188 C 
BRANCH  25  26
ATOM     26  O   UNL A   1      38.991  35.665  41.942  1.00  0.00    -0.376 OA
BRANCH  26  27
ATOM     27  C   UNL A   1      40.008  36.584  42.327  1.00  0.00     0.202 C 
BRANCH  27  28
ATOM     28  C   UNL A   1      40.487  37.620  41.293  1.00  0.00     0.261 C 
BRANCH  28  29
ATOM     29  O   UNL A   1      41.019  37.065  40.072  1.00  0.00    -0.460 OA
BRANCH  29  30
ATOM     30  C   UNL A   1      40.178  37.097  38.996  1.00  0.00     0.338 C 
ATOM     31  O   UNL A   1      39.054  37.571  38.975  1.00  0.00    -0.246 OA
BRANCH  30  32
ATOM     32  C   UNL A   1      40.821  36.496  37.792  1.00  0.00     0.060 A 
ATOM     33  C   UNL A   1      40.018  36.048  36.760  1.00  0.00     0.016 A 
ATOM     34  C   UNL A   1      42.184  36.218  37.715  1.00  0.00     0.016 A 
ATOM     35  C   UNL A   1      40.539  35.374  35.650  1.00  0.00     0.010 A 
ATOM     36  C   UNL A   1      42.716  35.531  36.593  1.00  0.00     0.010 A 
ATOM     37  C   UNL A   1      41.891  35.084  35.542  1.00  0.00    -0.014 A 
BRANCH  37  38
ATOM     38  C   UNL A   1      42.332  34.127  34.470  1.00  0.00     0.031 A 
ATOM     39  C   UNL A   1      42.795  34.692  33.150  1.00  0.00     0.074 A 
ATOM     40  C   UNL A   1      42.526  32.800  34.664  1.00  0.00     0.049 A 
ATOM     41  N   UNL A   1      43.001  34.088  32.007  1.00  0.00    -0.248 NA
ATOM     42  C   UNL A   1      43.086  36.135  33.129  1.00  0.00     0.031 C 
ATOM     43  C   UNL A   1      42.391  32.085  35.933  1.00  0.00     0.029 A 
ATOM     44  N   UNL A   1      42.923  31.815  33.781  1.00  0.00    -0.354 N 
ATOM     45  C   UNL A   1      43.354  35.090  31.111  1.00  0.00     0.074 A 
ATOM     46  C   UNL A   1      43.371  36.334  31.851  1.00  0.00     0.031 C 
ATOM     47  C   UNL A   1      42.729  30.796  35.754  1.00  0.00     0.029 A 
ATOM     48  C   UNL A   1      42.988  30.556  34.338  1.00  0.00     0.049 A 
ATOM     49  H   UNL A   1      43.140  31.997  32.837  1.00  0.00     0.167 HD
ATOM     50  C   UNL A   1      43.617  34.987  29.788  1.00  0.00     0.031 A 
ATOM     51  C   UNL A   1      43.163  29.342  33.771  1.00  0.00     0.031 A 
ATOM     52  C   UNL A   1      43.665  33.747  29.060  1.00  0.00     0.049 A 
ATOM     53  C   UNL A   1      43.299  29.238  32.270  1.00  0.00     0.074 A 
ATOM     54  C   UNL A   1      43.840  33.550  27.701  1.00  0.00     0.029 A 
ATOM     55  N   UNL A   1      43.571  32.491  29.637  1.00  0.00    -0.354 N 
ATOM     56  N   UNL A   1      43.425  30.191  31.380  1.00  0.00    -0.248 NA
ATOM     57  C   UNL A   1      43.275  27.883  31.691  1.00  0.00     0.031 C 
ATOM     58  C   UNL A   1      43.797  32.175  27.448  1.00  0.00     0.029 A 
ATOM     59  C   UNL A   1      43.667  31.516  28.658  1.00  0.00     0.049 A 
ATOM     60  H   UNL A   1      43.455  32.319  30.598  1.00  0.00     0.167 HD
ATOM     61  C   UNL A   1      43.515  29.553  30.147  1.00  0.00     0.074 A 
ATOM     62  C   UNL A   1      43.457  28.130  30.401  1.00  0.00     0.031 C 
ATOM     63  C   UNL A   1      43.622  30.101  28.912  1.00  0.00     0.031 A 
BRANCH  50  64
ATOM     64  C   UNL A   1      43.762  36.265  29.013  1.00  0.00    -0.014 A 
ATOM     65  C   UNL A   1      45.008  36.852  28.755  1.00  0.00     0.009 A 
ATOM     66  C   UNL A   1      42.602  36.876  28.505  1.00  0.00     0.009 A 
ATOM     67  C   UNL A   1      45.085  38.043  28.028  1.00  0.00     0.001 A 
ATOM     68  C   UNL A   1      42.685  38.045  27.752  1.00  0.00     0.001 A 
ATOM     69  C   UNL A   1      43.926  38.634  27.521  1.00  0.00     0.000 A 
ENDBRANCH  50  64
BRANCH  51  70
ATOM     70  C   UNL A   1      43.078  28.090  34.586  1.00  0.00    -0.014 A 
ATOM     71  C   UNL A   1      41.852  27.436  34.798  1.00  0.00     0.009 A 
ATOM     72  C   UNL A   1      44.217  27.597  35.244  1.00  0.00     0.009 A 
ATOM     73  C   UNL A   1      41.766  26.348  35.674  1.00  0.00     0.001 A 
ATOM     74  C   UNL A   1      44.138  26.483  36.084  1.00  0.00     0.001 A 
ATOM     75  C   UNL A   1      42.910  25.869  36.311  1.00  0.00     0.000 A 
ENDBRANCH  51  70
BRANCH  63  76
ATOM     76  C   UNL A   1      43.737  29.167  27.738  1.00  0.00    -0.014 A 
ATOM     77  C   UNL A   1      44.975  28.643  27.335  1.00  0.00     0.009 A 
ATOM     78  C   UNL A   1      42.577  28.765  27.056  1.00  0.00     0.009 A 
ATOM     79  C   UNL A   1      45.053  27.764  26.251  1.00  0.00     0.001 A 
ATOM     80  C   UNL A   1      42.653  27.861  25.994  1.00  0.00     0.001 A 
ATOM     81  C   UNL A   1      43.892  27.369  25.587  1.00  0.00     0.000 A 
ENDBRANCH  63  76
ENDBRANCH  37  38
ENDBRANCH  30  32
ENDBRANCH  29  30
ENDBRANCH  28  29
ENDBRANCH  27  28
ENDBRANCH  26  27
ENDBRANCH  25  26
ENDBRANCH  24  25
ENDBRANCH   1  24
TORSDOF 22
ENDMDL
