MODEL 1
REMARK VINA RESULT:     -10.2      0.000      0.000
REMARK SMILES C[C@@H]1[C@@H](C(=O)OCCOCCOCCOC(=O)c2ccc(-c3c4nc(c(-c5ccccc5)c5ccc([nH]5)c(-c5ccccc5)c5nc(c(-c6ccccc6)c6ccc3[nH]6)C=C5)C=C4)cc2)CCN1C(=O)CC[C@@H]1CCCC[NH2+]1
REMARK SMILES IDX 10 1 9 2 8 3 7 4 6 5 4 6 5 7 3 8 1 9 2 10 68 11 66 12 67 13
REMARK SMILES IDX 69 14 70 15 71 16 72 17 73 18 74 19 78 20 75 21 77 22 76 25
REMARK SMILES IDX 11 26 12 27 13 28 14 29 15 30 16 31 17 32 18 33 19 34 65 35
REMARK SMILES IDX 20 36 64 37 21 38 22 39 23 40 58 41 24 42 63 43 57 44 59 45
REMARK SMILES IDX 25 46 62 47 56 48 55 49 26 51 48 52 33 53 47 54 34 55 37 56
REMARK SMILES IDX 46 57 60 58 35 59 36 60 45 62 61 63 38 64 27 65 28 66 32 67
REMARK SMILES IDX 29 68 31 69 30 70 49 71 50 72 54 73 51 74 53 75 52 76 39 77
REMARK SMILES IDX 40 78 44 79 41 80 43 81 42 82
REMARK H PARENT 78 23 78 24 59 50 37 61
REMARK Flexibility Score: inf
ROOT
ATOM      1  C   UNL A   1      34.454  31.866  28.387  1.00  0.00     0.188 C 
ENDROOT
BRANCH   1   2
ATOM      2  O   UNL A   1      33.374  31.738  27.483  1.00  0.00    -0.376 OA
BRANCH   2   3
ATOM      3  C   UNL A   1      32.899  30.433  27.198  1.00  0.00     0.202 C 
BRANCH   3   4
ATOM      4  C   UNL A   1      33.978  29.350  27.278  1.00  0.00     0.261 C 
BRANCH   4   5
ATOM      5  O   UNL A   1      34.507  28.971  25.992  1.00  0.00    -0.463 OA
BRANCH   5   6
ATOM      6  C   UNL A   1      33.590  28.594  25.061  1.00  0.00     0.311 C 
ATOM      7  O   UNL A   1      32.913  29.379  24.410  1.00  0.00    -0.252 OA
BRANCH   6   8
ATOM      8  C   UNL A   1      33.584  27.075  24.906  1.00  0.00     0.123 C 
ATOM      9  C   UNL A   1      32.937  25.367  23.123  1.00  0.00     0.032 C 
ATOM     10  C   UNL A   1      32.556  26.658  23.842  1.00  0.00     0.096 C 
ATOM     11  N   UNL A   1      31.287  26.553  24.571  1.00  0.00    -0.339 N 
ATOM     12  C   UNL A   1      33.063  26.397  26.156  1.00  0.00     0.039 C 
ATOM     13  C   UNL A   1      31.549  26.527  26.008  1.00  0.00     0.121 C 
BRANCH  11  14
ATOM     14  C   UNL A   1      29.990  26.810  24.143  1.00  0.00     0.223 C 
ATOM     15  O   UNL A   1      29.053  26.105  24.535  1.00  0.00    -0.275 OA
BRANCH  14  16
ATOM     16  C   UNL A   1      29.695  27.881  23.090  1.00  0.00     0.106 C 
BRANCH  16  17
ATOM     17  C   UNL A   1      28.345  28.612  23.207  1.00  0.00     0.075 C 
BRANCH  17  18
ATOM     18  C   UNL A   1      28.443  30.003  22.590  1.00  0.00     0.182 C 
ATOM     19  C   UNL A   1      28.021  31.125  23.539  1.00  0.00     0.065 C 
ATOM     20  N   UNL A   1      27.832  30.195  21.275  1.00  0.00    -0.344 N 
ATOM     21  C   UNL A   1      28.385  32.489  22.959  1.00  0.00     0.012 C 
ATOM     22  C   UNL A   1      28.430  31.407  20.697  1.00  0.00     0.260 C 
ATOM     23  H   UNL A   1      26.823  30.314  21.371  1.00  0.00     0.346 HD
ATOM     24  H   UNL A   1      27.994  29.386  20.675  1.00  0.00     0.346 HD
ATOM     25  C   UNL A   1      27.986  32.631  21.498  1.00  0.00     0.062 C 
ENDBRANCH  17  18
ENDBRANCH  16  17
ENDBRANCH  14  16
ENDBRANCH  11  14
ENDBRANCH   6   8
ENDBRANCH   5   6
ENDBRANCH   4   5
ENDBRANCH   3   4
ENDBRANCH   2   3
ENDBRANCH   1   2
BRANCH   1  26
ATOM     26  C   UNL A   1      34.559  33.255  29.038  1.00  0.00     0.188 C 
BRANCH  26  27
ATOM     27  O   UNL A   1      33.864  33.550  30.241  1.00  0.00    -0.376 OA
BRANCH  27  28
ATOM     28  C   UNL A   1      34.531  34.214  31.303  1.00  0.00     0.202 C 
BRANCH  28  29
ATOM     29  C   UNL A   1      34.568  33.529  32.675  1.00  0.00     0.261 C 
BRANCH  29  30
ATOM     30  O   UNL A   1      35.037  32.165  32.700  1.00  0.00    -0.460 OA
BRANCH  30  31
ATOM     31  C   UNL A   1      36.268  31.981  33.240  1.00  0.00     0.338 C 
ATOM     32  O   UNL A   1      36.625  32.283  34.365  1.00  0.00    -0.246 OA
BRANCH  31  33
ATOM     33  C   UNL A   1      37.167  31.258  32.306  1.00  0.00     0.060 A 
ATOM     34  C   UNL A   1      38.137  30.405  32.845  1.00  0.00     0.016 A 
ATOM     35  C   UNL A   1      37.159  31.514  30.931  1.00  0.00     0.016 A 
ATOM     36  C   UNL A   1      39.115  29.838  32.016  1.00  0.00     0.010 A 
ATOM     37  C   UNL A   1      38.150  30.953  30.104  1.00  0.00     0.010 A 
ATOM     38  C   UNL A   1      39.152  30.128  30.639  1.00  0.00    -0.014 A 
BRANCH  38  39
ATOM     39  C   UNL A   1      40.328  29.694  29.823  1.00  0.00     0.031 A 
ATOM     40  C   UNL A   1      41.493  30.631  29.681  1.00  0.00     0.074 A 
ATOM     41  C   UNL A   1      40.405  28.486  29.231  1.00  0.00     0.049 A 
ATOM     42  N   UNL A   1      42.624  30.448  29.051  1.00  0.00    -0.248 NA
ATOM     43  C   UNL A   1      41.338  31.966  30.280  1.00  0.00     0.031 C 
ATOM     44  C   UNL A   1      39.330  27.513  29.190  1.00  0.00     0.029 A 
ATOM     45  N   UNL A   1      41.444  27.841  28.598  1.00  0.00    -0.354 N 
ATOM     46  C   UNL A   1      43.296  31.658  29.131  1.00  0.00     0.074 A 
ATOM     47  C   UNL A   1      42.457  32.560  29.891  1.00  0.00     0.031 C 
ATOM     48  C   UNL A   1      39.804  26.334  28.756  1.00  0.00     0.029 A 
ATOM     49  C   UNL A   1      41.181  26.516  28.316  1.00  0.00     0.049 A 
ATOM     50  H   UNL A   1      42.293  28.284  28.368  1.00  0.00     0.167 HD
ATOM     51  C   UNL A   1      44.487  32.001  28.584  1.00  0.00     0.031 A 
ATOM     52  C   UNL A   1      41.943  25.566  27.737  1.00  0.00     0.031 A 
ATOM     53  C   UNL A   1      45.303  31.126  27.784  1.00  0.00     0.049 A 
ATOM     54  C   UNL A   1      43.270  25.970  27.153  1.00  0.00     0.074 A 
ATOM     55  C   UNL A   1      46.511  31.402  27.167  1.00  0.00     0.029 A 
ATOM     56  N   UNL A   1      44.991  29.809  27.480  1.00  0.00    -0.354 N 
ATOM     57  N   UNL A   1      43.893  27.120  27.236  1.00  0.00    -0.248 NA
ATOM     58  C   UNL A   1      43.971  24.964  26.340  1.00  0.00     0.031 C 
ATOM     59  C   UNL A   1      46.908  30.268  26.452  1.00  0.00     0.029 A 
ATOM     60  C   UNL A   1      45.980  29.265  26.677  1.00  0.00     0.049 A 
ATOM     61  H   UNL A   1      44.187  29.332  27.789  1.00  0.00     0.167 HD
ATOM     62  C   UNL A   1      45.048  26.981  26.476  1.00  0.00     0.074 A 
ATOM     63  C   UNL A   1      45.066  25.620  25.981  1.00  0.00     0.031 C 
ATOM     64  C   UNL A   1      45.992  27.909  26.191  1.00  0.00     0.031 A 
BRANCH  51  65
ATOM     65  C   UNL A   1      44.938  33.419  28.781  1.00  0.00    -0.014 A 
ATOM     66  C   UNL A   1      44.583  34.431  27.876  1.00  0.00     0.009 A 
ATOM     67  C   UNL A   1      45.727  33.747  29.895  1.00  0.00     0.009 A 
ATOM     68  C   UNL A   1      45.039  35.736  28.064  1.00  0.00     0.001 A 
ATOM     69  C   UNL A   1      46.156  35.058  30.097  1.00  0.00     0.001 A 
ATOM     70  C   UNL A   1      45.822  36.049  29.176  1.00  0.00     0.000 A 
ENDBRANCH  51  65
BRANCH  52  71
ATOM     71  C   UNL A   1      41.462  24.160  27.583  1.00  0.00    -0.014 A 
ATOM     72  C   UNL A   1      40.418  23.857  26.692  1.00  0.00     0.009 A 
ATOM     73  C   UNL A   1      41.993  23.122  28.364  1.00  0.00     0.009 A 
ATOM     74  C   UNL A   1      39.905  22.558  26.605  1.00  0.00     0.001 A 
ATOM     75  C   UNL A   1      41.510  21.816  28.244  1.00  0.00     0.001 A 
ATOM     76  C   UNL A   1      40.458  21.536  27.375  1.00  0.00     0.000 A 
ENDBRANCH  52  71
BRANCH  64  77
ATOM     77  C   UNL A   1      47.148  27.472  25.335  1.00  0.00    -0.014 A 
ATOM     78  C   UNL A   1      48.208  26.719  25.863  1.00  0.00     0.009 A 
ATOM     79  C   UNL A   1      47.157  27.792  23.968  1.00  0.00     0.009 A 
ATOM     80  C   UNL A   1      49.270  26.323  25.046  1.00  0.00     0.001 A 
ATOM     81  C   UNL A   1      48.203  27.371  23.148  1.00  0.00     0.001 A 
ATOM     82  C   UNL A   1      49.263  26.645  23.688  1.00  0.00     0.000 A 
ENDBRANCH  64  77
ENDBRANCH  38  39
ENDBRANCH  31  33
ENDBRANCH  30  31
ENDBRANCH  29  30
ENDBRANCH  28  29
ENDBRANCH  27  28
ENDBRANCH  26  27
ENDBRANCH   1  26
TORSDOF 21
ENDMDL
MODEL 2
REMARK VINA RESULT:     -10.1      4.470      9.784
REMARK SMILES C[C@@H]1[C@@H](C(=O)OCCOCCOCCOC(=O)c2ccc(-c3c4nc(c(-c5ccccc5)c5ccc([nH]5)c(-c5ccccc5)c5nc(c(-c6ccccc6)c6ccc3[nH]6)C=C5)C=C4)cc2)CCN1C(=O)CC[C@@H]1CCCC[NH2+]1
REMARK SMILES IDX 10 1 9 2 8 3 7 4 6 5 4 6 5 7 3 8 1 9 2 10 68 11 66 12 67 13
REMARK SMILES IDX 69 14 70 15 71 16 72 17 73 18 74 19 78 20 75 21 77 22 76 25
REMARK SMILES IDX 11 26 12 27 13 28 14 29 15 30 16 31 17 32 18 33 19 34 65 35
REMARK SMILES IDX 20 36 64 37 21 38 22 39 23 40 58 41 24 42 63 43 57 44 59 45
REMARK SMILES IDX 25 46 62 47 56 48 55 49 26 51 48 52 33 53 47 54 34 55 37 56
REMARK SMILES IDX 46 57 60 58 35 59 36 60 45 62 61 63 38 64 27 65 28 66 32 67
REMARK SMILES IDX 29 68 31 69 30 70 49 71 50 72 54 73 51 74 53 75 52 76 39 77
REMARK SMILES IDX 40 78 44 79 41 80 43 81 42 82
REMARK H PARENT 78 23 78 24 59 50 37 61
REMARK Flexibility Score: inf
ROOT
ATOM      1  C   UNL A   1      41.277  20.370  26.898  1.00  0.00     0.188 C 
ENDROOT
BRANCH   1   2
ATOM      2  O   UNL A   1      40.254  20.944  26.108  1.00  0.00    -0.376 OA
BRANCH   2   3
ATOM      3  C   UNL A   1      39.440  21.941  26.701  1.00  0.00     0.202 C 
BRANCH   3   4
ATOM      4  C   UNL A   1      38.443  22.584  25.734  1.00  0.00     0.261 C 
BRANCH   4   5
ATOM      5  O   UNL A   1      37.312  21.743  25.433  1.00  0.00    -0.463 OA
BRANCH   5   6
ATOM      6  C   UNL A   1      36.441  22.229  24.510  1.00  0.00     0.311 C 
ATOM      7  O   UNL A   1      36.750  23.013  23.622  1.00  0.00    -0.252 OA
BRANCH   6   8
ATOM      8  C   UNL A   1      35.060  21.606  24.703  1.00  0.00     0.123 C 
ATOM      9  C   UNL A   1      32.724  21.855  23.703  1.00  0.00     0.032 C 
ATOM     10  C   UNL A   1      33.972  22.574  24.211  1.00  0.00     0.096 C 
ATOM     11  N   UNL A   1      33.700  23.445  25.361  1.00  0.00    -0.339 N 
ATOM     12  C   UNL A   1      34.728  21.451  26.173  1.00  0.00     0.039 C 
ATOM     13  C   UNL A   1      34.270  22.853  26.568  1.00  0.00     0.121 C 
BRANCH  11  14
ATOM     14  C   UNL A   1      33.329  24.784  25.396  1.00  0.00     0.223 C 
ATOM     15  O   UNL A   1      34.067  25.648  24.907  1.00  0.00    -0.275 OA
BRANCH  14  16
ATOM     16  C   UNL A   1      32.072  25.244  26.139  1.00  0.00     0.106 C 
BRANCH  16  17
ATOM     17  C   UNL A   1      31.919  26.761  26.362  1.00  0.00     0.075 C 
BRANCH  17  18
ATOM     18  C   UNL A   1      31.264  27.408  25.147  1.00  0.00     0.182 C 
ATOM     19  C   UNL A   1      30.141  26.569  24.536  1.00  0.00     0.065 C 
ATOM     20  N   UNL A   1      32.153  27.906  24.096  1.00  0.00    -0.344 N 
ATOM     21  C   UNL A   1      29.365  27.377  23.499  1.00  0.00     0.012 C 
ATOM     22  C   UNL A   1      31.375  28.863  23.295  1.00  0.00     0.260 C 
ATOM     23  H   UNL A   1      32.469  27.133  23.509  1.00  0.00     0.346 HD
ATOM     24  H   UNL A   1      32.978  28.351  24.496  1.00  0.00     0.346 HD
ATOM     25  C   UNL A   1      30.275  28.122  22.535  1.00  0.00     0.062 C 
ENDBRANCH  17  18
ENDBRANCH  16  17
ENDBRANCH  14  16
ENDBRANCH  11  14
ENDBRANCH   6   8
ENDBRANCH   5   6
ENDBRANCH   4   5
ENDBRANCH   3   4
ENDBRANCH   2   3
ENDBRANCH   1   2
BRANCH   1  26
ATOM     26  C   UNL A   1      42.024  19.217  26.206  1.00  0.00     0.188 C 
BRANCH  26  27
ATOM     27  O   UNL A   1      42.737  19.433  24.998  1.00  0.00    -0.376 OA
BRANCH  27  28
ATOM     28  C   UNL A   1      44.146  19.600  25.023  1.00  0.00     0.202 C 
BRANCH  28  29
ATOM     29  C   UNL A   1      44.709  21.022  24.899  1.00  0.00     0.261 C 
BRANCH  29  30
ATOM     30  O   UNL A   1      43.743  22.085  24.763  1.00  0.00    -0.460 OA
BRANCH  30  31
ATOM     31  C   UNL A   1      44.244  23.343  24.858  1.00  0.00     0.338 C 
ATOM     32  O   UNL A   1      45.191  23.801  24.243  1.00  0.00    -0.246 OA
BRANCH  31  33
ATOM     33  C   UNL A   1      43.430  24.183  25.772  1.00  0.00     0.060 A 
ATOM     34  C   UNL A   1      43.609  25.571  25.734  1.00  0.00     0.016 A 
ATOM     35  C   UNL A   1      42.606  23.619  26.751  1.00  0.00     0.016 A 
ATOM     36  C   UNL A   1      42.993  26.387  26.693  1.00  0.00     0.010 A 
ATOM     37  C   UNL A   1      41.998  24.439  27.720  1.00  0.00     0.010 A 
ATOM     38  C   UNL A   1      42.203  25.829  27.716  1.00  0.00    -0.014 A 
BRANCH  38  39
ATOM     39  C   UNL A   1      41.743  26.691  28.848  1.00  0.00     0.031 A 
ATOM     40  C   UNL A   1      42.623  26.824  30.057  1.00  0.00     0.074 A 
ATOM     41  C   UNL A   1      40.585  27.380  28.824  1.00  0.00     0.049 A 
ATOM     42  N   UNL A   1      42.439  27.541  31.135  1.00  0.00    -0.248 NA
ATOM     43  C   UNL A   1      43.841  25.998  30.076  1.00  0.00     0.031 C 
ATOM     44  C   UNL A   1      39.583  27.281  27.779  1.00  0.00     0.029 A 
ATOM     45  N   UNL A   1      40.074  28.342  29.666  1.00  0.00    -0.354 N 
ATOM     46  C   UNL A   1      43.486  27.217  31.984  1.00  0.00     0.074 A 
ATOM     47  C   UNL A   1      44.316  26.257  31.286  1.00  0.00     0.031 C 
ATOM     48  C   UNL A   1      38.685  28.268  27.919  1.00  0.00     0.029 A 
ATOM     49  C   UNL A   1      38.947  28.966  29.172  1.00  0.00     0.049 A 
ATOM     50  H   UNL A   1      40.475  28.563  30.538  1.00  0.00     0.167 HD
ATOM     51  C   UNL A   1      43.715  27.647  33.247  1.00  0.00     0.031 A 
ATOM     52  C   UNL A   1      38.187  29.957  29.682  1.00  0.00     0.031 A 
ATOM     53  C   UNL A   1      42.867  28.562  33.966  1.00  0.00     0.049 A 
ATOM     54  C   UNL A   1      38.474  30.429  31.082  1.00  0.00     0.074 A 
ATOM     55  C   UNL A   1      43.009  29.029  35.262  1.00  0.00     0.029 A 
ATOM     56  N   UNL A   1      41.713  29.140  33.458  1.00  0.00    -0.354 N 
ATOM     57  N   UNL A   1      39.469  30.113  31.873  1.00  0.00    -0.248 NA
ATOM     58  C   UNL A   1      37.495  31.348  31.685  1.00  0.00     0.031 C 
ATOM     59  C   UNL A   1      41.918  29.853  35.554  1.00  0.00     0.029 A 
ATOM     60  C   UNL A   1      41.131  29.951  34.419  1.00  0.00     0.049 A 
ATOM     61  H   UNL A   1      41.361  28.996  32.551  1.00  0.00     0.167 HD
ATOM     62  C   UNL A   1      39.229  30.779  33.068  1.00  0.00     0.074 A 
ATOM     63  C   UNL A   1      38.023  31.558  32.883  1.00  0.00     0.031 C 
ATOM     64  C   UNL A   1      39.932  30.725  34.225  1.00  0.00     0.031 A 
BRANCH  51  65
ATOM     65  C   UNL A   1      44.904  27.067  33.955  1.00  0.00    -0.014 A 
ATOM     66  C   UNL A   1      44.805  25.879  34.697  1.00  0.00     0.009 A 
ATOM     67  C   UNL A   1      46.145  27.717  33.873  1.00  0.00     0.009 A 
ATOM     68  C   UNL A   1      45.917  25.374  35.371  1.00  0.00     0.001 A 
ATOM     69  C   UNL A   1      47.263  27.193  34.522  1.00  0.00     0.001 A 
ATOM     70  C   UNL A   1      47.146  26.029  35.279  1.00  0.00     0.000 A 
ENDBRANCH  51  65
BRANCH  52  71
ATOM     71  C   UNL A   1      37.026  30.521  28.931  1.00  0.00    -0.014 A 
ATOM     72  C   UNL A   1      36.970  31.893  28.628  1.00  0.00     0.009 A 
ATOM     73  C   UNL A   1      35.939  29.714  28.562  1.00  0.00     0.009 A 
ATOM     74  C   UNL A   1      35.847  32.442  28.001  1.00  0.00     0.001 A 
ATOM     75  C   UNL A   1      34.838  30.256  27.894  1.00  0.00     0.001 A 
ATOM     76  C   UNL A   1      34.786  31.622  27.625  1.00  0.00     0.000 A 
ENDBRANCH  52  71
BRANCH  64  77
ATOM     77  C   UNL A   1      39.436  31.564  35.370  1.00  0.00    -0.014 A 
ATOM     78  C   UNL A   1      39.880  32.882  35.559  1.00  0.00     0.009 A 
ATOM     79  C   UNL A   1      38.482  31.034  36.253  1.00  0.00     0.009 A 
ATOM     80  C   UNL A   1      39.402  33.642  36.630  1.00  0.00     0.001 A 
ATOM     81  C   UNL A   1      37.985  31.804  37.305  1.00  0.00     0.001 A 
ATOM     82  C   UNL A   1      38.451  33.104  37.498  1.00  0.00     0.000 A 
ENDBRANCH  64  77
ENDBRANCH  38  39
ENDBRANCH  31  33
ENDBRANCH  30  31
ENDBRANCH  29  30
ENDBRANCH  28  29
ENDBRANCH  27  28
ENDBRANCH  26  27
ENDBRANCH   1  26
TORSDOF 21
ENDMDL
MODEL 3
REMARK VINA RESULT:     -10.1      1.002      5.936
REMARK SMILES C[C@@H]1[C@@H](C(=O)OCCOCCOCCOC(=O)c2ccc(-c3c4nc(c(-c5ccccc5)c5ccc([nH]5)c(-c5ccccc5)c5nc(c(-c6ccccc6)c6ccc3[nH]6)C=C5)C=C4)cc2)CCN1C(=O)CC[C@@H]1CCCC[NH2+]1
REMARK SMILES IDX 10 1 9 2 8 3 7 4 6 5 4 6 5 7 3 8 1 9 2 10 68 11 66 12 67 13
REMARK SMILES IDX 69 14 70 15 71 16 72 17 73 18 74 19 78 20 75 21 77 22 76 25
REMARK SMILES IDX 11 26 12 27 13 28 14 29 15 30 16 31 17 32 18 33 19 34 65 35
REMARK SMILES IDX 20 36 64 37 21 38 22 39 23 40 58 41 24 42 63 43 57 44 59 45
REMARK SMILES IDX 25 46 62 47 56 48 55 49 26 51 48 52 33 53 47 54 34 55 37 56
REMARK SMILES IDX 46 57 60 58 35 59 36 60 45 62 61 63 38 64 27 65 28 66 32 67
REMARK SMILES IDX 29 68 31 69 30 70 49 71 50 72 54 73 51 74 53 75 52 76 39 77
REMARK SMILES IDX 40 78 44 79 41 80 43 81 42 82
REMARK H PARENT 78 23 78 24 59 50 37 61
REMARK Flexibility Score: inf
ROOT
ATOM      1  C   UNL A   1      34.605  33.754  28.136  1.00  0.00     0.188 C 
ENDROOT
BRANCH   1   2
ATOM      2  O   UNL A   1      35.330  32.660  27.608  1.00  0.00    -0.376 OA
BRANCH   2   3
ATOM      3  C   UNL A   1      34.865  31.354  27.903  1.00  0.00     0.202 C 
BRANCH   3   4
ATOM      4  C   UNL A   1      33.386  31.134  27.576  1.00  0.00     0.261 C 
BRANCH   4   5
ATOM      5  O   UNL A   1      33.131  30.946  26.170  1.00  0.00    -0.463 OA
BRANCH   5   6
ATOM      6  C   UNL A   1      32.618  29.738  25.817  1.00  0.00     0.311 C 
ATOM      7  O   UNL A   1      31.442  29.426  25.954  1.00  0.00    -0.252 OA
BRANCH   6   8
ATOM      8  C   UNL A   1      33.697  28.871  25.172  1.00  0.00     0.123 C 
ATOM      9  C   UNL A   1      34.555  28.372  22.820  1.00  0.00     0.032 C 
ATOM     10  C   UNL A   1      33.331  28.576  23.708  1.00  0.00     0.096 C 
ATOM     11  N   UNL A   1      32.467  27.391  23.772  1.00  0.00    -0.339 N 
ATOM     12  C   UNL A   1      33.734  27.489  25.790  1.00  0.00     0.039 C 
ATOM     13  C   UNL A   1      32.584  26.770  25.089  1.00  0.00     0.121 C 
BRANCH  11  14
ATOM     14  C   UNL A   1      31.397  27.024  22.964  1.00  0.00     0.223 C 
ATOM     15  O   UNL A   1      31.297  25.864  22.550  1.00  0.00    -0.275 OA
BRANCH  14  16
ATOM     16  C   UNL A   1      30.385  28.059  22.463  1.00  0.00     0.106 C 
BRANCH  16  17
ATOM     17  C   UNL A   1      29.382  28.601  23.499  1.00  0.00     0.075 C 
BRANCH  17  18
ATOM     18  C   UNL A   1      28.900  29.988  23.089  1.00  0.00     0.182 C 
ATOM     19  C   UNL A   1      28.742  30.160  21.578  1.00  0.00     0.065 C 
ATOM     20  N   UNL A   1      29.606  31.136  23.658  1.00  0.00    -0.344 N 
ATOM     21  C   UNL A   1      28.018  31.465  21.255  1.00  0.00     0.012 C 
ATOM     22  C   UNL A   1      28.719  32.300  23.513  1.00  0.00     0.260 C 
ATOM     23  H   UNL A   1      30.479  31.295  23.154  1.00  0.00     0.346 HD
ATOM     24  H   UNL A   1      29.837  30.973  24.638  1.00  0.00     0.346 HD
ATOM     25  C   UNL A   1      28.569  32.650  22.033  1.00  0.00     0.062 C 
ENDBRANCH  17  18
ENDBRANCH  16  17
ENDBRANCH  14  16
ENDBRANCH  11  14
ENDBRANCH   6   8
ENDBRANCH   5   6
ENDBRANCH   4   5
ENDBRANCH   3   4
ENDBRANCH   2   3
ENDBRANCH   1   2
BRANCH   1  26
ATOM     26  C   UNL A   1      34.896  34.036  29.619  1.00  0.00     0.188 C 
BRANCH  26  27
ATOM     27  O   UNL A   1      33.901  33.827  30.609  1.00  0.00    -0.376 OA
BRANCH  27  28
ATOM     28  C   UNL A   1      34.024  34.441  31.882  1.00  0.00     0.202 C 
BRANCH  28  29
ATOM     29  C   UNL A   1      34.571  33.600  33.043  1.00  0.00     0.261 C 
BRANCH  29  30
ATOM     30  O   UNL A   1      35.146  32.323  32.695  1.00  0.00    -0.460 OA
BRANCH  30  31
ATOM     31  C   UNL A   1      36.340  32.044  33.277  1.00  0.00     0.338 C 
ATOM     32  O   UNL A   1      36.651  32.242  34.438  1.00  0.00    -0.246 OA
BRANCH  31  33
ATOM     33  C   UNL A   1      37.255  31.357  32.331  1.00  0.00     0.060 A 
ATOM     34  C   UNL A   1      38.253  30.528  32.858  1.00  0.00     0.016 A 
ATOM     35  C   UNL A   1      37.233  31.625  30.959  1.00  0.00     0.016 A 
ATOM     36  C   UNL A   1      39.243  29.998  32.019  1.00  0.00     0.010 A 
ATOM     37  C   UNL A   1      38.236  31.102  30.122  1.00  0.00     0.010 A 
ATOM     38  C   UNL A   1      39.264  30.302  30.645  1.00  0.00    -0.014 A 
BRANCH  38  39
ATOM     39  C   UNL A   1      40.449  29.910  29.819  1.00  0.00     0.031 A 
ATOM     40  C   UNL A   1      40.400  28.620  29.053  1.00  0.00     0.074 A 
ATOM     41  C   UNL A   1      41.552  30.676  29.708  1.00  0.00     0.049 A 
ATOM     42  N   UNL A   1      41.296  28.103  28.252  1.00  0.00    -0.248 NA
ATOM     43  C   UNL A   1      39.211  27.778  29.261  1.00  0.00     0.031 C 
ATOM     44  C   UNL A   1      41.795  31.894  30.459  1.00  0.00     0.029 A 
ATOM     45  N   UNL A   1      42.651  30.584  28.884  1.00  0.00    -0.354 N 
ATOM     46  C   UNL A   1      40.806  26.855  27.900  1.00  0.00     0.074 A 
ATOM     47  C   UNL A   1      39.524  26.702  28.555  1.00  0.00     0.031 C 
ATOM     48  C   UNL A   1      42.848  32.543  29.937  1.00  0.00     0.029 A 
ATOM     49  C   UNL A   1      43.467  31.696  28.926  1.00  0.00     0.049 A 
ATOM     50  H   UNL A   1      42.838  29.799  28.321  1.00  0.00     0.167 HD
ATOM     51  C   UNL A   1      41.391  25.904  27.134  1.00  0.00     0.031 A 
ATOM     52  C   UNL A   1      44.602  31.988  28.258  1.00  0.00     0.031 A 
ATOM     53  C   UNL A   1      42.688  26.028  26.523  1.00  0.00     0.049 A 
ATOM     54  C   UNL A   1      45.222  30.918  27.399  1.00  0.00     0.074 A 
ATOM     55  C   UNL A   1      43.369  25.099  25.753  1.00  0.00     0.029 A 
ATOM     56  N   UNL A   1      43.506  27.143  26.618  1.00  0.00    -0.354 N 
ATOM     57  N   UNL A   1      44.747  29.741  27.076  1.00  0.00    -0.248 NA
ATOM     58  C   UNL A   1      46.565  31.192  26.866  1.00  0.00     0.031 C 
ATOM     59  C   UNL A   1      44.617  25.635  25.422  1.00  0.00     0.029 A 
ATOM     60  C   UNL A   1      44.688  26.921  25.929  1.00  0.00     0.049 A 
ATOM     61  H   UNL A   1      43.281  27.970  27.103  1.00  0.00     0.167 HD
ATOM     62  C   UNL A   1      45.736  29.130  26.315  1.00  0.00     0.074 A 
ATOM     63  C   UNL A   1      46.816  30.084  26.182  1.00  0.00     0.031 C 
ATOM     64  C   UNL A   1      45.757  27.878  25.799  1.00  0.00     0.031 A 
BRANCH  51  65
ATOM     65  C   UNL A   1      40.648  24.608  26.979  1.00  0.00    -0.014 A 
ATOM     66  C   UNL A   1      41.123  23.421  27.557  1.00  0.00     0.009 A 
ATOM     67  C   UNL A   1      39.450  24.579  26.248  1.00  0.00     0.009 A 
ATOM     68  C   UNL A   1      40.430  22.223  27.375  1.00  0.00     0.001 A 
ATOM     69  C   UNL A   1      38.744  23.386  26.093  1.00  0.00     0.001 A 
ATOM     70  C   UNL A   1      39.240  22.208  26.647  1.00  0.00     0.000 A 
ENDBRANCH  51  65
BRANCH  52  71
ATOM     71  C   UNL A   1      45.295  33.300  28.425  1.00  0.00    -0.014 A 
ATOM     72  C   UNL A   1      46.340  33.443  29.356  1.00  0.00     0.009 A 
ATOM     73  C   UNL A   1      44.886  34.434  27.707  1.00  0.00     0.009 A 
ATOM     74  C   UNL A   1      46.935  34.689  29.578  1.00  0.00     0.001 A 
ATOM     75  C   UNL A   1      45.512  35.668  27.897  1.00  0.00     0.001 A 
ATOM     76  C   UNL A   1      46.527  35.799  28.842  1.00  0.00     0.000 A 
ENDBRANCH  52  71
BRANCH  64  77
ATOM     77  C   UNL A   1      46.972  27.481  25.008  1.00  0.00    -0.014 A 
ATOM     78  C   UNL A   1      47.109  27.825  23.654  1.00  0.00     0.009 A 
ATOM     79  C   UNL A   1      48.011  26.780  25.639  1.00  0.00     0.009 A 
ATOM     80  C   UNL A   1      48.249  27.446  22.941  1.00  0.00     0.001 A 
ATOM     81  C   UNL A   1      49.161  26.428  24.933  1.00  0.00     0.001 A 
ATOM     82  C   UNL A   1      49.275  26.753  23.583  1.00  0.00     0.000 A 
ENDBRANCH  64  77
ENDBRANCH  38  39
ENDBRANCH  31  33
ENDBRANCH  30  31
ENDBRANCH  29  30
ENDBRANCH  28  29
ENDBRANCH  27  28
ENDBRANCH  26  27
ENDBRANCH   1  26
TORSDOF 21
ENDMDL
