MODEL 1
REMARK VINA RESULT:     -10.4      0.000      0.000
REMARK SMILES O=C(OCCOCCOCCOC(=O)[C@@H]1CCCN(c2ccc3cc(S(=O)(=O)N4CCCCC4)ccc3n2)C1)c1ccc(-c2c3nc(c(-c4ccccc4)c4ccc([nH]4)c(-c4ccccc4)c4nc(c(-c5ccccc5)c5ccc2[nH]5)C=C4)C=C3)cc1
REMARK SMILES IDX 8 1 7 2 6 3 5 4 4 5 3 6 2 7 1 8 40 9 41 10 87 11 42 12 86 13
REMARK SMILES IDX 43 14 44 15 45 16 80 17 46 18 85 19 79 20 81 21 47 22 84 23
REMARK SMILES IDX 78 24 77 25 48 27 70 28 55 29 69 30 56 31 59 32 68 33 82 34
REMARK SMILES IDX 57 35 58 36 67 38 83 39 60 40 49 41 50 42 54 43 51 44 53 45
REMARK SMILES IDX 52 46 71 47 72 48 76 49 73 50 75 51 74 52 61 53 62 54 66 55
REMARK SMILES IDX 63 56 65 57 64 58 9 59 10 60 11 61 12 62 13 63 14 64 15 65
REMARK SMILES IDX 16 66 39 67 17 68 19 69 18 70 20 71 21 72 38 73 22 74 37 75
REMARK SMILES IDX 23 76 36 77 24 78 35 79 25 80 26 81 27 82 28 83 29 84 30 85
REMARK SMILES IDX 34 86 31 87 33 88 32 89
REMARK H PARENT 81 26 59 37
REMARK Flexibility Score: inf
ROOT
ATOM      1  C   UNL A   1      38.043  23.660  26.040  1.00  0.00     0.188 C 
ENDROOT
BRANCH   1   2
ATOM      2  C   UNL A   1      38.158  22.158  25.786  1.00  0.00     0.188 C 
BRANCH   2   3
ATOM      3  O   UNL A   1      39.448  21.643  26.125  1.00  0.00    -0.376 OA
BRANCH   3   4
ATOM      4  C   UNL A   1      39.667  20.277  25.758  1.00  0.00     0.202 C 
BRANCH   4   5
ATOM      5  C   UNL A   1      40.811  19.543  26.478  1.00  0.00     0.261 C 
BRANCH   5   6
ATOM      6  O   UNL A   1      41.942  19.223  25.649  1.00  0.00    -0.460 OA
BRANCH   6   7
ATOM      7  C   UNL A   1      43.028  19.975  25.354  1.00  0.00     0.338 C 
ATOM      8  O   UNL A   1      43.919  19.488  24.660  1.00  0.00    -0.246 OA
BRANCH   7   9
ATOM      9  C   UNL A   1      43.213  21.374  25.832  1.00  0.00     0.060 A 
ATOM     10  C   UNL A   1      43.206  22.495  25.006  1.00  0.00     0.016 A 
ATOM     11  C   UNL A   1      43.273  21.578  27.220  1.00  0.00     0.016 A 
ATOM     12  C   UNL A   1      43.351  23.776  25.517  1.00  0.00     0.010 A 
ATOM     13  C   UNL A   1      43.357  22.869  27.751  1.00  0.00     0.010 A 
ATOM     14  C   UNL A   1      43.418  23.972  26.894  1.00  0.00    -0.014 A 
BRANCH  14  15
ATOM     15  C   UNL A   1      43.617  25.343  27.395  1.00  0.00     0.031 A 
ATOM     16  C   UNL A   1      45.006  25.882  27.470  1.00  0.00     0.074 A 
ATOM     17  C   UNL A   1      42.551  26.116  27.673  1.00  0.00     0.049 A 
ATOM     18  N   UNL A   1      45.413  27.030  27.934  1.00  0.00    -0.248 NA
ATOM     19  C   UNL A   1      46.081  25.019  26.950  1.00  0.00     0.031 C 
ATOM     20  C   UNL A   1      41.161  25.691  27.526  1.00  0.00     0.029 A 
ATOM     21  N   UNL A   1      42.454  27.414  28.096  1.00  0.00    -0.354 N 
ATOM     22  C   UNL A   1      46.794  27.007  27.816  1.00  0.00     0.074 A 
ATOM     23  C   UNL A   1      47.157  25.744  27.215  1.00  0.00     0.031 C 
ATOM     24  C   UNL A   1      40.350  26.723  27.802  1.00  0.00     0.029 A 
ATOM     25  C   UNL A   1      41.157  27.845  28.253  1.00  0.00     0.049 A 
ATOM     26  H   UNL A   1      43.237  27.985  28.270  1.00  0.00     0.167 HD
ATOM     27  C   UNL A   1      47.670  27.956  28.208  1.00  0.00     0.031 A 
ATOM     28  C   UNL A   1      40.674  28.993  28.760  1.00  0.00     0.031 A 
ATOM     29  C   UNL A   1      47.269  29.199  28.807  1.00  0.00     0.049 A 
ATOM     30  C   UNL A   1      41.674  29.993  29.260  1.00  0.00     0.074 A 
ATOM     31  C   UNL A   1      48.064  30.226  29.277  1.00  0.00     0.029 A 
ATOM     32  N   UNL A   1      45.950  29.575  29.024  1.00  0.00    -0.354 N 
ATOM     33  N   UNL A   1      42.984  29.951  29.183  1.00  0.00    -0.248 NA
ATOM     34  C   UNL A   1      41.145  31.176  29.949  1.00  0.00     0.031 C 
ATOM     35  C   UNL A   1      47.226  31.196  29.837  1.00  0.00     0.029 A 
ATOM     36  C   UNL A   1      45.908  30.801  29.660  1.00  0.00     0.049 A 
ATOM     37  H   UNL A   1      45.161  29.046  28.762  1.00  0.00     0.167 HD
ATOM     38  C   UNL A   1      43.437  31.095  29.819  1.00  0.00     0.074 A 
ATOM     39  C   UNL A   1      42.260  31.833  30.236  1.00  0.00     0.031 C 
ATOM     40  C   UNL A   1      44.710  31.493  30.059  1.00  0.00     0.031 A 
BRANCH  27  41
ATOM     41  C   UNL A   1      49.130  27.631  28.100  1.00  0.00    -0.014 A 
ATOM     42  C   UNL A   1      49.826  26.982  29.130  1.00  0.00     0.009 A 
ATOM     43  C   UNL A   1      49.820  27.993  26.932  1.00  0.00     0.009 A 
ATOM     44  C   UNL A   1      51.193  26.722  28.999  1.00  0.00     0.001 A 
ATOM     45  C   UNL A   1      51.178  27.710  26.794  1.00  0.00     0.001 A 
ATOM     46  C   UNL A   1      51.865  27.082  27.831  1.00  0.00     0.000 A 
ENDBRANCH  27  41
BRANCH  28  47
ATOM     47  C   UNL A   1      39.207  29.202  28.934  1.00  0.00    -0.014 A 
ATOM     48  C   UNL A   1      38.570  28.926  30.154  1.00  0.00     0.009 A 
ATOM     49  C   UNL A   1      38.422  29.655  27.858  1.00  0.00     0.009 A 
ATOM     50  C   UNL A   1      37.183  29.071  30.280  1.00  0.00     0.001 A 
ATOM     51  C   UNL A   1      37.044  29.839  27.999  1.00  0.00     0.001 A 
ATOM     52  C   UNL A   1      36.423  29.532  29.206  1.00  0.00     0.000 A 
ENDBRANCH  28  47
BRANCH  40  53
ATOM     53  C   UNL A   1      44.876  32.783  30.802  1.00  0.00    -0.014 A 
ATOM     54  C   UNL A   1      45.010  33.997  30.113  1.00  0.00     0.009 A 
ATOM     55  C   UNL A   1      44.848  32.784  32.204  1.00  0.00     0.009 A 
ATOM     56  C   UNL A   1      45.138  35.193  30.820  1.00  0.00     0.001 A 
ATOM     57  C   UNL A   1      44.945  33.984  32.907  1.00  0.00     0.001 A 
ATOM     58  C   UNL A   1      45.097  35.185  32.214  1.00  0.00     0.000 A 
ENDBRANCH  40  53
ENDBRANCH  14  15
ENDBRANCH   7   9
ENDBRANCH   6   7
ENDBRANCH   5   6
ENDBRANCH   4   5
ENDBRANCH   3   4
ENDBRANCH   2   3
ENDBRANCH   1   2
BRANCH   1  59
ATOM     59  O   UNL A   1      36.729  24.202  26.150  1.00  0.00    -0.376 OA
BRANCH  59  60
ATOM     60  C   UNL A   1      35.637  23.384  25.751  1.00  0.00     0.202 C 
BRANCH  60  61
ATOM     61  C   UNL A   1      34.630  23.961  24.748  1.00  0.00     0.261 C 
BRANCH  61  62
ATOM     62  O   UNL A   1      34.410  25.376  24.838  1.00  0.00    -0.463 OA
BRANCH  62  63
ATOM     63  C   UNL A   1      33.527  25.874  23.921  1.00  0.00     0.310 C 
ATOM     64  O   UNL A   1      33.832  26.623  23.004  1.00  0.00    -0.252 OA
BRANCH  63  65
ATOM     65  C   UNL A   1      32.138  25.309  24.165  1.00  0.00     0.118 C 
ATOM     66  C   UNL A   1      31.245  25.396  22.921  1.00  0.00     0.019 C 
ATOM     67  C   UNL A   1      31.446  26.060  25.283  1.00  0.00     0.133 C 
ATOM     68  C   UNL A   1      30.874  26.844  22.556  1.00  0.00     0.022 C 
ATOM     69  N   UNL A   1      31.292  27.452  24.911  1.00  0.00    -0.356 N 
ATOM     70  C   UNL A   1      30.458  27.732  23.746  1.00  0.00     0.118 C 
BRANCH  69  71
ATOM     71  C   UNL A   1      31.859  28.469  25.650  1.00  0.00     0.129 A 
ATOM     72  C   UNL A   1      32.970  28.231  26.460  1.00  0.00     0.047 A 
ATOM     73  N   UNL A   1      31.337  29.709  25.571  1.00  0.00    -0.231 NA
ATOM     74  C   UNL A   1      33.598  29.260  27.141  1.00  0.00     0.014 A 
ATOM     75  C   UNL A   1      31.895  30.704  26.285  1.00  0.00     0.073 A 
ATOM     76  C   UNL A   1      33.056  30.528  27.063  1.00  0.00     0.002 A 
ATOM     77  C   UNL A   1      31.311  31.958  26.291  1.00  0.00     0.030 A 
ATOM     78  C   UNL A   1      33.640  31.587  27.762  1.00  0.00     0.032 A 
ATOM     79  C   UNL A   1      31.858  33.022  27.022  1.00  0.00     0.024 A 
ATOM     80  C   UNL A   1      33.042  32.843  27.739  1.00  0.00     0.083 A 
BRANCH  80  81
ATOM     81  S   UNL A   1      33.859  34.112  28.686  1.00  0.00     0.243 S 
ATOM     82  O   UNL A   1      34.477  34.992  27.717  1.00  0.00    -0.207 OA
ATOM     83  O   UNL A   1      32.873  34.605  29.626  1.00  0.00    -0.207 OA
BRANCH  81  84
ATOM     84  N   UNL A   1      35.106  33.363  29.568  1.00  0.00    -0.198 NA
ATOM     85  C   UNL A   1      36.490  33.697  29.154  1.00  0.00     0.102 C 
ATOM     86  C   UNL A   1      34.835  33.152  31.010  1.00  0.00     0.102 C 
ATOM     87  C   UNL A   1      37.524  32.846  29.874  1.00  0.00     0.017 C 
ATOM     88  C   UNL A   1      35.905  32.293  31.667  1.00  0.00     0.017 C 
ATOM     89  C   UNL A   1      37.294  32.838  31.378  1.00  0.00     0.003 C 
ENDBRANCH  81  84
ENDBRANCH  80  81
ENDBRANCH  69  71
ENDBRANCH  63  65
ENDBRANCH  62  63
ENDBRANCH  61  62
ENDBRANCH  60  61
ENDBRANCH  59  60
ENDBRANCH   1  59
TORSDOF 20
ENDMDL
MODEL 2
REMARK VINA RESULT:      -9.9      1.263      5.682
REMARK SMILES O=C(OCCOCCOCCOC(=O)[C@@H]1CCCN(c2ccc3cc(S(=O)(=O)N4CCCCC4)ccc3n2)C1)c1ccc(-c2c3nc(c(-c4ccccc4)c4ccc([nH]4)c(-c4ccccc4)c4nc(c(-c5ccccc5)c5ccc2[nH]5)C=C4)C=C3)cc1
REMARK SMILES IDX 8 1 7 2 6 3 5 4 4 5 3 6 2 7 1 8 40 9 41 10 87 11 42 12 86 13
REMARK SMILES IDX 43 14 44 15 45 16 80 17 46 18 85 19 79 20 81 21 47 22 84 23
REMARK SMILES IDX 78 24 77 25 48 27 70 28 55 29 69 30 56 31 59 32 68 33 82 34
REMARK SMILES IDX 57 35 58 36 67 38 83 39 60 40 49 41 50 42 54 43 51 44 53 45
REMARK SMILES IDX 52 46 71 47 72 48 76 49 73 50 75 51 74 52 61 53 62 54 66 55
REMARK SMILES IDX 63 56 65 57 64 58 9 59 10 60 11 61 12 62 13 63 14 64 15 65
REMARK SMILES IDX 16 66 39 67 17 68 19 69 18 70 20 71 21 72 38 73 22 74 37 75
REMARK SMILES IDX 23 76 36 77 24 78 35 79 25 80 26 81 27 82 28 83 29 84 30 85
REMARK SMILES IDX 34 86 31 87 33 88 32 89
REMARK H PARENT 81 26 59 37
REMARK Flexibility Score: inf
ROOT
ATOM      1  C   UNL A   1      38.787  23.436  26.313  1.00  0.00     0.188 C 
ENDROOT
BRANCH   1   2
ATOM      2  C   UNL A   1      38.919  21.925  26.128  1.00  0.00     0.188 C 
BRANCH   2   3
ATOM      3  O   UNL A   1      40.249  21.457  26.371  1.00  0.00    -0.376 OA
BRANCH   3   4
ATOM      4  C   UNL A   1      40.430  20.047  26.213  1.00  0.00     0.202 C 
BRANCH   4   5
ATOM      5  C   UNL A   1      41.827  19.489  26.534  1.00  0.00     0.261 C 
BRANCH   5   6
ATOM      6  O   UNL A   1      42.662  19.251  25.388  1.00  0.00    -0.460 OA
BRANCH   6   7
ATOM      7  C   UNL A   1      43.632  20.033  24.857  1.00  0.00     0.338 C 
ATOM      8  O   UNL A   1      44.303  19.597  23.924  1.00  0.00    -0.246 OA
BRANCH   7   9
ATOM      9  C   UNL A   1      43.940  21.405  25.347  1.00  0.00     0.060 A 
ATOM     10  C   UNL A   1      44.705  21.684  26.477  1.00  0.00     0.016 A 
ATOM     11  C   UNL A   1      43.537  22.482  24.542  1.00  0.00     0.016 A 
ATOM     12  C   UNL A   1      44.985  22.986  26.863  1.00  0.00     0.010 A 
ATOM     13  C   UNL A   1      43.866  23.797  24.887  1.00  0.00     0.010 A 
ATOM     14  C   UNL A   1      44.575  24.051  26.065  1.00  0.00    -0.014 A 
BRANCH  14  15
ATOM     15  C   UNL A   1      44.852  25.421  26.533  1.00  0.00     0.031 A 
ATOM     16  C   UNL A   1      43.748  26.197  27.167  1.00  0.00     0.074 A 
ATOM     17  C   UNL A   1      46.107  25.905  26.479  1.00  0.00     0.049 A 
ATOM     18  N   UNL A   1      43.754  27.430  27.589  1.00  0.00    -0.248 NA
ATOM     19  C   UNL A   1      42.466  25.494  27.355  1.00  0.00     0.031 C 
ATOM     20  C   UNL A   1      47.258  25.165  25.967  1.00  0.00     0.029 A 
ATOM     21  N   UNL A   1      46.638  27.100  26.884  1.00  0.00    -0.354 N 
ATOM     22  C   UNL A   1      42.466  27.671  28.042  1.00  0.00     0.074 A 
ATOM     23  C   UNL A   1      41.709  26.452  27.867  1.00  0.00     0.031 C 
ATOM     24  C   UNL A   1      48.367  25.900  26.135  1.00  0.00     0.029 A 
ATOM     25  C   UNL A   1      47.992  27.201  26.661  1.00  0.00     0.049 A 
ATOM     26  H   UNL A   1      46.103  27.817  27.295  1.00  0.00     0.167 HD
ATOM     27  C   UNL A   1      41.967  28.826  28.531  1.00  0.00     0.031 A 
ATOM     28  C   UNL A   1      48.825  28.247  26.809  1.00  0.00     0.031 A 
ATOM     29  C   UNL A   1      42.752  30.020  28.686  1.00  0.00     0.049 A 
ATOM     30  C   UNL A   1      48.223  29.539  27.279  1.00  0.00     0.074 A 
ATOM     31  C   UNL A   1      42.353  31.262  29.139  1.00  0.00     0.029 A 
ATOM     32  N   UNL A   1      44.104  30.114  28.380  1.00  0.00    -0.354 N 
ATOM     33  N   UNL A   1      46.992  29.775  27.671  1.00  0.00    -0.248 NA
ATOM     34  C   UNL A   1      49.100  30.715  27.295  1.00  0.00     0.031 C 
ATOM     35  C   UNL A   1      43.449  32.125  29.046  1.00  0.00     0.029 A 
ATOM     36  C   UNL A   1      44.545  31.406  28.594  1.00  0.00     0.049 A 
ATOM     37  H   UNL A   1      44.664  29.370  28.059  1.00  0.00     0.167 HD
ATOM     38  C   UNL A   1      46.943  31.125  27.971  1.00  0.00     0.074 A 
ATOM     39  C   UNL A   1      48.281  31.647  27.761  1.00  0.00     0.031 C 
ATOM     40  C   UNL A   1      45.887  31.877  28.365  1.00  0.00     0.031 A 
BRANCH  27  41
ATOM     41  C   UNL A   1      40.497  28.872  28.822  1.00  0.00    -0.014 A 
ATOM     42  C   UNL A   1      39.979  28.580  30.092  1.00  0.00     0.009 A 
ATOM     43  C   UNL A   1      39.613  29.214  27.786  1.00  0.00     0.009 A 
ATOM     44  C   UNL A   1      38.599  28.608  30.312  1.00  0.00     0.001 A 
ATOM     45  C   UNL A   1      38.239  29.265  28.015  1.00  0.00     0.001 A 
ATOM     46  C   UNL A   1      37.732  28.955  29.276  1.00  0.00     0.000 A 
ENDBRANCH  27  41
BRANCH  28  47
ATOM     47  C   UNL A   1      50.256  28.158  26.399  1.00  0.00    -0.014 A 
ATOM     48  C   UNL A   1      51.267  27.885  27.332  1.00  0.00     0.009 A 
ATOM     49  C   UNL A   1      50.626  28.379  25.059  1.00  0.00     0.009 A 
ATOM     50  C   UNL A   1      52.611  27.865  26.940  1.00  0.00     0.001 A 
ATOM     51  C   UNL A   1      51.964  28.317  24.662  1.00  0.00     0.001 A 
ATOM     52  C   UNL A   1      52.958  28.075  25.606  1.00  0.00     0.000 A 
ENDBRANCH  28  47
BRANCH  40  53
ATOM     53  C   UNL A   1      46.152  33.334  28.591  1.00  0.00    -0.014 A 
ATOM     54  C   UNL A   1      45.889  34.277  27.587  1.00  0.00     0.009 A 
ATOM     55  C   UNL A   1      46.624  33.767  29.838  1.00  0.00     0.009 A 
ATOM     56  C   UNL A   1      46.117  35.632  27.822  1.00  0.00     0.001 A 
ATOM     57  C   UNL A   1      46.822  35.125  30.081  1.00  0.00     0.001 A 
ATOM     58  C   UNL A   1      46.575  36.054  29.070  1.00  0.00     0.000 A 
ENDBRANCH  40  53
ENDBRANCH  14  15
ENDBRANCH   7   9
ENDBRANCH   6   7
ENDBRANCH   5   6
ENDBRANCH   4   5
ENDBRANCH   3   4
ENDBRANCH   2   3
ENDBRANCH   1   2
BRANCH   1  59
ATOM     59  O   UNL A   1      37.476  23.953  26.519  1.00  0.00    -0.376 OA
BRANCH  59  60
ATOM     60  C   UNL A   1      36.392  23.296  25.875  1.00  0.00     0.202 C 
BRANCH  60  61
ATOM     61  C   UNL A   1      35.628  24.057  24.784  1.00  0.00     0.261 C 
BRANCH  61  62
ATOM     62  O   UNL A   1      34.455  24.755  25.225  1.00  0.00    -0.463 OA
BRANCH  62  63
ATOM     63  C   UNL A   1      33.617  25.150  24.220  1.00  0.00     0.310 C 
ATOM     64  O   UNL A   1      33.976  25.755  23.220  1.00  0.00    -0.252 OA
BRANCH  63  65
ATOM     65  C   UNL A   1      32.201  24.673  24.494  1.00  0.00     0.118 C 
ATOM     66  C   UNL A   1      31.318  24.715  23.240  1.00  0.00     0.019 C 
ATOM     67  C   UNL A   1      31.543  25.533  25.551  1.00  0.00     0.133 C 
ATOM     68  C   UNL A   1      31.020  26.149  22.771  1.00  0.00     0.022 C 
ATOM     69  N   UNL A   1      31.458  26.901  25.081  1.00  0.00    -0.356 N 
ATOM     70  C   UNL A   1      30.643  27.139  23.893  1.00  0.00     0.118 C 
BRANCH  69  71
ATOM     71  C   UNL A   1      32.071  27.939  25.751  1.00  0.00     0.129 A 
ATOM     72  C   UNL A   1      33.276  27.741  26.428  1.00  0.00     0.047 A 
ATOM     73  N   UNL A   1      31.502  29.161  25.733  1.00  0.00    -0.231 NA
ATOM     74  C   UNL A   1      33.942  28.793  27.033  1.00  0.00     0.014 A 
ATOM     75  C   UNL A   1      32.104  30.176  26.380  1.00  0.00     0.073 A 
ATOM     76  C   UNL A   1      33.352  30.041  27.019  1.00  0.00     0.002 A 
ATOM     77  C   UNL A   1      31.483  31.410  26.454  1.00  0.00     0.030 A 
ATOM     78  C   UNL A   1      33.977  31.122  27.648  1.00  0.00     0.032 A 
ATOM     79  C   UNL A   1      32.074  32.493  27.118  1.00  0.00     0.024 A 
ATOM     80  C   UNL A   1      33.337  32.357  27.694  1.00  0.00     0.083 A 
BRANCH  80  81
ATOM     81  S   UNL A   1      34.215  33.656  28.542  1.00  0.00     0.243 S 
ATOM     82  O   UNL A   1      34.797  34.481  27.505  1.00  0.00    -0.207 OA
ATOM     83  O   UNL A   1      33.280  34.206  29.504  1.00  0.00    -0.207 OA
BRANCH  81  84
ATOM     84  N   UNL A   1      35.492  32.929  29.399  1.00  0.00    -0.198 NA
ATOM     85  C   UNL A   1      36.852  33.434  29.093  1.00  0.00     0.102 C 
ATOM     86  C   UNL A   1      35.186  32.533  30.794  1.00  0.00     0.102 C 
ATOM     87  C   UNL A   1      37.935  32.605  29.768  1.00  0.00     0.017 C 
ATOM     88  C   UNL A   1      36.307  31.707  31.406  1.00  0.00     0.017 C 
ATOM     89  C   UNL A   1      37.648  32.407  31.248  1.00  0.00     0.003 C 
ENDBRANCH  81  84
ENDBRANCH  80  81
ENDBRANCH  69  71
ENDBRANCH  63  65
ENDBRANCH  62  63
ENDBRANCH  61  62
ENDBRANCH  60  61
ENDBRANCH  59  60
ENDBRANCH   1  59
TORSDOF 20
ENDMDL
MODEL 3
REMARK VINA RESULT:      -9.8      5.525     11.007
REMARK SMILES O=C(OCCOCCOCCOC(=O)[C@@H]1CCCN(c2ccc3cc(S(=O)(=O)N4CCCCC4)ccc3n2)C1)c1ccc(-c2c3nc(c(-c4ccccc4)c4ccc([nH]4)c(-c4ccccc4)c4nc(c(-c5ccccc5)c5ccc2[nH]5)C=C4)C=C3)cc1
REMARK SMILES IDX 8 1 7 2 6 3 5 4 4 5 3 6 2 7 1 8 40 9 41 10 87 11 42 12 86 13
REMARK SMILES IDX 43 14 44 15 45 16 80 17 46 18 85 19 79 20 81 21 47 22 84 23
REMARK SMILES IDX 78 24 77 25 48 27 70 28 55 29 69 30 56 31 59 32 68 33 82 34
REMARK SMILES IDX 57 35 58 36 67 38 83 39 60 40 49 41 50 42 54 43 51 44 53 45
REMARK SMILES IDX 52 46 71 47 72 48 76 49 73 50 75 51 74 52 61 53 62 54 66 55
REMARK SMILES IDX 63 56 65 57 64 58 9 59 10 60 11 61 12 62 13 63 14 64 15 65
REMARK SMILES IDX 16 66 39 67 17 68 19 69 18 70 20 71 21 72 38 73 22 74 37 75
REMARK SMILES IDX 23 76 36 77 24 78 35 79 25 80 26 81 27 82 28 83 29 84 30 85
REMARK SMILES IDX 34 86 31 87 33 88 32 89
REMARK H PARENT 81 26 59 37
REMARK Flexibility Score: inf
ROOT
ATOM      1  C   UNL A   1      32.186  36.026  31.316  1.00  0.00     0.188 C 
ENDROOT
BRANCH   1   2
ATOM      2  C   UNL A   1      33.109  35.572  30.186  1.00  0.00     0.188 C 
BRANCH   2   3
ATOM      3  O   UNL A   1      33.665  34.275  30.421  1.00  0.00    -0.376 OA
BRANCH   3   4
ATOM      4  C   UNL A   1      34.487  33.772  29.363  1.00  0.00     0.202 C 
BRANCH   4   5
ATOM      5  C   UNL A   1      33.759  33.236  28.118  1.00  0.00     0.261 C 
BRANCH   5   6
ATOM      6  O   UNL A   1      34.445  32.180  27.424  1.00  0.00    -0.460 OA
BRANCH   6   7
ATOM      7  C   UNL A   1      34.638  30.893  27.797  1.00  0.00     0.338 C 
ATOM      8  O   UNL A   1      33.684  30.118  27.776  1.00  0.00    -0.246 OA
BRANCH   7   9
ATOM      9  C   UNL A   1      35.953  30.355  28.244  1.00  0.00     0.060 A 
ATOM     10  C   UNL A   1      36.166  29.702  29.456  1.00  0.00     0.016 A 
ATOM     11  C   UNL A   1      37.014  30.403  27.326  1.00  0.00     0.016 A 
ATOM     12  C   UNL A   1      37.410  29.194  29.800  1.00  0.00     0.010 A 
ATOM     13  C   UNL A   1      38.256  29.839  27.636  1.00  0.00     0.010 A 
ATOM     14  C   UNL A   1      38.460  29.251  28.888  1.00  0.00    -0.014 A 
BRANCH  14  15
ATOM     15  C   UNL A   1      39.778  28.741  29.308  1.00  0.00     0.031 A 
ATOM     16  C   UNL A   1      40.582  29.547  30.272  1.00  0.00     0.074 A 
ATOM     17  C   UNL A   1      40.183  27.523  28.905  1.00  0.00     0.049 A 
ATOM     18  N   UNL A   1      41.783  29.319  30.724  1.00  0.00    -0.248 NA
ATOM     19  C   UNL A   1      39.951  30.768  30.803  1.00  0.00     0.031 C 
ATOM     20  C   UNL A   1      39.406  26.635  28.044  1.00  0.00     0.029 A 
ATOM     21  N   UNL A   1      41.314  26.803  29.183  1.00  0.00    -0.354 N 
ATOM     22  C   UNL A   1      42.076  30.395  31.548  1.00  0.00     0.074 A 
ATOM     23  C   UNL A   1      40.922  31.264  31.555  1.00  0.00     0.031 C 
ATOM     24  C   UNL A   1      40.056  25.470  27.907  1.00  0.00     0.029 A 
ATOM     25  C   UNL A   1      41.343  25.570  28.573  1.00  0.00     0.049 A 
ATOM     26  H   UNL A   1      42.037  27.136  29.763  1.00  0.00     0.167 HD
ATOM     27  C   UNL A   1      43.228  30.635  32.210  1.00  0.00     0.031 A 
ATOM     28  C   UNL A   1      42.323  24.650  28.510  1.00  0.00     0.031 A 
ATOM     29  C   UNL A   1      44.357  29.748  32.173  1.00  0.00     0.049 A 
ATOM     30  C   UNL A   1      43.618  24.984  29.190  1.00  0.00     0.074 A 
ATOM     31  C   UNL A   1      45.591  29.897  32.775  1.00  0.00     0.029 A 
ATOM     32  N   UNL A   1      44.384  28.542  31.485  1.00  0.00    -0.354 N 
ATOM     33  N   UNL A   1      43.907  26.024  29.938  1.00  0.00    -0.248 NA
ATOM     34  C   UNL A   1      44.732  24.050  28.994  1.00  0.00     0.031 C 
ATOM     35  C   UNL A   1      46.387  28.811  32.397  1.00  0.00     0.029 A 
ATOM     36  C   UNL A   1      45.630  27.955  31.611  1.00  0.00     0.049 A 
ATOM     37  H   UNL A   1      43.628  28.161  30.982  1.00  0.00     0.167 HD
ATOM     38  C   UNL A   1      45.236  25.875  30.295  1.00  0.00     0.074 A 
ATOM     39  C   UNL A   1      45.684  24.621  29.719  1.00  0.00     0.031 C 
ATOM     40  C   UNL A   1      46.028  26.707  31.014  1.00  0.00     0.031 A 
BRANCH  27  41
ATOM     41  C   UNL A   1      43.349  31.948  32.925  1.00  0.00    -0.014 A 
ATOM     42  C   UNL A   1      43.840  33.098  32.290  1.00  0.00     0.009 A 
ATOM     43  C   UNL A   1      42.964  32.023  34.273  1.00  0.00     0.009 A 
ATOM     44  C   UNL A   1      43.961  34.295  33.002  1.00  0.00     0.001 A 
ATOM     45  C   UNL A   1      43.063  33.224  34.973  1.00  0.00     0.001 A 
ATOM     46  C   UNL A   1      43.569  34.358  34.339  1.00  0.00     0.000 A 
ENDBRANCH  27  41
BRANCH  28  47
ATOM     47  C   UNL A   1      42.168  23.414  27.690  1.00  0.00    -0.014 A 
ATOM     48  C   UNL A   1      42.587  23.367  26.352  1.00  0.00     0.009 A 
ATOM     49  C   UNL A   1      41.563  22.269  28.240  1.00  0.00     0.009 A 
ATOM     50  C   UNL A   1      42.378  22.218  25.581  1.00  0.00     0.001 A 
ATOM     51  C   UNL A   1      41.394  21.108  27.481  1.00  0.00     0.001 A 
ATOM     52  C   UNL A   1      41.788  21.089  26.147  1.00  0.00     0.000 A 
ENDBRANCH  28  47
BRANCH  40  53
ATOM     53  C   UNL A   1      47.448  26.272  31.211  1.00  0.00    -0.014 A 
ATOM     54  C   UNL A   1      48.424  26.545  30.242  1.00  0.00     0.009 A 
ATOM     55  C   UNL A   1      47.817  25.628  32.401  1.00  0.00     0.009 A 
ATOM     56  C   UNL A   1      49.746  26.156  30.452  1.00  0.00     0.001 A 
ATOM     57  C   UNL A   1      49.145  25.269  32.621  1.00  0.00     0.001 A 
ATOM     58  C   UNL A   1      50.106  25.526  31.643  1.00  0.00     0.000 A 
ENDBRANCH  40  53
ENDBRANCH  14  15
ENDBRANCH   7   9
ENDBRANCH   6   7
ENDBRANCH   5   6
ENDBRANCH   4   5
ENDBRANCH   3   4
ENDBRANCH   2   3
ENDBRANCH   1   2
BRANCH   1  59
ATOM     59  O   UNL A   1      32.682  37.028  32.199  1.00  0.00    -0.376 OA
BRANCH  59  60
ATOM     60  C   UNL A   1      34.015  36.893  32.675  1.00  0.00     0.202 C 
BRANCH  60  61
ATOM     61  C   UNL A   1      34.303  35.816  33.729  1.00  0.00     0.261 C 
BRANCH  61  62
ATOM     62  O   UNL A   1      35.647  35.314  33.747  1.00  0.00    -0.463 OA
BRANCH  62  63
ATOM     63  C   UNL A   1      35.754  33.969  33.530  1.00  0.00     0.310 C 
ATOM     64  O   UNL A   1      34.944  33.140  33.920  1.00  0.00    -0.252 OA
BRANCH  63  65
ATOM     65  C   UNL A   1      36.979  33.666  32.684  1.00  0.00     0.118 C 
ATOM     66  C   UNL A   1      36.871  32.317  31.962  1.00  0.00     0.019 C 
ATOM     67  C   UNL A   1      38.225  33.632  33.542  1.00  0.00     0.133 C 
ATOM     68  C   UNL A   1      36.923  31.121  32.927  1.00  0.00     0.022 C 
ATOM     69  N   UNL A   1      38.106  32.578  34.530  1.00  0.00    -0.356 N 
ATOM     70  C   UNL A   1      38.004  31.212  34.024  1.00  0.00     0.118 C 
BRANCH  69  71
ATOM     71  C   UNL A   1      38.143  32.842  35.883  1.00  0.00     0.129 A 
ATOM     72  C   UNL A   1      38.940  33.869  36.390  1.00  0.00     0.047 A 
ATOM     73  N   UNL A   1      37.383  32.105  36.718  1.00  0.00    -0.231 NA
ATOM     74  C   UNL A   1      38.921  34.197  37.735  1.00  0.00     0.014 A 
ATOM     75  C   UNL A   1      37.412  32.367  38.037  1.00  0.00     0.073 A 
ATOM     76  C   UNL A   1      38.147  33.435  38.588  1.00  0.00     0.002 A 
ATOM     77  C   UNL A   1      36.715  31.556  38.916  1.00  0.00     0.030 A 
ATOM     78  C   UNL A   1      38.127  33.713  39.957  1.00  0.00     0.032 A 
ATOM     79  C   UNL A   1      36.719  31.794  40.297  1.00  0.00     0.024 A 
ATOM     80  C   UNL A   1      37.405  32.891  40.817  1.00  0.00     0.083 A 
BRANCH  80  81
ATOM     81  S   UNL A   1      37.471  33.325  42.545  1.00  0.00     0.243 S 
ATOM     82  O   UNL A   1      38.831  33.752  42.794  1.00  0.00    -0.207 OA
ATOM     83  O   UNL A   1      36.350  34.215  42.774  1.00  0.00    -0.207 OA
BRANCH  81  84
ATOM     84  N   UNL A   1      37.208  31.900  43.436  1.00  0.00    -0.198 NA
ATOM     85  C   UNL A   1      38.376  30.999  43.583  1.00  0.00     0.102 C 
ATOM     86  C   UNL A   1      36.263  32.018  44.572  1.00  0.00     0.102 C 
ATOM     87  C   UNL A   1      37.999  29.676  44.233  1.00  0.00     0.017 C 
ATOM     88  C   UNL A   1      35.928  30.662  45.172  1.00  0.00     0.017 C 
ATOM     89  C   UNL A   1      37.193  29.887  45.506  1.00  0.00     0.003 C 
ENDBRANCH  81  84
ENDBRANCH  80  81
ENDBRANCH  69  71
ENDBRANCH  63  65
ENDBRANCH  62  63
ENDBRANCH  61  62
ENDBRANCH  60  61
ENDBRANCH  59  60
ENDBRANCH   1  59
TORSDOF 20
ENDMDL
