MODEL 1
REMARK VINA RESULT:      -9.7      0.000      0.000
REMARK SMILES Cc1cc(C(=O)Nc2cccc(C(=O)NCC(=O)OCCOCCOCCOC(=O)c3ccc(-c4c5nc(c(-c6ccccc6)c6ccc([nH]6)c(-c6ccccc6)c6nc(c(-c7ccccc7)c7ccc4[nH]7)C=C6)C=C5)cc3)c2)no1
REMARK SMILES IDX 23 1 22 2 21 3 20 4 19 5 17 6 18 7 16 8 15 9 13 10 14 11
REMARK SMILES IDX 12 13 8 14 9 15 79 16 10 17 11 18 7 19 5 20 6 21 4 23 1 24
REMARK SMILES IDX 2 25 3 26 81 27 80 28 24 29 25 30 26 31 27 32 28 33 29 34
REMARK SMILES IDX 30 35 31 36 32 37 78 38 33 39 77 40 34 41 35 42 36 43 71 44
REMARK SMILES IDX 37 45 76 46 70 47 72 48 38 49 75 50 69 51 68 52 39 54 61 55
REMARK SMILES IDX 46 56 60 57 47 58 50 59 59 60 73 61 48 62 49 63 58 65 74 66
REMARK SMILES IDX 51 67 40 68 41 69 45 70 42 71 44 72 43 73 62 74 63 75 67 76
REMARK SMILES IDX 64 77 66 78 65 79 52 80 53 81 57 82 54 83 56 84 55 85
REMARK H PARENT 15 12 7 22 72 53 50 64
REMARK Flexibility Score: inf
ROOT
ATOM      1  C   UNL A   1      40.622  21.235  27.116  1.00  0.00     0.188 C 
ENDROOT
BRANCH   1   2
ATOM      2  O   UNL A   1      39.688  21.904  26.283  1.00  0.00    -0.376 OA
BRANCH   2   3
ATOM      3  C   UNL A   1      39.305  23.244  26.584  1.00  0.00     0.202 C 
BRANCH   3   4
ATOM      4  C   UNL A   1      37.885  23.729  26.241  1.00  0.00     0.261 C 
BRANCH   4   5
ATOM      5  O   UNL A   1      37.461  23.416  24.899  1.00  0.00    -0.462 OA
BRANCH   5   6
ATOM      6  C   UNL A   1      36.205  22.917  24.768  1.00  0.00     0.325 C 
ATOM      7  O   UNL A   1      35.805  22.295  23.792  1.00  0.00    -0.250 OA
BRANCH   6   8
ATOM      8  C   UNL A   1      35.361  23.061  26.049  1.00  0.00     0.239 C 
BRANCH   8   9
ATOM      9  N   UNL A   1      33.929  22.759  26.036  1.00  0.00    -0.341 N 
ATOM     10  C   UNL A   1      32.811  23.544  25.952  1.00  0.00     0.251 C 
ATOM     11  O   UNL A   1      31.730  22.974  25.810  1.00  0.00    -0.269 OA
ATOM     12  H   UNL A   1      33.730  21.797  26.101  1.00  0.00     0.164 HD
BRANCH  10  13
ATOM     13  C   UNL A   1      32.854  25.031  25.945  1.00  0.00     0.041 A 
ATOM     14  C   UNL A   1      33.482  27.135  24.921  1.00  0.00     0.042 A 
ATOM     15  C   UNL A   1      32.693  27.836  25.823  1.00  0.00     0.026 A 
ATOM     16  C   UNL A   1      33.665  25.769  25.093  1.00  0.00     0.040 A 
ATOM     17  C   UNL A   1      31.946  27.128  26.767  1.00  0.00     0.003 A 
ATOM     18  C   UNL A   1      31.988  25.730  26.795  1.00  0.00     0.014 A 
BRANCH  14  19
ATOM     19  N   UNL A   1      34.064  27.790  23.829  1.00  0.00    -0.321 N 
ATOM     20  C   UNL A   1      33.493  28.102  22.594  1.00  0.00     0.277 C 
ATOM     21  O   UNL A   1      34.262  28.354  21.665  1.00  0.00    -0.267 OA
ATOM     22  H   UNL A   1      35.000  28.069  23.949  1.00  0.00     0.170 HD
BRANCH  20  23
ATOM     23  C   UNL A   1      32.022  28.226  22.456  1.00  0.00     0.171 A 
ATOM     24  C   UNL A   1      28.553  29.467  22.703  1.00  0.00     0.091 C 
ATOM     25  C   UNL A   1      29.893  28.888  22.475  1.00  0.00     0.134 A 
ATOM     26  C   UNL A   1      31.177  29.380  22.515  1.00  0.00     0.082 A 
ATOM     27  O   UNL A   1      29.947  27.548  22.262  1.00  0.00    -0.361 OA
ATOM     28  N   UNL A   1      31.263  27.136  22.231  1.00  0.00    -0.074 NA
ENDBRANCH  20  23
ENDBRANCH  14  19
ENDBRANCH  10  13
ENDBRANCH   8   9
ENDBRANCH   6   8
ENDBRANCH   5   6
ENDBRANCH   4   5
ENDBRANCH   3   4
ENDBRANCH   2   3
ENDBRANCH   1   2
BRANCH   1  29
ATOM     29  C   UNL A   1      42.030  20.954  26.579  1.00  0.00     0.188 C 
BRANCH  29  30
ATOM     30  O   UNL A   1      42.489  21.823  25.583  1.00  0.00    -0.376 OA
BRANCH  30  31
ATOM     31  C   UNL A   1      43.792  21.649  25.063  1.00  0.00     0.202 C 
BRANCH  31  32
ATOM     32  C   UNL A   1      44.715  22.832  24.701  1.00  0.00     0.261 C 
BRANCH  32  33
ATOM     33  O   UNL A   1      44.150  24.151  24.630  1.00  0.00    -0.460 OA
BRANCH  33  34
ATOM     34  C   UNL A   1      44.876  25.174  25.142  1.00  0.00     0.338 C 
ATOM     35  O   UNL A   1      45.925  25.622  24.701  1.00  0.00    -0.246 OA
BRANCH  34  36
ATOM     36  C   UNL A   1      44.049  25.846  26.173  1.00  0.00     0.060 A 
ATOM     37  C   UNL A   1      44.274  27.202  26.467  1.00  0.00     0.016 A 
ATOM     38  C   UNL A   1      43.040  25.146  26.832  1.00  0.00     0.016 A 
ATOM     39  C   UNL A   1      43.510  27.853  27.440  1.00  0.00     0.010 A 
ATOM     40  C   UNL A   1      42.298  25.787  27.828  1.00  0.00     0.010 A 
ATOM     41  C   UNL A   1      42.551  27.132  28.162  1.00  0.00    -0.014 A 
BRANCH  41  42
ATOM     42  C   UNL A   1      41.973  27.680  29.414  1.00  0.00     0.031 A 
ATOM     43  C   UNL A   1      40.646  28.384  29.323  1.00  0.00     0.074 A 
ATOM     44  C   UNL A   1      42.609  27.599  30.595  1.00  0.00     0.049 A 
ATOM     45  N   UNL A   1      40.011  29.088  30.224  1.00  0.00    -0.248 NA
ATOM     46  C   UNL A   1      39.946  28.286  28.030  1.00  0.00     0.031 C 
ATOM     47  C   UNL A   1      43.863  26.892  30.842  1.00  0.00     0.029 A 
ATOM     48  N   UNL A   1      42.285  28.150  31.812  1.00  0.00    -0.354 N 
ATOM     49  C   UNL A   1      38.854  29.540  29.599  1.00  0.00     0.074 A 
ATOM     50  C   UNL A   1      38.884  29.046  28.240  1.00  0.00     0.031 C 
ATOM     51  C   UNL A   1      44.217  27.071  32.128  1.00  0.00     0.029 A 
ATOM     52  C   UNL A   1      43.240  27.945  32.779  1.00  0.00     0.049 A 
ATOM     53  H   UNL A   1      41.449  28.642  31.976  1.00  0.00     0.167 HD
ATOM     54  C   UNL A   1      37.857  30.302  30.109  1.00  0.00     0.031 A 
ATOM     55  C   UNL A   1      43.333  28.439  34.030  1.00  0.00     0.031 A 
ATOM     56  C   UNL A   1      37.836  30.809  31.453  1.00  0.00     0.049 A 
ATOM     57  C   UNL A   1      42.259  29.365  34.546  1.00  0.00     0.074 A 
ATOM     58  C   UNL A   1      36.867  31.582  32.066  1.00  0.00     0.029 A 
ATOM     59  N   UNL A   1      38.836  30.601  32.390  1.00  0.00    -0.354 N 
ATOM     60  N   UNL A   1      41.166  29.782  33.953  1.00  0.00    -0.248 NA
ATOM     61  C   UNL A   1      42.435  29.889  35.910  1.00  0.00     0.031 C 
ATOM     62  C   UNL A   1      37.311  31.897  33.354  1.00  0.00     0.029 A 
ATOM     63  C   UNL A   1      38.520  31.255  33.568  1.00  0.00     0.049 A 
ATOM     64  H   UNL A   1      39.651  30.068  32.240  1.00  0.00     0.167 HD
ATOM     65  C   UNL A   1      40.507  30.579  34.884  1.00  0.00     0.074 A 
ATOM     66  C   UNL A   1      41.318  30.582  36.082  1.00  0.00     0.031 C 
ATOM     67  C   UNL A   1      39.332  31.244  34.759  1.00  0.00     0.031 A 
BRANCH  54  68
ATOM     68  C   UNL A   1      36.731  30.672  29.184  1.00  0.00    -0.014 A 
ATOM     69  C   UNL A   1      36.585  31.978  28.691  1.00  0.00     0.009 A 
ATOM     70  C   UNL A   1      35.815  29.688  28.781  1.00  0.00     0.009 A 
ATOM     71  C   UNL A   1      35.521  32.298  27.843  1.00  0.00     0.001 A 
ATOM     72  C   UNL A   1      34.773  30.003  27.908  1.00  0.00     0.001 A 
ATOM     73  C   UNL A   1      34.621  31.310  27.448  1.00  0.00     0.000 A 
ENDBRANCH  54  68
BRANCH  55  74
ATOM     74  C   UNL A   1      44.504  28.101  34.886  1.00  0.00    -0.014 A 
ATOM     75  C   UNL A   1      45.641  28.924  34.899  1.00  0.00     0.009 A 
ATOM     76  C   UNL A   1      44.504  26.936  35.668  1.00  0.00     0.009 A 
ATOM     77  C   UNL A   1      46.763  28.572  35.653  1.00  0.00     0.001 A 
ATOM     78  C   UNL A   1      45.616  26.603  36.447  1.00  0.00     0.001 A 
ATOM     79  C   UNL A   1      46.747  27.416  36.430  1.00  0.00     0.000 A 
ENDBRANCH  55  74
BRANCH  67  80
ATOM     80  C   UNL A   1      38.813  31.981  35.964  1.00  0.00    -0.014 A 
ATOM     81  C   UNL A   1      39.019  33.360  36.133  1.00  0.00     0.009 A 
ATOM     82  C   UNL A   1      38.056  31.287  36.922  1.00  0.00     0.009 A 
ATOM     83  C   UNL A   1      38.505  34.018  37.252  1.00  0.00     0.001 A 
ATOM     84  C   UNL A   1      37.515  31.955  38.022  1.00  0.00     0.001 A 
ATOM     85  C   UNL A   1      37.749  33.317  38.192  1.00  0.00     0.000 A 
ENDBRANCH  67  80
ENDBRANCH  41  42
ENDBRANCH  34  36
ENDBRANCH  33  34
ENDBRANCH  32  33
ENDBRANCH  31  32
ENDBRANCH  30  31
ENDBRANCH  29  30
ENDBRANCH   1  29
TORSDOF 21
ENDMDL
MODEL 2
REMARK VINA RESULT:      -9.6      1.759      6.199
REMARK SMILES Cc1cc(C(=O)Nc2cccc(C(=O)NCC(=O)OCCOCCOCCOC(=O)c3ccc(-c4c5nc(c(-c6ccccc6)c6ccc([nH]6)c(-c6ccccc6)c6nc(c(-c7ccccc7)c7ccc4[nH]7)C=C6)C=C5)cc3)c2)no1
REMARK SMILES IDX 23 1 22 2 21 3 20 4 19 5 17 6 18 7 16 8 15 9 13 10 14 11
REMARK SMILES IDX 12 13 8 14 9 15 79 16 10 17 11 18 7 19 5 20 6 21 4 23 1 24
REMARK SMILES IDX 2 25 3 26 81 27 80 28 24 29 25 30 26 31 27 32 28 33 29 34
REMARK SMILES IDX 30 35 31 36 32 37 78 38 33 39 77 40 34 41 35 42 36 43 71 44
REMARK SMILES IDX 37 45 76 46 70 47 72 48 38 49 75 50 69 51 68 52 39 54 61 55
REMARK SMILES IDX 46 56 60 57 47 58 50 59 59 60 73 61 48 62 49 63 58 65 74 66
REMARK SMILES IDX 51 67 40 68 41 69 45 70 42 71 44 72 43 73 62 74 63 75 67 76
REMARK SMILES IDX 64 77 66 78 65 79 52 80 53 81 57 82 54 83 56 84 55 85
REMARK H PARENT 15 12 7 22 72 53 50 64
REMARK Flexibility Score: inf
ROOT
ATOM      1  C   UNL A   1      37.363  23.165  25.042  1.00  0.00     0.188 C 
ENDROOT
BRANCH   1   2
ATOM      2  O   UNL A   1      36.048  22.825  25.451  1.00  0.00    -0.376 OA
BRANCH   2   3
ATOM      3  C   UNL A   1      35.310  21.849  24.718  1.00  0.00     0.202 C 
BRANCH   3   4
ATOM      4  C   UNL A   1      35.096  20.445  25.312  1.00  0.00     0.261 C 
BRANCH   4   5
ATOM      5  O   UNL A   1      34.143  19.637  24.593  1.00  0.00    -0.462 OA
BRANCH   5   6
ATOM      6  C   UNL A   1      32.871  19.645  25.067  1.00  0.00     0.325 C 
ATOM      7  O   UNL A   1      32.376  18.750  25.741  1.00  0.00    -0.250 OA
BRANCH   6   8
ATOM      8  C   UNL A   1      32.142  20.979  24.817  1.00  0.00     0.239 C 
BRANCH   8   9
ATOM      9  N   UNL A   1      31.570  21.737  25.931  1.00  0.00    -0.341 N 
ATOM     10  C   UNL A   1      31.633  23.056  26.292  1.00  0.00     0.251 C 
ATOM     11  O   UNL A   1      30.906  23.424  27.215  1.00  0.00    -0.269 OA
ATOM     12  H   UNL A   1      31.030  21.187  26.543  1.00  0.00     0.164 HD
BRANCH  10  13
ATOM     13  C   UNL A   1      32.467  24.060  25.580  1.00  0.00     0.041 A 
ATOM     14  C   UNL A   1      33.114  25.244  23.568  1.00  0.00     0.042 A 
ATOM     15  C   UNL A   1      33.869  26.141  24.311  1.00  0.00     0.026 A 
ATOM     16  C   UNL A   1      32.555  24.139  24.195  1.00  0.00     0.040 A 
ATOM     17  C   UNL A   1      33.891  26.023  25.702  1.00  0.00     0.003 A 
ATOM     18  C   UNL A   1      33.153  25.018  26.336  1.00  0.00     0.014 A 
BRANCH  14  19
ATOM     19  N   UNL A   1      32.890  25.465  22.203  1.00  0.00    -0.321 N 
ATOM     20  C   UNL A   1      31.825  26.126  21.590  1.00  0.00     0.277 C 
ATOM     21  O   UNL A   1      31.638  25.905  20.392  1.00  0.00    -0.267 OA
ATOM     22  H   UNL A   1      33.576  25.106  21.595  1.00  0.00     0.170 HD
BRANCH  20  23
ATOM     23  C   UNL A   1      31.033  27.131  22.339  1.00  0.00     0.171 A 
ATOM     24  C   UNL A   1      29.976  30.250  24.010  1.00  0.00     0.091 C 
ATOM     25  C   UNL A   1      30.243  28.966  23.329  1.00  0.00     0.134 A 
ATOM     26  C   UNL A   1      31.103  28.561  22.335  1.00  0.00     0.082 A 
ATOM     27  O   UNL A   1      29.589  27.878  23.809  1.00  0.00    -0.361 OA
ATOM     28  N   UNL A   1      30.061  26.741  23.186  1.00  0.00    -0.074 NA
ENDBRANCH  20  23
ENDBRANCH  14  19
ENDBRANCH  10  13
ENDBRANCH   8   9
ENDBRANCH   6   8
ENDBRANCH   5   6
ENDBRANCH   4   5
ENDBRANCH   3   4
ENDBRANCH   2   3
ENDBRANCH   1   2
BRANCH   1  29
ATOM     29  C   UNL A   1      38.411  23.502  26.108  1.00  0.00     0.188 C 
BRANCH  29  30
ATOM     30  O   UNL A   1      38.936  22.415  26.814  1.00  0.00    -0.376 OA
BRANCH  30  31
ATOM     31  C   UNL A   1      39.654  21.419  26.113  1.00  0.00     0.202 C 
BRANCH  31  32
ATOM     32  C   UNL A   1      41.174  21.503  25.858  1.00  0.00     0.261 C 
BRANCH  32  33
ATOM     33  O   UNL A   1      41.956  22.414  26.648  1.00  0.00    -0.460 OA
BRANCH  33  34
ATOM     34  C   UNL A   1      42.514  23.473  26.016  1.00  0.00     0.338 C 
ATOM     35  O   UNL A   1      43.090  23.466  24.937  1.00  0.00    -0.246 OA
BRANCH  34  36
ATOM     36  C   UNL A   1      42.074  24.703  26.718  1.00  0.00     0.060 A 
ATOM     37  C   UNL A   1      42.507  25.958  26.256  1.00  0.00     0.016 A 
ATOM     38  C   UNL A   1      41.218  24.619  27.816  1.00  0.00     0.016 A 
ATOM     39  C   UNL A   1      42.109  27.129  26.908  1.00  0.00     0.010 A 
ATOM     40  C   UNL A   1      40.847  25.788  28.487  1.00  0.00     0.010 A 
ATOM     41  C   UNL A   1      41.317  27.045  28.059  1.00  0.00    -0.014 A 
BRANCH  41  42
ATOM     42  C   UNL A   1      41.163  28.212  28.963  1.00  0.00     0.031 A 
ATOM     43  C   UNL A   1      42.158  28.367  30.082  1.00  0.00     0.074 A 
ATOM     44  C   UNL A   1      40.156  29.093  28.835  1.00  0.00     0.049 A 
ATOM     45  N   UNL A   1      42.151  29.191  31.097  1.00  0.00    -0.248 NA
ATOM     46  C   UNL A   1      43.315  27.455  30.051  1.00  0.00     0.031 C 
ATOM     47  C   UNL A   1      39.163  29.103  27.764  1.00  0.00     0.029 A 
ATOM     48  N   UNL A   1      39.794  30.144  29.644  1.00  0.00    -0.354 N 
ATOM     49  C   UNL A   1      43.283  28.878  31.840  1.00  0.00     0.074 A 
ATOM     50  C   UNL A   1      43.943  27.779  31.170  1.00  0.00     0.031 C 
ATOM     51  C   UNL A   1      38.287  30.099  27.994  1.00  0.00     0.029 A 
ATOM     52  C   UNL A   1      38.631  30.762  29.253  1.00  0.00     0.049 A 
ATOM     53  H   UNL A   1      40.319  30.427  30.426  1.00  0.00     0.167 HD
ATOM     54  C   UNL A   1      43.733  29.451  32.981  1.00  0.00     0.031 A 
ATOM     55  C   UNL A   1      37.908  31.723  29.862  1.00  0.00     0.031 A 
ATOM     56  C   UNL A   1      43.069  30.530  33.658  1.00  0.00     0.049 A 
ATOM     57  C   UNL A   1      38.376  32.281  31.183  1.00  0.00     0.074 A 
ATOM     58  C   UNL A   1      43.450  31.185  34.816  1.00  0.00     0.029 A 
ATOM     59  N   UNL A   1      41.879  31.108  33.244  1.00  0.00    -0.354 N 
ATOM     60  N   UNL A   1      39.450  31.987  31.876  1.00  0.00    -0.248 NA
ATOM     61  C   UNL A   1      37.527  33.309  31.807  1.00  0.00     0.031 C 
ATOM     62  C   UNL A   1      42.456  32.115  35.138  1.00  0.00     0.029 A 
ATOM     63  C   UNL A   1      41.497  32.092  34.139  1.00  0.00     0.049 A 
ATOM     64  H   UNL A   1      41.379  30.856  32.434  1.00  0.00     0.167 HD
ATOM     65  C   UNL A   1      39.426  32.820  32.990  1.00  0.00     0.074 A 
ATOM     66  C   UNL A   1      38.237  33.636  32.877  1.00  0.00     0.031 C 
ATOM     67  C   UNL A   1      40.314  32.905  34.012  1.00  0.00     0.031 A 
BRANCH  54  68
ATOM     68  C   UNL A   1      44.982  28.881  33.593  1.00  0.00    -0.014 A 
ATOM     69  C   UNL A   1      44.932  27.824  34.517  1.00  0.00     0.009 A 
ATOM     70  C   UNL A   1      46.234  29.396  33.219  1.00  0.00     0.009 A 
ATOM     71  C   UNL A   1      46.108  27.322  35.080  1.00  0.00     0.001 A 
ATOM     72  C   UNL A   1      47.408  28.870  33.759  1.00  0.00     0.001 A 
ATOM     73  C   UNL A   1      47.343  27.840  34.696  1.00  0.00     0.000 A 
ENDBRANCH  54  68
BRANCH  55  74
ATOM     74  C   UNL A   1      36.639  32.208  29.253  1.00  0.00    -0.014 A 
ATOM     75  C   UNL A   1      36.618  33.381  28.482  1.00  0.00     0.009 A 
ATOM     76  C   UNL A   1      35.435  31.520  29.469  1.00  0.00     0.009 A 
ATOM     77  C   UNL A   1      35.416  33.870  27.966  1.00  0.00     0.001 A 
ATOM     78  C   UNL A   1      34.238  31.994  28.923  1.00  0.00     0.001 A 
ATOM     79  C   UNL A   1      34.228  33.173  28.182  1.00  0.00     0.000 A 
ENDBRANCH  55  74
BRANCH  67  80
ATOM     80  C   UNL A   1      40.074  33.957  35.061  1.00  0.00    -0.014 A 
ATOM     81  C   UNL A   1      39.363  33.678  36.239  1.00  0.00     0.009 A 
ATOM     82  C   UNL A   1      40.621  35.240  34.888  1.00  0.00     0.009 A 
ATOM     83  C   UNL A   1      39.176  34.671  37.203  1.00  0.00     0.001 A 
ATOM     84  C   UNL A   1      40.463  36.219  35.869  1.00  0.00     0.001 A 
ATOM     85  C   UNL A   1      39.732  35.938  37.021  1.00  0.00     0.000 A 
ENDBRANCH  67  80
ENDBRANCH  41  42
ENDBRANCH  34  36
ENDBRANCH  33  34
ENDBRANCH  32  33
ENDBRANCH  31  32
ENDBRANCH  30  31
ENDBRANCH  29  30
ENDBRANCH   1  29
TORSDOF 21
ENDMDL
MODEL 3
REMARK VINA RESULT:      -9.5      3.924      9.789
REMARK SMILES Cc1cc(C(=O)Nc2cccc(C(=O)NCC(=O)OCCOCCOCCOC(=O)c3ccc(-c4c5nc(c(-c6ccccc6)c6ccc([nH]6)c(-c6ccccc6)c6nc(c(-c7ccccc7)c7ccc4[nH]7)C=C6)C=C5)cc3)c2)no1
REMARK SMILES IDX 23 1 22 2 21 3 20 4 19 5 17 6 18 7 16 8 15 9 13 10 14 11
REMARK SMILES IDX 12 13 8 14 9 15 79 16 10 17 11 18 7 19 5 20 6 21 4 23 1 24
REMARK SMILES IDX 2 25 3 26 81 27 80 28 24 29 25 30 26 31 27 32 28 33 29 34
REMARK SMILES IDX 30 35 31 36 32 37 78 38 33 39 77 40 34 41 35 42 36 43 71 44
REMARK SMILES IDX 37 45 76 46 70 47 72 48 38 49 75 50 69 51 68 52 39 54 61 55
REMARK SMILES IDX 46 56 60 57 47 58 50 59 59 60 73 61 48 62 49 63 58 65 74 66
REMARK SMILES IDX 51 67 40 68 41 69 45 70 42 71 44 72 43 73 62 74 63 75 67 76
REMARK SMILES IDX 64 77 66 78 65 79 52 80 53 81 57 82 54 83 56 84 55 85
REMARK H PARENT 15 12 7 22 72 53 50 64
REMARK Flexibility Score: inf
ROOT
ATOM      1  C   UNL A   1      34.361  29.323  26.498  1.00  0.00     0.188 C 
ENDROOT
BRANCH   1   2
ATOM      2  O   UNL A   1      33.395  29.335  25.459  1.00  0.00    -0.376 OA
BRANCH   2   3
ATOM      3  C   UNL A   1      33.691  28.709  24.212  1.00  0.00     0.202 C 
BRANCH   3   4
ATOM      4  C   UNL A   1      32.802  28.988  22.986  1.00  0.00     0.261 C 
BRANCH   4   5
ATOM      5  O   UNL A   1      31.437  29.324  23.309  1.00  0.00    -0.462 OA
BRANCH   5   6
ATOM      6  C   UNL A   1      30.491  28.887  22.439  1.00  0.00     0.325 C 
ATOM      7  O   UNL A   1      29.921  29.596  21.619  1.00  0.00    -0.250 OA
BRANCH   6   8
ATOM      8  C   UNL A   1      30.310  27.357  22.463  1.00  0.00     0.239 C 
BRANCH   8   9
ATOM      9  N   UNL A   1      31.374  26.473  21.985  1.00  0.00    -0.341 N 
ATOM     10  C   UNL A   1      31.959  25.351  22.507  1.00  0.00     0.251 C 
ATOM     11  O   UNL A   1      32.737  24.731  21.783  1.00  0.00    -0.269 OA
ATOM     12  H   UNL A   1      31.742  26.738  21.112  1.00  0.00     0.164 HD
BRANCH  10  13
ATOM     13  C   UNL A   1      31.640  24.814  23.857  1.00  0.00     0.041 A 
ATOM     14  C   UNL A   1      31.297  22.964  25.383  1.00  0.00     0.042 A 
ATOM     15  C   UNL A   1      31.294  23.830  26.468  1.00  0.00     0.026 A 
ATOM     16  C   UNL A   1      31.318  23.484  24.096  1.00  0.00     0.040 A 
ATOM     17  C   UNL A   1      31.507  25.193  26.252  1.00  0.00     0.003 A 
ATOM     18  C   UNL A   1      31.729  25.675  24.958  1.00  0.00     0.014 A 
BRANCH  14  19
ATOM     19  N   UNL A   1      31.310  21.578  25.581  1.00  0.00    -0.321 N 
ATOM     20  C   UNL A   1      32.353  20.676  25.365  1.00  0.00     0.277 C 
ATOM     21  O   UNL A   1      32.056  19.485  25.262  1.00  0.00    -0.267 OA
ATOM     22  H   UNL A   1      30.472  21.188  25.919  1.00  0.00     0.170 HD
BRANCH  20  23
ATOM     23  C   UNL A   1      33.761  21.140  25.372  1.00  0.00     0.171 A 
ATOM     24  C   UNL A   1      37.178  22.040  24.299  1.00  0.00     0.091 C 
ATOM     25  C   UNL A   1      35.833  21.779  24.853  1.00  0.00     0.134 A 
ATOM     26  C   UNL A   1      34.575  21.657  24.313  1.00  0.00     0.082 A 
ATOM     27  O   UNL A   1      35.767  21.497  26.179  1.00  0.00    -0.361 OA
ATOM     28  N   UNL A   1      34.483  21.119  26.509  1.00  0.00    -0.074 NA
ENDBRANCH  20  23
ENDBRANCH  14  19
ENDBRANCH  10  13
ENDBRANCH   8   9
ENDBRANCH   6   8
ENDBRANCH   5   6
ENDBRANCH   4   5
ENDBRANCH   3   4
ENDBRANCH   2   3
ENDBRANCH   1   2
BRANCH   1  29
ATOM     29  C   UNL A   1      34.101  30.144  27.766  1.00  0.00     0.188 C 
BRANCH  29  30
ATOM     30  O   UNL A   1      33.427  31.356  27.581  1.00  0.00    -0.376 OA
BRANCH  30  31
ATOM     31  C   UNL A   1      34.058  32.562  27.963  1.00  0.00     0.202 C 
BRANCH  31  32
ATOM     32  C   UNL A   1      34.145  33.035  29.430  1.00  0.00     0.261 C 
BRANCH  32  33
ATOM     33  O   UNL A   1      34.789  32.183  30.392  1.00  0.00    -0.460 OA
BRANCH  33  34
ATOM     34  C   UNL A   1      35.911  32.648  30.991  1.00  0.00     0.338 C 
ATOM     35  O   UNL A   1      35.978  33.514  31.853  1.00  0.00    -0.246 OA
BRANCH  34  36
ATOM     36  C   UNL A   1      37.028  31.742  30.630  1.00  0.00     0.060 A 
ATOM     37  C   UNL A   1      37.790  31.141  31.647  1.00  0.00     0.016 A 
ATOM     38  C   UNL A   1      37.307  31.468  29.292  1.00  0.00     0.016 A 
ATOM     39  C   UNL A   1      38.852  30.289  31.328  1.00  0.00     0.010 A 
ATOM     40  C   UNL A   1      38.389  30.643  28.973  1.00  0.00     0.010 A 
ATOM     41  C   UNL A   1      39.188  30.076  29.985  1.00  0.00    -0.014 A 
BRANCH  41  42
ATOM     42  C   UNL A   1      40.492  29.473  29.615  1.00  0.00     0.031 A 
ATOM     43  C   UNL A   1      41.688  30.384  29.540  1.00  0.00     0.074 A 
ATOM     44  C   UNL A   1      40.622  28.170  29.313  1.00  0.00     0.049 A 
ATOM     45  N   UNL A   1      42.891  30.146  29.084  1.00  0.00    -0.248 NA
ATOM     46  C   UNL A   1      41.492  31.755  30.041  1.00  0.00     0.031 C 
ATOM     47  C   UNL A   1      39.567  27.164  29.406  1.00  0.00     0.029 A 
ATOM     48  N   UNL A   1      41.710  27.478  28.837  1.00  0.00    -0.354 N 
ATOM     49  C   UNL A   1      43.584  31.343  29.216  1.00  0.00     0.074 A 
ATOM     50  C   UNL A   1      42.665  32.309  29.777  1.00  0.00     0.031 C 
ATOM     51  C   UNL A   1      40.053  25.984  28.978  1.00  0.00     0.029 A 
ATOM     52  C   UNL A   1      41.436  26.165  28.534  1.00  0.00     0.049 A 
ATOM     53  H   UNL A   1      42.599  27.883  28.726  1.00  0.00     0.167 HD
ATOM     54  C   UNL A   1      44.871  31.618  28.896  1.00  0.00     0.031 A 
ATOM     55  C   UNL A   1      42.200  25.233  27.933  1.00  0.00     0.031 A 
ATOM     56  C   UNL A   1      45.780  30.665  28.322  1.00  0.00     0.049 A 
ATOM     57  C   UNL A   1      43.600  25.587  27.495  1.00  0.00     0.074 A 
ATOM     58  C   UNL A   1      47.106  30.844  27.970  1.00  0.00     0.029 A 
ATOM     59  N   UNL A   1      45.454  29.355  28.005  1.00  0.00    -0.354 N 
ATOM     60  N   UNL A   1      44.252  26.718  27.629  1.00  0.00    -0.248 NA
ATOM     61  C   UNL A   1      44.372  24.531  26.821  1.00  0.00     0.031 C 
ATOM     62  C   UNL A   1      47.564  29.661  27.380  1.00  0.00     0.029 A 
ATOM     63  C   UNL A   1      46.546  28.723  27.437  1.00  0.00     0.049 A 
ATOM     64  H   UNL A   1      44.576  28.937  28.162  1.00  0.00     0.167 HD
ATOM     65  C   UNL A   1      45.518  26.495  27.097  1.00  0.00     0.074 A 
ATOM     66  C   UNL A   1      45.546  25.121  26.645  1.00  0.00     0.031 C 
ATOM     67  C   UNL A   1      46.565  27.351  26.998  1.00  0.00     0.031 A 
BRANCH  54  68
ATOM     68  C   UNL A   1      45.351  33.025  29.117  1.00  0.00    -0.014 A 
ATOM     69  C   UNL A   1      45.217  34.011  28.126  1.00  0.00     0.009 A 
ATOM     70  C   UNL A   1      45.927  33.375  30.349  1.00  0.00     0.009 A 
ATOM     71  C   UNL A   1      45.685  35.308  28.353  1.00  0.00     0.001 A 
ATOM     72  C   UNL A   1      46.362  34.679  30.584  1.00  0.00     0.001 A 
ATOM     73  C   UNL A   1      46.250  35.642  29.583  1.00  0.00     0.000 A 
ENDBRANCH  54  68
BRANCH  55  74
ATOM     74  C   UNL A   1      41.658  23.871  27.670  1.00  0.00    -0.014 A 
ATOM     75  C   UNL A   1      42.063  22.778  28.452  1.00  0.00     0.009 A 
ATOM     76  C   UNL A   1      40.759  23.652  26.615  1.00  0.00     0.009 A 
ATOM     77  C   UNL A   1      41.603  21.490  28.164  1.00  0.00     0.001 A 
ATOM     78  C   UNL A   1      40.274  22.368  26.350  1.00  0.00     0.001 A 
ATOM     79  C   UNL A   1      40.705  21.287  27.117  1.00  0.00     0.000 A 
ENDBRANCH  55  74
BRANCH  67  80
ATOM     80  C   UNL A   1      47.855  26.816  26.435  1.00  0.00    -0.014 A 
ATOM     81  C   UNL A   1      48.186  26.959  25.078  1.00  0.00     0.009 A 
ATOM     82  C   UNL A   1      48.780  26.204  27.297  1.00  0.00     0.009 A 
ATOM     83  C   UNL A   1      49.400  26.470  24.592  1.00  0.00     0.001 A 
ATOM     84  C   UNL A   1      50.008  25.748  26.815  1.00  0.00     0.001 A 
ATOM     85  C   UNL A   1      50.313  25.872  25.462  1.00  0.00     0.000 A 
ENDBRANCH  67  80
ENDBRANCH  41  42
ENDBRANCH  34  36
ENDBRANCH  33  34
ENDBRANCH  32  33
ENDBRANCH  31  32
ENDBRANCH  30  31
ENDBRANCH  29  30
ENDBRANCH   1  29
TORSDOF 21
ENDMDL
