MODEL 1
REMARK VINA RESULT:     -11.2      0.000      0.000
REMARK SMILES O=C(OCCOCCOCCOC(=O)c1nn(Cc2ccc(F)cc2)c2c1CN(C(=O)[C@H]1CC1(F)F)CC2)c1ccc(-c2c3nc(c(-c4ccccc4)c4ccc([nH]4)c(-c4ccccc4)c4nc(c(-c5ccccc5)c5ccc2[nH]5)C=C4)C=C3)cc1
REMARK SMILES IDX 7 1 6 2 5 3 4 4 3 5 2 6 1 7 39 8 40 9 86 10 41 11 85 12
REMARK SMILES IDX 42 13 43 14 44 15 79 16 45 17 84 18 78 19 80 20 46 21 83 22
REMARK SMILES IDX 77 23 76 24 47 26 69 27 54 28 68 29 55 30 58 31 67 32 81 33
REMARK SMILES IDX 56 34 57 35 66 37 82 38 59 39 48 40 49 41 53 42 50 43 52 44
REMARK SMILES IDX 51 45 70 46 71 47 75 48 72 49 74 50 73 51 60 52 61 53 65 54
REMARK SMILES IDX 62 55 64 56 63 57 8 58 9 59 10 60 11 61 12 62 13 63 14 64
REMARK SMILES IDX 15 65 16 66 27 67 17 68 26 69 28 70 38 71 29 72 37 73 18 74
REMARK SMILES IDX 19 75 20 76 25 77 21 78 24 79 22 80 23 81 30 82 31 83 32 84
REMARK SMILES IDX 33 85 34 86 35 87 36 88
REMARK H PARENT 80 25 58 36
REMARK Flexibility Score: inf
ROOT
ATOM      1  C   UNL A   1      33.961  33.197  28.115  1.00  0.00     0.188 C 
ENDROOT
BRANCH   1   2
ATOM      2  O   UNL A   1      34.152  34.248  29.054  1.00  0.00    -0.376 OA
BRANCH   2   3
ATOM      3  C   UNL A   1      33.548  35.512  28.855  1.00  0.00     0.202 C 
BRANCH   3   4
ATOM      4  C   UNL A   1      32.833  36.125  30.049  1.00  0.00     0.261 C 
BRANCH   4   5
ATOM      5  O   UNL A   1      32.744  35.234  31.163  1.00  0.00    -0.460 OA
BRANCH   5   6
ATOM      6  C   UNL A   1      33.410  35.231  32.334  1.00  0.00     0.338 C 
ATOM      7  O   UNL A   1      33.039  36.012  33.210  1.00  0.00    -0.246 OA
BRANCH   6   8
ATOM      8  C   UNL A   1      34.650  34.439  32.614  1.00  0.00     0.060 A 
ATOM      9  C   UNL A   1      35.884  34.936  33.033  1.00  0.00     0.016 A 
ATOM     10  C   UNL A   1      34.552  33.057  32.350  1.00  0.00     0.016 A 
ATOM     11  C   UNL A   1      37.012  34.118  33.042  1.00  0.00     0.010 A 
ATOM     12  C   UNL A   1      35.671  32.228  32.384  1.00  0.00     0.010 A 
ATOM     13  C   UNL A   1      36.920  32.783  32.650  1.00  0.00    -0.014 A 
BRANCH  13  14
ATOM     14  C   UNL A   1      38.174  32.077  32.394  1.00  0.00     0.031 A 
ATOM     15  C   UNL A   1      39.168  31.935  33.492  1.00  0.00     0.074 A 
ATOM     16  C   UNL A   1      38.459  31.542  31.190  1.00  0.00     0.049 A 
ATOM     17  N   UNL A   1      40.397  32.348  33.519  1.00  0.00    -0.248 NA
ATOM     18  C   UNL A   1      38.744  31.225  34.705  1.00  0.00     0.031 C 
ATOM     19  C   UNL A   1      37.551  31.323  30.061  1.00  0.00     0.029 A 
ATOM     20  N   UNL A   1      39.635  30.993  30.763  1.00  0.00    -0.354 N 
ATOM     21  C   UNL A   1      40.951  31.845  34.693  1.00  0.00     0.074 A 
ATOM     22  C   UNL A   1      39.874  31.205  35.412  1.00  0.00     0.031 C 
ATOM     23  C   UNL A   1      38.143  30.496  29.173  1.00  0.00     0.029 A 
ATOM     24  C   UNL A   1      39.512  30.257  29.600  1.00  0.00     0.049 A 
ATOM     25  H   UNL A   1      40.488  31.111  31.239  1.00  0.00     0.167 HD
ATOM     26  C   UNL A   1      42.287  31.861  34.957  1.00  0.00     0.031 A 
ATOM     27  C   UNL A   1      40.444  29.460  29.037  1.00  0.00     0.031 A 
ATOM     28  C   UNL A   1      43.020  32.769  34.126  1.00  0.00     0.049 A 
ATOM     29  C   UNL A   1      41.776  29.856  29.536  1.00  0.00     0.074 A 
ATOM     30  C   UNL A   1      43.045  34.137  33.948  1.00  0.00     0.029 A 
ATOM     31  N   UNL A   1      43.754  32.244  33.093  1.00  0.00    -0.354 N 
ATOM     32  N   UNL A   1      42.369  30.970  29.221  1.00  0.00    -0.248 NA
ATOM     33  C   UNL A   1      42.358  29.139  30.659  1.00  0.00     0.031 C 
ATOM     34  C   UNL A   1      43.412  34.334  32.584  1.00  0.00     0.029 A 
ATOM     35  C   UNL A   1      43.577  33.071  32.012  1.00  0.00     0.049 A 
ATOM     36  H   UNL A   1      44.304  31.428  33.121  1.00  0.00     0.167 HD
ATOM     37  C   UNL A   1      43.127  31.298  30.333  1.00  0.00     0.074 A 
ATOM     38  C   UNL A   1      43.206  30.068  31.109  1.00  0.00     0.031 C 
ATOM     39  C   UNL A   1      43.377  32.602  30.657  1.00  0.00     0.031 A 
BRANCH  26  40
ATOM     40  C   UNL A   1      42.979  30.850  35.830  1.00  0.00    -0.014 A 
ATOM     41  C   UNL A   1      43.600  31.265  37.021  1.00  0.00     0.009 A 
ATOM     42  C   UNL A   1      43.244  29.539  35.392  1.00  0.00     0.009 A 
ATOM     43  C   UNL A   1      44.447  30.407  37.736  1.00  0.00     0.001 A 
ATOM     44  C   UNL A   1      44.060  28.669  36.123  1.00  0.00     0.001 A 
ATOM     45  C   UNL A   1      44.672  29.108  37.289  1.00  0.00     0.000 A 
ENDBRANCH  26  40
BRANCH  27  46
ATOM     46  C   UNL A   1      40.208  28.241  28.242  1.00  0.00    -0.014 A 
ATOM     47  C   UNL A   1      40.873  28.023  27.028  1.00  0.00     0.009 A 
ATOM     48  C   UNL A   1      39.480  27.171  28.799  1.00  0.00     0.009 A 
ATOM     49  C   UNL A   1      40.821  26.770  26.404  1.00  0.00     0.001 A 
ATOM     50  C   UNL A   1      39.422  25.926  28.172  1.00  0.00     0.001 A 
ATOM     51  C   UNL A   1      40.104  25.722  26.978  1.00  0.00     0.000 A 
ENDBRANCH  27  46
BRANCH  39  52
ATOM     52  C   UNL A   1      43.075  33.652  29.615  1.00  0.00    -0.014 A 
ATOM     53  C   UNL A   1      41.845  34.330  29.569  1.00  0.00     0.009 A 
ATOM     54  C   UNL A   1      44.096  34.069  28.747  1.00  0.00     0.009 A 
ATOM     55  C   UNL A   1      41.626  35.362  28.652  1.00  0.00     0.001 A 
ATOM     56  C   UNL A   1      43.885  35.117  27.846  1.00  0.00     0.001 A 
ATOM     57  C   UNL A   1      42.648  35.758  27.793  1.00  0.00     0.000 A 
ENDBRANCH  39  52
ENDBRANCH  13  14
ENDBRANCH   6   8
ENDBRANCH   5   6
ENDBRANCH   4   5
ENDBRANCH   3   4
ENDBRANCH   2   3
ENDBRANCH   1   2
BRANCH   1  58
ATOM     58  C   UNL A   1      34.410  31.744  28.354  1.00  0.00     0.188 C 
BRANCH  58  59
ATOM     59  O   UNL A   1      34.583  30.855  27.264  1.00  0.00    -0.376 OA
BRANCH  59  60
ATOM     60  C   UNL A   1      33.628  29.837  27.017  1.00  0.00     0.202 C 
BRANCH  60  61
ATOM     61  C   UNL A   1      33.169  29.652  25.573  1.00  0.00     0.261 C 
BRANCH  61  62
ATOM     62  O   UNL A   1      34.102  28.881  24.801  1.00  0.00    -0.458 OA
BRANCH  62  63
ATOM     63  C   UNL A   1      33.592  28.051  23.852  1.00  0.00     0.359 C 
ATOM     64  O   UNL A   1      34.016  27.958  22.697  1.00  0.00    -0.244 OA
BRANCH  63  65
ATOM     65  C   UNL A   1      32.530  27.193  24.372  1.00  0.00     0.175 A 
ATOM     66  N   UNL A   1      32.790  26.211  25.259  1.00  0.00    -0.165 NA
ATOM     67  C   UNL A   1      31.141  27.253  24.079  1.00  0.00     0.028 A 
ATOM     68  N   UNL A   1      31.584  25.674  25.551  1.00  0.00    -0.264 N 
ATOM     69  C   UNL A   1      30.575  26.251  24.838  1.00  0.00     0.046 A 
ATOM     70  C   UNL A   1      30.377  28.142  23.157  1.00  0.00     0.159 C 
ATOM     71  C   UNL A   1      29.124  25.946  24.882  1.00  0.00     0.078 C 
ATOM     72  N   UNL A   1      28.929  27.941  23.365  1.00  0.00    -0.337 N 
ATOM     73  C   UNL A   1      28.463  26.563  23.633  1.00  0.00     0.126 C 
BRANCH  68  74
ATOM     74  C   UNL A   1      31.475  24.718  26.648  1.00  0.00     0.180 C 
BRANCH  74  75
ATOM     75  C   UNL A   1      32.094  23.380  26.324  1.00  0.00    -0.026 A 
ATOM     76  C   UNL A   1      33.293  22.985  26.944  1.00  0.00     0.008 A 
ATOM     77  C   UNL A   1      31.470  22.497  25.428  1.00  0.00     0.008 A 
ATOM     78  C   UNL A   1      33.854  21.737  26.678  1.00  0.00     0.039 A 
ATOM     79  C   UNL A   1      32.032  21.245  25.166  1.00  0.00     0.039 A 
ATOM     80  C   UNL A   1      33.217  20.877  25.794  1.00  0.00     0.123 A 
ATOM     81  F   UNL A   1      33.748  19.673  25.544  1.00  0.00    -0.207 F 
ENDBRANCH  74  75
ENDBRANCH  68  74
BRANCH  72  82
ATOM     82  C   UNL A   1      28.093  29.018  23.107  1.00  0.00     0.232 C 
ATOM     83  O   UNL A   1      26.873  28.958  23.194  1.00  0.00    -0.274 OA
BRANCH  82  84
ATOM     84  C   UNL A   1      28.732  30.299  22.744  1.00  0.00     0.154 C 
ATOM     85  C   UNL A   1      28.033  31.251  21.786  1.00  0.00     0.097 C 
ATOM     86  C   UNL A   1      28.158  31.578  23.226  1.00  0.00     0.260 C 
ATOM     87  F   UNL A   1      27.019  31.659  23.990  1.00  0.00    -0.206 F 
ATOM     88  F   UNL A   1      28.980  32.617  23.602  1.00  0.00    -0.206 F 
ENDBRANCH  82  84
ENDBRANCH  72  82
ENDBRANCH  63  65
ENDBRANCH  62  63
ENDBRANCH  61  62
ENDBRANCH  60  61
ENDBRANCH  59  60
ENDBRANCH  58  59
ENDBRANCH   1  58
TORSDOF 21
ENDMDL
MODEL 2
REMARK VINA RESULT:     -11.0      2.887      6.181
REMARK SMILES O=C(OCCOCCOCCOC(=O)c1nn(Cc2ccc(F)cc2)c2c1CN(C(=O)[C@H]1CC1(F)F)CC2)c1ccc(-c2c3nc(c(-c4ccccc4)c4ccc([nH]4)c(-c4ccccc4)c4nc(c(-c5ccccc5)c5ccc2[nH]5)C=C4)C=C3)cc1
REMARK SMILES IDX 7 1 6 2 5 3 4 4 3 5 2 6 1 7 39 8 40 9 86 10 41 11 85 12
REMARK SMILES IDX 42 13 43 14 44 15 79 16 45 17 84 18 78 19 80 20 46 21 83 22
REMARK SMILES IDX 77 23 76 24 47 26 69 27 54 28 68 29 55 30 58 31 67 32 81 33
REMARK SMILES IDX 56 34 57 35 66 37 82 38 59 39 48 40 49 41 53 42 50 43 52 44
REMARK SMILES IDX 51 45 70 46 71 47 75 48 72 49 74 50 73 51 60 52 61 53 65 54
REMARK SMILES IDX 62 55 64 56 63 57 8 58 9 59 10 60 11 61 12 62 13 63 14 64
REMARK SMILES IDX 15 65 16 66 27 67 17 68 26 69 28 70 38 71 29 72 37 73 18 74
REMARK SMILES IDX 19 75 20 76 25 77 21 78 24 79 22 80 23 81 30 82 31 83 32 84
REMARK SMILES IDX 33 85 34 86 35 87 36 88
REMARK H PARENT 80 25 58 36
REMARK Flexibility Score: inf
ROOT
ATOM      1  C   UNL A   1      32.088  30.074  26.214  1.00  0.00     0.188 C 
ENDROOT
BRANCH   1   2
ATOM      2  O   UNL A   1      32.631  30.514  27.453  1.00  0.00    -0.376 OA
BRANCH   2   3
ATOM      3  C   UNL A   1      34.013  30.789  27.577  1.00  0.00     0.202 C 
BRANCH   3   4
ATOM      4  C   UNL A   1      34.397  32.213  27.948  1.00  0.00     0.261 C 
BRANCH   4   5
ATOM      5  O   UNL A   1      34.593  32.389  29.354  1.00  0.00    -0.460 OA
BRANCH   5   6
ATOM      6  C   UNL A   1      35.674  32.149  30.121  1.00  0.00     0.338 C 
ATOM      7  O   UNL A   1      35.900  32.918  31.055  1.00  0.00    -0.246 OA
BRANCH   6   8
ATOM      8  C   UNL A   1      36.698  31.091  29.853  1.00  0.00     0.060 A 
ATOM      9  C   UNL A   1      36.508  29.710  29.905  1.00  0.00     0.016 A 
ATOM     10  C   UNL A   1      38.000  31.567  29.591  1.00  0.00     0.016 A 
ATOM     11  C   UNL A   1      37.597  28.841  29.850  1.00  0.00     0.010 A 
ATOM     12  C   UNL A   1      39.089  30.702  29.508  1.00  0.00     0.010 A 
ATOM     13  C   UNL A   1      38.893  29.340  29.724  1.00  0.00    -0.014 A 
BRANCH  13  14
ATOM     14  C   UNL A   1      39.992  28.410  29.977  1.00  0.00     0.031 A 
ATOM     15  C   UNL A   1      40.616  28.369  31.326  1.00  0.00     0.074 A 
ATOM     16  C   UNL A   1      40.458  27.579  29.022  1.00  0.00     0.049 A 
ATOM     17  N   UNL A   1      41.855  28.583  31.643  1.00  0.00    -0.248 NA
ATOM     18  C   UNL A   1      39.754  28.026  32.463  1.00  0.00     0.031 C 
ATOM     19  C   UNL A   1      39.846  27.253  27.732  1.00  0.00     0.029 A 
ATOM     20  N   UNL A   1      41.560  26.774  29.065  1.00  0.00    -0.354 N 
ATOM     21  C   UNL A   1      41.968  28.279  32.998  1.00  0.00     0.074 A 
ATOM     22  C   UNL A   1      40.633  27.992  33.466  1.00  0.00     0.031 C 
ATOM     23  C   UNL A   1      40.458  26.166  27.216  1.00  0.00     0.029 A 
ATOM     24  C   UNL A   1      41.588  25.822  28.063  1.00  0.00     0.049 A 
ATOM     25  H   UNL A   1      42.267  26.863  29.744  1.00  0.00     0.167 HD
ATOM     26  C   UNL A   1      43.163  28.149  33.638  1.00  0.00     0.031 A 
ATOM     27  C   UNL A   1      42.444  24.784  27.948  1.00  0.00     0.031 A 
ATOM     28  C   UNL A   1      44.261  28.721  32.916  1.00  0.00     0.049 A 
ATOM     29  C   UNL A   1      43.654  25.073  28.743  1.00  0.00     0.074 A 
ATOM     30  C   UNL A   1      44.619  29.993  32.519  1.00  0.00     0.029 A 
ATOM     31  N   UNL A   1      45.108  27.870  32.254  1.00  0.00    -0.354 N 
ATOM     32  N   UNL A   1      44.530  25.981  28.428  1.00  0.00    -0.248 NA
ATOM     33  C   UNL A   1      43.762  24.548  30.094  1.00  0.00     0.031 C 
ATOM     34  C   UNL A   1      45.358  29.817  31.312  1.00  0.00     0.029 A 
ATOM     35  C   UNL A   1      45.395  28.448  31.043  1.00  0.00     0.049 A 
ATOM     36  H   UNL A   1      45.447  27.006  32.585  1.00  0.00     0.167 HD
ATOM     37  C   UNL A   1      45.028  26.432  29.640  1.00  0.00     0.074 A 
ATOM     38  C   UNL A   1      44.642  25.412  30.606  1.00  0.00     0.031 C 
ATOM     39  C   UNL A   1      45.455  27.721  29.792  1.00  0.00     0.031 A 
BRANCH  26  40
ATOM     40  C   UNL A   1      43.377  27.268  34.838  1.00  0.00    -0.014 A 
ATOM     41  C   UNL A   1      44.123  27.743  35.930  1.00  0.00     0.009 A 
ATOM     42  C   UNL A   1      43.067  25.895  34.823  1.00  0.00     0.009 A 
ATOM     43  C   UNL A   1      44.540  26.884  36.955  1.00  0.00     0.001 A 
ATOM     44  C   UNL A   1      43.451  25.042  35.863  1.00  0.00     0.001 A 
ATOM     45  C   UNL A   1      44.199  25.535  36.924  1.00  0.00     0.000 A 
ENDBRANCH  26  40
BRANCH  27  46
ATOM     46  C   UNL A   1      42.168  23.468  27.343  1.00  0.00    -0.014 A 
ATOM     47  C   UNL A   1      42.912  22.997  26.254  1.00  0.00     0.009 A 
ATOM     48  C   UNL A   1      41.301  22.566  27.992  1.00  0.00     0.009 A 
ATOM     49  C   UNL A   1      42.802  21.664  25.840  1.00  0.00     0.001 A 
ATOM     50  C   UNL A   1      41.186  21.240  27.575  1.00  0.00     0.001 A 
ATOM     51  C   UNL A   1      41.947  20.785  26.504  1.00  0.00     0.000 A 
ENDBRANCH  27  46
BRANCH  39  52
ATOM     52  C   UNL A   1      45.662  28.541  28.541  1.00  0.00    -0.014 A 
ATOM     53  C   UNL A   1      44.620  29.270  27.943  1.00  0.00     0.009 A 
ATOM     54  C   UNL A   1      46.960  28.699  28.032  1.00  0.00     0.009 A 
ATOM     55  C   UNL A   1      44.859  30.094  26.840  1.00  0.00     0.001 A 
ATOM     56  C   UNL A   1      47.203  29.542  26.943  1.00  0.00     0.001 A 
ATOM     57  C   UNL A   1      46.152  30.233  26.343  1.00  0.00     0.000 A 
ENDBRANCH  39  52
ENDBRANCH  13  14
ENDBRANCH   6   8
ENDBRANCH   5   6
ENDBRANCH   4   5
ENDBRANCH   3   4
ENDBRANCH   2   3
ENDBRANCH   1   2
BRANCH   1  58
ATOM     58  C   UNL A   1      32.871  29.238  25.185  1.00  0.00     0.188 C 
BRANCH  58  59
ATOM     59  O   UNL A   1      32.774  29.524  23.801  1.00  0.00    -0.376 OA
BRANCH  59  60
ATOM     60  C   UNL A   1      33.839  29.188  22.927  1.00  0.00     0.202 C 
BRANCH  60  61
ATOM     61  C   UNL A   1      34.177  27.706  22.783  1.00  0.00     0.261 C 
BRANCH  61  62
ATOM     62  O   UNL A   1      33.888  27.210  21.467  1.00  0.00    -0.458 OA
BRANCH  62  63
ATOM     63  C   UNL A   1      32.923  26.258  21.357  1.00  0.00     0.359 C 
ATOM     64  O   UNL A   1      32.966  25.298  20.583  1.00  0.00    -0.244 OA
BRANCH  63  65
ATOM     65  C   UNL A   1      31.850  26.434  22.333  1.00  0.00     0.175 A 
ATOM     66  N   UNL A   1      30.808  27.258  22.093  1.00  0.00    -0.165 NA
ATOM     67  C   UNL A   1      31.710  25.801  23.597  1.00  0.00     0.028 A 
ATOM     68  N   UNL A   1      30.003  27.127  23.170  1.00  0.00    -0.264 N 
ATOM     69  C   UNL A   1      30.526  26.287  24.108  1.00  0.00     0.046 A 
ATOM     70  C   UNL A   1      32.599  24.836  24.306  1.00  0.00     0.159 C 
ATOM     71  C   UNL A   1      29.945  25.885  25.413  1.00  0.00     0.078 C 
ATOM     72  N   UNL A   1      31.907  24.316  25.503  1.00  0.00    -0.337 N 
ATOM     73  C   UNL A   1      31.065  25.261  26.269  1.00  0.00     0.126 C 
BRANCH  68  74
ATOM     74  C   UNL A   1      28.671  27.723  23.142  1.00  0.00     0.180 C 
BRANCH  74  75
ATOM     75  C   UNL A   1      28.697  29.205  22.859  1.00  0.00    -0.026 A 
ATOM     76  C   UNL A   1      28.099  29.715  21.693  1.00  0.00     0.008 A 
ATOM     77  C   UNL A   1      29.288  30.100  23.766  1.00  0.00     0.008 A 
ATOM     78  C   UNL A   1      28.087  31.086  21.440  1.00  0.00     0.039 A 
ATOM     79  C   UNL A   1      29.272  31.474  23.512  1.00  0.00     0.039 A 
ATOM     80  C   UNL A   1      28.671  31.954  22.354  1.00  0.00     0.123 A 
ATOM     81  F   UNL A   1      28.652  33.272  22.119  1.00  0.00    -0.207 F 
ENDBRANCH  74  75
ENDBRANCH  68  74
BRANCH  72  82
ATOM     82  C   UNL A   1      32.244  23.039  25.929  1.00  0.00     0.232 C 
ATOM     83  O   UNL A   1      32.879  22.818  26.953  1.00  0.00    -0.274 OA
BRANCH  82  84
ATOM     84  C   UNL A   1      31.774  21.906  25.109  1.00  0.00     0.154 C 
ATOM     85  C   UNL A   1      32.433  21.614  23.769  1.00  0.00     0.097 C 
ATOM     86  C   UNL A   1      32.635  20.712  24.928  1.00  0.00     0.260 C 
ATOM     87  F   UNL A   1      33.894  20.596  25.466  1.00  0.00    -0.206 F 
ATOM     88  F   UNL A   1      32.085  19.451  24.891  1.00  0.00    -0.206 F 
ENDBRANCH  82  84
ENDBRANCH  72  82
ENDBRANCH  63  65
ENDBRANCH  62  63
ENDBRANCH  61  62
ENDBRANCH  60  61
ENDBRANCH  59  60
ENDBRANCH  58  59
ENDBRANCH   1  58
TORSDOF 21
ENDMDL
MODEL 3
REMARK VINA RESULT:     -11.0      3.387      7.130
REMARK SMILES O=C(OCCOCCOCCOC(=O)c1nn(Cc2ccc(F)cc2)c2c1CN(C(=O)[C@H]1CC1(F)F)CC2)c1ccc(-c2c3nc(c(-c4ccccc4)c4ccc([nH]4)c(-c4ccccc4)c4nc(c(-c5ccccc5)c5ccc2[nH]5)C=C4)C=C3)cc1
REMARK SMILES IDX 7 1 6 2 5 3 4 4 3 5 2 6 1 7 39 8 40 9 86 10 41 11 85 12
REMARK SMILES IDX 42 13 43 14 44 15 79 16 45 17 84 18 78 19 80 20 46 21 83 22
REMARK SMILES IDX 77 23 76 24 47 26 69 27 54 28 68 29 55 30 58 31 67 32 81 33
REMARK SMILES IDX 56 34 57 35 66 37 82 38 59 39 48 40 49 41 53 42 50 43 52 44
REMARK SMILES IDX 51 45 70 46 71 47 75 48 72 49 74 50 73 51 60 52 61 53 65 54
REMARK SMILES IDX 62 55 64 56 63 57 8 58 9 59 10 60 11 61 12 62 13 63 14 64
REMARK SMILES IDX 15 65 16 66 27 67 17 68 26 69 28 70 38 71 29 72 37 73 18 74
REMARK SMILES IDX 19 75 20 76 25 77 21 78 24 79 22 80 23 81 30 82 31 83 32 84
REMARK SMILES IDX 33 85 34 86 35 87 36 88
REMARK H PARENT 80 25 58 36
REMARK Flexibility Score: inf
ROOT
ATOM      1  C   UNL A   1      33.948  34.139  29.036  1.00  0.00     0.188 C 
ENDROOT
BRANCH   1   2
ATOM      2  O   UNL A   1      35.249  34.362  29.562  1.00  0.00    -0.376 OA
BRANCH   2   3
ATOM      3  C   UNL A   1      35.667  33.717  30.751  1.00  0.00     0.202 C 
BRANCH   3   4
ATOM      4  C   UNL A   1      35.158  32.301  30.976  1.00  0.00     0.261 C 
BRANCH   4   5
ATOM      5  O   UNL A   1      35.993  31.308  30.375  1.00  0.00    -0.460 OA
BRANCH   5   6
ATOM      6  C   UNL A   1      36.500  30.168  30.885  1.00  0.00     0.338 C 
ATOM      7  O   UNL A   1      36.093  29.799  31.986  1.00  0.00    -0.246 OA
BRANCH   6   8
ATOM      8  C   UNL A   1      37.615  29.377  30.275  1.00  0.00     0.060 A 
ATOM      9  C   UNL A   1      38.255  28.268  30.829  1.00  0.00     0.016 A 
ATOM     10  C   UNL A   1      38.096  29.868  29.043  1.00  0.00     0.016 A 
ATOM     11  C   UNL A   1      39.421  27.762  30.256  1.00  0.00     0.010 A 
ATOM     12  C   UNL A   1      39.246  29.350  28.452  1.00  0.00     0.010 A 
ATOM     13  C   UNL A   1      39.956  28.348  29.109  1.00  0.00    -0.014 A 
BRANCH  13  14
ATOM     14  C   UNL A   1      41.320  27.971  28.744  1.00  0.00     0.031 A 
ATOM     15  C   UNL A   1      41.561  26.664  28.076  1.00  0.00     0.074 A 
ATOM     16  C   UNL A   1      42.374  28.776  28.990  1.00  0.00     0.049 A 
ATOM     17  N   UNL A   1      42.308  25.683  28.479  1.00  0.00    -0.248 NA
ATOM     18  C   UNL A   1      40.901  26.428  26.786  1.00  0.00     0.031 C 
ATOM     19  C   UNL A   1      42.358  30.187  29.382  1.00  0.00     0.029 A 
ATOM     20  N   UNL A   1      43.703  28.499  28.846  1.00  0.00    -0.354 N 
ATOM     21  C   UNL A   1      42.323  24.754  27.442  1.00  0.00     0.074 A 
ATOM     22  C   UNL A   1      41.398  25.239  26.444  1.00  0.00     0.031 C 
ATOM     23  C   UNL A   1      43.598  30.700  29.229  1.00  0.00     0.029 A 
ATOM     24  C   UNL A   1      44.508  29.622  28.877  1.00  0.00     0.049 A 
ATOM     25  H   UNL A   1      44.054  27.587  28.730  1.00  0.00     0.167 HD
ATOM     26  C   UNL A   1      43.189  23.704  27.390  1.00  0.00     0.031 A 
ATOM     27  C   UNL A   1      45.825  29.690  28.589  1.00  0.00     0.031 A 
ATOM     28  C   UNL A   1      43.806  23.413  28.650  1.00  0.00     0.049 A 
ATOM     29  C   UNL A   1      46.413  28.342  28.720  1.00  0.00     0.074 A 
ATOM     30  C   UNL A   1      43.364  22.980  29.883  1.00  0.00     0.029 A 
ATOM     31  N   UNL A   1      45.105  23.809  28.837  1.00  0.00    -0.354 N 
ATOM     32  N   UNL A   1      46.573  27.726  29.855  1.00  0.00    -0.248 NA
ATOM     33  C   UNL A   1      46.562  27.510  27.537  1.00  0.00     0.031 C 
ATOM     34  C   UNL A   1      44.265  23.551  30.830  1.00  0.00     0.029 A 
ATOM     35  C   UNL A   1      45.196  24.306  30.113  1.00  0.00     0.049 A 
ATOM     36  H   UNL A   1      45.836  23.750  28.179  1.00  0.00     0.167 HD
ATOM     37  C   UNL A   1      46.439  26.381  29.554  1.00  0.00     0.074 A 
ATOM     38  C   UNL A   1      46.595  26.303  28.107  1.00  0.00     0.031 C 
ATOM     39  C   UNL A   1      45.933  25.500  30.468  1.00  0.00     0.031 A 
BRANCH  26  40
ATOM     40  C   UNL A   1      43.669  23.078  26.109  1.00  0.00    -0.014 A 
ATOM     41  C   UNL A   1      43.601  21.684  25.944  1.00  0.00     0.009 A 
ATOM     42  C   UNL A   1      44.410  23.800  25.154  1.00  0.00     0.009 A 
ATOM     43  C   UNL A   1      44.245  21.046  24.876  1.00  0.00     0.001 A 
ATOM     44  C   UNL A   1      45.023  23.170  24.067  1.00  0.00     0.001 A 
ATOM     45  C   UNL A   1      44.952  21.789  23.935  1.00  0.00     0.000 A 
ENDBRANCH  26  40
BRANCH  27  46
ATOM     46  C   UNL A   1      46.550  30.835  28.008  1.00  0.00    -0.014 A 
ATOM     47  C   UNL A   1      46.097  31.469  26.845  1.00  0.00     0.009 A 
ATOM     48  C   UNL A   1      47.584  31.452  28.739  1.00  0.00     0.009 A 
ATOM     49  C   UNL A   1      46.652  32.689  26.437  1.00  0.00     0.001 A 
ATOM     50  C   UNL A   1      48.143  32.664  28.328  1.00  0.00     0.001 A 
ATOM     51  C   UNL A   1      47.667  33.288  27.181  1.00  0.00     0.000 A 
ENDBRANCH  27  46
BRANCH  39  52
ATOM     52  C   UNL A   1      45.820  25.966  31.899  1.00  0.00    -0.014 A 
ATOM     53  C   UNL A   1      44.698  26.668  32.372  1.00  0.00     0.009 A 
ATOM     54  C   UNL A   1      46.796  25.571  32.827  1.00  0.00     0.009 A 
ATOM     55  C   UNL A   1      44.577  27.006  33.723  1.00  0.00     0.001 A 
ATOM     56  C   UNL A   1      46.664  25.889  34.183  1.00  0.00     0.001 A 
ATOM     57  C   UNL A   1      45.558  26.613  34.628  1.00  0.00     0.000 A 
ENDBRANCH  39  52
ENDBRANCH  13  14
ENDBRANCH   6   8
ENDBRANCH   5   6
ENDBRANCH   4   5
ENDBRANCH   3   4
ENDBRANCH   2   3
ENDBRANCH   1   2
BRANCH   1  58
ATOM     58  C   UNL A   1      33.661  33.260  27.804  1.00  0.00     0.188 C 
BRANCH  58  59
ATOM     59  O   UNL A   1      33.158  31.945  27.959  1.00  0.00    -0.376 OA
BRANCH  59  60
ATOM     60  C   UNL A   1      33.980  30.828  27.661  1.00  0.00     0.202 C 
BRANCH  60  61
ATOM     61  C   UNL A   1      33.409  29.781  26.709  1.00  0.00     0.261 C 
BRANCH  61  62
ATOM     62  O   UNL A   1      33.229  28.508  27.347  1.00  0.00    -0.458 OA
BRANCH  62  63
ATOM     63  C   UNL A   1      31.960  28.028  27.437  1.00  0.00     0.359 C 
ATOM     64  O   UNL A   1      31.131  28.383  28.279  1.00  0.00    -0.244 OA
BRANCH  63  65
ATOM     65  C   UNL A   1      31.636  27.099  26.357  1.00  0.00     0.175 A 
ATOM     66  N   UNL A   1      31.617  25.765  26.557  1.00  0.00    -0.165 NA
ATOM     67  C   UNL A   1      31.285  27.413  25.016  1.00  0.00     0.028 A 
ATOM     68  N   UNL A   1      31.231  25.239  25.373  1.00  0.00    -0.264 N 
ATOM     69  C   UNL A   1      31.053  26.194  24.416  1.00  0.00     0.046 A 
ATOM     70  C   UNL A   1      31.187  28.726  24.317  1.00  0.00     0.159 C 
ATOM     71  C   UNL A   1      30.629  26.017  23.005  1.00  0.00     0.078 C 
ATOM     72  N   UNL A   1      30.585  28.530  22.982  1.00  0.00    -0.337 N 
ATOM     73  C   UNL A   1      30.962  27.311  22.235  1.00  0.00     0.126 C 
BRANCH  68  74
ATOM     74  C   UNL A   1      30.899  23.820  25.298  1.00  0.00     0.180 C 
BRANCH  74  75
ATOM     75  C   UNL A   1      32.118  22.939  25.169  1.00  0.00    -0.026 A 
ATOM     76  C   UNL A   1      32.517  22.120  26.241  1.00  0.00     0.008 A 
ATOM     77  C   UNL A   1      32.852  22.897  23.973  1.00  0.00     0.008 A 
ATOM     78  C   UNL A   1      33.621  21.277  26.120  1.00  0.00     0.039 A 
ATOM     79  C   UNL A   1      33.955  22.048  23.853  1.00  0.00     0.039 A 
ATOM     80  C   UNL A   1      34.328  21.246  24.926  1.00  0.00     0.123 A 
ATOM     81  F   UNL A   1      35.382  20.429  24.803  1.00  0.00    -0.207 F 
ENDBRANCH  74  75
ENDBRANCH  68  74
BRANCH  72  82
ATOM     82  C   UNL A   1      29.863  29.588  22.448  1.00  0.00     0.232 C 
ATOM     83  O   UNL A   1      29.671  29.733  21.247  1.00  0.00    -0.274 OA
BRANCH  82  84
ATOM     84  C   UNL A   1      29.278  30.556  23.397  1.00  0.00     0.154 C 
ATOM     85  C   UNL A   1      28.917  31.957  22.926  1.00  0.00     0.097 C 
ATOM     86  C   UNL A   1      27.862  30.970  23.257  1.00  0.00     0.260 C 
ATOM     87  F   UNL A   1      27.035  30.523  22.256  1.00  0.00    -0.206 F 
ATOM     88  F   UNL A   1      27.081  31.182  24.371  1.00  0.00    -0.206 F 
ENDBRANCH  82  84
ENDBRANCH  72  82
ENDBRANCH  63  65
ENDBRANCH  62  63
ENDBRANCH  61  62
ENDBRANCH  60  61
ENDBRANCH  59  60
ENDBRANCH  58  59
ENDBRANCH   1  58
TORSDOF 21
ENDMDL
