MODEL 1
REMARK VINA RESULT:      -9.6      0.000      0.000
REMARK SMILES COc1ccc(CCn2cc(C(=O)OCCOCCOCCOC(=O)c3ccc(-c4c5nc(c(-c6ccccc6)c6ccc([nH]6)c(-c6ccccc6)c6nc(c(-c7ccccc7)c7ccc4[nH]7)C=C6)C=C5)cc3)ccc2=O)cc1OC
REMARK SMILES IDX 18 1 17 2 16 3 15 4 14 5 12 6 13 7 11 8 9 9 10 10 76 11
REMARK SMILES IDX 75 12 77 13 74 14 8 15 7 16 6 17 3 18 4 19 79 20 5 21 78 22
REMARK SMILES IDX 2 23 1 24 80 25 81 26 19 27 20 28 21 29 22 30 23 31 24 32
REMARK SMILES IDX 25 33 26 34 27 35 73 36 28 37 72 38 29 39 30 40 31 41 66 42
REMARK SMILES IDX 32 43 71 44 65 45 67 46 33 47 70 48 64 49 63 50 34 52 56 53
REMARK SMILES IDX 41 54 55 55 42 56 45 57 54 58 68 59 43 60 44 61 53 63 69 64
REMARK SMILES IDX 46 65 35 66 36 67 40 68 37 69 39 70 38 71 57 72 58 73 62 74
REMARK SMILES IDX 59 75 61 76 60 77 47 78 48 79 52 80 49 81 51 82 50 83
REMARK H PARENT 67 51 45 62
REMARK Flexibility Score: inf
ROOT
ATOM      1  C   UNL A   1      33.251  29.163  26.042  1.00  0.00     0.188 C 
ENDROOT
BRANCH   1   2
ATOM      2  O   UNL A   1      33.707  28.173  25.128  1.00  0.00    -0.376 OA
BRANCH   2   3
ATOM      3  C   UNL A   1      33.967  28.510  23.772  1.00  0.00     0.202 C 
BRANCH   3   4
ATOM      4  C   UNL A   1      32.805  28.900  22.848  1.00  0.00     0.261 C 
BRANCH   4   5
ATOM      5  O   UNL A   1      31.536  28.976  23.508  1.00  0.00    -0.460 OA
BRANCH   5   6
ATOM      6  C   UNL A   1      30.575  28.155  23.018  1.00  0.00     0.339 C 
ATOM      7  O   UNL A   1      29.885  28.345  22.027  1.00  0.00    -0.246 OA
BRANCH   6   8
ATOM      8  C   UNL A   1      30.560  26.873  23.763  1.00  0.00     0.076 A 
ATOM      9  N   UNL A   1      31.004  24.542  23.824  1.00  0.00    -0.314 N 
ATOM     10  C   UNL A   1      30.802  25.723  23.119  1.00  0.00     0.104 A 
ATOM     11  C   UNL A   1      30.777  24.442  25.200  1.00  0.00     0.250 A 
ATOM     12  C   UNL A   1      30.443  25.718  25.891  1.00  0.00     0.072 A 
ATOM     13  O   UNL A   1      30.870  23.414  25.864  1.00  0.00    -0.269 OA
ATOM     14  C   UNL A   1      30.387  26.864  25.201  1.00  0.00     0.023 A 
BRANCH   9  15
ATOM     15  C   UNL A   1      31.680  23.431  23.145  1.00  0.00     0.130 C 
BRANCH  15  16
ATOM     16  C   UNL A   1      33.117  23.789  22.686  1.00  0.00     0.057 C 
BRANCH  16  17
ATOM     17  C   UNL A   1      34.226  22.975  23.323  1.00  0.00    -0.042 A 
ATOM     18  C   UNL A   1      36.256  21.489  24.605  1.00  0.00     0.160 A 
ATOM     19  C   UNL A   1      36.574  22.646  23.896  1.00  0.00     0.051 A 
ATOM     20  C   UNL A   1      34.929  21.044  24.643  1.00  0.00     0.160 A 
ATOM     21  C   UNL A   1      35.572  23.352  23.227  1.00  0.00     0.008 A 
ATOM     22  C   UNL A   1      33.925  21.803  24.025  1.00  0.00     0.054 A 
BRANCH  18  23
ATOM     23  O   UNL A   1      37.217  20.857  25.347  1.00  0.00    -0.493 OA
ATOM     24  C   UNL A   1      38.361  21.669  25.605  1.00  0.00     0.278 C 
ENDBRANCH  18  23
BRANCH  20  25
ATOM     25  O   UNL A   1      34.460  19.911  25.258  1.00  0.00    -0.493 OA
ATOM     26  C   UNL A   1      33.057  19.862  25.485  1.00  0.00     0.278 C 
ENDBRANCH  20  25
ENDBRANCH  16  17
ENDBRANCH  15  16
ENDBRANCH   9  15
ENDBRANCH   6   8
ENDBRANCH   5   6
ENDBRANCH   4   5
ENDBRANCH   3   4
ENDBRANCH   2   3
ENDBRANCH   1   2
BRANCH   1  27
ATOM     27  C   UNL A   1      34.201  29.740  27.115  1.00  0.00     0.188 C 
BRANCH  27  28
ATOM     28  O   UNL A   1      33.992  31.100  27.402  1.00  0.00    -0.376 OA
BRANCH  28  29
ATOM     29  C   UNL A   1      32.700  31.659  27.267  1.00  0.00     0.202 C 
BRANCH  29  30
ATOM     30  C   UNL A   1      32.394  33.171  27.238  1.00  0.00     0.261 C 
BRANCH  30  31
ATOM     31  O   UNL A   1      32.290  33.875  28.480  1.00  0.00    -0.460 OA
BRANCH  31  32
ATOM     32  C   UNL A   1      33.264  34.761  28.766  1.00  0.00     0.338 C 
ATOM     33  O   UNL A   1      33.151  35.980  28.875  1.00  0.00    -0.246 OA
BRANCH  32  34
ATOM     34  C   UNL A   1      34.489  34.016  29.106  1.00  0.00     0.060 A 
ATOM     35  C   UNL A   1      34.487  33.175  30.228  1.00  0.00     0.016 A 
ATOM     36  C   UNL A   1      35.640  34.155  28.328  1.00  0.00     0.016 A 
ATOM     37  C   UNL A   1      35.649  32.492  30.591  1.00  0.00     0.010 A 
ATOM     38  C   UNL A   1      36.809  33.485  28.704  1.00  0.00     0.010 A 
ATOM     39  C   UNL A   1      36.826  32.673  29.853  1.00  0.00    -0.014 A 
BRANCH  39  40
ATOM     40  C   UNL A   1      38.118  32.158  30.370  1.00  0.00     0.031 A 
ATOM     41  C   UNL A   1      38.653  30.868  29.813  1.00  0.00     0.074 A 
ATOM     42  C   UNL A   1      38.806  32.817  31.320  1.00  0.00     0.049 A 
ATOM     43  N   UNL A   1      39.724  30.197  30.153  1.00  0.00    -0.248 NA
ATOM     44  C   UNL A   1      37.873  30.252  28.728  1.00  0.00     0.031 C 
ATOM     45  C   UNL A   1      38.422  34.095  31.913  1.00  0.00     0.029 A 
ATOM     46  N   UNL A   1      39.976  32.486  31.957  1.00  0.00    -0.354 N 
ATOM     47  C   UNL A   1      39.741  29.076  29.332  1.00  0.00     0.074 A 
ATOM     48  C   UNL A   1      38.561  29.144  28.497  1.00  0.00     0.031 C 
ATOM     49  C   UNL A   1      39.335  34.436  32.839  1.00  0.00     0.029 A 
ATOM     50  C   UNL A   1      40.346  33.384  32.927  1.00  0.00     0.049 A 
ATOM     51  H   UNL A   1      40.498  31.680  31.740  1.00  0.00     0.167 HD
ATOM     52  C   UNL A   1      40.656  28.080  29.274  1.00  0.00     0.031 A 
ATOM     53  C   UNL A   1      41.370  33.347  33.802  1.00  0.00     0.031 A 
ATOM     54  C   UNL A   1      41.818  27.997  30.117  1.00  0.00     0.049 A 
ATOM     55  C   UNL A   1      42.329  32.184  33.778  1.00  0.00     0.074 A 
ATOM     56  C   UNL A   1      42.810  27.032  30.124  1.00  0.00     0.029 A 
ATOM     57  N   UNL A   1      42.138  28.909  31.110  1.00  0.00    -0.354 N 
ATOM     58  N   UNL A   1      42.350  31.144  32.980  1.00  0.00    -0.248 NA
ATOM     59  C   UNL A   1      43.410  32.196  34.776  1.00  0.00     0.031 C 
ATOM     60  C   UNL A   1      43.700  27.328  31.163  1.00  0.00     0.029 A 
ATOM     61  C   UNL A   1      43.296  28.512  31.757  1.00  0.00     0.049 A 
ATOM     62  H   UNL A   1      41.619  29.717  31.325  1.00  0.00     0.167 HD
ATOM     63  C   UNL A   1      43.460  30.397  33.357  1.00  0.00     0.074 A 
ATOM     64  C   UNL A   1      44.093  31.108  34.448  1.00  0.00     0.031 C 
ATOM     65  C   UNL A   1      43.917  29.229  32.842  1.00  0.00     0.031 A 
BRANCH  52  66
ATOM     66  C   UNL A   1      40.408  26.974  28.286  1.00  0.00    -0.014 A 
ATOM     67  C   UNL A   1      40.943  27.019  26.989  1.00  0.00     0.009 A 
ATOM     68  C   UNL A   1      39.643  25.860  28.668  1.00  0.00     0.009 A 
ATOM     69  C   UNL A   1      40.685  25.988  26.083  1.00  0.00     0.001 A 
ATOM     70  C   UNL A   1      39.413  24.817  27.770  1.00  0.00     0.001 A 
ATOM     71  C   UNL A   1      39.924  24.886  26.476  1.00  0.00     0.000 A 
ENDBRANCH  52  66
BRANCH  53  72
ATOM     72  C   UNL A   1      41.539  34.438  34.798  1.00  0.00    -0.014 A 
ATOM     73  C   UNL A   1      40.915  34.366  36.053  1.00  0.00     0.009 A 
ATOM     74  C   UNL A   1      42.308  35.571  34.489  1.00  0.00     0.009 A 
ATOM     75  C   UNL A   1      41.038  35.416  36.967  1.00  0.00     0.001 A 
ATOM     76  C   UNL A   1      42.453  36.606  35.415  1.00  0.00     0.001 A 
ATOM     77  C   UNL A   1      41.810  36.532  36.650  1.00  0.00     0.000 A 
ENDBRANCH  53  72
BRANCH  65  78
ATOM     78  C   UNL A   1      45.187  28.665  33.418  1.00  0.00    -0.014 A 
ATOM     79  C   UNL A   1      45.168  27.773  34.501  1.00  0.00     0.009 A 
ATOM     80  C   UNL A   1      46.419  28.997  32.833  1.00  0.00     0.009 A 
ATOM     81  C   UNL A   1      46.362  27.250  35.005  1.00  0.00     0.001 A 
ATOM     82  C   UNL A   1      47.608  28.449  33.319  1.00  0.00     0.001 A 
ATOM     83  C   UNL A   1      47.579  27.583  34.411  1.00  0.00     0.000 A 
ENDBRANCH  65  78
ENDBRANCH  39  40
ENDBRANCH  32  34
ENDBRANCH  31  32
ENDBRANCH  30  31
ENDBRANCH  29  30
ENDBRANCH  28  29
ENDBRANCH  27  28
ENDBRANCH   1  27
TORSDOF 22
ENDMDL
MODEL 2
REMARK VINA RESULT:      -9.6      2.083      8.682
REMARK SMILES COc1ccc(CCn2cc(C(=O)OCCOCCOCCOC(=O)c3ccc(-c4c5nc(c(-c6ccccc6)c6ccc([nH]6)c(-c6ccccc6)c6nc(c(-c7ccccc7)c7ccc4[nH]7)C=C6)C=C5)cc3)ccc2=O)cc1OC
REMARK SMILES IDX 18 1 17 2 16 3 15 4 14 5 12 6 13 7 11 8 9 9 10 10 76 11
REMARK SMILES IDX 75 12 77 13 74 14 8 15 7 16 6 17 3 18 4 19 79 20 5 21 78 22
REMARK SMILES IDX 2 23 1 24 80 25 81 26 19 27 20 28 21 29 22 30 23 31 24 32
REMARK SMILES IDX 25 33 26 34 27 35 73 36 28 37 72 38 29 39 30 40 31 41 66 42
REMARK SMILES IDX 32 43 71 44 65 45 67 46 33 47 70 48 64 49 63 50 34 52 56 53
REMARK SMILES IDX 41 54 55 55 42 56 45 57 54 58 68 59 43 60 44 61 53 63 69 64
REMARK SMILES IDX 46 65 35 66 36 67 40 68 37 69 39 70 38 71 57 72 58 73 62 74
REMARK SMILES IDX 59 75 61 76 60 77 47 78 48 79 52 80 49 81 51 82 50 83
REMARK H PARENT 67 51 45 62
REMARK Flexibility Score: inf
ROOT
ATOM      1  C   UNL A   1      38.240  22.493  25.895  1.00  0.00     0.188 C 
ENDROOT
BRANCH   1   2
ATOM      2  O   UNL A   1      37.662  21.622  24.929  1.00  0.00    -0.376 OA
BRANCH   2   3
ATOM      3  C   UNL A   1      36.252  21.462  24.855  1.00  0.00     0.202 C 
BRANCH   3   4
ATOM      4  C   UNL A   1      35.636  20.063  25.002  1.00  0.00     0.261 C 
BRANCH   4   5
ATOM      5  O   UNL A   1      34.270  19.980  24.576  1.00  0.00    -0.460 OA
BRANCH   5   6
ATOM      6  C   UNL A   1      33.355  20.445  25.461  1.00  0.00     0.339 C 
ATOM      7  O   UNL A   1      33.285  20.178  26.651  1.00  0.00    -0.246 OA
BRANCH   6   8
ATOM      8  C   UNL A   1      32.502  21.480  24.828  1.00  0.00     0.076 A 
ATOM      9  N   UNL A   1      31.109  23.390  25.044  1.00  0.00    -0.314 N 
ATOM     10  C   UNL A   1      31.746  22.282  25.591  1.00  0.00     0.104 A 
ATOM     11  C   UNL A   1      31.054  23.619  23.666  1.00  0.00     0.250 A 
ATOM     12  C   UNL A   1      31.846  22.679  22.825  1.00  0.00     0.072 A 
ATOM     13  O   UNL A   1      30.449  24.537  23.121  1.00  0.00    -0.269 OA
ATOM     14  C   UNL A   1      32.558  21.700  23.397  1.00  0.00     0.023 A 
BRANCH   9  15
ATOM     15  C   UNL A   1      30.670  24.458  25.948  1.00  0.00     0.130 C 
BRANCH  15  16
ATOM     16  C   UNL A   1      31.835  25.357  26.432  1.00  0.00     0.057 C 
BRANCH  16  17
ATOM     17  C   UNL A   1      31.648  26.845  26.207  1.00  0.00    -0.042 A 
ATOM     18  C   UNL A   1      31.385  29.614  25.722  1.00  0.00     0.160 A 
ATOM     19  C   UNL A   1      31.817  29.157  26.966  1.00  0.00     0.051 A 
ATOM     20  C   UNL A   1      31.041  28.690  24.727  1.00  0.00     0.160 A 
ATOM     21  C   UNL A   1      31.903  27.786  27.213  1.00  0.00     0.008 A 
ATOM     22  C   UNL A   1      31.200  27.318  24.969  1.00  0.00     0.054 A 
BRANCH  18  23
ATOM     23  O   UNL A   1      31.401  30.953  25.443  1.00  0.00    -0.493 OA
ATOM     24  C   UNL A   1      31.287  31.776  26.602  1.00  0.00     0.278 C 
ENDBRANCH  18  23
BRANCH  20  25
ATOM     25  O   UNL A   1      30.562  28.973  23.473  1.00  0.00    -0.493 OA
ATOM     26  C   UNL A   1      29.358  28.313  23.102  1.00  0.00     0.278 C 
ENDBRANCH  20  25
ENDBRANCH  16  17
ENDBRANCH  15  16
ENDBRANCH   9  15
ENDBRANCH   6   8
ENDBRANCH   5   6
ENDBRANCH   4   5
ENDBRANCH   3   4
ENDBRANCH   2   3
ENDBRANCH   1   2
BRANCH   1  27
ATOM     27  C   UNL A   1      39.608  22.164  26.531  1.00  0.00     0.188 C 
BRANCH  27  28
ATOM     28  O   UNL A   1      40.252  21.046  25.973  1.00  0.00    -0.376 OA
BRANCH  28  29
ATOM     29  C   UNL A   1      41.531  20.661  26.440  1.00  0.00     0.202 C 
BRANCH  29  30
ATOM     30  C   UNL A   1      42.866  21.250  25.938  1.00  0.00     0.261 C 
BRANCH  30  31
ATOM     31  O   UNL A   1      43.362  22.445  26.550  1.00  0.00    -0.460 OA
BRANCH  31  32
ATOM     32  C   UNL A   1      43.297  23.578  25.824  1.00  0.00     0.338 C 
ATOM     33  O   UNL A   1      43.517  23.703  24.621  1.00  0.00    -0.246 OA
BRANCH  32  34
ATOM     34  C   UNL A   1      42.745  24.648  26.673  1.00  0.00     0.060 A 
ATOM     35  C   UNL A   1      43.328  25.923  26.629  1.00  0.00     0.016 A 
ATOM     36  C   UNL A   1      41.665  24.392  27.521  1.00  0.00     0.016 A 
ATOM     37  C   UNL A   1      42.847  26.939  27.456  1.00  0.00     0.010 A 
ATOM     38  C   UNL A   1      41.197  25.406  28.362  1.00  0.00     0.010 A 
ATOM     39  C   UNL A   1      41.803  26.675  28.354  1.00  0.00    -0.014 A 
BRANCH  39  40
ATOM     40  C   UNL A   1      41.456  27.664  29.405  1.00  0.00     0.031 A 
ATOM     41  C   UNL A   1      42.238  27.652  30.690  1.00  0.00     0.074 A 
ATOM     42  C   UNL A   1      40.465  28.555  29.230  1.00  0.00     0.049 A 
ATOM     43  N   UNL A   1      42.075  28.376  31.768  1.00  0.00    -0.248 NA
ATOM     44  C   UNL A   1      43.351  26.693  30.769  1.00  0.00     0.031 C 
ATOM     45  C   UNL A   1      39.660  28.701  28.020  1.00  0.00     0.029 A 
ATOM     46  N   UNL A   1      39.964  29.503  30.087  1.00  0.00    -0.354 N 
ATOM     47  C   UNL A   1      43.057  27.953  32.656  1.00  0.00     0.074 A 
ATOM     48  C   UNL A   1      43.793  26.893  32.001  1.00  0.00     0.031 C 
ATOM     49  C   UNL A   1      38.755  29.676  28.216  1.00  0.00     0.029 A 
ATOM     50  C   UNL A   1      38.894  30.196  29.575  1.00  0.00     0.049 A 
ATOM     51  H   UNL A   1      40.335  29.669  30.983  1.00  0.00     0.167 HD
ATOM     52  C   UNL A   1      43.326  28.407  33.902  1.00  0.00     0.031 A 
ATOM     53  C   UNL A   1      38.105  31.125  30.148  1.00  0.00     0.031 A 
ATOM     54  C   UNL A   1      42.584  29.445  34.566  1.00  0.00     0.049 A 
ATOM     55  C   UNL A   1      38.369  31.553  31.569  1.00  0.00     0.074 A 
ATOM     56  C   UNL A   1      42.789  29.982  35.825  1.00  0.00     0.029 A 
ATOM     57  N   UNL A   1      41.486  30.097  34.026  1.00  0.00    -0.354 N 
ATOM     58  N   UNL A   1      39.315  31.166  32.388  1.00  0.00    -0.248 NA
ATOM     59  C   UNL A   1      37.453  32.554  32.140  1.00  0.00     0.031 C 
ATOM     60  C   UNL A   1      41.778  30.917  36.070  1.00  0.00     0.029 A 
ATOM     61  C   UNL A   1      40.985  31.008  34.939  1.00  0.00     0.049 A 
ATOM     62  H   UNL A   1      41.118  29.934  33.128  1.00  0.00     0.167 HD
ATOM     63  C   UNL A   1      39.130  31.897  33.557  1.00  0.00     0.074 A 
ATOM     64  C   UNL A   1      37.988  32.758  33.336  1.00  0.00     0.031 C 
ATOM     65  C   UNL A   1      39.847  31.861  34.707  1.00  0.00     0.031 A 
BRANCH  52  66
ATOM     66  C   UNL A   1      44.453  27.746  34.647  1.00  0.00    -0.014 A 
ATOM     67  C   UNL A   1      44.232  26.621  35.459  1.00  0.00     0.009 A 
ATOM     68  C   UNL A   1      45.759  28.246  34.518  1.00  0.00     0.009 A 
ATOM     69  C   UNL A   1      45.291  26.035  36.155  1.00  0.00     0.001 A 
ATOM     70  C   UNL A   1      46.819  27.639  35.191  1.00  0.00     0.001 A 
ATOM     71  C   UNL A   1      46.584  26.541  36.017  1.00  0.00     0.000 A 
ENDBRANCH  52  66
BRANCH  53  72
ATOM     72  C   UNL A   1      36.967  31.708  29.388  1.00  0.00    -0.014 A 
ATOM     73  C   UNL A   1      37.101  32.939  28.727  1.00  0.00     0.009 A 
ATOM     74  C   UNL A   1      35.730  31.045  29.339  1.00  0.00     0.009 A 
ATOM     75  C   UNL A   1      36.014  33.505  28.056  1.00  0.00     0.001 A 
ATOM     76  C   UNL A   1      34.654  31.599  28.643  1.00  0.00     0.001 A 
ATOM     77  C   UNL A   1      34.794  32.833  28.009  1.00  0.00     0.000 A 
ENDBRANCH  53  72
BRANCH  65  78
ATOM     78  C   UNL A   1      39.448  32.810  35.804  1.00  0.00    -0.014 A 
ATOM     79  C   UNL A   1      38.538  32.435  36.804  1.00  0.00     0.009 A 
ATOM     80  C   UNL A   1      40.032  34.086  35.861  1.00  0.00     0.009 A 
ATOM     81  C   UNL A   1      38.199  33.331  37.822  1.00  0.00     0.001 A 
ATOM     82  C   UNL A   1      39.715  34.967  36.896  1.00  0.00     0.001 A 
ATOM     83  C   UNL A   1      38.791  34.593  37.870  1.00  0.00     0.000 A 
ENDBRANCH  65  78
ENDBRANCH  39  40
ENDBRANCH  32  34
ENDBRANCH  31  32
ENDBRANCH  30  31
ENDBRANCH  29  30
ENDBRANCH  28  29
ENDBRANCH  27  28
ENDBRANCH   1  27
TORSDOF 22
ENDMDL
MODEL 3
REMARK VINA RESULT:      -9.1      2.711      9.012
REMARK SMILES COc1ccc(CCn2cc(C(=O)OCCOCCOCCOC(=O)c3ccc(-c4c5nc(c(-c6ccccc6)c6ccc([nH]6)c(-c6ccccc6)c6nc(c(-c7ccccc7)c7ccc4[nH]7)C=C6)C=C5)cc3)ccc2=O)cc1OC
REMARK SMILES IDX 18 1 17 2 16 3 15 4 14 5 12 6 13 7 11 8 9 9 10 10 76 11
REMARK SMILES IDX 75 12 77 13 74 14 8 15 7 16 6 17 3 18 4 19 79 20 5 21 78 22
REMARK SMILES IDX 2 23 1 24 80 25 81 26 19 27 20 28 21 29 22 30 23 31 24 32
REMARK SMILES IDX 25 33 26 34 27 35 73 36 28 37 72 38 29 39 30 40 31 41 66 42
REMARK SMILES IDX 32 43 71 44 65 45 67 46 33 47 70 48 64 49 63 50 34 52 56 53
REMARK SMILES IDX 41 54 55 55 42 56 45 57 54 58 68 59 43 60 44 61 53 63 69 64
REMARK SMILES IDX 46 65 35 66 36 67 40 68 37 69 39 70 38 71 57 72 58 73 62 74
REMARK SMILES IDX 59 75 61 76 60 77 47 78 48 79 52 80 49 81 51 82 50 83
REMARK H PARENT 67 51 45 62
REMARK Flexibility Score: inf
ROOT
ATOM      1  C   UNL A   1      41.212  20.297  26.156  1.00  0.00     0.188 C 
ENDROOT
BRANCH   1   2
ATOM      2  O   UNL A   1      40.974  21.700  26.173  1.00  0.00    -0.376 OA
BRANCH   2   3
ATOM      3  C   UNL A   1      39.864  22.234  26.883  1.00  0.00     0.202 C 
BRANCH   3   4
ATOM      4  C   UNL A   1      38.738  22.940  26.116  1.00  0.00     0.261 C 
BRANCH   4   5
ATOM      5  O   UNL A   1      37.642  22.084  25.770  1.00  0.00    -0.460 OA
BRANCH   5   6
ATOM      6  C   UNL A   1      36.762  22.596  24.875  1.00  0.00     0.339 C 
ATOM      7  O   UNL A   1      36.985  23.463  24.043  1.00  0.00    -0.246 OA
BRANCH   6   8
ATOM      8  C   UNL A   1      35.484  21.846  24.918  1.00  0.00     0.076 A 
ATOM      9  N   UNL A   1      33.119  21.827  24.712  1.00  0.00    -0.314 N 
ATOM     10  C   UNL A   1      34.319  22.508  24.887  1.00  0.00     0.104 A 
ATOM     11  C   UNL A   1      33.035  20.432  24.755  1.00  0.00     0.250 A 
ATOM     12  C   UNL A   1      34.334  19.712  24.859  1.00  0.00     0.072 A 
ATOM     13  O   UNL A   1      31.999  19.779  24.679  1.00  0.00    -0.269 OA
ATOM     14  C   UNL A   1      35.484  20.397  24.892  1.00  0.00     0.023 A 
BRANCH   9  15
ATOM     15  C   UNL A   1      31.949  22.583  24.253  1.00  0.00     0.130 C 
BRANCH  15  16
ATOM     16  C   UNL A   1      31.273  23.397  25.385  1.00  0.00     0.057 C 
BRANCH  16  17
ATOM     17  C   UNL A   1      31.586  24.880  25.399  1.00  0.00    -0.042 A 
ATOM     18  C   UNL A   1      32.198  27.636  25.320  1.00  0.00     0.160 A 
ATOM     19  C   UNL A   1      32.988  26.761  26.064  1.00  0.00     0.051 A 
ATOM     20  C   UNL A   1      31.072  27.147  24.646  1.00  0.00     0.160 A 
ATOM     21  C   UNL A   1      32.655  25.408  26.134  1.00  0.00     0.008 A 
ATOM     22  C   UNL A   1      30.792  25.773  24.670  1.00  0.00     0.054 A 
BRANCH  18  23
ATOM     23  O   UNL A   1      32.582  28.940  25.164  1.00  0.00    -0.493 OA
ATOM     24  C   UNL A   1      31.833  29.853  25.963  1.00  0.00     0.278 C 
ENDBRANCH  18  23
BRANCH  20  25
ATOM     25  O   UNL A   1      30.174  27.876  23.910  1.00  0.00    -0.493 OA
ATOM     26  C   UNL A   1      30.462  28.002  22.523  1.00  0.00     0.278 C 
ENDBRANCH  20  25
ENDBRANCH  16  17
ENDBRANCH  15  16
ENDBRANCH   9  15
ENDBRANCH   6   8
ENDBRANCH   5   6
ENDBRANCH   4   5
ENDBRANCH   3   4
ENDBRANCH   2   3
ENDBRANCH   1   2
BRANCH   1  27
ATOM     27  C   UNL A   1      42.618  19.742  25.837  1.00  0.00     0.188 C 
BRANCH  27  28
ATOM     28  O   UNL A   1      43.673  20.604  26.187  1.00  0.00    -0.376 OA
BRANCH  28  29
ATOM     29  C   UNL A   1      44.331  21.355  25.186  1.00  0.00     0.202 C 
BRANCH  29  30
ATOM     30  C   UNL A   1      43.638  22.350  24.233  1.00  0.00     0.261 C 
BRANCH  30  31
ATOM     31  O   UNL A   1      43.324  23.660  24.718  1.00  0.00    -0.460 OA
BRANCH  31  32
ATOM     32  C   UNL A   1      44.356  24.432  25.110  1.00  0.00     0.338 C 
ATOM     33  O   UNL A   1      45.418  24.610  24.518  1.00  0.00    -0.246 OA
BRANCH  32  34
ATOM     34  C   UNL A   1      43.948  25.187  26.308  1.00  0.00     0.060 A 
ATOM     35  C   UNL A   1      42.988  24.633  27.167  1.00  0.00     0.016 A 
ATOM     36  C   UNL A   1      44.499  26.441  26.577  1.00  0.00     0.016 A 
ATOM     37  C   UNL A   1      42.556  25.349  28.285  1.00  0.00     0.010 A 
ATOM     38  C   UNL A   1      44.052  27.165  27.686  1.00  0.00     0.010 A 
ATOM     39  C   UNL A   1      43.058  26.635  28.529  1.00  0.00    -0.014 A 
BRANCH  39  40
ATOM     40  C   UNL A   1      42.429  27.499  29.559  1.00  0.00     0.031 A 
ATOM     41  C   UNL A   1      43.093  27.616  30.903  1.00  0.00     0.074 A 
ATOM     42  C   UNL A   1      41.287  28.165  29.312  1.00  0.00     0.049 A 
ATOM     43  N   UNL A   1      42.697  28.260  31.972  1.00  0.00    -0.248 NA
ATOM     44  C   UNL A   1      44.375  26.911  31.063  1.00  0.00     0.031 C 
ATOM     45  C   UNL A   1      40.566  28.172  28.042  1.00  0.00     0.029 A 
ATOM     46  N   UNL A   1      40.531  28.962  30.135  1.00  0.00    -0.354 N 
ATOM     47  C   UNL A   1      43.674  28.029  32.932  1.00  0.00     0.074 A 
ATOM     48  C   UNL A   1      44.667  27.166  32.328  1.00  0.00     0.031 C 
ATOM     49  C   UNL A   1      39.462  28.928  28.174  1.00  0.00     0.029 A 
ATOM     50  C   UNL A   1      39.383  29.428  29.545  1.00  0.00     0.049 A 
ATOM     51  H   UNL A   1      40.788  29.178  31.061  1.00  0.00     0.167 HD
ATOM     52  C   UNL A   1      43.744  28.494  34.201  1.00  0.00     0.031 A 
ATOM     53  C   UNL A   1      38.371  30.154  30.061  1.00  0.00     0.031 A 
ATOM     54  C   UNL A   1      42.749  29.334  34.813  1.00  0.00     0.049 A 
ATOM     55  C   UNL A   1      38.427  30.588  31.504  1.00  0.00     0.074 A 
ATOM     56  C   UNL A   1      42.737  29.867  36.090  1.00  0.00     0.029 A 
ATOM     57  N   UNL A   1      41.583  29.754  34.192  1.00  0.00    -0.354 N 
ATOM     58  N   UNL A   1      39.368  30.387  32.394  1.00  0.00    -0.248 NA
ATOM     59  C   UNL A   1      37.279  31.358  32.009  1.00  0.00     0.031 C 
ATOM     60  C   UNL A   1      41.534  30.561  36.262  1.00  0.00     0.029 A 
ATOM     61  C   UNL A   1      40.830  30.514  35.070  1.00  0.00     0.049 A 
ATOM     62  H   UNL A   1      41.328  29.543  33.265  1.00  0.00     0.167 HD
ATOM     63  C   UNL A   1      38.942  31.030  33.551  1.00  0.00     0.074 A 
ATOM     64  C   UNL A   1      37.664  31.637  33.247  1.00  0.00     0.031 C 
ATOM     65  C   UNL A   1      39.559  31.114  34.756  1.00  0.00     0.031 A 
BRANCH  52  66
ATOM     66  C   UNL A   1      44.923  28.065  35.029  1.00  0.00    -0.014 A 
ATOM     67  C   UNL A   1      45.950  28.965  35.360  1.00  0.00     0.009 A 
ATOM     68  C   UNL A   1      44.998  26.745  35.500  1.00  0.00     0.009 A 
ATOM     69  C   UNL A   1      47.044  28.539  36.115  1.00  0.00     0.001 A 
ATOM     70  C   UNL A   1      46.078  26.331  36.280  1.00  0.00     0.001 A 
ATOM     71  C   UNL A   1      47.106  27.224  36.578  1.00  0.00     0.000 A 
ENDBRANCH  52  66
BRANCH  53  72
ATOM     72  C   UNL A   1      37.198  30.504  29.217  1.00  0.00    -0.014 A 
ATOM     73  C   UNL A   1      36.277  29.520  28.826  1.00  0.00     0.009 A 
ATOM     74  C   UNL A   1      37.007  31.823  28.777  1.00  0.00     0.009 A 
ATOM     75  C   UNL A   1      35.204  29.846  27.993  1.00  0.00     0.001 A 
ATOM     76  C   UNL A   1      35.917  32.152  27.968  1.00  0.00     0.001 A 
ATOM     77  C   UNL A   1      35.021  31.161  27.569  1.00  0.00     0.000 A 
ENDBRANCH  53  72
BRANCH  65  78
ATOM     78  C   UNL A   1      38.883  31.927  35.826  1.00  0.00    -0.014 A 
ATOM     79  C   UNL A   1      38.159  31.319  36.862  1.00  0.00     0.009 A 
ATOM     80  C   UNL A   1      39.017  33.325  35.820  1.00  0.00     0.009 A 
ATOM     81  C   UNL A   1      37.557  32.098  37.855  1.00  0.00     0.001 A 
ATOM     82  C   UNL A   1      38.440  34.099  36.829  1.00  0.00     0.001 A 
ATOM     83  C   UNL A   1      37.703  33.485  37.840  1.00  0.00     0.000 A 
ENDBRANCH  65  78
ENDBRANCH  39  40
ENDBRANCH  32  34
ENDBRANCH  31  32
ENDBRANCH  30  31
ENDBRANCH  29  30
ENDBRANCH  28  29
ENDBRANCH  27  28
ENDBRANCH   1  27
TORSDOF 22
ENDMDL
