MODEL 1
REMARK VINA RESULT:     -10.5      0.000      0.000
REMARK SMILES CCCCc1ncc(C[N@H+]2C[C@@H]3c4ccccc4OC[C@]3(C(=O)OCCOCCOCCOC(=O)c3ccc(-c4c5nc(c(-c6ccccc6)c6ccc([nH]6)c(-c6ccccc6)c6nc(c(-c7ccccc7)c7ccc4[nH]7)C=C6)C=C5)cc3)C2)[nH]1
REMARK SMILES IDX 27 1 26 2 25 3 24 4 22 5 23 6 21 7 10 8 11 9 84 10 12 12
REMARK SMILES IDX 13 13 20 14 14 15 18 16 19 17 15 18 17 19 16 20 9 21 8 22
REMARK SMILES IDX 5 23 6 24 85 25 7 26 4 28 3 29 2 30 1 31 28 32 29 33 30 34
REMARK SMILES IDX 31 35 32 36 33 37 34 38 35 39 36 40 37 41 83 42 38 43 82 44
REMARK SMILES IDX 39 45 40 46 41 47 76 48 42 49 81 50 75 51 77 52 43 53 80 54
REMARK SMILES IDX 74 55 73 56 44 58 66 59 51 60 65 61 52 62 55 63 64 64 78 65
REMARK SMILES IDX 53 66 54 67 63 69 79 70 56 71 45 72 46 73 50 74 47 75 49 76
REMARK SMILES IDX 48 77 67 78 68 79 72 80 69 81 71 82 70 83 57 84 58 85 62 86
REMARK SMILES IDX 59 87 61 88 60 89
REMARK H PARENT 10 11 85 27 77 57 55 68
REMARK Flexibility Score: inf
ROOT
ATOM      1  O   UNL A   1      38.359  21.935  25.617  1.00  0.00    -0.376 OA
ENDROOT
BRANCH   1   2
ATOM      2  C   UNL A   1      37.454  23.022  25.625  1.00  0.00     0.202 C 
BRANCH   2   3
ATOM      3  C   UNL A   1      36.689  23.420  24.332  1.00  0.00     0.261 C 
BRANCH   3   4
ATOM      4  O   UNL A   1      35.314  23.787  24.549  1.00  0.00    -0.463 OA
BRANCH   4   5
ATOM      5  C   UNL A   1      34.383  23.985  23.538  1.00  0.00     0.322 C 
ATOM      6  O   UNL A   1      34.543  23.620  22.385  1.00  0.00    -0.251 OA
BRANCH   5   7
ATOM      7  C   UNL A   1      33.250  24.876  24.124  1.00  0.00     0.162 C 
ATOM      8  N   UNL A   1      31.330  23.575  24.994  1.00  0.00    -0.328 N 
ATOM      9  C   UNL A   1      31.418  24.770  25.796  1.00  0.00     0.272 C 
ATOM     10  C   UNL A   1      32.048  23.945  23.762  1.00  0.00     0.286 C 
ATOM     11  H   UNL A   1      30.390  23.279  24.731  1.00  0.00     0.348 HD
ATOM     12  C   UNL A   1      32.854  25.312  25.585  1.00  0.00     0.105 C 
ATOM     13  C   UNL A   1      32.632  26.812  25.834  1.00  0.00     0.004 A 
ATOM     14  C   UNL A   1      33.662  26.222  23.502  1.00  0.00     0.255 C 
ATOM     15  C   UNL A   1      32.339  27.314  27.109  1.00  0.00     0.008 A 
ATOM     16  C   UNL A   1      32.456  27.663  24.741  1.00  0.00     0.123 A 
ATOM     17  O   UNL A   1      32.638  27.196  23.474  1.00  0.00    -0.492 OA
ATOM     18  C   UNL A   1      31.875  28.627  27.260  1.00  0.00     0.001 A 
ATOM     19  C   UNL A   1      32.010  28.972  24.885  1.00  0.00     0.047 A 
ATOM     20  C   UNL A   1      31.723  29.459  26.151  1.00  0.00     0.004 A 
BRANCH   8  21
ATOM     21  C   UNL A   1      31.670  22.345  25.725  1.00  0.00     0.319 C 
BRANCH  21  22
ATOM     22  C   UNL A   1      32.278  21.235  24.933  1.00  0.00     0.090 A 
ATOM     23  C   UNL A   1      33.562  19.491  24.435  1.00  0.00     0.106 A 
ATOM     24  N   UNL A   1      32.673  19.549  23.466  1.00  0.00    -0.241 NA
ATOM     25  N   UNL A   1      33.414  20.554  25.294  1.00  0.00    -0.341 N 
ATOM     26  C   UNL A   1      31.889  20.635  23.750  1.00  0.00     0.140 A 
ATOM     27  H   UNL A   1      34.015  20.786  26.038  1.00  0.00     0.168 HD
BRANCH  23  28
ATOM     28  C   UNL A   1      34.597  18.436  24.629  1.00  0.00     0.075 C 
BRANCH  28  29
ATOM     29  C   UNL A   1      34.374  17.185  23.770  1.00  0.00     0.008 C 
BRANCH  29  30
ATOM     30  C   UNL A   1      33.284  16.220  24.246  1.00  0.00    -0.003 C 
ATOM     31  C   UNL A   1      33.254  16.029  25.750  1.00  0.00     0.004 C 
ENDBRANCH  29  30
ENDBRANCH  28  29
ENDBRANCH  23  28
ENDBRANCH  21  22
ENDBRANCH   8  21
ENDBRANCH   5   7
ENDBRANCH   4   5
ENDBRANCH   3   4
ENDBRANCH   2   3
ENDBRANCH   1   2
BRANCH   1  32
ATOM     32  C   UNL A   1      39.620  22.091  26.243  1.00  0.00     0.188 C 
BRANCH  32  33
ATOM     33  C   UNL A   1      40.228  20.699  26.504  1.00  0.00     0.188 C 
BRANCH  33  34
ATOM     34  O   UNL A   1      41.450  20.376  25.848  1.00  0.00    -0.376 OA
BRANCH  34  35
ATOM     35  C   UNL A   1      42.613  21.062  26.288  1.00  0.00     0.202 C 
BRANCH  35  36
ATOM     36  C   UNL A   1      43.393  21.832  25.213  1.00  0.00     0.261 C 
BRANCH  36  37
ATOM     37  O   UNL A   1      42.861  23.147  24.932  1.00  0.00    -0.460 OA
BRANCH  37  38
ATOM     38  C   UNL A   1      43.659  24.202  25.207  1.00  0.00     0.338 C 
ATOM     39  O   UNL A   1      44.741  24.473  24.681  1.00  0.00    -0.246 OA
BRANCH  38  40
ATOM     40  C   UNL A   1      43.012  25.092  26.190  1.00  0.00     0.060 A 
ATOM     41  C   UNL A   1      42.099  24.599  27.122  1.00  0.00     0.016 A 
ATOM     42  C   UNL A   1      43.396  26.434  26.257  1.00  0.00     0.016 A 
ATOM     43  C   UNL A   1      41.562  25.460  28.096  1.00  0.00     0.010 A 
ATOM     44  C   UNL A   1      42.844  27.294  27.212  1.00  0.00     0.010 A 
ATOM     45  C   UNL A   1      41.929  26.819  28.155  1.00  0.00    -0.014 A 
BRANCH  45  46
ATOM     46  C   UNL A   1      41.479  27.712  29.264  1.00  0.00     0.031 A 
ATOM     47  C   UNL A   1      40.299  28.638  29.125  1.00  0.00     0.074 A 
ATOM     48  C   UNL A   1      42.207  27.761  30.399  1.00  0.00     0.049 A 
ATOM     49  N   UNL A   1      39.725  29.380  30.042  1.00  0.00    -0.248 NA
ATOM     50  C   UNL A   1      39.699  28.775  27.788  1.00  0.00     0.031 C 
ATOM     51  C   UNL A   1      43.452  27.029  30.627  1.00  0.00     0.029 A 
ATOM     52  N   UNL A   1      42.007  28.452  31.572  1.00  0.00    -0.354 N 
ATOM     53  C   UNL A   1      38.693  30.055  29.402  1.00  0.00     0.074 A 
ATOM     54  C   UNL A   1      38.761  29.689  28.003  1.00  0.00     0.031 C 
ATOM     55  C   UNL A   1      43.875  27.264  31.879  1.00  0.00     0.029 A 
ATOM     56  C   UNL A   1      42.944  28.177  32.540  1.00  0.00     0.049 A 
ATOM     57  H   UNL A   1      41.264  29.083  31.706  1.00  0.00     0.167 HD
ATOM     58  C   UNL A   1      37.755  30.876  29.935  1.00  0.00     0.031 A 
ATOM     59  C   UNL A   1      43.039  28.582  33.823  1.00  0.00     0.031 A 
ATOM     60  C   UNL A   1      37.696  31.247  31.327  1.00  0.00     0.049 A 
ATOM     61  C   UNL A   1      41.971  29.466  34.409  1.00  0.00     0.074 A 
ATOM     62  C   UNL A   1      36.721  31.987  31.975  1.00  0.00     0.029 A 
ATOM     63  N   UNL A   1      38.651  30.926  32.278  1.00  0.00    -0.354 N 
ATOM     64  N   UNL A   1      40.900  29.953  33.833  1.00  0.00    -0.248 NA
ATOM     65  C   UNL A   1      42.108  29.835  35.827  1.00  0.00     0.031 C 
ATOM     66  C   UNL A   1      37.124  32.180  33.296  1.00  0.00     0.029 A 
ATOM     67  C   UNL A   1      38.303  31.483  33.497  1.00  0.00     0.049 A 
ATOM     68  H   UNL A   1      39.455  30.384  32.112  1.00  0.00     0.167 HD
ATOM     69  C   UNL A   1      40.222  30.657  34.820  1.00  0.00     0.074 A 
ATOM     70  C   UNL A   1      40.993  30.525  36.037  1.00  0.00     0.031 C 
ATOM     71  C   UNL A   1      39.061  31.348  34.717  1.00  0.00     0.031 A 
BRANCH  58  72
ATOM     72  C   UNL A   1      36.665  31.406  29.037  1.00  0.00    -0.014 A 
ATOM     73  C   UNL A   1      36.635  32.766  28.681  1.00  0.00     0.009 A 
ATOM     74  C   UNL A   1      35.581  30.591  28.672  1.00  0.00     0.009 A 
ATOM     75  C   UNL A   1      35.537  33.299  28.003  1.00  0.00     0.001 A 
ATOM     76  C   UNL A   1      34.500  31.120  27.963  1.00  0.00     0.001 A 
ATOM     77  C   UNL A   1      34.472  32.476  27.640  1.00  0.00     0.000 A 
ENDBRANCH  58  72
BRANCH  59  78
ATOM     78  C   UNL A   1      44.153  28.064  34.663  1.00  0.00    -0.014 A 
ATOM     79  C   UNL A   1      44.011  26.876  35.399  1.00  0.00     0.009 A 
ATOM     80  C   UNL A   1      45.343  28.799  34.791  1.00  0.00     0.009 A 
ATOM     81  C   UNL A   1      45.020  26.453  36.267  1.00  0.00     0.001 A 
ATOM     82  C   UNL A   1      46.365  28.355  35.633  1.00  0.00     0.001 A 
ATOM     83  C   UNL A   1      46.199  27.190  36.379  1.00  0.00     0.000 A 
ENDBRANCH  59  78
BRANCH  71  84
ATOM     84  C   UNL A   1      38.503  32.019  35.945  1.00  0.00    -0.014 A 
ATOM     85  C   UNL A   1      38.838  33.358  36.215  1.00  0.00     0.009 A 
ATOM     86  C   UNL A   1      37.789  31.293  36.908  1.00  0.00     0.009 A 
ATOM     87  C   UNL A   1      38.502  33.943  37.438  1.00  0.00     0.001 A 
ATOM     88  C   UNL A   1      37.425  31.891  38.118  1.00  0.00     0.001 A 
ATOM     89  C   UNL A   1      37.796  33.209  38.388  1.00  0.00     0.000 A 
ENDBRANCH  71  84
ENDBRANCH  45  46
ENDBRANCH  38  40
ENDBRANCH  37  38
ENDBRANCH  36  37
ENDBRANCH  35  36
ENDBRANCH  34  35
ENDBRANCH  33  34
ENDBRANCH  32  33
ENDBRANCH   1  32
TORSDOF 22
ENDMDL
MODEL 2
REMARK VINA RESULT:     -10.0      1.509      4.528
REMARK SMILES CCCCc1ncc(C[N@H+]2C[C@@H]3c4ccccc4OC[C@]3(C(=O)OCCOCCOCCOC(=O)c3ccc(-c4c5nc(c(-c6ccccc6)c6ccc([nH]6)c(-c6ccccc6)c6nc(c(-c7ccccc7)c7ccc4[nH]7)C=C6)C=C5)cc3)C2)[nH]1
REMARK SMILES IDX 27 1 26 2 25 3 24 4 22 5 23 6 21 7 10 8 11 9 84 10 12 12
REMARK SMILES IDX 13 13 20 14 14 15 18 16 19 17 15 18 17 19 16 20 9 21 8 22
REMARK SMILES IDX 5 23 6 24 85 25 7 26 4 28 3 29 2 30 1 31 28 32 29 33 30 34
REMARK SMILES IDX 31 35 32 36 33 37 34 38 35 39 36 40 37 41 83 42 38 43 82 44
REMARK SMILES IDX 39 45 40 46 41 47 76 48 42 49 81 50 75 51 77 52 43 53 80 54
REMARK SMILES IDX 74 55 73 56 44 58 66 59 51 60 65 61 52 62 55 63 64 64 78 65
REMARK SMILES IDX 53 66 54 67 63 69 79 70 56 71 45 72 46 73 50 74 47 75 49 76
REMARK SMILES IDX 48 77 67 78 68 79 72 80 69 81 71 82 70 83 57 84 58 85 62 86
REMARK SMILES IDX 59 87 61 88 60 89
REMARK H PARENT 10 11 85 27 77 57 55 68
REMARK Flexibility Score: inf
ROOT
ATOM      1  O   UNL A   1      39.585  21.308  25.982  1.00  0.00    -0.376 OA
ENDROOT
BRANCH   1   2
ATOM      2  C   UNL A   1      38.849  22.452  26.371  1.00  0.00     0.202 C 
BRANCH   2   3
ATOM      3  C   UNL A   1      37.828  23.103  25.396  1.00  0.00     0.261 C 
BRANCH   3   4
ATOM      4  O   UNL A   1      36.460  22.725  25.633  1.00  0.00    -0.463 OA
BRANCH   4   5
ATOM      5  C   UNL A   1      35.357  23.459  25.220  1.00  0.00     0.322 C 
ATOM      6  O   UNL A   1      35.333  24.678  25.167  1.00  0.00    -0.251 OA
BRANCH   5   7
ATOM      7  C   UNL A   1      34.181  22.457  25.031  1.00  0.00     0.162 C 
ATOM      8  N   UNL A   1      32.400  23.310  23.536  1.00  0.00    -0.328 N 
ATOM      9  C   UNL A   1      32.424  21.876  23.376  1.00  0.00     0.272 C 
ATOM     10  C   UNL A   1      33.042  23.511  24.847  1.00  0.00     0.286 C 
ATOM     11  H   UNL A   1      31.476  23.741  23.571  1.00  0.00     0.348 HD
ATOM     12  C   UNL A   1      33.806  21.420  23.908  1.00  0.00     0.105 C 
ATOM     13  C   UNL A   1      33.480  19.987  24.357  1.00  0.00     0.004 A 
ATOM     14  C   UNL A   1      34.466  21.530  26.226  1.00  0.00     0.255 C 
ATOM     15  C   UNL A   1      33.195  18.970  23.435  1.00  0.00     0.008 A 
ATOM     16  C   UNL A   1      33.199  19.745  25.703  1.00  0.00     0.123 A 
ATOM     17  O   UNL A   1      33.370  20.732  26.626  1.00  0.00    -0.492 OA
ATOM     18  C   UNL A   1      32.638  17.761  23.869  1.00  0.00     0.001 A 
ATOM     19  C   UNL A   1      32.661  18.541  26.143  1.00  0.00     0.047 A 
ATOM     20  C   UNL A   1      32.383  17.541  25.223  1.00  0.00     0.004 A 
BRANCH   8  21
ATOM     21  C   UNL A   1      32.859  24.046  22.349  1.00  0.00     0.319 C 
BRANCH  21  22
ATOM     22  C   UNL A   1      32.811  25.536  22.420  1.00  0.00     0.090 A 
ATOM     23  C   UNL A   1      32.026  27.580  22.799  1.00  0.00     0.106 A 
ATOM     24  N   UNL A   1      33.321  27.739  22.619  1.00  0.00    -0.241 NA
ATOM     25  N   UNL A   1      31.664  26.270  22.592  1.00  0.00    -0.341 N 
ATOM     26  C   UNL A   1      33.813  26.488  22.362  1.00  0.00     0.140 A 
ATOM     27  H   UNL A   1      30.744  25.919  22.571  1.00  0.00     0.168 HD
BRANCH  23  28
ATOM     28  C   UNL A   1      31.047  28.636  23.187  1.00  0.00     0.075 C 
BRANCH  28  29
ATOM     29  C   UNL A   1      29.602  28.316  22.785  1.00  0.00     0.008 C 
BRANCH  29  30
ATOM     30  C   UNL A   1      28.524  29.268  23.313  1.00  0.00    -0.003 C 
ATOM     31  C   UNL A   1      27.108  28.797  23.039  1.00  0.00     0.004 C 
ENDBRANCH  29  30
ENDBRANCH  28  29
ENDBRANCH  23  28
ENDBRANCH  21  22
ENDBRANCH   8  21
ENDBRANCH   5   7
ENDBRANCH   4   5
ENDBRANCH   3   4
ENDBRANCH   2   3
ENDBRANCH   1   2
BRANCH   1  32
ATOM     32  C   UNL A   1      40.594  20.818  26.847  1.00  0.00     0.188 C 
BRANCH  32  33
ATOM     33  C   UNL A   1      41.348  19.674  26.142  1.00  0.00     0.188 C 
BRANCH  33  34
ATOM     34  O   UNL A   1      42.544  20.000  25.441  1.00  0.00    -0.376 OA
BRANCH  34  35
ATOM     35  C   UNL A   1      43.227  21.175  25.854  1.00  0.00     0.202 C 
BRANCH  35  36
ATOM     36  C   UNL A   1      43.834  22.035  24.737  1.00  0.00     0.261 C 
BRANCH  36  37
ATOM     37  O   UNL A   1      43.300  23.378  24.674  1.00  0.00    -0.460 OA
BRANCH  37  38
ATOM     38  C   UNL A   1      44.098  24.374  25.117  1.00  0.00     0.338 C 
ATOM     39  O   UNL A   1      45.234  24.647  24.722  1.00  0.00    -0.246 OA
BRANCH  38  40
ATOM     40  C   UNL A   1      43.383  25.202  26.108  1.00  0.00     0.060 A 
ATOM     41  C   UNL A   1      42.639  24.621  27.132  1.00  0.00     0.016 A 
ATOM     42  C   UNL A   1      43.539  26.590  26.081  1.00  0.00     0.016 A 
ATOM     43  C   UNL A   1      42.036  25.437  28.107  1.00  0.00     0.010 A 
ATOM     44  C   UNL A   1      42.921  27.402  27.037  1.00  0.00     0.010 A 
ATOM     45  C   UNL A   1      42.172  26.840  28.073  1.00  0.00    -0.014 A 
BRANCH  45  46
ATOM     46  C   UNL A   1      41.660  27.710  29.173  1.00  0.00     0.031 A 
ATOM     47  C   UNL A   1      40.344  28.439  29.078  1.00  0.00     0.074 A 
ATOM     48  C   UNL A   1      42.440  27.926  30.252  1.00  0.00     0.049 A 
ATOM     49  N   UNL A   1      39.721  29.132  30.002  1.00  0.00    -0.248 NA
ATOM     50  C   UNL A   1      39.648  28.415  27.782  1.00  0.00     0.031 C 
ATOM     51  C   UNL A   1      43.795  27.403  30.423  1.00  0.00     0.029 A 
ATOM     52  N   UNL A   1      42.210  28.639  31.406  1.00  0.00    -0.354 N 
ATOM     53  C   UNL A   1      38.560  29.610  29.407  1.00  0.00     0.074 A 
ATOM     54  C   UNL A   1      38.596  29.187  28.023  1.00  0.00     0.031 C 
ATOM     55  C   UNL A   1      44.254  27.763  31.631  1.00  0.00     0.029 A 
ATOM     56  C   UNL A   1      43.237  28.558  32.317  1.00  0.00     0.049 A 
ATOM     57  H   UNL A   1      41.388  29.156  31.565  1.00  0.00     0.167 HD
ATOM     58  C   UNL A   1      37.542  30.306  29.970  1.00  0.00     0.031 A 
ATOM     59  C   UNL A   1      43.348  29.038  33.573  1.00  0.00     0.031 A 
ATOM     60  C   UNL A   1      37.513  30.734  31.346  1.00  0.00     0.049 A 
ATOM     61  C   UNL A   1      42.196  29.780  34.194  1.00  0.00     0.074 A 
ATOM     62  C   UNL A   1      36.478  31.351  32.030  1.00  0.00     0.029 A 
ATOM     63  N   UNL A   1      38.564  30.611  32.241  1.00  0.00    -0.354 N 
ATOM     64  N   UNL A   1      41.028  30.069  33.675  1.00  0.00    -0.248 NA
ATOM     65  C   UNL A   1      42.362  30.237  35.584  1.00  0.00     0.031 C 
ATOM     66  C   UNL A   1      36.928  31.670  33.311  1.00  0.00     0.029 A 
ATOM     67  C   UNL A   1      38.211  31.171  33.458  1.00  0.00     0.049 A 
ATOM     68  H   UNL A   1      39.430  30.189  32.042  1.00  0.00     0.167 HD
ATOM     69  C   UNL A   1      40.313  30.712  34.677  1.00  0.00     0.074 A 
ATOM     70  C   UNL A   1      41.169  30.761  35.842  1.00  0.00     0.031 C 
ATOM     71  C   UNL A   1      39.055  31.214  34.627  1.00  0.00     0.031 A 
BRANCH  58  72
ATOM     72  C   UNL A   1      36.329  30.619  29.129  1.00  0.00    -0.014 A 
ATOM     73  C   UNL A   1      35.473  29.588  28.704  1.00  0.00     0.009 A 
ATOM     74  C   UNL A   1      36.124  31.914  28.626  1.00  0.00     0.009 A 
ATOM     75  C   UNL A   1      34.456  29.843  27.781  1.00  0.00     0.001 A 
ATOM     76  C   UNL A   1      35.084  32.173  27.730  1.00  0.00     0.001 A 
ATOM     77  C   UNL A   1      34.260  31.135  27.298  1.00  0.00     0.000 A 
ENDBRANCH  58  72
BRANCH  59  78
ATOM     78  C   UNL A   1      44.579  28.738  34.354  1.00  0.00    -0.014 A 
ATOM     79  C   UNL A   1      45.698  29.584  34.292  1.00  0.00     0.009 A 
ATOM     80  C   UNL A   1      44.666  27.558  35.111  1.00  0.00     0.009 A 
ATOM     81  C   UNL A   1      46.885  29.242  34.944  1.00  0.00     0.001 A 
ATOM     82  C   UNL A   1      45.843  27.236  35.790  1.00  0.00     0.001 A 
ATOM     83  C   UNL A   1      46.955  28.071  35.697  1.00  0.00     0.000 A 
ENDBRANCH  59  78
BRANCH  71  84
ATOM     84  C   UNL A   1      38.479  31.855  35.861  1.00  0.00    -0.014 A 
ATOM     85  C   UNL A   1      38.665  33.232  36.079  1.00  0.00     0.009 A 
ATOM     86  C   UNL A   1      37.899  31.083  36.878  1.00  0.00     0.009 A 
ATOM     87  C   UNL A   1      38.318  33.813  37.300  1.00  0.00     0.001 A 
ATOM     88  C   UNL A   1      37.522  31.674  38.087  1.00  0.00     0.001 A 
ATOM     89  C   UNL A   1      37.748  33.034  38.303  1.00  0.00     0.000 A 
ENDBRANCH  71  84
ENDBRANCH  45  46
ENDBRANCH  38  40
ENDBRANCH  37  38
ENDBRANCH  36  37
ENDBRANCH  35  36
ENDBRANCH  34  35
ENDBRANCH  33  34
ENDBRANCH  32  33
ENDBRANCH   1  32
TORSDOF 22
ENDMDL
MODEL 3
REMARK VINA RESULT:      -9.9      6.264     10.715
REMARK SMILES CCCCc1ncc(C[N@H+]2C[C@@H]3c4ccccc4OC[C@]3(C(=O)OCCOCCOCCOC(=O)c3ccc(-c4c5nc(c(-c6ccccc6)c6ccc([nH]6)c(-c6ccccc6)c6nc(c(-c7ccccc7)c7ccc4[nH]7)C=C6)C=C5)cc3)C2)[nH]1
REMARK SMILES IDX 27 1 26 2 25 3 24 4 22 5 23 6 21 7 10 8 11 9 84 10 12 12
REMARK SMILES IDX 13 13 20 14 14 15 18 16 19 17 15 18 17 19 16 20 9 21 8 22
REMARK SMILES IDX 5 23 6 24 85 25 7 26 4 28 3 29 2 30 1 31 28 32 29 33 30 34
REMARK SMILES IDX 31 35 32 36 33 37 34 38 35 39 36 40 37 41 83 42 38 43 82 44
REMARK SMILES IDX 39 45 40 46 41 47 76 48 42 49 81 50 75 51 77 52 43 53 80 54
REMARK SMILES IDX 74 55 73 56 44 58 66 59 51 60 65 61 52 62 55 63 64 64 78 65
REMARK SMILES IDX 53 66 54 67 63 69 79 70 56 71 45 72 46 73 50 74 47 75 49 76
REMARK SMILES IDX 48 77 67 78 68 79 72 80 69 81 71 82 70 83 57 84 58 85 62 86
REMARK SMILES IDX 59 87 61 88 60 89
REMARK H PARENT 10 11 85 27 77 57 55 68
REMARK Flexibility Score: inf
ROOT
ATOM      1  O   UNL A   1      35.152  23.051  26.506  1.00  0.00    -0.376 OA
ENDROOT
BRANCH   1   2
ATOM      2  C   UNL A   1      34.230  23.865  25.806  1.00  0.00     0.202 C 
BRANCH   2   3
ATOM      3  C   UNL A   1      32.740  23.924  26.245  1.00  0.00     0.261 C 
BRANCH   3   4
ATOM      4  O   UNL A   1      32.034  25.089  25.780  1.00  0.00    -0.463 OA
BRANCH   4   5
ATOM      5  C   UNL A   1      31.473  25.218  24.517  1.00  0.00     0.322 C 
ATOM      6  O   UNL A   1      31.623  24.404  23.620  1.00  0.00    -0.251 OA
BRANCH   5   7
ATOM      7  C   UNL A   1      30.811  26.625  24.448  1.00  0.00     0.162 C 
ATOM      8  N   UNL A   1      31.931  28.303  25.885  1.00  0.00    -0.328 N 
ATOM      9  C   UNL A   1      31.396  29.019  24.753  1.00  0.00     0.272 C 
ATOM     10  C   UNL A   1      31.126  27.070  25.913  1.00  0.00     0.286 C 
ATOM     11  H   UNL A   1      31.832  28.761  26.792  1.00  0.00     0.348 HD
ATOM     12  C   UNL A   1      31.146  27.947  23.662  1.00  0.00     0.105 C 
ATOM     13  C   UNL A   1      30.001  28.604  22.874  1.00  0.00     0.004 A 
ATOM     14  C   UNL A   1      29.465  26.224  23.820  1.00  0.00     0.255 C 
ATOM     15  C   UNL A   1      30.204  29.747  22.089  1.00  0.00     0.008 A 
ATOM     16  C   UNL A   1      28.685  28.224  23.146  1.00  0.00     0.123 A 
ATOM     17  O   UNL A   1      28.434  27.176  23.979  1.00  0.00    -0.492 OA
ATOM     18  C   UNL A   1      29.110  30.477  21.611  1.00  0.00     0.001 A 
ATOM     19  C   UNL A   1      27.594  28.936  22.661  1.00  0.00     0.047 A 
ATOM     20  C   UNL A   1      27.806  30.066  21.885  1.00  0.00     0.004 A 
BRANCH   8  21
ATOM     21  C   UNL A   1      33.400  28.247  25.910  1.00  0.00     0.319 C 
BRANCH  21  22
ATOM     22  C   UNL A   1      34.099  29.256  26.760  1.00  0.00     0.090 A 
ATOM     23  C   UNL A   1      35.693  30.202  27.985  1.00  0.00     0.106 A 
ATOM     24  N   UNL A   1      34.833  31.168  27.737  1.00  0.00    -0.241 NA
ATOM     25  N   UNL A   1      35.235  29.005  27.489  1.00  0.00    -0.341 N 
ATOM     26  C   UNL A   1      33.834  30.591  27.001  1.00  0.00     0.140 A 
ATOM     27  H   UNL A   1      35.648  28.122  27.630  1.00  0.00     0.168 HD
BRANCH  23  28
ATOM     28  C   UNL A   1      37.001  30.336  28.689  1.00  0.00     0.075 C 
BRANCH  28  29
ATOM     29  C   UNL A   1      37.945  29.148  28.470  1.00  0.00     0.008 C 
BRANCH  29  30
ATOM     30  C   UNL A   1      39.179  29.413  27.602  1.00  0.00    -0.003 C 
ATOM     31  C   UNL A   1      39.942  28.156  27.228  1.00  0.00     0.004 C 
ENDBRANCH  29  30
ENDBRANCH  28  29
ENDBRANCH  23  28
ENDBRANCH  21  22
ENDBRANCH   8  21
ENDBRANCH   5   7
ENDBRANCH   4   5
ENDBRANCH   3   4
ENDBRANCH   2   3
ENDBRANCH   1   2
BRANCH   1  32
ATOM     32  C   UNL A   1      36.171  22.391  25.776  1.00  0.00     0.188 C 
BRANCH  32  33
ATOM     33  C   UNL A   1      37.280  23.405  25.432  1.00  0.00     0.188 C 
BRANCH  33  34
ATOM     34  O   UNL A   1      38.513  23.305  26.136  1.00  0.00    -0.376 OA
BRANCH  34  35
ATOM     35  C   UNL A   1      39.142  22.032  26.147  1.00  0.00     0.202 C 
BRANCH  35  36
ATOM     36  C   UNL A   1      40.463  21.934  26.922  1.00  0.00     0.261 C 
BRANCH  36  37
ATOM     37  O   UNL A   1      41.279  23.126  26.841  1.00  0.00    -0.460 OA
BRANCH  37  38
ATOM     38  C   UNL A   1      42.353  23.077  26.023  1.00  0.00     0.338 C 
ATOM     39  O   UNL A   1      42.607  22.213  25.181  1.00  0.00    -0.246 OA
BRANCH  38  40
ATOM     40  C   UNL A   1      43.181  24.287  26.191  1.00  0.00     0.060 A 
ATOM     41  C   UNL A   1      43.609  24.701  27.452  1.00  0.00     0.016 A 
ATOM     42  C   UNL A   1      43.631  24.972  25.059  1.00  0.00     0.016 A 
ATOM     43  C   UNL A   1      44.463  25.813  27.568  1.00  0.00     0.010 A 
ATOM     44  C   UNL A   1      44.462  26.091  25.178  1.00  0.00     0.010 A 
ATOM     45  C   UNL A   1      44.903  26.521  26.432  1.00  0.00    -0.014 A 
BRANCH  45  46
ATOM     46  C   UNL A   1      45.918  27.612  26.525  1.00  0.00     0.031 A 
ATOM     47  C   UNL A   1      47.399  27.335  26.536  1.00  0.00     0.074 A 
ATOM     48  C   UNL A   1      45.498  28.883  26.698  1.00  0.00     0.049 A 
ATOM     49  N   UNL A   1      48.395  28.189  26.493  1.00  0.00    -0.248 NA
ATOM     50  C   UNL A   1      47.826  25.930  26.633  1.00  0.00     0.031 C 
ATOM     51  C   UNL A   1      44.101  29.289  26.849  1.00  0.00     0.029 A 
ATOM     52  N   UNL A   1      46.200  30.064  26.777  1.00  0.00    -0.354 N 
ATOM     53  C   UNL A   1      49.557  27.430  26.541  1.00  0.00     0.074 A 
ATOM     54  C   UNL A   1      49.147  26.049  26.687  1.00  0.00     0.031 C 
ATOM     55  C   UNL A   1      44.043  30.626  26.943  1.00  0.00     0.029 A 
ATOM     56  C   UNL A   1      45.396  31.175  26.880  1.00  0.00     0.049 A 
ATOM     57  H   UNL A   1      47.183  30.109  26.759  1.00  0.00     0.167 HD
ATOM     58  C   UNL A   1      50.845  27.840  26.439  1.00  0.00     0.031 A 
ATOM     59  C   UNL A   1      45.699  32.489  26.894  1.00  0.00     0.031 A 
ATOM     60  C   UNL A   1      51.251  29.217  26.305  1.00  0.00     0.049 A 
ATOM     61  C   UNL A   1      47.130  32.929  26.746  1.00  0.00     0.074 A 
ATOM     62  C   UNL A   1      52.525  29.717  26.089  1.00  0.00     0.029 A 
ATOM     63  N   UNL A   1      50.403  30.310  26.390  1.00  0.00    -0.354 N 
ATOM     64  N   UNL A   1      48.207  32.193  26.613  1.00  0.00    -0.248 NA
ATOM     65  C   UNL A   1      47.390  34.378  26.722  1.00  0.00     0.031 C 
ATOM     66  C   UNL A   1      52.460  31.110  26.122  1.00  0.00     0.029 A 
ATOM     67  C   UNL A   1      51.134  31.480  26.266  1.00  0.00     0.049 A 
ATOM     68  H   UNL A   1      49.429  30.261  26.520  1.00  0.00     0.167 HD
ATOM     69  C   UNL A   1      49.262  33.084  26.459  1.00  0.00     0.074 A 
ATOM     70  C   UNL A   1      48.699  34.415  26.502  1.00  0.00     0.031 C 
ATOM     71  C   UNL A   1      50.579  32.811  26.296  1.00  0.00     0.031 A 
BRANCH  58  72
ATOM     72  C   UNL A   1      51.935  26.798  26.414  1.00  0.00    -0.014 A 
ATOM     73  C   UNL A   1      52.746  26.590  27.543  1.00  0.00     0.009 A 
ATOM     74  C   UNL A   1      52.260  26.133  25.220  1.00  0.00     0.009 A 
ATOM     75  C   UNL A   1      53.867  25.760  27.470  1.00  0.00     0.001 A 
ATOM     76  C   UNL A   1      53.361  25.276  25.160  1.00  0.00     0.001 A 
ATOM     77  C   UNL A   1      54.172  25.100  26.280  1.00  0.00     0.000 A 
ENDBRANCH  58  72
BRANCH  59  78
ATOM     78  C   UNL A   1      44.593  33.484  26.959  1.00  0.00    -0.014 A 
ATOM     79  C   UNL A   1      44.055  34.042  25.788  1.00  0.00     0.009 A 
ATOM     80  C   UNL A   1      44.122  33.936  28.202  1.00  0.00     0.009 A 
ATOM     81  C   UNL A   1      43.092  35.052  25.861  1.00  0.00     0.001 A 
ATOM     82  C   UNL A   1      43.134  34.921  28.270  1.00  0.00     0.001 A 
ATOM     83  C   UNL A   1      42.628  35.487  27.101  1.00  0.00     0.000 A 
ENDBRANCH  59  78
BRANCH  71  84
ATOM     84  C   UNL A   1      51.542  33.956  26.127  1.00  0.00    -0.014 A 
ATOM     85  C   UNL A   1      52.030  34.267  24.845  1.00  0.00     0.009 A 
ATOM     86  C   UNL A   1      52.088  34.616  27.236  1.00  0.00     0.009 A 
ATOM     87  C   UNL A   1      53.069  35.187  24.682  1.00  0.00     0.001 A 
ATOM     88  C   UNL A   1      53.105  35.561  27.067  1.00  0.00     0.001 A 
ATOM     89  C   UNL A   1      53.605  35.832  25.794  1.00  0.00     0.000 A 
ENDBRANCH  71  84
ENDBRANCH  45  46
ENDBRANCH  38  40
ENDBRANCH  37  38
ENDBRANCH  36  37
ENDBRANCH  35  36
ENDBRANCH  34  35
ENDBRANCH  33  34
ENDBRANCH  32  33
ENDBRANCH   1  32
TORSDOF 22
ENDMDL
