MODEL 1
REMARK VINA RESULT:      -9.2      0.000      0.000
REMARK SMILES Cn1nccc1/C=C/C(=O)N[C@H](CO)C(=O)OCCOCCOCCOC(=O)c1ccc(-c2c3nc(c(-c4ccccc4)c4ccc([nH]4)c(-c4ccccc4)c4nc(c(-c5ccccc5)c5ccc2[nH]5)C=C4)C=C3)cc1
REMARK SMILES IDX 21 1 20 2 19 3 18 4 17 5 15 6 16 7 12 8 11 9 9 10 10 11 8 13
REMARK SMILES IDX 7 14 6 15 1 16 2 17 3 18 4 19 5 20 13 21 14 22 22 24 23 25
REMARK SMILES IDX 24 26 25 27 26 28 27 29 28 30 29 31 30 32 76 33 31 34 75 35
REMARK SMILES IDX 32 36 33 37 34 38 69 39 35 40 74 41 68 42 70 43 36 44 73 45
REMARK SMILES IDX 67 46 66 47 37 49 59 50 44 51 58 52 45 53 48 54 57 55 71 56
REMARK SMILES IDX 46 57 47 58 56 60 72 61 49 62 38 63 39 64 43 65 40 66 42 67
REMARK SMILES IDX 41 68 60 69 61 70 65 71 62 72 64 73 63 74 50 75 51 76 55 77
REMARK SMILES IDX 52 78 54 79 53 80
REMARK H PARENT 11 12 14 23 70 48 48 59
REMARK Flexibility Score: inf
ROOT
ATOM      1  C   UNL A   1      33.924  31.217  27.338  1.00  0.00     0.188 C 
ENDROOT
BRANCH   1   2
ATOM      2  O   UNL A   1      33.224  30.002  27.602  1.00  0.00    -0.376 OA
BRANCH   2   3
ATOM      3  C   UNL A   1      32.030  29.692  26.902  1.00  0.00     0.202 C 
BRANCH   3   4
ATOM      4  C   UNL A   1      32.076  29.824  25.379  1.00  0.00     0.261 C 
BRANCH   4   5
ATOM      5  O   UNL A   1      30.900  29.396  24.668  1.00  0.00    -0.462 OA
BRANCH   5   6
ATOM      6  C   UNL A   1      31.121  28.845  23.444  1.00  0.00     0.331 C 
ATOM      7  O   UNL A   1      31.126  29.469  22.388  1.00  0.00    -0.250 OA
BRANCH   6   8
ATOM      8  C   UNL A   1      31.323  27.324  23.493  1.00  0.00     0.218 C 
BRANCH   8   9
ATOM      9  N   UNL A   1      32.051  26.832  22.312  1.00  0.00    -0.337 N 
ATOM     10  C   UNL A   1      32.950  25.879  22.000  1.00  0.00     0.244 C 
ATOM     11  O   UNL A   1      33.252  25.779  20.807  1.00  0.00    -0.270 OA
ATOM     12  H   UNL A   1      31.808  27.354  21.514  1.00  0.00     0.164 HD
BRANCH  10  13
ATOM     13  C   UNL A   1      33.693  25.028  22.954  1.00  0.00     0.073 C 
ATOM     14  C   UNL A   1      34.018  25.251  24.233  1.00  0.00     0.033 C 
BRANCH  14  15
ATOM     15  C   UNL A   1      34.593  24.208  25.008  1.00  0.00     0.061 A 
ATOM     16  C   UNL A   1      32.423  23.041  25.699  1.00  0.00     0.174 C 
ATOM     17  N   UNL A   1      33.853  23.189  25.572  1.00  0.00    -0.269 N 
ATOM     18  N   UNL A   1      34.618  22.257  26.183  1.00  0.00    -0.181 NA
ATOM     19  C   UNL A   1      35.858  22.724  26.065  1.00  0.00     0.136 A 
ATOM     20  C   UNL A   1      35.902  23.939  25.365  1.00  0.00     0.050 A 
ENDBRANCH  14  15
ENDBRANCH  10  13
ENDBRANCH   8   9
BRANCH   8  21
ATOM     21  C   UNL A   1      30.123  26.496  23.946  1.00  0.00     0.193 C 
BRANCH  21  22
ATOM     22  O   UNL A   1      28.870  27.142  23.749  1.00  0.00    -0.394 OA
ATOM     23  H   UNL A   1      28.151  26.514  23.921  1.00  0.00     0.210 HD
ENDBRANCH  21  22
ENDBRANCH   8  21
ENDBRANCH   6   8
ENDBRANCH   5   6
ENDBRANCH   4   5
ENDBRANCH   3   4
ENDBRANCH   2   3
ENDBRANCH   1   2
BRANCH   1  24
ATOM     24  C   UNL A   1      33.418  32.539  27.926  1.00  0.00     0.188 C 
BRANCH  24  25
ATOM     25  O   UNL A   1      34.401  33.190  28.713  1.00  0.00    -0.376 OA
BRANCH  25  26
ATOM     26  C   UNL A   1      33.979  34.190  29.621  1.00  0.00     0.202 C 
BRANCH  26  27
ATOM     27  C   UNL A   1      34.311  33.924  31.091  1.00  0.00     0.261 C 
BRANCH  27  28
ATOM     28  O   UNL A   1      34.540  32.549  31.440  1.00  0.00    -0.460 OA
BRANCH  28  29
ATOM     29  C   UNL A   1      35.453  32.289  32.397  1.00  0.00     0.338 C 
ATOM     30  O   UNL A   1      35.330  32.456  33.604  1.00  0.00    -0.246 OA
BRANCH  29  31
ATOM     31  C   UNL A   1      36.579  31.574  31.762  1.00  0.00     0.060 A 
ATOM     32  C   UNL A   1      37.562  30.992  32.570  1.00  0.00     0.016 A 
ATOM     33  C   UNL A   1      36.655  31.472  30.370  1.00  0.00     0.016 A 
ATOM     34  C   UNL A   1      38.642  30.326  31.985  1.00  0.00     0.010 A 
ATOM     35  C   UNL A   1      37.742  30.816  29.787  1.00  0.00     0.010 A 
ATOM     36  C   UNL A   1      38.754  30.262  30.589  1.00  0.00    -0.014 A 
BRANCH  36  37
ATOM     37  C   UNL A   1      39.998  29.762  29.955  1.00  0.00     0.031 A 
ATOM     38  C   UNL A   1      41.141  30.719  29.764  1.00  0.00     0.074 A 
ATOM     39  C   UNL A   1      40.113  28.486  29.547  1.00  0.00     0.049 A 
ATOM     40  N   UNL A   1      42.282  30.541  29.150  1.00  0.00    -0.248 NA
ATOM     41  C   UNL A   1      40.973  32.061  30.347  1.00  0.00     0.031 C 
ATOM     42  C   UNL A   1      39.103  27.444  29.720  1.00  0.00     0.029 A 
ATOM     43  N   UNL A   1      41.140  27.857  28.887  1.00  0.00    -0.354 N 
ATOM     44  C   UNL A   1      42.960  31.748  29.258  1.00  0.00     0.074 A 
ATOM     45  C   UNL A   1      42.097  32.657  29.981  1.00  0.00     0.031 C 
ATOM     46  C   UNL A   1      39.557  26.304  29.169  1.00  0.00     0.029 A 
ATOM     47  C   UNL A   1      40.868  26.549  28.569  1.00  0.00     0.049 A 
ATOM     48  H   UNL A   1      41.990  28.301  28.664  1.00  0.00     0.167 HD
ATOM     49  C   UNL A   1      44.190  32.075  28.796  1.00  0.00     0.031 A 
ATOM     50  C   UNL A   1      41.582  25.662  27.847  1.00  0.00     0.031 A 
ATOM     51  C   UNL A   1      45.042  31.181  28.060  1.00  0.00     0.049 A 
ATOM     52  C   UNL A   1      42.906  26.078  27.262  1.00  0.00     0.074 A 
ATOM     53  C   UNL A   1      46.305  31.420  27.547  1.00  0.00     0.029 A 
ATOM     54  N   UNL A   1      44.711  29.878  27.722  1.00  0.00    -0.354 N 
ATOM     55  N   UNL A   1      43.540  27.219  27.374  1.00  0.00    -0.248 NA
ATOM     56  C   UNL A   1      43.613  25.077  26.446  1.00  0.00     0.031 C 
ATOM     57  C   UNL A   1      46.718  30.276  26.856  1.00  0.00     0.029 A 
ATOM     58  C   UNL A   1      45.736  29.308  26.986  1.00  0.00     0.049 A 
ATOM     59  H   UNL A   1      43.872  29.426  27.968  1.00  0.00     0.167 HD
ATOM     60  C   UNL A   1      44.727  27.067  26.667  1.00  0.00     0.074 A 
ATOM     61  C   UNL A   1      44.733  25.717  26.142  1.00  0.00     0.031 C 
ATOM     62  C   UNL A   1      45.726  27.963  26.472  1.00  0.00     0.031 A 
BRANCH  49  63
ATOM     63  C   UNL A   1      44.664  33.479  29.040  1.00  0.00    -0.014 A 
ATOM     64  C   UNL A   1      45.394  33.814  30.191  1.00  0.00     0.009 A 
ATOM     65  C   UNL A   1      44.387  34.479  28.094  1.00  0.00     0.009 A 
ATOM     66  C   UNL A   1      45.806  35.131  30.407  1.00  0.00     0.001 A 
ATOM     67  C   UNL A   1      44.824  35.789  28.300  1.00  0.00     0.001 A 
ATOM     68  C   UNL A   1      45.525  36.115  29.460  1.00  0.00     0.000 A 
ENDBRANCH  49  63
BRANCH  50  69
ATOM     69  C   UNL A   1      41.049  24.296  27.602  1.00  0.00    -0.014 A 
ATOM     70  C   UNL A   1      41.592  23.186  28.267  1.00  0.00     0.009 A 
ATOM     71  C   UNL A   1      40.014  24.091  26.677  1.00  0.00     0.009 A 
ATOM     72  C   UNL A   1      41.123  21.898  27.994  1.00  0.00     0.001 A 
ATOM     73  C   UNL A   1      39.528  22.806  26.427  1.00  0.00     0.001 A 
ATOM     74  C   UNL A   1      40.089  21.709  27.079  1.00  0.00     0.000 A 
ENDBRANCH  50  69
BRANCH  62  75
ATOM     75  C   UNL A   1      46.925  27.502  25.690  1.00  0.00    -0.014 A 
ATOM     76  C   UNL A   1      47.023  27.721  24.307  1.00  0.00     0.009 A 
ATOM     77  C   UNL A   1      47.992  26.881  26.358  1.00  0.00     0.009 A 
ATOM     78  C   UNL A   1      48.154  27.297  23.606  1.00  0.00     0.001 A 
ATOM     79  C   UNL A   1      49.131  26.483  25.660  1.00  0.00     0.001 A 
ATOM     80  C   UNL A   1      49.208  26.683  24.283  1.00  0.00     0.000 A 
ENDBRANCH  62  75
ENDBRANCH  36  37
ENDBRANCH  29  31
ENDBRANCH  28  29
ENDBRANCH  27  28
ENDBRANCH  26  27
ENDBRANCH  25  26
ENDBRANCH  24  25
ENDBRANCH   1  24
TORSDOF 22
ENDMDL
MODEL 2
REMARK VINA RESULT:      -8.8      4.325      6.438
REMARK SMILES Cn1nccc1/C=C/C(=O)N[C@H](CO)C(=O)OCCOCCOCCOC(=O)c1ccc(-c2c3nc(c(-c4ccccc4)c4ccc([nH]4)c(-c4ccccc4)c4nc(c(-c5ccccc5)c5ccc2[nH]5)C=C4)C=C3)cc1
REMARK SMILES IDX 21 1 20 2 19 3 18 4 17 5 15 6 16 7 12 8 11 9 9 10 10 11 8 13
REMARK SMILES IDX 7 14 6 15 1 16 2 17 3 18 4 19 5 20 13 21 14 22 22 24 23 25
REMARK SMILES IDX 24 26 25 27 26 28 27 29 28 30 29 31 30 32 76 33 31 34 75 35
REMARK SMILES IDX 32 36 33 37 34 38 69 39 35 40 74 41 68 42 70 43 36 44 73 45
REMARK SMILES IDX 67 46 66 47 37 49 59 50 44 51 58 52 45 53 48 54 57 55 71 56
REMARK SMILES IDX 46 57 47 58 56 60 72 61 49 62 38 63 39 64 43 65 40 66 42 67
REMARK SMILES IDX 41 68 60 69 61 70 65 71 62 72 64 73 63 74 50 75 51 76 55 77
REMARK SMILES IDX 52 78 54 79 53 80
REMARK H PARENT 11 12 14 23 70 48 48 59
REMARK Flexibility Score: inf
ROOT
ATOM      1  C   UNL A   1      34.385  32.285  28.536  1.00  0.00     0.188 C 
ENDROOT
BRANCH   1   2
ATOM      2  O   UNL A   1      33.938  31.478  27.448  1.00  0.00    -0.376 OA
BRANCH   2   3
ATOM      3  C   UNL A   1      32.553  31.244  27.244  1.00  0.00     0.202 C 
BRANCH   3   4
ATOM      4  C   UNL A   1      32.172  29.910  26.602  1.00  0.00     0.261 C 
BRANCH   4   5
ATOM      5  O   UNL A   1      31.750  29.965  25.227  1.00  0.00    -0.462 OA
BRANCH   5   6
ATOM      6  C   UNL A   1      31.281  28.797  24.709  1.00  0.00     0.331 C 
ATOM      7  O   UNL A   1      31.012  27.800  25.370  1.00  0.00    -0.250 OA
BRANCH   6   8
ATOM      8  C   UNL A   1      31.158  28.820  23.179  1.00  0.00     0.218 C 
BRANCH   8   9
ATOM      9  N   UNL A   1      32.474  28.739  22.525  1.00  0.00    -0.337 N 
ATOM     10  C   UNL A   1      33.449  27.833  22.317  1.00  0.00     0.244 C 
ATOM     11  O   UNL A   1      34.401  28.200  21.624  1.00  0.00    -0.270 OA
ATOM     12  H   UNL A   1      32.712  29.603  22.117  1.00  0.00     0.164 HD
BRANCH  10  13
ATOM     13  C   UNL A   1      33.545  26.492  22.934  1.00  0.00     0.073 C 
ATOM     14  C   UNL A   1      33.488  25.280  22.370  1.00  0.00     0.033 C 
BRANCH  14  15
ATOM     15  C   UNL A   1      33.778  24.124  23.145  1.00  0.00     0.061 A 
ATOM     16  C   UNL A   1      31.374  23.489  23.749  1.00  0.00     0.174 C 
ATOM     17  N   UNL A   1      32.802  23.301  23.668  1.00  0.00    -0.269 N 
ATOM     18  N   UNL A   1      33.308  22.210  24.287  1.00  0.00    -0.181 NA
ATOM     19  C   UNL A   1      34.626  22.377  24.216  1.00  0.00     0.136 A 
ATOM     20  C   UNL A   1      34.976  23.554  23.538  1.00  0.00     0.050 A 
ENDBRANCH  14  15
ENDBRANCH  10  13
ENDBRANCH   8   9
BRANCH   8  21
ATOM     21  C   UNL A   1      30.168  29.824  22.594  1.00  0.00     0.193 C 
BRANCH  21  22
ATOM     22  O   UNL A   1      29.172  30.254  23.516  1.00  0.00    -0.394 OA
ATOM     23  H   UNL A   1      29.562  30.332  24.401  1.00  0.00     0.210 HD
ENDBRANCH  21  22
ENDBRANCH   8  21
ENDBRANCH   6   8
ENDBRANCH   5   6
ENDBRANCH   4   5
ENDBRANCH   3   4
ENDBRANCH   2   3
ENDBRANCH   1   2
BRANCH   1  24
ATOM     24  C   UNL A   1      34.497  33.806  28.369  1.00  0.00     0.188 C 
BRANCH  24  25
ATOM     25  O   UNL A   1      33.354  34.487  28.858  1.00  0.00    -0.376 OA
BRANCH  25  26
ATOM     26  C   UNL A   1      33.428  35.891  29.018  1.00  0.00     0.202 C 
BRANCH  26  27
ATOM     27  C   UNL A   1      32.530  36.475  30.111  1.00  0.00     0.261 C 
BRANCH  27  28
ATOM     28  O   UNL A   1      32.349  35.653  31.276  1.00  0.00    -0.460 OA
BRANCH  28  29
ATOM     29  C   UNL A   1      33.029  35.987  32.391  1.00  0.00     0.338 C 
ATOM     30  O   UNL A   1      32.699  36.801  33.244  1.00  0.00    -0.246 OA
BRANCH  29  31
ATOM     31  C   UNL A   1      34.166  35.053  32.522  1.00  0.00     0.060 A 
ATOM     32  C   UNL A   1      33.953  33.792  33.091  1.00  0.00     0.016 A 
ATOM     33  C   UNL A   1      35.437  35.421  32.072  1.00  0.00     0.016 A 
ATOM     34  C   UNL A   1      35.021  32.902  33.236  1.00  0.00     0.010 A 
ATOM     35  C   UNL A   1      36.506  34.535  32.230  1.00  0.00     0.010 A 
ATOM     36  C   UNL A   1      36.309  33.282  32.835  1.00  0.00    -0.014 A 
BRANCH  36  37
ATOM     37  C   UNL A   1      37.484  32.448  33.187  1.00  0.00     0.031 A 
ATOM     38  C   UNL A   1      38.217  32.742  34.466  1.00  0.00     0.074 A 
ATOM     39  C   UNL A   1      37.901  31.452  32.386  1.00  0.00     0.049 A 
ATOM     40  N   UNL A   1      39.321  32.218  34.932  1.00  0.00    -0.248 NA
ATOM     41  C   UNL A   1      37.621  33.769  35.337  1.00  0.00     0.031 C 
ATOM     42  C   UNL A   1      37.251  31.027  31.148  1.00  0.00     0.029 A 
ATOM     43  N   UNL A   1      38.990  30.622  32.498  1.00  0.00    -0.354 N 
ATOM     44  C   UNL A   1      39.560  32.859  36.140  1.00  0.00     0.074 A 
ATOM     45  C   UNL A   1      38.498  33.823  36.328  1.00  0.00     0.031 C 
ATOM     46  C   UNL A   1      37.961  30.021  30.607  1.00  0.00     0.029 A 
ATOM     47  C   UNL A   1      39.136  29.761  31.438  1.00  0.00     0.049 A 
ATOM     48  H   UNL A   1      39.607  30.643  33.265  1.00  0.00     0.167 HD
ATOM     49  C   UNL A   1      40.575  32.667  37.016  1.00  0.00     0.031 A 
ATOM     50  C   UNL A   1      40.123  28.888  31.156  1.00  0.00     0.031 A 
ATOM     51  C   UNL A   1      41.644  31.725  36.823  1.00  0.00     0.049 A 
ATOM     52  C   UNL A   1      41.291  28.759  32.099  1.00  0.00     0.074 A 
ATOM     53  C   UNL A   1      42.719  31.458  37.653  1.00  0.00     0.029 A 
ATOM     54  N   UNL A   1      41.777  30.903  35.715  1.00  0.00    -0.354 N 
ATOM     55  N   UNL A   1      41.506  29.366  33.240  1.00  0.00    -0.248 NA
ATOM     56  C   UNL A   1      42.357  27.821  31.708  1.00  0.00     0.031 C 
ATOM     57  C   UNL A   1      43.530  30.509  37.022  1.00  0.00     0.029 A 
ATOM     58  C   UNL A   1      42.930  30.145  35.828  1.00  0.00     0.049 A 
ATOM     59  H   UNL A   1      41.146  30.864  34.961  1.00  0.00     0.167 HD
ATOM     60  C   UNL A   1      42.713  28.868  33.716  1.00  0.00     0.074 A 
ATOM     61  C   UNL A   1      43.177  27.897  32.746  1.00  0.00     0.031 C 
ATOM     62  C   UNL A   1      43.378  29.182  34.854  1.00  0.00     0.031 A 
BRANCH  49  63
ATOM     63  C   UNL A   1      40.594  33.531  38.244  1.00  0.00    -0.014 A 
ATOM     64  C   UNL A   1      41.248  34.773  38.253  1.00  0.00     0.009 A 
ATOM     65  C   UNL A   1      39.934  33.102  39.406  1.00  0.00     0.009 A 
ATOM     66  C   UNL A   1      41.270  35.552  39.412  1.00  0.00     0.001 A 
ATOM     67  C   UNL A   1      39.935  33.894  40.556  1.00  0.00     0.001 A 
ATOM     68  C   UNL A   1      40.611  35.113  40.560  1.00  0.00     0.000 A 
ENDBRANCH  49  63
BRANCH  50  69
ATOM     69  C   UNL A   1      40.076  28.084  29.906  1.00  0.00    -0.014 A 
ATOM     70  C   UNL A   1      40.706  28.539  28.738  1.00  0.00     0.009 A 
ATOM     71  C   UNL A   1      39.372  26.870  29.867  1.00  0.00     0.009 A 
ATOM     72  C   UNL A   1      40.614  27.807  27.552  1.00  0.00     0.001 A 
ATOM     73  C   UNL A   1      39.306  26.126  28.687  1.00  0.00     0.001 A 
ATOM     74  C   UNL A   1      39.919  26.599  27.528  1.00  0.00     0.000 A 
ENDBRANCH  50  69
BRANCH  62  75
ATOM     75  C   UNL A   1      44.657  28.445  35.135  1.00  0.00    -0.014 A 
ATOM     76  C   UNL A   1      45.899  28.951  34.719  1.00  0.00     0.009 A 
ATOM     77  C   UNL A   1      44.621  27.247  35.867  1.00  0.00     0.009 A 
ATOM     78  C   UNL A   1      47.075  28.254  35.005  1.00  0.00     0.001 A 
ATOM     79  C   UNL A   1      45.800  26.568  36.174  1.00  0.00     0.001 A 
ATOM     80  C   UNL A   1      47.025  27.067  35.735  1.00  0.00     0.000 A 
ENDBRANCH  62  75
ENDBRANCH  36  37
ENDBRANCH  29  31
ENDBRANCH  28  29
ENDBRANCH  27  28
ENDBRANCH  26  27
ENDBRANCH  25  26
ENDBRANCH  24  25
ENDBRANCH   1  24
TORSDOF 22
ENDMDL
MODEL 3
REMARK VINA RESULT:      -8.6      3.699      4.719
REMARK SMILES Cn1nccc1/C=C/C(=O)N[C@H](CO)C(=O)OCCOCCOCCOC(=O)c1ccc(-c2c3nc(c(-c4ccccc4)c4ccc([nH]4)c(-c4ccccc4)c4nc(c(-c5ccccc5)c5ccc2[nH]5)C=C4)C=C3)cc1
REMARK SMILES IDX 21 1 20 2 19 3 18 4 17 5 15 6 16 7 12 8 11 9 9 10 10 11 8 13
REMARK SMILES IDX 7 14 6 15 1 16 2 17 3 18 4 19 5 20 13 21 14 22 22 24 23 25
REMARK SMILES IDX 24 26 25 27 26 28 27 29 28 30 29 31 30 32 76 33 31 34 75 35
REMARK SMILES IDX 32 36 33 37 34 38 69 39 35 40 74 41 68 42 70 43 36 44 73 45
REMARK SMILES IDX 67 46 66 47 37 49 59 50 44 51 58 52 45 53 48 54 57 55 71 56
REMARK SMILES IDX 46 57 47 58 56 60 72 61 49 62 38 63 39 64 43 65 40 66 42 67
REMARK SMILES IDX 41 68 60 69 61 70 65 71 62 72 64 73 63 74 50 75 51 76 55 77
REMARK SMILES IDX 52 78 54 79 53 80
REMARK H PARENT 11 12 14 23 70 48 48 59
REMARK Flexibility Score: inf
ROOT
ATOM      1  C   UNL A   1      34.927  31.051  28.300  1.00  0.00     0.188 C 
ENDROOT
BRANCH   1   2
ATOM      2  O   UNL A   1      34.570  30.196  27.215  1.00  0.00    -0.376 OA
BRANCH   2   3
ATOM      3  C   UNL A   1      33.280  30.275  26.630  1.00  0.00     0.202 C 
BRANCH   3   4
ATOM      4  C   UNL A   1      32.766  29.014  25.935  1.00  0.00     0.261 C 
BRANCH   4   5
ATOM      5  O   UNL A   1      31.605  29.177  25.099  1.00  0.00    -0.462 OA
BRANCH   5   6
ATOM      6  C   UNL A   1      31.068  28.027  24.609  1.00  0.00     0.331 C 
ATOM      7  O   UNL A   1      30.770  27.051  25.289  1.00  0.00    -0.250 OA
BRANCH   6   8
ATOM      8  C   UNL A   1      30.904  28.038  23.083  1.00  0.00     0.218 C 
BRANCH   8   9
ATOM      9  N   UNL A   1      32.205  28.061  22.395  1.00  0.00    -0.337 N 
ATOM     10  C   UNL A   1      33.257  27.246  22.188  1.00  0.00     0.244 C 
ATOM     11  O   UNL A   1      34.152  27.679  21.457  1.00  0.00    -0.270 OA
ATOM     12  H   UNL A   1      32.349  28.930  21.955  1.00  0.00     0.164 HD
BRANCH  10  13
ATOM     13  C   UNL A   1      33.497  25.942  22.842  1.00  0.00     0.073 C 
ATOM     14  C   UNL A   1      33.712  24.735  22.304  1.00  0.00     0.033 C 
BRANCH  14  15
ATOM     15  C   UNL A   1      34.090  23.647  23.135  1.00  0.00     0.061 A 
ATOM     16  C   UNL A   1      31.807  22.501  23.283  1.00  0.00     0.174 C 
ATOM     17  N   UNL A   1      33.232  22.622  23.476  1.00  0.00    -0.269 N 
ATOM     18  N   UNL A   1      33.834  21.646  24.193  1.00  0.00    -0.181 NA
ATOM     19  C   UNL A   1      35.076  22.089  24.369  1.00  0.00     0.136 A 
ATOM     20  C   UNL A   1      35.287  23.332  23.754  1.00  0.00     0.050 A 
ENDBRANCH  14  15
ENDBRANCH  10  13
ENDBRANCH   8   9
BRANCH   8  21
ATOM     21  C   UNL A   1      29.823  28.961  22.525  1.00  0.00     0.193 C 
BRANCH  21  22
ATOM     22  O   UNL A   1      29.960  30.319  22.930  1.00  0.00    -0.394 OA
ATOM     23  H   UNL A   1      30.228  30.353  23.862  1.00  0.00     0.210 HD
ENDBRANCH  21  22
ENDBRANCH   8  21
ENDBRANCH   6   8
ENDBRANCH   5   6
ENDBRANCH   4   5
ENDBRANCH   3   4
ENDBRANCH   2   3
ENDBRANCH   1   2
BRANCH   1  24
ATOM     24  C   UNL A   1      35.224  32.534  28.044  1.00  0.00     0.188 C 
BRANCH  24  25
ATOM     25  O   UNL A   1      34.058  33.337  28.116  1.00  0.00    -0.376 OA
BRANCH  25  26
ATOM     26  C   UNL A   1      34.207  34.710  28.420  1.00  0.00     0.202 C 
BRANCH  26  27
ATOM     27  C   UNL A   1      33.297  35.240  29.530  1.00  0.00     0.261 C 
BRANCH  27  28
ATOM     28  O   UNL A   1      33.266  34.460  30.737  1.00  0.00    -0.460 OA
BRANCH  28  29
ATOM     29  C   UNL A   1      34.112  34.804  31.729  1.00  0.00     0.338 C 
ATOM     30  O   UNL A   1      33.921  35.632  32.611  1.00  0.00    -0.246 OA
BRANCH  29  31
ATOM     31  C   UNL A   1      35.251  33.866  31.694  1.00  0.00     0.060 A 
ATOM     32  C   UNL A   1      35.089  32.573  32.207  1.00  0.00     0.016 A 
ATOM     33  C   UNL A   1      36.475  34.261  31.146  1.00  0.00     0.016 A 
ATOM     34  C   UNL A   1      36.162  31.678  32.197  1.00  0.00     0.010 A 
ATOM     35  C   UNL A   1      37.550  33.369  31.147  1.00  0.00     0.010 A 
ATOM     36  C   UNL A   1      37.407  32.082  31.695  1.00  0.00    -0.014 A 
BRANCH  36  37
ATOM     37  C   UNL A   1      38.606  31.230  31.883  1.00  0.00     0.031 A 
ATOM     38  C   UNL A   1      39.539  31.542  33.020  1.00  0.00     0.074 A 
ATOM     39  C   UNL A   1      38.872  30.203  31.057  1.00  0.00     0.049 A 
ATOM     40  N   UNL A   1      40.692  31.004  33.321  1.00  0.00    -0.248 NA
ATOM     41  C   UNL A   1      39.108  32.606  33.942  1.00  0.00     0.031 C 
ATOM     42  C   UNL A   1      38.026  29.760  29.951  1.00  0.00     0.029 A 
ATOM     43  N   UNL A   1      39.949  29.351  31.021  1.00  0.00    -0.354 N 
ATOM     44  C   UNL A   1      41.133  31.673  34.456  1.00  0.00     0.074 A 
ATOM     45  C   UNL A   1      40.132  32.666  34.780  1.00  0.00     0.031 C 
ATOM     46  C   UNL A   1      38.622  28.723  29.336  1.00  0.00     0.029 A 
ATOM     47  C   UNL A   1      39.908  28.458  29.979  1.00  0.00     0.049 A 
ATOM     48  H   UNL A   1      40.680  29.378  31.680  1.00  0.00     0.167 HD
ATOM     49  C   UNL A   1      42.269  31.481  35.166  1.00  0.00     0.031 A 
ATOM     50  C   UNL A   1      40.821  27.553  29.571  1.00  0.00     0.031 A 
ATOM     51  C   UNL A   1      43.276  30.509  34.836  1.00  0.00     0.049 A 
ATOM     52  C   UNL A   1      42.122  27.423  30.321  1.00  0.00     0.074 A 
ATOM     53  C   UNL A   1      44.464  30.239  35.493  1.00  0.00     0.029 A 
ATOM     54  N   UNL A   1      43.216  29.654  33.747  1.00  0.00    -0.354 N 
ATOM     55  N   UNL A   1      42.526  28.056  31.395  1.00  0.00    -0.248 NA
ATOM     56  C   UNL A   1      43.093  26.450  29.796  1.00  0.00     0.031 C 
ATOM     57  C   UNL A   1      45.146  29.253  34.772  1.00  0.00     0.029 A 
ATOM     58  C   UNL A   1      44.358  28.872  33.700  1.00  0.00     0.049 A 
ATOM     59  H   UNL A   1      42.473  29.608  33.104  1.00  0.00     0.167 HD
ATOM     60  C   UNL A   1      43.783  27.542  31.689  1.00  0.00     0.074 A 
ATOM     61  C   UNL A   1      44.069  26.534  30.689  1.00  0.00     0.031 C 
ATOM     62  C   UNL A   1      44.626  27.872  32.698  1.00  0.00     0.031 A 
BRANCH  49  63
ATOM     63  C   UNL A   1      42.499  32.378  36.349  1.00  0.00    -0.014 A 
ATOM     64  C   UNL A   1      42.073  32.014  37.635  1.00  0.00     0.009 A 
ATOM     65  C   UNL A   1      43.167  33.601  36.173  1.00  0.00     0.009 A 
ATOM     66  C   UNL A   1      42.279  32.874  38.717  1.00  0.00     0.001 A 
ATOM     67  C   UNL A   1      43.396  34.445  37.260  1.00  0.00     0.001 A 
ATOM     68  C   UNL A   1      42.944  34.086  38.529  1.00  0.00     0.000 A 
ENDBRANCH  49  63
BRANCH  50  69
ATOM     69  C   UNL A   1      40.561  26.717  28.370  1.00  0.00    -0.014 A 
ATOM     70  C   UNL A   1      39.807  25.538  28.469  1.00  0.00     0.009 A 
ATOM     71  C   UNL A   1      41.091  27.079  27.122  1.00  0.00     0.009 A 
ATOM     72  C   UNL A   1      39.609  24.727  27.348  1.00  0.00     0.001 A 
ATOM     73  C   UNL A   1      40.868  26.282  25.997  1.00  0.00     0.001 A 
ATOM     74  C   UNL A   1      40.135  25.102  26.112  1.00  0.00     0.000 A 
ENDBRANCH  50  69
BRANCH  62  75
ATOM     75  C   UNL A   1      45.920  27.112  32.795  1.00  0.00    -0.014 A 
ATOM     76  C   UNL A   1      47.094  27.588  32.191  1.00  0.00     0.009 A 
ATOM     77  C   UNL A   1      45.972  25.924  33.542  1.00  0.00     0.009 A 
ATOM     78  C   UNL A   1      48.287  26.871  32.309  1.00  0.00     0.001 A 
ATOM     79  C   UNL A   1      47.171  25.225  33.680  1.00  0.00     0.001 A 
ATOM     80  C   UNL A   1      48.325  25.694  33.056  1.00  0.00     0.000 A 
ENDBRANCH  62  75
ENDBRANCH  36  37
ENDBRANCH  29  31
ENDBRANCH  28  29
ENDBRANCH  27  28
ENDBRANCH  26  27
ENDBRANCH  25  26
ENDBRANCH  24  25
ENDBRANCH   1  24
TORSDOF 22
ENDMDL
