MODEL 1
REMARK VINA RESULT:     -10.1      0.000      0.000
REMARK SMILES CC1(C)O[C@](C)([C@H](O)C2CCCCC2)CC[C@H]1C(=O)OCCOCCOCCOC(=O)c1ccc(-c2c3nc(c(-c4ccccc4)c4ccc([nH]4)c(-c4ccccc4)c4nc(c(-c5ccccc5)c5ccc2[nH]5)C=C4)C=C3)cc1
REMARK SMILES IDX 24 1 23 2 22 3 21 4 20 5 18 6 19 7 17 8 1 9 2 10 3 11 4 12
REMARK SMILES IDX 5 13 16 14 6 15 15 16 7 17 9 18 10 19 14 20 11 21 13 22
REMARK SMILES IDX 12 23 8 24 25 26 26 27 27 28 28 29 29 30 30 31 31 32 32 33
REMARK SMILES IDX 33 34 79 35 34 36 78 37 35 38 36 39 37 40 72 41 38 42 77 43
REMARK SMILES IDX 71 44 73 45 39 46 76 47 70 48 69 49 40 51 62 52 47 53 61 54
REMARK SMILES IDX 48 55 51 56 60 57 74 58 49 59 50 60 59 62 75 63 52 64 41 65
REMARK SMILES IDX 42 66 46 67 43 68 45 69 44 70 63 71 64 72 68 73 65 74 67 75
REMARK SMILES IDX 66 76 53 77 54 78 58 79 55 80 57 81 56 82
REMARK H PARENT 8 25 73 50 51 61
REMARK Flexibility Score: inf
ROOT
ATOM      1  C   UNL A   1      35.716  32.750  28.061  1.00  0.00     0.188 C 
ENDROOT
BRANCH   1   2
ATOM      2  O   UNL A   1      35.089  31.514  28.360  1.00  0.00    -0.376 OA
BRANCH   2   3
ATOM      3  C   UNL A   1      33.808  31.211  27.821  1.00  0.00     0.202 C 
BRANCH   3   4
ATOM      4  C   UNL A   1      33.673  30.022  26.852  1.00  0.00     0.261 C 
BRANCH   4   5
ATOM      5  O   UNL A   1      32.448  29.246  26.919  1.00  0.00    -0.463 OA
BRANCH   5   6
ATOM      6  C   UNL A   1      31.808  29.069  25.739  1.00  0.00     0.311 C 
ATOM      7  O   UNL A   1      31.226  29.982  25.153  1.00  0.00    -0.252 OA
BRANCH   6   8
ATOM      8  C   UNL A   1      31.783  27.650  25.151  1.00  0.00     0.131 C 
ATOM      9  C   UNL A   1      33.732  27.900  23.394  1.00  0.00     0.043 C 
ATOM     10  C   UNL A   1      32.419  27.215  23.781  1.00  0.00     0.077 C 
ATOM     11  C   UNL A   1      31.441  27.383  22.587  1.00  0.00     0.043 C 
ATOM     12  O   UNL A   1      32.606  25.784  23.680  1.00  0.00    -0.366 OA
ATOM     13  C   UNL A   1      33.059  25.004  24.774  1.00  0.00     0.092 C 
ATOM     14  C   UNL A   1      32.233  26.791  26.342  1.00  0.00     0.021 C 
ATOM     15  C   UNL A   1      34.540  25.284  25.081  1.00  0.00     0.045 C 
ATOM     16  C   UNL A   1      32.210  25.319  26.012  1.00  0.00     0.039 C 
BRANCH  13  17
ATOM     17  C   UNL A   1      32.764  23.505  24.395  1.00  0.00     0.149 C 
BRANCH  17  18
ATOM     18  C   UNL A   1      32.615  22.441  25.534  1.00  0.00     0.021 C 
ATOM     19  C   UNL A   1      31.941  21.109  25.196  1.00  0.00     0.006 C 
ATOM     20  C   UNL A   1      33.966  22.116  26.210  1.00  0.00     0.006 C 
ATOM     21  C   UNL A   1      32.769  20.268  24.237  1.00  0.00     0.000 C 
ATOM     22  C   UNL A   1      34.871  21.193  25.388  1.00  0.00     0.000 C 
ATOM     23  C   UNL A   1      34.153  19.974  24.808  1.00  0.00     0.000 C 
ENDBRANCH  17  18
BRANCH  17  24
ATOM     24  O   UNL A   1      31.737  23.431  23.406  1.00  0.00    -0.390 OA
ATOM     25  H   UNL A   1      31.535  22.500  23.219  1.00  0.00     0.211 HD
ENDBRANCH  17  24
ENDBRANCH  13  17
ENDBRANCH   6   8
ENDBRANCH   5   6
ENDBRANCH   4   5
ENDBRANCH   3   4
ENDBRANCH   2   3
ENDBRANCH   1   2
BRANCH   1  26
ATOM     26  C   UNL A   1      35.503  33.949  28.983  1.00  0.00     0.188 C 
BRANCH  26  27
ATOM     27  O   UNL A   1      34.717  34.980  28.433  1.00  0.00    -0.376 OA
BRANCH  27  28
ATOM     28  C   UNL A   1      33.323  34.981  28.686  1.00  0.00     0.202 C 
BRANCH  28  29
ATOM     29  C   UNL A   1      32.908  35.990  29.762  1.00  0.00     0.261 C 
BRANCH  29  30
ATOM     30  O   UNL A   1      32.306  35.413  30.938  1.00  0.00    -0.460 OA
BRANCH  30  31
ATOM     31  C   UNL A   1      32.717  35.884  32.140  1.00  0.00     0.338 C 
ATOM     32  O   UNL A   1      32.122  36.669  32.863  1.00  0.00    -0.246 OA
BRANCH  31  33
ATOM     33  C   UNL A   1      33.880  35.070  32.565  1.00  0.00     0.060 A 
ATOM     34  C   UNL A   1      35.160  35.642  32.513  1.00  0.00     0.016 A 
ATOM     35  C   UNL A   1      33.707  33.788  33.087  1.00  0.00     0.016 A 
ATOM     36  C   UNL A   1      36.272  34.929  32.968  1.00  0.00     0.010 A 
ATOM     37  C   UNL A   1      34.822  33.065  33.518  1.00  0.00     0.010 A 
ATOM     38  C   UNL A   1      36.113  33.621  33.441  1.00  0.00    -0.014 A 
BRANCH  38  39
ATOM     39  C   UNL A   1      37.292  32.756  33.686  1.00  0.00     0.031 A 
ATOM     40  C   UNL A   1      38.069  32.960  34.957  1.00  0.00     0.074 A 
ATOM     41  C   UNL A   1      37.687  31.823  32.801  1.00  0.00     0.049 A 
ATOM     42  N   UNL A   1      39.207  32.437  35.332  1.00  0.00    -0.248 NA
ATOM     43  C   UNL A   1      37.480  33.890  35.936  1.00  0.00     0.031 C 
ATOM     44  C   UNL A   1      36.990  31.473  31.566  1.00  0.00     0.029 A 
ATOM     45  N   UNL A   1      38.792  31.006  32.809  1.00  0.00    -0.354 N 
ATOM     46  C   UNL A   1      39.482  32.990  36.576  1.00  0.00     0.074 A 
ATOM     47  C   UNL A   1      38.405  33.904  36.884  1.00  0.00     0.031 C 
ATOM     48  C   UNL A   1      37.694  30.523  30.924  1.00  0.00     0.029 A 
ATOM     49  C   UNL A   1      38.914  30.236  31.678  1.00  0.00     0.049 A 
ATOM     50  H   UNL A   1      39.434  30.976  33.554  1.00  0.00     0.167 HD
ATOM     51  C   UNL A   1      40.539  32.760  37.390  1.00  0.00     0.031 A 
ATOM     52  C   UNL A   1      39.913  29.425  31.279  1.00  0.00     0.031 A 
ATOM     53  C   UNL A   1      41.617  31.861  37.079  1.00  0.00     0.049 A 
ATOM     54  C   UNL A   1      41.132  29.263  32.153  1.00  0.00     0.074 A 
ATOM     55  C   UNL A   1      42.729  31.553  37.843  1.00  0.00     0.029 A 
ATOM     56  N   UNL A   1      41.723  31.133  35.903  1.00  0.00    -0.354 N 
ATOM     57  N   UNL A   1      41.382  29.785  33.331  1.00  0.00    -0.248 NA
ATOM     58  C   UNL A   1      42.207  28.401  31.641  1.00  0.00     0.031 C 
ATOM     59  C   UNL A   1      43.542  30.690  37.101  1.00  0.00     0.029 A 
ATOM     60  C   UNL A   1      42.899  30.403  35.906  1.00  0.00     0.049 A 
ATOM     61  H   UNL A   1      41.061  31.135  35.175  1.00  0.00     0.167 HD
ATOM     62  C   UNL A   1      42.625  29.289  33.711  1.00  0.00     0.074 A 
ATOM     63  C   UNL A   1      43.072  28.416  32.647  1.00  0.00     0.031 C 
ATOM     64  C   UNL A   1      43.332  29.535  34.842  1.00  0.00     0.031 A 
BRANCH  51  65
ATOM     65  C   UNL A   1      40.604  33.536  38.676  1.00  0.00    -0.014 A 
ATOM     66  C   UNL A   1      41.309  34.747  38.770  1.00  0.00     0.009 A 
ATOM     67  C   UNL A   1      39.925  33.058  39.807  1.00  0.00     0.009 A 
ATOM     68  C   UNL A   1      41.362  35.441  39.980  1.00  0.00     0.001 A 
ATOM     69  C   UNL A   1      39.952  33.770  41.007  1.00  0.00     0.001 A 
ATOM     70  C   UNL A   1      40.679  34.956  41.094  1.00  0.00     0.000 A 
ENDBRANCH  51  65
BRANCH  52  71
ATOM     71  C   UNL A   1      39.836  28.729  29.965  1.00  0.00    -0.014 A 
ATOM     72  C   UNL A   1      39.387  27.401  29.881  1.00  0.00     0.009 A 
ATOM     73  C   UNL A   1      40.243  29.379  28.788  1.00  0.00     0.009 A 
ATOM     74  C   UNL A   1      39.371  26.734  28.653  1.00  0.00     0.001 A 
ATOM     75  C   UNL A   1      40.194  28.720  27.558  1.00  0.00     0.001 A 
ATOM     76  C   UNL A   1      39.769  27.395  27.493  1.00  0.00     0.000 A 
ENDBRANCH  52  71
BRANCH  64  77
ATOM     77  C   UNL A   1      44.643  28.817  35.014  1.00  0.00    -0.014 A 
ATOM     78  C   UNL A   1      45.853  29.386  34.586  1.00  0.00     0.009 A 
ATOM     79  C   UNL A   1      44.671  27.578  35.673  1.00  0.00     0.009 A 
ATOM     80  C   UNL A   1      47.060  28.712  34.788  1.00  0.00     0.001 A 
ATOM     81  C   UNL A   1      45.882  26.922  35.902  1.00  0.00     0.001 A 
ATOM     82  C   UNL A   1      47.075  27.486  35.452  1.00  0.00     0.000 A 
ENDBRANCH  64  77
ENDBRANCH  38  39
ENDBRANCH  31  33
ENDBRANCH  30  31
ENDBRANCH  29  30
ENDBRANCH  28  29
ENDBRANCH  27  28
ENDBRANCH  26  27
ENDBRANCH   1  26
TORSDOF 20
ENDMDL
MODEL 2
REMARK VINA RESULT:     -10.0      4.282      6.596
REMARK SMILES CC1(C)O[C@](C)([C@H](O)C2CCCCC2)CC[C@H]1C(=O)OCCOCCOCCOC(=O)c1ccc(-c2c3nc(c(-c4ccccc4)c4ccc([nH]4)c(-c4ccccc4)c4nc(c(-c5ccccc5)c5ccc2[nH]5)C=C4)C=C3)cc1
REMARK SMILES IDX 24 1 23 2 22 3 21 4 20 5 18 6 19 7 17 8 1 9 2 10 3 11 4 12
REMARK SMILES IDX 5 13 16 14 6 15 15 16 7 17 9 18 10 19 14 20 11 21 13 22
REMARK SMILES IDX 12 23 8 24 25 26 26 27 27 28 28 29 29 30 30 31 31 32 32 33
REMARK SMILES IDX 33 34 79 35 34 36 78 37 35 38 36 39 37 40 72 41 38 42 77 43
REMARK SMILES IDX 71 44 73 45 39 46 76 47 70 48 69 49 40 51 62 52 47 53 61 54
REMARK SMILES IDX 48 55 51 56 60 57 74 58 49 59 50 60 59 62 75 63 52 64 41 65
REMARK SMILES IDX 42 66 46 67 43 68 45 69 44 70 63 71 64 72 68 73 65 74 67 75
REMARK SMILES IDX 66 76 53 77 54 78 58 79 55 80 57 81 56 82
REMARK H PARENT 8 25 73 50 51 61
REMARK Flexibility Score: inf
ROOT
ATOM      1  C   UNL A   1      33.843  32.405  28.023  1.00  0.00     0.188 C 
ENDROOT
BRANCH   1   2
ATOM      2  O   UNL A   1      34.535  31.365  27.353  1.00  0.00    -0.376 OA
BRANCH   2   3
ATOM      3  C   UNL A   1      33.931  30.087  27.194  1.00  0.00     0.202 C 
BRANCH   3   4
ATOM      4  C   UNL A   1      32.492  30.008  26.654  1.00  0.00     0.261 C 
BRANCH   4   5
ATOM      5  O   UNL A   1      32.100  28.781  25.982  1.00  0.00    -0.463 OA
BRANCH   5   6
ATOM      6  C   UNL A   1      31.713  27.772  26.796  1.00  0.00     0.311 C 
ATOM      7  O   UNL A   1      31.106  27.961  27.850  1.00  0.00    -0.252 OA
BRANCH   6   8
ATOM      8  C   UNL A   1      32.102  26.343  26.387  1.00  0.00     0.131 C 
ATOM      9  C   UNL A   1      30.501  26.061  24.311  1.00  0.00     0.043 C 
ATOM     10  C   UNL A   1      31.256  25.392  25.463  1.00  0.00     0.077 C 
ATOM     11  C   UNL A   1      30.228  24.544  26.259  1.00  0.00     0.043 C 
ATOM     12  O   UNL A   1      32.034  24.299  24.922  1.00  0.00    -0.366 OA
ATOM     13  C   UNL A   1      33.365  24.475  24.466  1.00  0.00     0.092 C 
ATOM     14  C   UNL A   1      33.558  26.513  25.929  1.00  0.00     0.021 C 
ATOM     15  C   UNL A   1      33.403  25.289  23.162  1.00  0.00     0.045 C 
ATOM     16  C   UNL A   1      34.184  25.196  25.545  1.00  0.00     0.039 C 
BRANCH  13  17
ATOM     17  C   UNL A   1      33.975  23.031  24.328  1.00  0.00     0.149 C 
BRANCH  17  18
ATOM     18  C   UNL A   1      34.181  22.160  25.613  1.00  0.00     0.021 C 
ATOM     19  C   UNL A   1      33.591  20.748  25.631  1.00  0.00     0.006 C 
ATOM     20  C   UNL A   1      35.671  22.043  26.007  1.00  0.00     0.006 C 
ATOM     21  C   UNL A   1      34.279  19.820  24.642  1.00  0.00     0.000 C 
ATOM     22  C   UNL A   1      36.471  21.062  25.144  1.00  0.00     0.000 C 
ATOM     23  C   UNL A   1      35.776  19.718  24.923  1.00  0.00     0.000 C 
ENDBRANCH  17  18
BRANCH  17  24
ATOM     24  O   UNL A   1      33.358  22.325  23.252  1.00  0.00    -0.390 OA
ATOM     25  H   UNL A   1      32.394  22.415  23.318  1.00  0.00     0.211 HD
ENDBRANCH  17  24
ENDBRANCH  13  17
ENDBRANCH   6   8
ENDBRANCH   5   6
ENDBRANCH   4   5
ENDBRANCH   3   4
ENDBRANCH   2   3
ENDBRANCH   1   2
BRANCH   1  26
ATOM     26  C   UNL A   1      34.341  32.894  29.380  1.00  0.00     0.188 C 
BRANCH  26  27
ATOM     27  O   UNL A   1      34.448  34.294  29.497  1.00  0.00    -0.376 OA
BRANCH  27  28
ATOM     28  C   UNL A   1      33.951  34.919  30.667  1.00  0.00     0.202 C 
BRANCH  28  29
ATOM     29  C   UNL A   1      34.396  34.221  31.957  1.00  0.00     0.261 C 
BRANCH  29  30
ATOM     30  O   UNL A   1      35.823  34.146  32.148  1.00  0.00    -0.460 OA
BRANCH  30  31
ATOM     31  C   UNL A   1      36.289  33.168  32.961  1.00  0.00     0.338 C 
ATOM     32  O   UNL A   1      35.805  32.803  34.022  1.00  0.00    -0.246 OA
BRANCH  31  33
ATOM     33  C   UNL A   1      37.325  32.419  32.211  1.00  0.00     0.060 A 
ATOM     34  C   UNL A   1      38.173  31.550  32.915  1.00  0.00     0.016 A 
ATOM     35  C   UNL A   1      37.410  32.506  30.821  1.00  0.00     0.016 A 
ATOM     36  C   UNL A   1      39.117  30.778  32.234  1.00  0.00     0.010 A 
ATOM     37  C   UNL A   1      38.371  31.753  30.144  1.00  0.00     0.010 A 
ATOM     38  C   UNL A   1      39.245  30.901  30.846  1.00  0.00    -0.014 A 
BRANCH  38  39
ATOM     39  C   UNL A   1      40.397  30.295  30.135  1.00  0.00     0.031 A 
ATOM     40  C   UNL A   1      41.624  31.139  29.924  1.00  0.00     0.074 A 
ATOM     41  C   UNL A   1      40.360  29.036  29.665  1.00  0.00     0.049 A 
ATOM     42  N   UNL A   1      42.694  30.891  29.216  1.00  0.00    -0.248 NA
ATOM     43  C   UNL A   1      41.638  32.445  30.604  1.00  0.00     0.031 C 
ATOM     44  C   UNL A   1      39.266  28.087  29.858  1.00  0.00     0.029 A 
ATOM     45  N   UNL A   1      41.276  28.345  28.909  1.00  0.00    -0.354 N 
ATOM     46  C   UNL A   1      43.497  32.017  29.344  1.00  0.00     0.074 A 
ATOM     47  C   UNL A   1      42.783  32.957  30.180  1.00  0.00     0.031 C 
ATOM     48  C   UNL A   1      39.567  26.941  29.221  1.00  0.00     0.029 A 
ATOM     49  C   UNL A   1      40.849  27.094  28.535  1.00  0.00     0.049 A 
ATOM     50  H   UNL A   1      42.155  28.712  28.660  1.00  0.00     0.167 HD
ATOM     51  C   UNL A   1      44.719  32.250  28.811  1.00  0.00     0.031 A 
ATOM     52  C   UNL A   1      41.410  26.193  27.703  1.00  0.00     0.031 A 
ATOM     53  C   UNL A   1      45.424  31.322  27.969  1.00  0.00     0.049 A 
ATOM     54  C   UNL A   1      42.724  26.517  27.037  1.00  0.00     0.074 A 
ATOM     55  C   UNL A   1      46.671  31.463  27.388  1.00  0.00     0.029 A 
ATOM     56  N   UNL A   1      44.936  30.084  27.580  1.00  0.00    -0.354 N 
ATOM     57  N   UNL A   1      43.480  27.581  27.167  1.00  0.00    -0.248 NA
ATOM     58  C   UNL A   1      43.260  25.513  26.105  1.00  0.00     0.031 C 
ATOM     59  C   UNL A   1      46.910  30.338  26.592  1.00  0.00     0.029 A 
ATOM     60  C   UNL A   1      45.843  29.464  26.738  1.00  0.00     0.049 A 
ATOM     61  H   UNL A   1      44.074  29.701  27.861  1.00  0.00     0.167 HD
ATOM     62  C   UNL A   1      44.592  27.360  26.362  1.00  0.00     0.074 A 
ATOM     63  C   UNL A   1      44.420  26.056  25.757  1.00  0.00     0.031 C 
ATOM     64  C   UNL A   1      45.661  28.165  26.144  1.00  0.00     0.031 A 
BRANCH  51  65
ATOM     65  C   UNL A   1      45.349  33.588  29.083  1.00  0.00    -0.014 A 
ATOM     66  C   UNL A   1      45.212  34.662  28.189  1.00  0.00     0.009 A 
ATOM     67  C   UNL A   1      46.070  33.783  30.271  1.00  0.00     0.009 A 
ATOM     68  C   UNL A   1      45.818  35.890  28.461  1.00  0.00     0.001 A 
ATOM     69  C   UNL A   1      46.646  35.022  30.558  1.00  0.00     0.001 A 
ATOM     70  C   UNL A   1      46.528  36.070  29.648  1.00  0.00     0.000 A 
ENDBRANCH  51  65
BRANCH  52  71
ATOM     71  C   UNL A   1      40.717  24.910  27.410  1.00  0.00    -0.014 A 
ATOM     72  C   UNL A   1      41.192  23.699  27.941  1.00  0.00     0.009 A 
ATOM     73  C   UNL A   1      39.592  24.882  26.569  1.00  0.00     0.009 A 
ATOM     74  C   UNL A   1      40.571  22.490  27.615  1.00  0.00     0.001 A 
ATOM     75  C   UNL A   1      38.954  23.675  26.273  1.00  0.00     0.001 A 
ATOM     76  C   UNL A   1      39.451  22.480  26.787  1.00  0.00     0.000 A 
ENDBRANCH  52  71
BRANCH  64  77
ATOM     77  C   UNL A   1      46.755  27.645  25.250  1.00  0.00    -0.014 A 
ATOM     78  C   UNL A   1      46.818  27.992  23.891  1.00  0.00     0.009 A 
ATOM     79  C   UNL A   1      47.772  26.845  25.795  1.00  0.00     0.009 A 
ATOM     80  C   UNL A   1      47.863  27.521  23.091  1.00  0.00     0.001 A 
ATOM     81  C   UNL A   1      48.832  26.404  25.001  1.00  0.00     0.001 A 
ATOM     82  C   UNL A   1      48.872  26.736  23.648  1.00  0.00     0.000 A 
ENDBRANCH  64  77
ENDBRANCH  38  39
ENDBRANCH  31  33
ENDBRANCH  30  31
ENDBRANCH  29  30
ENDBRANCH  28  29
ENDBRANCH  27  28
ENDBRANCH  26  27
ENDBRANCH   1  26
TORSDOF 20
ENDMDL
MODEL 3
REMARK VINA RESULT:      -9.8      6.502     12.017
REMARK SMILES CC1(C)O[C@](C)([C@H](O)C2CCCCC2)CC[C@H]1C(=O)OCCOCCOCCOC(=O)c1ccc(-c2c3nc(c(-c4ccccc4)c4ccc([nH]4)c(-c4ccccc4)c4nc(c(-c5ccccc5)c5ccc2[nH]5)C=C4)C=C3)cc1
REMARK SMILES IDX 24 1 23 2 22 3 21 4 20 5 18 6 19 7 17 8 1 9 2 10 3 11 4 12
REMARK SMILES IDX 5 13 16 14 6 15 15 16 7 17 9 18 10 19 14 20 11 21 13 22
REMARK SMILES IDX 12 23 8 24 25 26 26 27 27 28 28 29 29 30 30 31 31 32 32 33
REMARK SMILES IDX 33 34 79 35 34 36 78 37 35 38 36 39 37 40 72 41 38 42 77 43
REMARK SMILES IDX 71 44 73 45 39 46 76 47 70 48 69 49 40 51 62 52 47 53 61 54
REMARK SMILES IDX 48 55 51 56 60 57 74 58 49 59 50 60 59 62 75 63 52 64 41 65
REMARK SMILES IDX 42 66 46 67 43 68 45 69 44 70 63 71 64 72 68 73 65 74 67 75
REMARK SMILES IDX 66 76 53 77 54 78 58 79 55 80 57 81 56 82
REMARK H PARENT 8 25 73 50 51 61
REMARK Flexibility Score: inf
ROOT
ATOM      1  C   UNL A   1      39.723  21.789  26.104  1.00  0.00     0.188 C 
ENDROOT
BRANCH   1   2
ATOM      2  O   UNL A   1      38.515  21.089  25.859  1.00  0.00    -0.376 OA
BRANCH   2   3
ATOM      3  C   UNL A   1      37.397  21.763  25.295  1.00  0.00     0.202 C 
BRANCH   3   4
ATOM      4  C   UNL A   1      35.991  21.446  25.834  1.00  0.00     0.261 C 
BRANCH   4   5
ATOM      5  O   UNL A   1      35.126  20.631  24.999  1.00  0.00    -0.463 OA
BRANCH   5   6
ATOM      6  C   UNL A   1      33.832  21.026  24.943  1.00  0.00     0.311 C 
ATOM      7  O   UNL A   1      32.895  20.232  24.866  1.00  0.00    -0.252 OA
BRANCH   6   8
ATOM      8  C   UNL A   1      33.553  22.536  24.929  1.00  0.00     0.131 C 
ATOM      9  C   UNL A   1      33.210  22.866  22.336  1.00  0.00     0.043 C 
ATOM     10  C   UNL A   1      33.649  23.475  23.670  1.00  0.00     0.077 C 
ATOM     11  C   UNL A   1      35.074  24.058  23.466  1.00  0.00     0.043 C 
ATOM     12  O   UNL A   1      32.949  24.727  23.850  1.00  0.00    -0.366 OA
ATOM     13  C   UNL A   1      31.692  24.801  24.501  1.00  0.00     0.092 C 
ATOM     14  C   UNL A   1      32.211  22.633  25.669  1.00  0.00     0.021 C 
ATOM     15  C   UNL A   1      30.581  24.181  23.637  1.00  0.00     0.045 C 
ATOM     16  C   UNL A   1      31.768  24.064  25.845  1.00  0.00     0.039 C 
BRANCH  13  17
ATOM     17  C   UNL A   1      31.459  26.321  24.835  1.00  0.00     0.149 C 
BRANCH  17  18
ATOM     18  C   UNL A   1      32.680  27.302  24.835  1.00  0.00     0.021 C 
ATOM     19  C   UNL A   1      32.437  28.757  24.429  1.00  0.00     0.006 C 
ATOM     20  C   UNL A   1      33.417  27.319  26.193  1.00  0.00     0.006 C 
ATOM     21  C   UNL A   1      31.575  29.504  25.435  1.00  0.00     0.000 C 
ATOM     22  C   UNL A   1      32.700  28.120  27.283  1.00  0.00     0.000 C 
ATOM     23  C   UNL A   1      32.206  29.493  26.824  1.00  0.00     0.000 C 
ENDBRANCH  17  18
BRANCH  17  24
ATOM     24  O   UNL A   1      30.324  26.822  24.131  1.00  0.00    -0.390 OA
ATOM     25  H   UNL A   1      29.785  27.364  24.729  1.00  0.00     0.211 HD
ENDBRANCH  17  24
ENDBRANCH  13  17
ENDBRANCH   6   8
ENDBRANCH   5   6
ENDBRANCH   4   5
ENDBRANCH   3   4
ENDBRANCH   2   3
ENDBRANCH   1   2
BRANCH   1  26
ATOM     26  C   UNL A   1      40.693  21.276  27.166  1.00  0.00     0.188 C 
BRANCH  26  27
ATOM     27  O   UNL A   1      41.837  20.633  26.655  1.00  0.00    -0.376 OA
BRANCH  27  28
ATOM     28  C   UNL A   1      41.786  19.237  26.422  1.00  0.00     0.202 C 
BRANCH  28  29
ATOM     29  C   UNL A   1      43.053  18.691  25.755  1.00  0.00     0.261 C 
BRANCH  29  30
ATOM     30  O   UNL A   1      43.413  19.333  24.515  1.00  0.00    -0.460 OA
BRANCH  30  31
ATOM     31  C   UNL A   1      44.724  19.612  24.320  1.00  0.00     0.338 C 
ATOM     32  O   UNL A   1      45.543  18.918  23.736  1.00  0.00    -0.246 OA
BRANCH  31  33
ATOM     33  C   UNL A   1      44.939  21.033  24.684  1.00  0.00     0.060 A 
ATOM     34  C   UNL A   1      45.380  21.338  25.981  1.00  0.00     0.016 A 
ATOM     35  C   UNL A   1      44.788  22.048  23.740  1.00  0.00     0.016 A 
ATOM     36  C   UNL A   1      45.657  22.658  26.341  1.00  0.00     0.010 A 
ATOM     37  C   UNL A   1      45.039  23.371  24.108  1.00  0.00     0.010 A 
ATOM     38  C   UNL A   1      45.454  23.688  25.415  1.00  0.00    -0.014 A 
BRANCH  38  39
ATOM     39  C   UNL A   1      45.491  25.108  25.842  1.00  0.00     0.031 A 
ATOM     40  C   UNL A   1      46.813  25.824  25.809  1.00  0.00     0.074 A 
ATOM     41  C   UNL A   1      44.390  25.751  26.270  1.00  0.00     0.049 A 
ATOM     42  N   UNL A   1      47.131  27.008  26.262  1.00  0.00    -0.248 NA
ATOM     43  C   UNL A   1      47.930  25.097  25.183  1.00  0.00     0.031 C 
ATOM     44  C   UNL A   1      43.036  25.202  26.288  1.00  0.00     0.029 A 
ATOM     45  N   UNL A   1      44.249  27.016  26.788  1.00  0.00    -0.354 N 
ATOM     46  C   UNL A   1      48.486  27.159  25.999  1.00  0.00     0.074 A 
ATOM     47  C   UNL A   1      48.936  25.938  25.365  1.00  0.00     0.031 C 
ATOM     48  C   UNL A   1      42.202  26.120  26.810  1.00  0.00     0.029 A 
ATOM     49  C   UNL A   1      42.971  27.299  27.207  1.00  0.00     0.049 A 
ATOM     50  H   UNL A   1      44.992  27.658  26.853  1.00  0.00     0.167 HD
ATOM     51  C   UNL A   1      49.288  28.217  26.262  1.00  0.00     0.031 A 
ATOM     52  C   UNL A   1      42.487  28.368  27.870  1.00  0.00     0.031 A 
ATOM     53  C   UNL A   1      48.845  29.426  26.903  1.00  0.00     0.049 A 
ATOM     54  C   UNL A   1      43.420  29.492  28.246  1.00  0.00     0.074 A 
ATOM     55  C   UNL A   1      49.579  30.559  27.205  1.00  0.00     0.029 A 
ATOM     56  N   UNL A   1      47.552  29.653  27.350  1.00  0.00    -0.354 N 
ATOM     57  N   UNL A   1      44.699  29.629  27.989  1.00  0.00    -0.248 NA
ATOM     58  C   UNL A   1      42.840  30.608  29.009  1.00  0.00     0.031 C 
ATOM     59  C   UNL A   1      48.747  31.445  27.896  1.00  0.00     0.029 A 
ATOM     60  C   UNL A   1      47.476  30.895  27.957  1.00  0.00     0.049 A 
ATOM     61  H   UNL A   1      46.800  29.026  27.250  1.00  0.00     0.167 HD
ATOM     62  C   UNL A   1      45.066  30.857  28.528  1.00  0.00     0.074 A 
ATOM     63  C   UNL A   1      43.875  31.432  29.115  1.00  0.00     0.031 C 
ATOM     64  C   UNL A   1      46.283  31.457  28.535  1.00  0.00     0.031 A 
BRANCH  51  65
ATOM     65  C   UNL A   1      50.742  28.090  25.901  1.00  0.00    -0.014 A 
ATOM     66  C   UNL A   1      51.668  27.500  26.776  1.00  0.00     0.009 A 
ATOM     67  C   UNL A   1      51.186  28.549  24.652  1.00  0.00     0.009 A 
ATOM     68  C   UNL A   1      53.015  27.406  26.420  1.00  0.00     0.001 A 
ATOM     69  C   UNL A   1      52.527  28.424  24.285  1.00  0.00     0.001 A 
ATOM     70  C   UNL A   1      53.442  27.862  25.173  1.00  0.00     0.000 A 
ENDBRANCH  51  65
BRANCH  52  71
ATOM     71  C   UNL A   1      41.053  28.419  28.266  1.00  0.00    -0.014 A 
ATOM     72  C   UNL A   1      40.618  27.833  29.466  1.00  0.00     0.009 A 
ATOM     73  C   UNL A   1      40.102  29.027  27.429  1.00  0.00     0.009 A 
ATOM     74  C   UNL A   1      39.263  27.834  29.805  1.00  0.00     0.001 A 
ATOM     75  C   UNL A   1      38.753  29.055  27.788  1.00  0.00     0.001 A 
ATOM     76  C   UNL A   1      38.333  28.449  28.969  1.00  0.00     0.000 A 
ENDBRANCH  52  71
BRANCH  64  77
ATOM     77  C   UNL A   1      46.384  32.824  29.155  1.00  0.00    -0.014 A 
ATOM     78  C   UNL A   1      46.732  32.994  30.504  1.00  0.00     0.009 A 
ATOM     79  C   UNL A   1      46.187  33.962  28.357  1.00  0.00     0.009 A 
ATOM     80  C   UNL A   1      46.849  34.276  31.047  1.00  0.00     0.001 A 
ATOM     81  C   UNL A   1      46.337  35.242  28.893  1.00  0.00     0.001 A 
ATOM     82  C   UNL A   1      46.661  35.398  30.240  1.00  0.00     0.000 A 
ENDBRANCH  64  77
ENDBRANCH  38  39
ENDBRANCH  31  33
ENDBRANCH  30  31
ENDBRANCH  29  30
ENDBRANCH  28  29
ENDBRANCH  27  28
ENDBRANCH  26  27
ENDBRANCH   1  26
TORSDOF 20
ENDMDL
