MODEL 1
REMARK VINA RESULT:      -9.6      0.000      0.000
REMARK SMILES CCCN(C(=O)Cc1c(C(=O)OCCOCCOCCOC(=O)c2ccc(-c3c4nc(c(-c5ccccc5)c5ccc([nH]5)c(-c5ccccc5)c5nc(c(-c6ccccc6)c6ccc3[nH]6)C=C5)C=C4)cc2)c(C)cn1CC)c1cccc(Cl)c1
REMARK SMILES IDX 15 1 14 2 13 3 12 4 10 5 11 6 9 7 8 8 75 9 72 10 74 11 73 12
REMARK SMILES IDX 7 13 5 14 6 15 4 16 3 17 2 18 1 19 78 20 79 21 84 22 80 23
REMARK SMILES IDX 82 24 81 25 83 26 76 27 77 28 16 29 17 30 18 31 19 32 20 33
REMARK SMILES IDX 21 34 22 35 23 36 24 37 25 38 71 39 26 40 70 41 27 42 28 43
REMARK SMILES IDX 29 44 64 45 30 46 69 47 63 48 65 49 31 50 68 51 62 52 61 53
REMARK SMILES IDX 32 55 54 56 39 57 53 58 40 59 43 60 52 61 66 62 41 63 42 64
REMARK SMILES IDX 51 66 67 67 44 68 33 69 34 70 38 71 35 72 37 73 36 74 55 75
REMARK SMILES IDX 56 76 60 77 57 78 59 79 58 80 45 81 46 82 50 83 47 84 49 85
REMARK SMILES IDX 48 86
REMARK H PARENT 65 54 43 65
REMARK Flexibility Score: inf
ROOT
ATOM      1  O   UNL A   1      38.642  21.624  25.989  1.00  0.00    -0.376 OA
ENDROOT
BRANCH   1   2
ATOM      2  C   UNL A   1      38.341  22.861  25.371  1.00  0.00     0.202 C 
BRANCH   2   3
ATOM      3  C   UNL A   1      37.181  23.684  25.943  1.00  0.00     0.261 C 
BRANCH   3   4
ATOM      4  O   UNL A   1      35.881  23.349  25.433  1.00  0.00    -0.460 OA
BRANCH   4   5
ATOM      5  C   UNL A   1      35.092  22.614  26.272  1.00  0.00     0.340 C 
ATOM      6  O   UNL A   1      35.477  22.132  27.330  1.00  0.00    -0.246 OA
BRANCH   5   7
ATOM      7  C   UNL A   1      33.692  22.515  25.827  1.00  0.00     0.084 A 
ATOM      8  C   UNL A   1      32.770  23.570  25.910  1.00  0.00     0.042 A 
ATOM      9  N   UNL A   1      31.520  23.030  25.703  1.00  0.00    -0.350 N 
ATOM     10  C   UNL A   1      33.005  21.443  25.164  1.00  0.00    -0.019 A 
ATOM     11  C   UNL A   1      31.671  21.800  25.117  1.00  0.00     0.090 A 
ATOM     12  C   UNL A   1      33.574  20.172  24.637  1.00  0.00     0.047 C 
BRANCH   8  13
ATOM     13  C   UNL A   1      33.055  25.026  26.180  1.00  0.00     0.155 C 
BRANCH  13  14
ATOM     14  C   UNL A   1      33.383  25.879  24.950  1.00  0.00     0.232 C 
ATOM     15  O   UNL A   1      34.233  25.444  24.163  1.00  0.00    -0.274 OA
BRANCH  14  16
ATOM     16  N   UNL A   1      32.719  27.098  24.726  1.00  0.00    -0.312 N 
BRANCH  16  17
ATOM     17  C   UNL A   1      32.025  27.463  23.472  1.00  0.00     0.125 C 
BRANCH  17  18
ATOM     18  C   UNL A   1      30.731  26.709  23.141  1.00  0.00     0.019 C 
ATOM     19  C   UNL A   1      29.737  26.704  24.299  1.00  0.00     0.006 C 
ENDBRANCH  17  18
ENDBRANCH  16  17
BRANCH  16  20
ATOM     20  C   UNL A   1      32.958  28.178  25.642  1.00  0.00     0.045 A 
ATOM     21  C   UNL A   1      34.098  28.162  26.459  1.00  0.00     0.026 A 
ATOM     22  C   UNL A   1      32.109  29.286  25.698  1.00  0.00     0.046 A 
ATOM     23  C   UNL A   1      34.414  29.263  27.262  1.00  0.00     0.004 A 
ATOM     24  C   UNL A   1      32.430  30.384  26.496  1.00  0.00     0.043 A 
ATOM     25  C   UNL A   1      33.586  30.384  27.269  1.00  0.00     0.020 A 
ATOM     26  Cl  UNL A   1      31.395  31.759  26.502  1.00  0.00    -0.084 Cl
ENDBRANCH  16  20
ENDBRANCH  14  16
ENDBRANCH  13  14
ENDBRANCH   8  13
BRANCH   9  27
ATOM     27  C   UNL A   1      30.227  23.622  26.016  1.00  0.00     0.118 C 
ATOM     28  C   UNL A   1      29.541  22.968  27.206  1.00  0.00     0.027 C 
ENDBRANCH   9  27
ENDBRANCH   5   7
ENDBRANCH   4   5
ENDBRANCH   3   4
ENDBRANCH   2   3
ENDBRANCH   1   2
BRANCH   1  29
ATOM     29  C   UNL A   1      39.987  21.166  26.033  1.00  0.00     0.188 C 
BRANCH  29  30
ATOM     30  C   UNL A   1      40.789  21.102  27.349  1.00  0.00     0.188 C 
BRANCH  30  31
ATOM     31  O   UNL A   1      42.106  20.591  27.204  1.00  0.00    -0.376 OA
BRANCH  31  32
ATOM     32  C   UNL A   1      42.230  19.183  27.330  1.00  0.00     0.202 C 
BRANCH  32  33
ATOM     33  C   UNL A   1      42.880  18.560  26.099  1.00  0.00     0.261 C 
BRANCH  33  34
ATOM     34  O   UNL A   1      43.050  19.458  25.003  1.00  0.00    -0.460 OA
BRANCH  34  35
ATOM     35  C   UNL A   1      44.312  19.598  24.556  1.00  0.00     0.338 C 
ATOM     36  O   UNL A   1      45.060  18.711  24.186  1.00  0.00    -0.246 OA
BRANCH  35  37
ATOM     37  C   UNL A   1      44.709  21.011  24.656  1.00  0.00     0.060 A 
ATOM     38  C   UNL A   1      45.871  21.299  25.377  1.00  0.00     0.016 A 
ATOM     39  C   UNL A   1      43.812  22.017  24.279  1.00  0.00     0.016 A 
ATOM     40  C   UNL A   1      46.029  22.558  25.912  1.00  0.00     0.010 A 
ATOM     41  C   UNL A   1      43.957  23.274  24.831  1.00  0.00     0.010 A 
ATOM     42  C   UNL A   1      45.001  23.485  25.735  1.00  0.00    -0.014 A 
BRANCH  42  43
ATOM     43  C   UNL A   1      44.929  24.567  26.703  1.00  0.00     0.031 A 
ATOM     44  C   UNL A   1      46.129  25.411  26.880  1.00  0.00     0.074 A 
ATOM     45  C   UNL A   1      43.768  24.808  27.347  1.00  0.00     0.049 A 
ATOM     46  N   UNL A   1      46.703  25.764  27.983  1.00  0.00    -0.248 NA
ATOM     47  C   UNL A   1      46.787  25.905  25.661  1.00  0.00     0.031 C 
ATOM     48  C   UNL A   1      42.457  24.206  27.061  1.00  0.00     0.029 A 
ATOM     49  N   UNL A   1      43.481  25.745  28.295  1.00  0.00    -0.354 N 
ATOM     50  C   UNL A   1      47.700  26.659  27.615  1.00  0.00     0.074 A 
ATOM     51  C   UNL A   1      47.769  26.643  26.175  1.00  0.00     0.031 C 
ATOM     52  C   UNL A   1      41.494  24.964  27.622  1.00  0.00     0.029 A 
ATOM     53  C   UNL A   1      42.126  26.020  28.394  1.00  0.00     0.049 A 
ATOM     54  H   UNL A   1      44.166  26.182  28.852  1.00  0.00     0.167 HD
ATOM     55  C   UNL A   1      48.274  27.521  28.493  1.00  0.00     0.031 A 
ATOM     56  C   UNL A   1      41.554  27.100  28.971  1.00  0.00     0.031 A 
ATOM     57  C   UNL A   1      48.145  27.112  29.860  1.00  0.00     0.049 A 
ATOM     58  C   UNL A   1      42.543  27.730  29.871  1.00  0.00     0.074 A 
ATOM     59  C   UNL A   1      48.569  26.023  30.595  1.00  0.00     0.029 A 
ATOM     60  N   UNL A   1      47.233  27.767  30.647  1.00  0.00    -0.354 N 
ATOM     61  N   UNL A   1      42.956  27.206  30.987  1.00  0.00    -0.248 NA
ATOM     62  C   UNL A   1      43.357  28.822  29.357  1.00  0.00     0.031 C 
ATOM     63  C   UNL A   1      47.585  25.841  31.608  1.00  0.00     0.029 A 
ATOM     64  C   UNL A   1      46.611  26.825  31.425  1.00  0.00     0.049 A 
ATOM     65  H   UNL A   1      47.057  28.736  30.652  1.00  0.00     0.167 HD
ATOM     66  C   UNL A   1      44.277  27.613  31.105  1.00  0.00     0.074 A 
ATOM     67  C   UNL A   1      44.419  28.712  30.158  1.00  0.00     0.031 C 
ATOM     68  C   UNL A   1      45.199  26.836  31.745  1.00  0.00     0.031 A 
BRANCH  55  69
ATOM     69  C   UNL A   1      48.662  28.917  28.094  1.00  0.00    -0.014 A 
ATOM     70  C   UNL A   1      49.850  29.479  28.584  1.00  0.00     0.009 A 
ATOM     71  C   UNL A   1      47.759  29.786  27.446  1.00  0.00     0.009 A 
ATOM     72  C   UNL A   1      50.113  30.847  28.442  1.00  0.00     0.001 A 
ATOM     73  C   UNL A   1      48.038  31.141  27.266  1.00  0.00     0.001 A 
ATOM     74  C   UNL A   1      49.210  31.676  27.781  1.00  0.00     0.000 A 
ENDBRANCH  55  69
BRANCH  56  75
ATOM     75  C   UNL A   1      40.298  27.765  28.564  1.00  0.00    -0.014 A 
ATOM     76  C   UNL A   1      39.206  27.845  29.437  1.00  0.00     0.009 A 
ATOM     77  C   UNL A   1      40.246  28.522  27.376  1.00  0.00     0.009 A 
ATOM     78  C   UNL A   1      38.106  28.661  29.135  1.00  0.00     0.001 A 
ATOM     79  C   UNL A   1      39.145  29.325  27.069  1.00  0.00     0.001 A 
ATOM     80  C   UNL A   1      38.079  29.403  27.956  1.00  0.00     0.000 A 
ENDBRANCH  56  75
BRANCH  68  81
ATOM     81  C   UNL A   1      44.691  25.685  32.576  1.00  0.00    -0.014 A 
ATOM     82  C   UNL A   1      44.542  24.389  32.049  1.00  0.00     0.009 A 
ATOM     83  C   UNL A   1      44.507  25.869  33.955  1.00  0.00     0.009 A 
ATOM     84  C   UNL A   1      44.186  23.317  32.872  1.00  0.00     0.001 A 
ATOM     85  C   UNL A   1      44.172  24.792  34.780  1.00  0.00     0.001 A 
ATOM     86  C   UNL A   1      44.006  23.518  34.238  1.00  0.00     0.000 A 
ENDBRANCH  68  81
ENDBRANCH  42  43
ENDBRANCH  35  37
ENDBRANCH  34  35
ENDBRANCH  33  34
ENDBRANCH  32  33
ENDBRANCH  31  32
ENDBRANCH  30  31
ENDBRANCH  29  30
ENDBRANCH   1  29
TORSDOF 24
ENDMDL
MODEL 2
REMARK VINA RESULT:      -9.5      1.673      2.625
REMARK SMILES CCCN(C(=O)Cc1c(C(=O)OCCOCCOCCOC(=O)c2ccc(-c3c4nc(c(-c5ccccc5)c5ccc([nH]5)c(-c5ccccc5)c5nc(c(-c6ccccc6)c6ccc3[nH]6)C=C5)C=C4)cc2)c(C)cn1CC)c1cccc(Cl)c1
REMARK SMILES IDX 15 1 14 2 13 3 12 4 10 5 11 6 9 7 8 8 75 9 72 10 74 11 73 12
REMARK SMILES IDX 7 13 5 14 6 15 4 16 3 17 2 18 1 19 78 20 79 21 84 22 80 23
REMARK SMILES IDX 82 24 81 25 83 26 76 27 77 28 16 29 17 30 18 31 19 32 20 33
REMARK SMILES IDX 21 34 22 35 23 36 24 37 25 38 71 39 26 40 70 41 27 42 28 43
REMARK SMILES IDX 29 44 64 45 30 46 69 47 63 48 65 49 31 50 68 51 62 52 61 53
REMARK SMILES IDX 32 55 54 56 39 57 53 58 40 59 43 60 52 61 66 62 41 63 42 64
REMARK SMILES IDX 51 66 67 67 44 68 33 69 34 70 38 71 35 72 37 73 36 74 55 75
REMARK SMILES IDX 56 76 60 77 57 78 59 79 58 80 45 81 46 82 50 83 47 84 49 85
REMARK SMILES IDX 48 86
REMARK H PARENT 65 54 43 65
REMARK Flexibility Score: inf
ROOT
ATOM      1  O   UNL A   1      38.242  22.733  25.372  1.00  0.00    -0.376 OA
ENDROOT
BRANCH   1   2
ATOM      2  C   UNL A   1      37.288  23.285  26.259  1.00  0.00     0.202 C 
BRANCH   2   3
ATOM      3  C   UNL A   1      36.028  23.916  25.655  1.00  0.00     0.261 C 
BRANCH   3   4
ATOM      4  O   UNL A   1      36.100  24.208  24.251  1.00  0.00    -0.460 OA
BRANCH   4   5
ATOM      5  C   UNL A   1      35.712  23.196  23.419  1.00  0.00     0.340 C 
ATOM      6  O   UNL A   1      36.333  22.853  22.420  1.00  0.00    -0.246 OA
BRANCH   5   7
ATOM      7  C   UNL A   1      34.505  22.489  23.875  1.00  0.00     0.084 A 
ATOM      8  C   UNL A   1      33.199  22.881  23.545  1.00  0.00     0.042 A 
ATOM      9  N   UNL A   1      32.347  22.196  24.382  1.00  0.00    -0.350 N 
ATOM     10  C   UNL A   1      34.373  21.271  24.624  1.00  0.00    -0.019 A 
ATOM     11  C   UNL A   1      33.030  21.136  24.921  1.00  0.00     0.090 A 
ATOM     12  C   UNL A   1      35.445  20.326  25.040  1.00  0.00     0.047 C 
BRANCH   8  13
ATOM     13  C   UNL A   1      32.770  23.867  22.487  1.00  0.00     0.155 C 
BRANCH  13  14
ATOM     14  C   UNL A   1      33.116  25.333  22.766  1.00  0.00     0.232 C 
ATOM     15  O   UNL A   1      33.957  25.872  22.034  1.00  0.00    -0.274 OA
BRANCH  14  16
ATOM     16  N   UNL A   1      32.479  26.035  23.804  1.00  0.00    -0.312 N 
BRANCH  16  17
ATOM     17  C   UNL A   1      32.869  25.971  25.229  1.00  0.00     0.125 C 
BRANCH  17  18
ATOM     18  C   UNL A   1      33.619  27.179  25.806  1.00  0.00     0.019 C 
ATOM     19  C   UNL A   1      32.685  28.309  26.228  1.00  0.00     0.006 C 
ENDBRANCH  17  18
ENDBRANCH  16  17
BRANCH  16  20
ATOM     20  C   UNL A   1      31.199  26.629  23.536  1.00  0.00     0.045 A 
ATOM     21  C   UNL A   1      30.039  26.073  24.094  1.00  0.00     0.026 A 
ATOM     22  C   UNL A   1      31.083  27.794  22.774  1.00  0.00     0.046 A 
ATOM     23  C   UNL A   1      28.803  26.710  23.949  1.00  0.00     0.004 A 
ATOM     24  C   UNL A   1      29.850  28.430  22.636  1.00  0.00     0.043 A 
ATOM     25  C   UNL A   1      28.710  27.901  23.231  1.00  0.00     0.020 A 
ATOM     26  Cl  UNL A   1      29.747  29.896  21.739  1.00  0.00    -0.084 Cl
ENDBRANCH  16  20
ENDBRANCH  14  16
ENDBRANCH  13  14
ENDBRANCH   8  13
BRANCH   9  27
ATOM     27  C   UNL A   1      30.951  22.488  24.674  1.00  0.00     0.118 C 
ATOM     28  C   UNL A   1      30.735  23.042  26.075  1.00  0.00     0.027 C 
ENDBRANCH   9  27
ENDBRANCH   5   7
ENDBRANCH   4   5
ENDBRANCH   3   4
ENDBRANCH   2   3
ENDBRANCH   1   2
BRANCH   1  29
ATOM     29  C   UNL A   1      38.934  21.546  25.731  1.00  0.00     0.188 C 
BRANCH  29  30
ATOM     30  C   UNL A   1      40.303  21.578  26.442  1.00  0.00     0.188 C 
BRANCH  30  31
ATOM     31  O   UNL A   1      40.436  20.633  27.493  1.00  0.00    -0.376 OA
BRANCH  31  32
ATOM     32  C   UNL A   1      41.469  19.675  27.322  1.00  0.00     0.202 C 
BRANCH  32  33
ATOM     33  C   UNL A   1      42.274  19.929  26.053  1.00  0.00     0.261 C 
BRANCH  33  34
ATOM     34  O   UNL A   1      43.426  20.751  26.239  1.00  0.00    -0.460 OA
BRANCH  34  35
ATOM     35  C   UNL A   1      44.138  21.015  25.128  1.00  0.00     0.338 C 
ATOM     36  O   UNL A   1      44.393  20.243  24.220  1.00  0.00    -0.246 OA
BRANCH  35  37
ATOM     37  C   UNL A   1      44.655  22.390  25.199  1.00  0.00     0.060 A 
ATOM     38  C   UNL A   1      45.672  22.643  26.123  1.00  0.00     0.016 A 
ATOM     39  C   UNL A   1      43.965  23.431  24.564  1.00  0.00     0.016 A 
ATOM     40  C   UNL A   1      45.853  23.930  26.579  1.00  0.00     0.010 A 
ATOM     41  C   UNL A   1      44.130  24.717  25.034  1.00  0.00     0.010 A 
ATOM     42  C   UNL A   1      44.988  24.923  26.119  1.00  0.00    -0.014 A 
BRANCH  42  43
ATOM     43  C   UNL A   1      44.838  26.097  26.963  1.00  0.00     0.031 A 
ATOM     44  C   UNL A   1      45.835  27.178  26.817  1.00  0.00     0.074 A 
ATOM     45  C   UNL A   1      43.774  26.193  27.787  1.00  0.00     0.049 A 
ATOM     46  N   UNL A   1      46.489  27.793  27.747  1.00  0.00    -0.248 NA
ATOM     47  C   UNL A   1      46.159  27.612  25.450  1.00  0.00     0.031 C 
ATOM     48  C   UNL A   1      42.600  25.309  27.821  1.00  0.00     0.029 A 
ATOM     49  N   UNL A   1      43.447  27.181  28.668  1.00  0.00    -0.354 N 
ATOM     50  C   UNL A   1      47.190  28.805  27.103  1.00  0.00     0.074 A 
ATOM     51  C   UNL A   1      47.024  28.596  25.686  1.00  0.00     0.031 C 
ATOM     52  C   UNL A   1      41.598  25.934  28.472  1.00  0.00     0.029 A 
ATOM     53  C   UNL A   1      42.099  27.194  28.993  1.00  0.00     0.049 A 
ATOM     54  H   UNL A   1      44.100  27.821  29.034  1.00  0.00     0.167 HD
ATOM     55  C   UNL A   1      47.695  29.881  27.760  1.00  0.00     0.031 A 
ATOM     56  C   UNL A   1      41.405  28.211  29.551  1.00  0.00     0.031 A 
ATOM     57  C   UNL A   1      47.886  29.655  29.162  1.00  0.00     0.049 A 
ATOM     58  C   UNL A   1      42.364  29.147  30.174  1.00  0.00     0.074 A 
ATOM     59  C   UNL A   1      48.654  28.789  29.914  1.00  0.00     0.029 A 
ATOM     60  N   UNL A   1      46.993  30.223  30.034  1.00  0.00    -0.354 N 
ATOM     61  N   UNL A   1      43.060  28.882  31.240  1.00  0.00    -0.248 NA
ATOM     62  C   UNL A   1      42.822  30.293  29.401  1.00  0.00     0.031 C 
ATOM     63  C   UNL A   1      47.913  28.564  31.109  1.00  0.00     0.029 A 
ATOM     64  C   UNL A   1      46.730  29.298  31.011  1.00  0.00     0.049 A 
ATOM     65  H   UNL A   1      46.611  31.128  29.970  1.00  0.00     0.167 HD
ATOM     66  C   UNL A   1      44.259  29.554  31.060  1.00  0.00     0.074 A 
ATOM     67  C   UNL A   1      43.999  30.512  29.993  1.00  0.00     0.031 C 
ATOM     68  C   UNL A   1      45.423  29.076  31.592  1.00  0.00     0.031 A 
BRANCH  55  69
ATOM     69  C   UNL A   1      47.696  31.253  27.148  1.00  0.00    -0.014 A 
ATOM     70  C   UNL A   1      48.912  31.888  26.857  1.00  0.00     0.009 A 
ATOM     71  C   UNL A   1      46.528  32.041  27.084  1.00  0.00     0.009 A 
ATOM     72  C   UNL A   1      48.955  33.250  26.530  1.00  0.00     0.001 A 
ATOM     73  C   UNL A   1      46.562  33.387  26.717  1.00  0.00     0.001 A 
ATOM     74  C   UNL A   1      47.781  33.996  26.457  1.00  0.00     0.000 A 
ENDBRANCH  55  69
BRANCH  56  75
ATOM     75  C   UNL A   1      39.984  28.548  29.323  1.00  0.00    -0.014 A 
ATOM     76  C   UNL A   1      38.986  28.109  30.201  1.00  0.00     0.009 A 
ATOM     77  C   UNL A   1      39.626  29.498  28.344  1.00  0.00     0.009 A 
ATOM     78  C   UNL A   1      37.680  28.611  30.108  1.00  0.00     0.001 A 
ATOM     79  C   UNL A   1      38.323  29.988  28.244  1.00  0.00     0.001 A 
ATOM     80  C   UNL A   1      37.351  29.552  29.135  1.00  0.00     0.000 A 
ENDBRANCH  56  75
BRANCH  68  81
ATOM     81  C   UNL A   1      45.324  27.978  32.621  1.00  0.00    -0.014 A 
ATOM     82  C   UNL A   1      45.273  28.248  34.000  1.00  0.00     0.009 A 
ATOM     83  C   UNL A   1      45.119  26.658  32.192  1.00  0.00     0.009 A 
ATOM     84  C   UNL A   1      45.058  27.221  34.924  1.00  0.00     0.001 A 
ATOM     85  C   UNL A   1      44.884  25.636  33.115  1.00  0.00     0.001 A 
ATOM     86  C   UNL A   1      44.859  25.917  34.480  1.00  0.00     0.000 A 
ENDBRANCH  68  81
ENDBRANCH  42  43
ENDBRANCH  35  37
ENDBRANCH  34  35
ENDBRANCH  33  34
ENDBRANCH  32  33
ENDBRANCH  31  32
ENDBRANCH  30  31
ENDBRANCH  29  30
ENDBRANCH   1  29
TORSDOF 24
ENDMDL
MODEL 3
REMARK VINA RESULT:      -9.4      3.301      5.192
REMARK SMILES CCCN(C(=O)Cc1c(C(=O)OCCOCCOCCOC(=O)c2ccc(-c3c4nc(c(-c5ccccc5)c5ccc([nH]5)c(-c5ccccc5)c5nc(c(-c6ccccc6)c6ccc3[nH]6)C=C5)C=C4)cc2)c(C)cn1CC)c1cccc(Cl)c1
REMARK SMILES IDX 15 1 14 2 13 3 12 4 10 5 11 6 9 7 8 8 75 9 72 10 74 11 73 12
REMARK SMILES IDX 7 13 5 14 6 15 4 16 3 17 2 18 1 19 78 20 79 21 84 22 80 23
REMARK SMILES IDX 82 24 81 25 83 26 76 27 77 28 16 29 17 30 18 31 19 32 20 33
REMARK SMILES IDX 21 34 22 35 23 36 24 37 25 38 71 39 26 40 70 41 27 42 28 43
REMARK SMILES IDX 29 44 64 45 30 46 69 47 63 48 65 49 31 50 68 51 62 52 61 53
REMARK SMILES IDX 32 55 54 56 39 57 53 58 40 59 43 60 52 61 66 62 41 63 42 64
REMARK SMILES IDX 51 66 67 67 44 68 33 69 34 70 38 71 35 72 37 73 36 74 55 75
REMARK SMILES IDX 56 76 60 77 57 78 59 79 58 80 45 81 46 82 50 83 47 84 49 85
REMARK SMILES IDX 48 86
REMARK H PARENT 65 54 43 65
REMARK Flexibility Score: inf
ROOT
ATOM      1  O   UNL A   1      37.935  22.713  26.420  1.00  0.00    -0.376 OA
ENDROOT
BRANCH   1   2
ATOM      2  C   UNL A   1      37.402  23.682  25.537  1.00  0.00     0.202 C 
BRANCH   2   3
ATOM      3  C   UNL A   1      36.006  23.429  24.954  1.00  0.00     0.261 C 
BRANCH   3   4
ATOM      4  O   UNL A   1      35.244  24.608  24.650  1.00  0.00    -0.460 OA
BRANCH   4   5
ATOM      5  C   UNL A   1      34.236  24.439  23.744  1.00  0.00     0.340 C 
ATOM      6  O   UNL A   1      34.314  24.755  22.564  1.00  0.00    -0.246 OA
BRANCH   5   7
ATOM      7  C   UNL A   1      33.054  23.760  24.298  1.00  0.00     0.084 A 
ATOM      8  C   UNL A   1      32.491  24.066  25.547  1.00  0.00     0.042 A 
ATOM      9  N   UNL A   1      31.621  23.046  25.859  1.00  0.00    -0.350 N 
ATOM     10  C   UNL A   1      32.194  22.770  23.712  1.00  0.00    -0.019 A 
ATOM     11  C   UNL A   1      31.335  22.354  24.711  1.00  0.00     0.090 A 
ATOM     12  C   UNL A   1      32.207  22.251  22.317  1.00  0.00     0.047 C 
BRANCH   8  13
ATOM     13  C   UNL A   1      32.768  25.269  26.414  1.00  0.00     0.155 C 
BRANCH  13  14
ATOM     14  C   UNL A   1      31.729  26.393  26.344  1.00  0.00     0.232 C 
ATOM     15  O   UNL A   1      30.553  26.101  26.598  1.00  0.00    -0.274 OA
BRANCH  14  16
ATOM     16  N   UNL A   1      32.114  27.706  26.023  1.00  0.00    -0.312 N 
BRANCH  16  17
ATOM     17  C   UNL A   1      32.670  28.682  26.984  1.00  0.00     0.125 C 
BRANCH  17  18
ATOM     18  C   UNL A   1      33.902  29.481  26.541  1.00  0.00     0.019 C 
ATOM     19  C   UNL A   1      34.948  29.618  27.643  1.00  0.00     0.006 C 
ENDBRANCH  17  18
ENDBRANCH  16  17
BRANCH  16  20
ATOM     20  C   UNL A   1      31.688  28.248  24.763  1.00  0.00     0.045 A 
ATOM     21  C   UNL A   1      32.170  27.698  23.566  1.00  0.00     0.026 A 
ATOM     22  C   UNL A   1      30.748  29.279  24.695  1.00  0.00     0.046 A 
ATOM     23  C   UNL A   1      31.669  28.126  22.332  1.00  0.00     0.004 A 
ATOM     24  C   UNL A   1      30.246  29.699  23.463  1.00  0.00     0.043 A 
ATOM     25  C   UNL A   1      30.693  29.119  22.281  1.00  0.00     0.020 A 
ATOM     26  Cl  UNL A   1      29.046  30.933  23.413  1.00  0.00    -0.084 Cl
ENDBRANCH  16  20
ENDBRANCH  14  16
ENDBRANCH  13  14
ENDBRANCH   8  13
BRANCH   9  27
ATOM     27  C   UNL A   1      31.056  22.718  27.161  1.00  0.00     0.118 C 
ATOM     28  C   UNL A   1      29.536  22.768  27.184  1.00  0.00     0.027 C 
ENDBRANCH   9  27
ENDBRANCH   5   7
ENDBRANCH   4   5
ENDBRANCH   3   4
ENDBRANCH   2   3
ENDBRANCH   1   2
BRANCH   1  29
ATOM     29  C   UNL A   1      38.983  21.861  25.980  1.00  0.00     0.188 C 
BRANCH  29  30
ATOM     30  C   UNL A   1      40.254  21.622  26.820  1.00  0.00     0.188 C 
BRANCH  30  31
ATOM     31  O   UNL A   1      41.142  20.657  26.274  1.00  0.00    -0.376 OA
BRANCH  31  32
ATOM     32  C   UNL A   1      42.514  20.854  26.576  1.00  0.00     0.202 C 
BRANCH  32  33
ATOM     33  C   UNL A   1      43.108  22.013  25.783  1.00  0.00     0.261 C 
BRANCH  33  34
ATOM     34  O   UNL A   1      43.149  23.252  26.490  1.00  0.00    -0.460 OA
BRANCH  34  35
ATOM     35  C   UNL A   1      42.783  24.337  25.782  1.00  0.00     0.338 C 
ATOM     36  O   UNL A   1      43.121  24.620  24.647  1.00  0.00    -0.246 OA
BRANCH  35  37
ATOM     37  C   UNL A   1      41.955  25.211  26.628  1.00  0.00     0.060 A 
ATOM     38  C   UNL A   1      41.187  26.185  25.983  1.00  0.00     0.016 A 
ATOM     39  C   UNL A   1      42.149  25.230  28.015  1.00  0.00     0.016 A 
ATOM     40  C   UNL A   1      40.796  27.301  26.688  1.00  0.00     0.010 A 
ATOM     41  C   UNL A   1      41.777  26.357  28.719  1.00  0.00     0.010 A 
ATOM     42  C   UNL A   1      41.212  27.424  28.014  1.00  0.00    -0.014 A 
BRANCH  42  43
ATOM     43  C   UNL A   1      41.260  28.772  28.557  1.00  0.00     0.031 A 
ATOM     44  C   UNL A   1      42.470  29.577  28.288  1.00  0.00     0.074 A 
ATOM     45  C   UNL A   1      40.190  29.263  29.217  1.00  0.00     0.049 A 
ATOM     46  N   UNL A   1      43.179  30.259  29.127  1.00  0.00    -0.248 NA
ATOM     47  C   UNL A   1      42.964  29.602  26.903  1.00  0.00     0.031 C 
ATOM     48  C   UNL A   1      38.856  28.653  29.315  1.00  0.00     0.029 A 
ATOM     49  N   UNL A   1      40.023  30.476  29.816  1.00  0.00    -0.354 N 
ATOM     50  C   UNL A   1      44.117  30.936  28.357  1.00  0.00     0.074 A 
ATOM     51  C   UNL A   1      44.001  30.431  27.012  1.00  0.00     0.031 C 
ATOM     52  C   UNL A   1      37.970  29.594  29.696  1.00  0.00     0.029 A 
ATOM     53  C   UNL A   1      38.691  30.823  29.979  1.00  0.00     0.049 A 
ATOM     54  H   UNL A   1      40.772  31.048  30.102  1.00  0.00     0.167 HD
ATOM     55  C   UNL A   1      44.795  32.021  28.812  1.00  0.00     0.031 A 
ATOM     56  C   UNL A   1      38.193  32.057  30.218  1.00  0.00     0.031 A 
ATOM     57  C   UNL A   1      44.844  32.104  30.242  1.00  0.00     0.049 A 
ATOM     58  C   UNL A   1      39.287  32.914  30.722  1.00  0.00     0.074 A 
ATOM     59  C   UNL A   1      45.363  31.312  31.247  1.00  0.00     0.029 A 
ATOM     60  N   UNL A   1      44.038  33.023  30.863  1.00  0.00    -0.354 N 
ATOM     61  N   UNL A   1      39.842  32.783  31.891  1.00  0.00    -0.248 NA
ATOM     62  C   UNL A   1      40.025  33.733  29.772  1.00  0.00     0.031 C 
ATOM     63  C   UNL A   1      44.516  31.524  32.372  1.00  0.00     0.029 A 
ATOM     64  C   UNL A   1      43.524  32.425  31.984  1.00  0.00     0.049 A 
ATOM     65  H   UNL A   1      43.861  33.942  30.559  1.00  0.00     0.167 HD
ATOM     66  C   UNL A   1      41.165  33.152  31.701  1.00  0.00     0.074 A 
ATOM     67  C   UNL A   1      41.181  33.859  30.427  1.00  0.00     0.031 C 
ATOM     68  C   UNL A   1      42.165  32.601  32.451  1.00  0.00     0.031 A 
BRANCH  55  69
ATOM     69  C   UNL A   1      45.124  33.182  27.917  1.00  0.00    -0.014 A 
ATOM     70  C   UNL A   1      44.092  33.959  27.373  1.00  0.00     0.009 A 
ATOM     71  C   UNL A   1      46.420  33.376  27.393  1.00  0.00     0.009 A 
ATOM     72  C   UNL A   1      44.344  34.877  26.346  1.00  0.00     0.001 A 
ATOM     73  C   UNL A   1      46.682  34.319  26.399  1.00  0.00     0.001 A 
ATOM     74  C   UNL A   1      45.638  35.059  25.863  1.00  0.00     0.000 A 
ENDBRANCH  55  69
BRANCH  56  75
ATOM     75  C   UNL A   1      36.893  32.594  29.765  1.00  0.00    -0.014 A 
ATOM     76  C   UNL A   1      36.716  33.051  28.454  1.00  0.00     0.009 A 
ATOM     77  C   UNL A   1      35.746  32.457  30.573  1.00  0.00     0.009 A 
ATOM     78  C   UNL A   1      35.436  33.349  27.966  1.00  0.00     0.001 A 
ATOM     79  C   UNL A   1      34.472  32.766  30.091  1.00  0.00     0.001 A 
ATOM     80  C   UNL A   1      34.316  33.202  28.782  1.00  0.00     0.000 A 
ENDBRANCH  56  75
BRANCH  68  81
ATOM     81  C   UNL A   1      41.771  31.820  33.680  1.00  0.00    -0.014 A 
ATOM     82  C   UNL A   1      41.516  32.444  34.914  1.00  0.00     0.009 A 
ATOM     83  C   UNL A   1      41.497  30.449  33.557  1.00  0.00     0.009 A 
ATOM     84  C   UNL A   1      41.035  31.711  36.002  1.00  0.00     0.001 A 
ATOM     85  C   UNL A   1      40.997  29.722  34.640  1.00  0.00     0.001 A 
ATOM     86  C   UNL A   1      40.771  30.351  35.863  1.00  0.00     0.000 A 
ENDBRANCH  68  81
ENDBRANCH  42  43
ENDBRANCH  35  37
ENDBRANCH  34  35
ENDBRANCH  33  34
ENDBRANCH  32  33
ENDBRANCH  31  32
ENDBRANCH  30  31
ENDBRANCH  29  30
ENDBRANCH   1  29
TORSDOF 24
ENDMDL
