MODEL 1
REMARK VINA RESULT:      -9.6      0.000      0.000
REMARK SMILES O=C(C[NH2+][C@H]1CC[C@@H]([N@@H+](Cc2ccccc2)C2CC2)CC1)OCCOCCOCCOC(=O)c1ccc(-c2c3nc(c(-c4ccccc4)c4ccc([nH]4)c(-c4ccccc4)c4nc(c(-c5ccccc5)c5ccc2[nH]5)C=C4)C=C3)cc1
REMARK SMILES IDX 25 1 24 2 23 3 22 4 2 5 1 6 3 7 4 8 5 11 6 12 21 13 7 14
REMARK SMILES IDX 20 15 8 16 9 17 10 19 11 20 12 21 16 22 13 23 15 24 14 25
REMARK SMILES IDX 17 26 18 27 19 28 26 29 27 30 28 31 29 32 30 33 31 34 32 35
REMARK SMILES IDX 33 36 34 37 35 38 81 39 36 40 80 41 37 42 38 43 39 44 74 45
REMARK SMILES IDX 40 46 79 47 73 48 75 49 41 50 78 51 72 52 71 53 42 55 64 56
REMARK SMILES IDX 49 57 63 58 50 59 53 60 62 61 76 62 51 63 52 64 61 66 77 67
REMARK SMILES IDX 54 68 43 69 44 70 48 71 45 72 47 73 46 74 65 75 66 76 70 77
REMARK SMILES IDX 67 78 69 79 68 80 55 81 56 82 60 83 57 84 59 85 58 86
REMARK H PARENT 4 9 4 10 9 18 75 54 53 65
REMARK Flexibility Score: inf
ROOT
ATOM      1  O   UNL A   1      34.877  22.181  24.406  1.00  0.00    -0.376 OA
ENDROOT
BRANCH   1   2
ATOM      2  C   UNL A   1      34.566  20.828  24.679  1.00  0.00     0.202 C 
BRANCH   2   3
ATOM      3  C   UNL A   1      33.969  20.486  26.043  1.00  0.00     0.261 C 
BRANCH   3   4
ATOM      4  O   UNL A   1      34.357  21.302  27.163  1.00  0.00    -0.459 OA
BRANCH   4   5
ATOM      5  C   UNL A   1      33.749  22.439  27.568  1.00  0.00     0.361 C 
ATOM      6  O   UNL A   1      32.798  22.372  28.349  1.00  0.00    -0.245 OA
BRANCH   5   7
ATOM      7  C   UNL A   1      34.075  23.752  26.873  1.00  0.00     0.385 C 
BRANCH   7   8
ATOM      8  N   UNL A   1      33.251  24.083  25.695  1.00  0.00    -0.335 N 
ATOM      9  H   UNL A   1      32.269  23.955  25.942  1.00  0.00     0.347 HD
ATOM     10  H   UNL A   1      33.549  23.464  24.941  1.00  0.00     0.347 HD
BRANCH   8  11
ATOM     11  C   UNL A   1      33.433  25.480  25.206  1.00  0.00     0.183 C 
ATOM     12  C   UNL A   1      33.106  25.702  23.717  1.00  0.00     0.071 C 
ATOM     13  C   UNL A   1      32.791  26.509  26.152  1.00  0.00     0.071 C 
ATOM     14  C   UNL A   1      33.169  27.170  23.331  1.00  0.00     0.071 C 
ATOM     15  C   UNL A   1      32.649  27.940  25.616  1.00  0.00     0.071 C 
ATOM     16  C   UNL A   1      32.232  28.094  24.142  1.00  0.00     0.184 C 
BRANCH  16  17
ATOM     17  N   UNL A   1      30.794  28.213  23.799  1.00  0.00    -0.326 N 
ATOM     18  H   UNL A   1      30.864  28.637  24.724  1.00  0.00     0.348 HD
BRANCH  17  19
ATOM     19  C   UNL A   1      30.518  28.808  22.465  1.00  0.00     0.299 C 
BRANCH  19  20
ATOM     20  C   UNL A   1      29.582  29.995  22.484  1.00  0.00     0.006 A 
ATOM     21  C   UNL A   1      29.463  30.772  23.645  1.00  0.00     0.009 A 
ATOM     22  C   UNL A   1      28.935  30.424  21.319  1.00  0.00     0.009 A 
ATOM     23  C   UNL A   1      28.823  32.012  23.601  1.00  0.00     0.001 A 
ATOM     24  C   UNL A   1      28.367  31.690  21.259  1.00  0.00     0.001 A 
ATOM     25  C   UNL A   1      28.309  32.486  22.398  1.00  0.00     0.000 A 
ENDBRANCH  19  20
ENDBRANCH  17  19
BRANCH  17  26
ATOM     26  C   UNL A   1      29.613  27.563  24.384  1.00  0.00     0.184 C 
ATOM     27  C   UNL A   1      28.606  26.835  23.562  1.00  0.00     0.071 C 
ATOM     28  C   UNL A   1      29.385  26.105  24.615  1.00  0.00     0.071 C 
ENDBRANCH  17  26
ENDBRANCH  16  17
ENDBRANCH   8  11
ENDBRANCH   7   8
ENDBRANCH   5   7
ENDBRANCH   4   5
ENDBRANCH   3   4
ENDBRANCH   2   3
ENDBRANCH   1   2
BRANCH   1  29
ATOM     29  C   UNL A   1      36.075  22.487  23.727  1.00  0.00     0.188 C 
BRANCH  29  30
ATOM     30  C   UNL A   1      37.240  21.560  24.112  1.00  0.00     0.188 C 
BRANCH  30  31
ATOM     31  O   UNL A   1      37.706  21.508  25.453  1.00  0.00    -0.376 OA
BRANCH  31  32
ATOM     32  C   UNL A   1      39.101  21.458  25.713  1.00  0.00     0.202 C 
BRANCH  32  33
ATOM     33  C   UNL A   1      39.710  20.238  26.430  1.00  0.00     0.261 C 
BRANCH  33  34
ATOM     34  O   UNL A   1      40.464  19.308  25.629  1.00  0.00    -0.460 OA
BRANCH  34  35
ATOM     35  C   UNL A   1      41.762  19.148  25.980  1.00  0.00     0.338 C 
ATOM     36  O   UNL A   1      42.414  18.113  25.965  1.00  0.00    -0.246 OA
BRANCH  35  37
ATOM     37  C   UNL A   1      42.344  20.446  26.369  1.00  0.00     0.060 A 
ATOM     38  C   UNL A   1      42.329  20.857  27.708  1.00  0.00     0.016 A 
ATOM     39  C   UNL A   1      42.831  21.302  25.384  1.00  0.00     0.016 A 
ATOM     40  C   UNL A   1      42.780  22.139  28.063  1.00  0.00     0.010 A 
ATOM     41  C   UNL A   1      43.314  22.567  25.749  1.00  0.00     0.010 A 
ATOM     42  C   UNL A   1      43.256  23.022  27.085  1.00  0.00    -0.014 A 
BRANCH  42  43
ATOM     43  C   UNL A   1      43.523  24.467  27.371  1.00  0.00     0.031 A 
ATOM     44  C   UNL A   1      44.961  24.936  27.401  1.00  0.00     0.074 A 
ATOM     45  C   UNL A   1      42.559  25.377  27.622  1.00  0.00     0.049 A 
ATOM     46  N   UNL A   1      45.447  26.116  27.698  1.00  0.00    -0.248 NA
ATOM     47  C   UNL A   1      45.984  23.939  27.047  1.00  0.00     0.031 C 
ATOM     48  C   UNL A   1      41.119  25.152  27.555  1.00  0.00     0.029 A 
ATOM     49  N   UNL A   1      42.665  26.695  28.021  1.00  0.00    -0.354 N 
ATOM     50  C   UNL A   1      46.823  25.999  27.551  1.00  0.00     0.074 A 
ATOM     51  C   UNL A   1      47.102  24.611  27.260  1.00  0.00     0.031 C 
ATOM     52  C   UNL A   1      40.481  26.264  27.964  1.00  0.00     0.029 A 
ATOM     53  C   UNL A   1      41.460  27.274  28.340  1.00  0.00     0.049 A 
ATOM     54  H   UNL A   1      43.523  27.174  28.074  1.00  0.00     0.167 HD
ATOM     55  C   UNL A   1      47.776  26.961  27.581  1.00  0.00     0.031 A 
ATOM     56  C   UNL A   1      41.162  28.474  28.881  1.00  0.00     0.031 A 
ATOM     57  C   UNL A   1      47.527  28.348  27.849  1.00  0.00     0.049 A 
ATOM     58  C   UNL A   1      42.248  29.492  29.082  1.00  0.00     0.074 A 
ATOM     59  C   UNL A   1      48.420  29.405  27.819  1.00  0.00     0.029 A 
ATOM     60  N   UNL A   1      46.298  28.871  28.210  1.00  0.00    -0.354 N 
ATOM     61  N   UNL A   1      43.530  29.390  28.837  1.00  0.00    -0.248 NA
ATOM     62  C   UNL A   1      41.833  30.819  29.563  1.00  0.00     0.031 C 
ATOM     63  C   UNL A   1      47.741  30.561  28.222  1.00  0.00     0.029 A 
ATOM     64  C   UNL A   1      46.414  30.232  28.442  1.00  0.00     0.049 A 
ATOM     65  H   UNL A   1      45.464  28.353  28.290  1.00  0.00     0.167 HD
ATOM     66  C   UNL A   1      44.056  30.661  29.037  1.00  0.00     0.074 A 
ATOM     67  C   UNL A   1      42.961  31.508  29.459  1.00  0.00     0.031 C 
ATOM     68  C   UNL A   1      45.328  31.087  28.844  1.00  0.00     0.031 A 
BRANCH  55  69
ATOM     69  C   UNL A   1      49.181  26.517  27.287  1.00  0.00    -0.014 A 
ATOM     70  C   UNL A   1      49.662  26.465  25.967  1.00  0.00     0.009 A 
ATOM     71  C   UNL A   1      50.024  26.119  28.335  1.00  0.00     0.009 A 
ATOM     72  C   UNL A   1      50.935  25.961  25.697  1.00  0.00     0.001 A 
ATOM     73  C   UNL A   1      51.310  25.651  28.064  1.00  0.00     0.001 A 
ATOM     74  C   UNL A   1      51.757  25.556  26.746  1.00  0.00     0.000 A 
ENDBRANCH  55  69
BRANCH  56  75
ATOM     75  C   UNL A   1      39.757  28.815  29.236  1.00  0.00    -0.014 A 
ATOM     76  C   UNL A   1      39.238  28.489  30.498  1.00  0.00     0.009 A 
ATOM     77  C   UNL A   1      38.909  29.413  28.289  1.00  0.00     0.009 A 
ATOM     78  C   UNL A   1      37.892  28.723  30.795  1.00  0.00     0.001 A 
ATOM     79  C   UNL A   1      37.569  29.666  28.596  1.00  0.00     0.001 A 
ATOM     80  C   UNL A   1      37.060  29.311  29.844  1.00  0.00     0.000 A 
ENDBRANCH  56  75
BRANCH  68  81
ATOM     81  C   UNL A   1      45.599  32.559  28.991  1.00  0.00    -0.014 A 
ATOM     82  C   UNL A   1      45.601  33.430  27.893  1.00  0.00     0.009 A 
ATOM     83  C   UNL A   1      45.827  33.085  30.274  1.00  0.00     0.009 A 
ATOM     84  C   UNL A   1      45.864  34.791  28.071  1.00  0.00     0.001 A 
ATOM     85  C   UNL A   1      46.055  34.449  30.454  1.00  0.00     0.001 A 
ATOM     86  C   UNL A   1      46.085  35.299  29.351  1.00  0.00     0.000 A 
ENDBRANCH  68  81
ENDBRANCH  42  43
ENDBRANCH  35  37
ENDBRANCH  34  35
ENDBRANCH  33  34
ENDBRANCH  32  33
ENDBRANCH  31  32
ENDBRANCH  30  31
ENDBRANCH  29  30
ENDBRANCH   1  29
TORSDOF 23
ENDMDL
MODEL 2
REMARK VINA RESULT:      -9.5      5.391      8.981
REMARK SMILES O=C(C[NH2+][C@H]1CC[C@@H]([N@@H+](Cc2ccccc2)C2CC2)CC1)OCCOCCOCCOC(=O)c1ccc(-c2c3nc(c(-c4ccccc4)c4ccc([nH]4)c(-c4ccccc4)c4nc(c(-c5ccccc5)c5ccc2[nH]5)C=C4)C=C3)cc1
REMARK SMILES IDX 25 1 24 2 23 3 22 4 2 5 1 6 3 7 4 8 5 11 6 12 21 13 7 14
REMARK SMILES IDX 20 15 8 16 9 17 10 19 11 20 12 21 16 22 13 23 15 24 14 25
REMARK SMILES IDX 17 26 18 27 19 28 26 29 27 30 28 31 29 32 30 33 31 34 32 35
REMARK SMILES IDX 33 36 34 37 35 38 81 39 36 40 80 41 37 42 38 43 39 44 74 45
REMARK SMILES IDX 40 46 79 47 73 48 75 49 41 50 78 51 72 52 71 53 42 55 64 56
REMARK SMILES IDX 49 57 63 58 50 59 53 60 62 61 76 62 51 63 52 64 61 66 77 67
REMARK SMILES IDX 54 68 43 69 44 70 48 71 45 72 47 73 46 74 65 75 66 76 70 77
REMARK SMILES IDX 67 78 69 79 68 80 55 81 56 82 60 83 57 84 59 85 58 86
REMARK H PARENT 4 9 4 10 9 18 75 54 53 65
REMARK Flexibility Score: inf
ROOT
ATOM      1  O   UNL A   1      33.276  36.555  30.323  1.00  0.00    -0.376 OA
ENDROOT
BRANCH   1   2
ATOM      2  C   UNL A   1      33.188  35.910  29.068  1.00  0.00     0.202 C 
BRANCH   2   3
ATOM      3  C   UNL A   1      34.392  35.101  28.586  1.00  0.00     0.261 C 
BRANCH   3   4
ATOM      4  O   UNL A   1      34.682  33.868  29.270  1.00  0.00    -0.459 OA
BRANCH   4   5
ATOM      5  C   UNL A   1      35.817  33.143  29.159  1.00  0.00     0.361 C 
ATOM      6  O   UNL A   1      36.904  33.687  29.360  1.00  0.00    -0.245 OA
BRANCH   5   7
ATOM      7  C   UNL A   1      35.761  31.751  28.549  1.00  0.00     0.385 C 
BRANCH   7   8
ATOM      8  N   UNL A   1      34.856  31.585  27.396  1.00  0.00    -0.335 N 
ATOM      9  H   UNL A   1      35.422  31.514  26.550  1.00  0.00     0.347 HD
ATOM     10  H   UNL A   1      34.236  32.395  27.384  1.00  0.00     0.347 HD
BRANCH   8  11
ATOM     11  C   UNL A   1      33.987  30.376  27.482  1.00  0.00     0.183 C 
ATOM     12  C   UNL A   1      32.526  30.585  27.040  1.00  0.00     0.071 C 
ATOM     13  C   UNL A   1      34.660  29.138  26.866  1.00  0.00     0.071 C 
ATOM     14  C   UNL A   1      31.746  29.283  27.011  1.00  0.00     0.071 C 
ATOM     15  C   UNL A   1      33.763  27.917  26.623  1.00  0.00     0.071 C 
ATOM     16  C   UNL A   1      32.343  28.190  26.095  1.00  0.00     0.184 C 
BRANCH  16  17
ATOM     17  N   UNL A   1      32.097  28.202  24.633  1.00  0.00    -0.326 N 
ATOM     18  H   UNL A   1      32.988  27.714  24.730  1.00  0.00     0.348 HD
BRANCH  17  19
ATOM     19  C   UNL A   1      30.753  27.719  24.220  1.00  0.00     0.299 C 
BRANCH  19  20
ATOM     20  C   UNL A   1      29.818  28.799  23.728  1.00  0.00     0.006 A 
ATOM     21  C   UNL A   1      29.979  30.119  24.172  1.00  0.00     0.009 A 
ATOM     22  C   UNL A   1      28.879  28.537  22.723  1.00  0.00     0.009 A 
ATOM     23  C   UNL A   1      29.311  31.164  23.532  1.00  0.00     0.001 A 
ATOM     24  C   UNL A   1      28.274  29.585  22.040  1.00  0.00     0.001 A 
ATOM     25  C   UNL A   1      28.489  30.899  22.441  1.00  0.00     0.000 A 
ENDBRANCH  19  20
ENDBRANCH  17  19
BRANCH  17  26
ATOM     26  C   UNL A   1      32.805  28.900  23.549  1.00  0.00     0.184 C 
ATOM     27  C   UNL A   1      34.159  28.494  23.081  1.00  0.00     0.071 C 
ATOM     28  C   UNL A   1      32.995  28.454  22.137  1.00  0.00     0.071 C 
ENDBRANCH  17  26
ENDBRANCH  16  17
ENDBRANCH   8  11
ENDBRANCH   7   8
ENDBRANCH   5   7
ENDBRANCH   4   5
ENDBRANCH   3   4
ENDBRANCH   2   3
ENDBRANCH   1   2
BRANCH   1  29
ATOM     29  C   UNL A   1      32.591  36.006  31.427  1.00  0.00     0.188 C 
BRANCH  29  30
ATOM     30  C   UNL A   1      33.497  35.163  32.340  1.00  0.00     0.188 C 
BRANCH  30  31
ATOM     31  O   UNL A   1      34.911  35.288  32.266  1.00  0.00    -0.376 OA
BRANCH  31  32
ATOM     32  C   UNL A   1      35.738  34.288  32.841  1.00  0.00     0.202 C 
BRANCH  32  33
ATOM     33  C   UNL A   1      35.383  32.798  32.667  1.00  0.00     0.261 C 
BRANCH  33  34
ATOM     34  O   UNL A   1      36.329  31.832  33.163  1.00  0.00    -0.460 OA
BRANCH  34  35
ATOM     35  C   UNL A   1      36.781  30.933  32.257  1.00  0.00     0.338 C 
ATOM     36  O   UNL A   1      36.187  29.960  31.814  1.00  0.00    -0.246 OA
BRANCH  35  37
ATOM     37  C   UNL A   1      38.137  31.305  31.810  1.00  0.00     0.060 A 
ATOM     38  C   UNL A   1      38.904  32.211  32.553  1.00  0.00     0.016 A 
ATOM     39  C   UNL A   1      38.617  30.819  30.596  1.00  0.00     0.016 A 
ATOM     40  C   UNL A   1      40.147  32.652  32.070  1.00  0.00     0.010 A 
ATOM     41  C   UNL A   1      39.874  31.234  30.138  1.00  0.00     0.010 A 
ATOM     42  C   UNL A   1      40.639  32.189  30.843  1.00  0.00    -0.014 A 
BRANCH  42  43
ATOM     43  C   UNL A   1      41.833  32.799  30.175  1.00  0.00     0.031 A 
ATOM     44  C   UNL A   1      43.145  32.048  30.231  1.00  0.00     0.074 A 
ATOM     45  C   UNL A   1      41.816  33.990  29.541  1.00  0.00     0.049 A 
ATOM     46  N   UNL A   1      44.328  32.404  29.794  1.00  0.00    -0.248 NA
ATOM     47  C   UNL A   1      43.114  30.718  30.861  1.00  0.00     0.031 C 
ATOM     48  C   UNL A   1      40.643  34.825  29.301  1.00  0.00     0.029 A 
ATOM     49  N   UNL A   1      42.854  34.723  29.001  1.00  0.00    -0.354 N 
ATOM     50  C   UNL A   1      45.168  31.338  30.087  1.00  0.00     0.074 A 
ATOM     51  C   UNL A   1      44.391  30.381  30.842  1.00  0.00     0.031 C 
ATOM     52  C   UNL A   1      41.035  35.977  28.726  1.00  0.00     0.029 A 
ATOM     53  C   UNL A   1      42.482  35.975  28.573  1.00  0.00     0.049 A 
ATOM     54  H   UNL A   1      43.774  34.380  28.929  1.00  0.00     0.167 HD
ATOM     55  C   UNL A   1      46.450  31.124  29.708  1.00  0.00     0.031 A 
ATOM     56  C   UNL A   1      43.211  37.015  28.117  1.00  0.00     0.031 A 
ATOM     57  C   UNL A   1      47.241  32.047  28.945  1.00  0.00     0.049 A 
ATOM     58  C   UNL A   1      44.681  36.839  27.857  1.00  0.00     0.074 A 
ATOM     59  C   UNL A   1      48.521  31.879  28.447  1.00  0.00     0.029 A 
ATOM     60  N   UNL A   1      46.831  33.317  28.578  1.00  0.00    -0.354 N 
ATOM     61  N   UNL A   1      45.432  35.783  28.046  1.00  0.00    -0.248 NA
ATOM     62  C   UNL A   1      45.387  37.976  27.247  1.00  0.00     0.031 C 
ATOM     63  C   UNL A   1      48.909  33.074  27.830  1.00  0.00     0.029 A 
ATOM     64  C   UNL A   1      47.847  33.960  27.891  1.00  0.00     0.049 A 
ATOM     65  H   UNL A   1      45.948  33.706  28.777  1.00  0.00     0.167 HD
ATOM     66  C   UNL A   1      46.667  36.093  27.491  1.00  0.00     0.074 A 
ATOM     67  C   UNL A   1      46.576  37.448  26.990  1.00  0.00     0.031 C 
ATOM     68  C   UNL A   1      47.760  35.301  27.373  1.00  0.00     0.031 A 
BRANCH  55  69
ATOM     69  C   UNL A   1      47.056  29.810  30.113  1.00  0.00    -0.014 A 
ATOM     70  C   UNL A   1      47.773  29.684  31.316  1.00  0.00     0.009 A 
ATOM     71  C   UNL A   1      46.937  28.694  29.272  1.00  0.00     0.009 A 
ATOM     72  C   UNL A   1      48.413  28.487  31.636  1.00  0.00     0.001 A 
ATOM     73  C   UNL A   1      47.548  27.487  29.614  1.00  0.00     0.001 A 
ATOM     74  C   UNL A   1      48.299  27.390  30.785  1.00  0.00     0.000 A 
ENDBRANCH  55  69
BRANCH  56  75
ATOM     75  C   UNL A   1      42.562  38.322  27.824  1.00  0.00    -0.014 A 
ATOM     76  C   UNL A   1      42.461  39.310  28.815  1.00  0.00     0.009 A 
ATOM     77  C   UNL A   1      41.986  38.563  26.566  1.00  0.00     0.009 A 
ATOM     78  C   UNL A   1      41.767  40.497  28.566  1.00  0.00     0.001 A 
ATOM     79  C   UNL A   1      41.311  39.760  26.313  1.00  0.00     0.001 A 
ATOM     80  C   UNL A   1      41.192  40.721  27.316  1.00  0.00     0.000 A 
ENDBRANCH  56  75
BRANCH  68  81
ATOM     81  C   UNL A   1      48.926  35.836  26.589  1.00  0.00    -0.014 A 
ATOM     82  C   UNL A   1      49.981  36.528  27.199  1.00  0.00     0.009 A 
ATOM     83  C   UNL A   1      48.977  35.609  25.202  1.00  0.00     0.009 A 
ATOM     84  C   UNL A   1      51.044  37.015  26.434  1.00  0.00     0.001 A 
ATOM     85  C   UNL A   1      50.055  36.066  24.445  1.00  0.00     0.001 A 
ATOM     86  C   UNL A   1      51.083  36.778  25.059  1.00  0.00     0.000 A 
ENDBRANCH  68  81
ENDBRANCH  42  43
ENDBRANCH  35  37
ENDBRANCH  34  35
ENDBRANCH  33  34
ENDBRANCH  32  33
ENDBRANCH  31  32
ENDBRANCH  30  31
ENDBRANCH  29  30
ENDBRANCH   1  29
TORSDOF 23
ENDMDL
MODEL 3
REMARK VINA RESULT:      -9.4      5.153      9.084
REMARK SMILES O=C(C[NH2+][C@H]1CC[C@@H]([N@@H+](Cc2ccccc2)C2CC2)CC1)OCCOCCOCCOC(=O)c1ccc(-c2c3nc(c(-c4ccccc4)c4ccc([nH]4)c(-c4ccccc4)c4nc(c(-c5ccccc5)c5ccc2[nH]5)C=C4)C=C3)cc1
REMARK SMILES IDX 25 1 24 2 23 3 22 4 2 5 1 6 3 7 4 8 5 11 6 12 21 13 7 14
REMARK SMILES IDX 20 15 8 16 9 17 10 19 11 20 12 21 16 22 13 23 15 24 14 25
REMARK SMILES IDX 17 26 18 27 19 28 26 29 27 30 28 31 29 32 30 33 31 34 32 35
REMARK SMILES IDX 33 36 34 37 35 38 81 39 36 40 80 41 37 42 38 43 39 44 74 45
REMARK SMILES IDX 40 46 79 47 73 48 75 49 41 50 78 51 72 52 71 53 42 55 64 56
REMARK SMILES IDX 49 57 63 58 50 59 53 60 62 61 76 62 51 63 52 64 61 66 77 67
REMARK SMILES IDX 54 68 43 69 44 70 48 71 45 72 47 73 46 74 65 75 66 76 70 77
REMARK SMILES IDX 67 78 69 79 68 80 55 81 56 82 60 83 57 84 59 85 58 86
REMARK H PARENT 4 9 4 10 9 18 75 54 53 65
REMARK Flexibility Score: inf
ROOT
ATOM      1  O   UNL A   1      33.159  36.243  30.136  1.00  0.00    -0.376 OA
ENDROOT
BRANCH   1   2
ATOM      2  C   UNL A   1      32.939  35.225  29.180  1.00  0.00     0.202 C 
BRANCH   2   3
ATOM      3  C   UNL A   1      34.155  34.612  28.486  1.00  0.00     0.261 C 
BRANCH   3   4
ATOM      4  O   UNL A   1      34.201  33.178  28.368  1.00  0.00    -0.459 OA
BRANCH   4   5
ATOM      5  C   UNL A   1      35.317  32.423  28.266  1.00  0.00     0.361 C 
ATOM      6  O   UNL A   1      36.420  32.946  28.441  1.00  0.00    -0.245 OA
BRANCH   5   7
ATOM      7  C   UNL A   1      35.221  31.016  27.698  1.00  0.00     0.385 C 
BRANCH   7   8
ATOM      8  N   UNL A   1      34.012  30.718  26.908  1.00  0.00    -0.335 N 
ATOM      9  H   UNL A   1      34.240  30.816  25.919  1.00  0.00     0.347 HD
ATOM     10  H   UNL A   1      33.290  31.373  27.210  1.00  0.00     0.347 HD
BRANCH   8  11
ATOM     11  C   UNL A   1      33.470  29.346  27.131  1.00  0.00     0.183 C 
ATOM     12  C   UNL A   1      31.940  29.260  27.282  1.00  0.00     0.071 C 
ATOM     13  C   UNL A   1      34.063  28.326  26.144  1.00  0.00     0.071 C 
ATOM     14  C   UNL A   1      31.452  27.824  27.353  1.00  0.00     0.071 C 
ATOM     15  C   UNL A   1      33.373  26.958  26.072  1.00  0.00     0.071 C 
ATOM     16  C   UNL A   1      31.835  26.948  26.139  1.00  0.00     0.184 C 
BRANCH  16  17
ATOM     17  N   UNL A   1      31.049  27.001  24.882  1.00  0.00    -0.326 N 
ATOM     18  H   UNL A   1      31.989  27.280  24.598  1.00  0.00     0.348 HD
BRANCH  17  19
ATOM     19  C   UNL A   1      30.257  25.778  24.588  1.00  0.00     0.299 C 
BRANCH  19  20
ATOM     20  C   UNL A   1      31.058  24.496  24.577  1.00  0.00     0.006 A 
ATOM     21  C   UNL A   1      30.916  23.574  25.624  1.00  0.00     0.009 A 
ATOM     22  C   UNL A   1      31.834  24.139  23.467  1.00  0.00     0.009 A 
ATOM     23  C   UNL A   1      31.430  22.282  25.501  1.00  0.00     0.001 A 
ATOM     24  C   UNL A   1      32.278  22.832  23.315  1.00  0.00     0.001 A 
ATOM     25  C   UNL A   1      32.078  21.902  24.329  1.00  0.00     0.000 A 
ENDBRANCH  19  20
ENDBRANCH  17  19
BRANCH  17  26
ATOM     26  C   UNL A   1      30.654  28.145  24.048  1.00  0.00     0.184 C 
ATOM     27  C   UNL A   1      31.372  28.514  22.796  1.00  0.00     0.071 C 
ATOM     28  C   UNL A   1      29.925  28.127  22.744  1.00  0.00     0.071 C 
ENDBRANCH  17  26
ENDBRANCH  16  17
ENDBRANCH   8  11
ENDBRANCH   7   8
ENDBRANCH   5   7
ENDBRANCH   4   5
ENDBRANCH   3   4
ENDBRANCH   2   3
ENDBRANCH   1   2
BRANCH   1  29
ATOM     29  C   UNL A   1      32.712  36.050  31.461  1.00  0.00     0.188 C 
BRANCH  29  30
ATOM     30  C   UNL A   1      33.718  35.276  32.328  1.00  0.00     0.188 C 
BRANCH  30  31
ATOM     31  O   UNL A   1      35.050  35.071  31.879  1.00  0.00    -0.376 OA
BRANCH  31  32
ATOM     32  C   UNL A   1      35.887  34.144  32.554  1.00  0.00     0.202 C 
BRANCH  32  33
ATOM     33  C   UNL A   1      35.533  32.644  32.558  1.00  0.00     0.261 C 
BRANCH  33  34
ATOM     34  O   UNL A   1      36.491  31.741  33.140  1.00  0.00    -0.460 OA
BRANCH  34  35
ATOM     35  C   UNL A   1      36.976  30.784  32.313  1.00  0.00     0.338 C 
ATOM     36  O   UNL A   1      36.413  29.760  31.950  1.00  0.00    -0.246 OA
BRANCH  35  37
ATOM     37  C   UNL A   1      38.322  31.158  31.841  1.00  0.00     0.060 A 
ATOM     38  C   UNL A   1      39.138  31.991  32.618  1.00  0.00     0.016 A 
ATOM     39  C   UNL A   1      38.745  30.752  30.578  1.00  0.00     0.016 A 
ATOM     40  C   UNL A   1      40.373  32.439  32.120  1.00  0.00     0.010 A 
ATOM     41  C   UNL A   1      39.994  31.173  30.102  1.00  0.00     0.010 A 
ATOM     42  C   UNL A   1      40.808  32.057  30.845  1.00  0.00    -0.014 A 
BRANCH  42  43
ATOM     43  C   UNL A   1      41.990  32.689  30.177  1.00  0.00     0.031 A 
ATOM     44  C   UNL A   1      43.314  31.959  30.228  1.00  0.00     0.074 A 
ATOM     45  C   UNL A   1      41.952  33.881  29.546  1.00  0.00     0.049 A 
ATOM     46  N   UNL A   1      44.491  32.335  29.791  1.00  0.00    -0.248 NA
ATOM     47  C   UNL A   1      43.306  30.627  30.854  1.00  0.00     0.031 C 
ATOM     48  C   UNL A   1      40.766  34.697  29.310  1.00  0.00     0.029 A 
ATOM     49  N   UNL A   1      42.978  34.633  29.006  1.00  0.00    -0.354 N 
ATOM     50  C   UNL A   1      45.349  31.282  30.079  1.00  0.00     0.074 A 
ATOM     51  C   UNL A   1      44.589  30.310  30.832  1.00  0.00     0.031 C 
ATOM     52  C   UNL A   1      41.138  35.857  28.738  1.00  0.00     0.029 A 
ATOM     53  C   UNL A   1      42.585  35.879  28.583  1.00  0.00     0.049 A 
ATOM     54  H   UNL A   1      43.903  34.305  28.932  1.00  0.00     0.167 HD
ATOM     55  C   UNL A   1      46.634  31.091  29.698  1.00  0.00     0.031 A 
ATOM     56  C   UNL A   1      43.296  36.932  28.129  1.00  0.00     0.031 A 
ATOM     57  C   UNL A   1      47.408  32.029  28.936  1.00  0.00     0.049 A 
ATOM     58  C   UNL A   1      44.768  36.781  27.866  1.00  0.00     0.074 A 
ATOM     59  C   UNL A   1      48.690  31.883  28.436  1.00  0.00     0.029 A 
ATOM     60  N   UNL A   1      46.976  33.293  28.574  1.00  0.00    -0.354 N 
ATOM     61  N   UNL A   1      45.536  35.737  28.051  1.00  0.00    -0.248 NA
ATOM     62  C   UNL A   1      45.455  37.932  27.258  1.00  0.00     0.031 C 
ATOM     63  C   UNL A   1      49.057  33.086  27.821  1.00  0.00     0.029 A 
ATOM     64  C   UNL A   1      47.981  33.955  27.887  1.00  0.00     0.049 A 
ATOM     65  H   UNL A   1      46.088  33.667  28.774  1.00  0.00     0.167 HD
ATOM     66  C   UNL A   1      46.765  36.069  27.495  1.00  0.00     0.074 A 
ATOM     67  C   UNL A   1      46.651  37.424  26.998  1.00  0.00     0.031 C 
ATOM     68  C   UNL A   1      47.871  35.295  27.372  1.00  0.00     0.031 A 
BRANCH  55  69
ATOM     69  C   UNL A   1      47.262  29.786  30.098  1.00  0.00    -0.014 A 
ATOM     70  C   UNL A   1      47.154  28.650  29.276  1.00  0.00     0.009 A 
ATOM     71  C   UNL A   1      47.942  29.680  31.319  1.00  0.00     0.009 A 
ATOM     72  C   UNL A   1      47.656  27.420  29.701  1.00  0.00     0.001 A 
ATOM     73  C   UNL A   1      48.476  28.456  31.724  1.00  0.00     0.001 A 
ATOM     74  C   UNL A   1      48.318  27.325  30.923  1.00  0.00     0.000 A 
ENDBRANCH  55  69
BRANCH  56  75
ATOM     75  C   UNL A   1      42.625  38.230  27.840  1.00  0.00    -0.014 A 
ATOM     76  C   UNL A   1      42.536  39.225  28.825  1.00  0.00     0.009 A 
ATOM     77  C   UNL A   1      42.016  38.453  26.594  1.00  0.00     0.009 A 
ATOM     78  C   UNL A   1      41.822  40.402  28.582  1.00  0.00     0.001 A 
ATOM     79  C   UNL A   1      41.321  39.640  26.347  1.00  0.00     0.001 A 
ATOM     80  C   UNL A   1      41.216  40.608  27.345  1.00  0.00     0.000 A 
ENDBRANCH  56  75
BRANCH  68  81
ATOM     81  C   UNL A   1      49.027  35.852  26.588  1.00  0.00    -0.014 A 
ATOM     82  C   UNL A   1      49.958  36.733  27.155  1.00  0.00     0.009 A 
ATOM     83  C   UNL A   1      49.199  35.452  25.251  1.00  0.00     0.009 A 
ATOM     84  C   UNL A   1      51.015  37.233  26.390  1.00  0.00     0.001 A 
ATOM     85  C   UNL A   1      50.274  35.925  24.499  1.00  0.00     0.001 A 
ATOM     86  C   UNL A   1      51.175  36.824  25.066  1.00  0.00     0.000 A 
ENDBRANCH  68  81
ENDBRANCH  42  43
ENDBRANCH  35  37
ENDBRANCH  34  35
ENDBRANCH  33  34
ENDBRANCH  32  33
ENDBRANCH  31  32
ENDBRANCH  30  31
ENDBRANCH  29  30
ENDBRANCH   1  29
TORSDOF 23
ENDMDL
