MODEL 1
REMARK VINA RESULT:      -9.9      0.000      0.000
REMARK SMILES CC(=O)N/N=C/c1ccc(O[C@H](C)C(=O)OCCOCCOCCOC(=O)c2ccc(-c3c4nc(c(-c5ccccc5)c5ccc([nH]5)c(-c5ccccc5)c5nc(c(-c6ccccc6)c6ccc3[nH]6)C=C5)C=C4)cc2)cc1
REMARK SMILES IDX 20 1 19 2 18 3 17 4 16 5 14 6 15 7 12 8 13 9 11 10 10 11
REMARK SMILES IDX 7 12 8 13 77 14 9 15 76 16 6 17 5 18 4 19 1 20 2 21 3 22
REMARK SMILES IDX 21 24 22 25 23 26 24 27 25 28 26 29 27 30 28 31 29 32 75 33
REMARK SMILES IDX 30 34 74 35 31 36 32 37 33 38 68 39 34 40 73 41 67 42 69 43
REMARK SMILES IDX 35 44 72 45 66 46 65 47 36 49 58 50 43 51 57 52 44 53 47 54
REMARK SMILES IDX 56 55 70 56 45 57 46 58 55 60 71 61 48 62 37 63 38 64 42 65
REMARK SMILES IDX 39 66 41 67 40 68 59 69 60 70 64 71 61 72 63 73 62 74 49 75
REMARK SMILES IDX 50 76 54 77 51 78 53 79 52 80
REMARK H PARENT 4 23 69 48 47 59
REMARK Flexibility Score: inf
ROOT
ATOM      1  C   UNL A   1      34.139  29.343  27.303  1.00  0.00     0.188 C 
ENDROOT
BRANCH   1   2
ATOM      2  O   UNL A   1      34.212  28.608  26.088  1.00  0.00    -0.376 OA
BRANCH   2   3
ATOM      3  C   UNL A   1      32.989  28.048  25.605  1.00  0.00     0.202 C 
BRANCH   3   4
ATOM      4  C   UNL A   1      32.383  26.910  26.448  1.00  0.00     0.261 C 
BRANCH   4   5
ATOM      5  O   UNL A   1      32.909  25.616  26.098  1.00  0.00    -0.461 OA
BRANCH   5   6
ATOM      6  C   UNL A   1      32.057  24.549  26.176  1.00  0.00     0.347 C 
ATOM      7  O   UNL A   1      31.332  24.316  27.137  1.00  0.00    -0.248 OA
BRANCH   6   8
ATOM      8  C   UNL A   1      32.001  23.769  24.841  1.00  0.00     0.279 C 
ATOM      9  C   UNL A   1      32.452  22.311  24.951  1.00  0.00     0.066 C 
BRANCH   8  10
ATOM     10  O   UNL A   1      30.831  24.040  24.051  1.00  0.00    -0.479 OA
BRANCH  10  11
ATOM     11  C   UNL A   1      30.622  25.292  23.549  1.00  0.00     0.120 A 
ATOM     12  C   UNL A   1      30.261  27.951  22.787  1.00  0.00    -0.005 A 
ATOM     13  C   UNL A   1      31.374  27.251  22.336  1.00  0.00     0.013 A 
ATOM     14  C   UNL A   1      29.344  27.357  23.654  1.00  0.00     0.013 A 
ATOM     15  C   UNL A   1      31.572  25.939  22.758  1.00  0.00     0.047 A 
ATOM     16  C   UNL A   1      29.526  26.018  24.027  1.00  0.00     0.047 A 
BRANCH  12  17
ATOM     17  C   UNL A   1      30.102  29.333  22.318  1.00  0.00     0.141 C 
ATOM     18  N   UNL A   1      29.078  29.666  21.612  1.00  0.00    -0.181 NA
BRANCH  18  19
ATOM     19  N   UNL A   1      28.840  30.962  21.256  1.00  0.00    -0.247 N 
ATOM     20  C   UNL A   1      27.779  31.910  23.319  1.00  0.00     0.116 C 
ATOM     21  C   UNL A   1      28.231  32.012  21.892  1.00  0.00     0.236 C 
ATOM     22  O   UNL A   1      28.049  33.061  21.265  1.00  0.00    -0.274 OA
ATOM     23  H   UNL A   1      29.175  31.189  20.358  1.00  0.00     0.193 HD
ENDBRANCH  18  19
ENDBRANCH  12  17
ENDBRANCH  10  11
ENDBRANCH   8  10
ENDBRANCH   6   8
ENDBRANCH   5   6
ENDBRANCH   4   5
ENDBRANCH   3   4
ENDBRANCH   2   3
ENDBRANCH   1   2
BRANCH   1  24
ATOM     24  C   UNL A   1      33.586  30.769  27.213  1.00  0.00     0.188 C 
BRANCH  24  25
ATOM     25  O   UNL A   1      32.167  30.866  27.154  1.00  0.00    -0.376 OA
BRANCH  25  26
ATOM     26  C   UNL A   1      31.630  32.159  26.846  1.00  0.00     0.202 C 
BRANCH  26  27
ATOM     27  C   UNL A   1      32.546  33.373  27.101  1.00  0.00     0.261 C 
BRANCH  27  28
ATOM     28  O   UNL A   1      32.205  34.148  28.270  1.00  0.00    -0.460 OA
BRANCH  28  29
ATOM     29  C   UNL A   1      33.123  35.028  28.737  1.00  0.00     0.338 C 
ATOM     30  O   UNL A   1      32.941  36.211  28.978  1.00  0.00    -0.246 OA
BRANCH  29  31
ATOM     31  C   UNL A   1      34.313  34.253  29.178  1.00  0.00     0.060 A 
ATOM     32  C   UNL A   1      34.153  33.310  30.206  1.00  0.00     0.016 A 
ATOM     33  C   UNL A   1      35.545  34.362  28.525  1.00  0.00     0.016 A 
ATOM     34  C   UNL A   1      35.220  32.489  30.587  1.00  0.00     0.010 A 
ATOM     35  C   UNL A   1      36.615  33.550  28.914  1.00  0.00     0.010 A 
ATOM     36  C   UNL A   1      36.466  32.620  29.959  1.00  0.00    -0.014 A 
BRANCH  36  37
ATOM     37  C   UNL A   1      37.660  31.908  30.478  1.00  0.00     0.031 A 
ATOM     38  C   UNL A   1      38.430  32.527  31.611  1.00  0.00     0.074 A 
ATOM     39  C   UNL A   1      38.079  30.742  29.949  1.00  0.00     0.049 A 
ATOM     40  N   UNL A   1      39.557  32.147  32.157  1.00  0.00    -0.248 NA
ATOM     41  C   UNL A   1      37.850  33.742  32.206  1.00  0.00     0.031 C 
ATOM     42  C   UNL A   1      37.405  29.995  28.891  1.00  0.00     0.029 A 
ATOM     43  N   UNL A   1      39.195  29.990  30.235  1.00  0.00    -0.354 N 
ATOM     44  C   UNL A   1      39.826  33.079  33.150  1.00  0.00     0.074 A 
ATOM     45  C   UNL A   1      38.757  34.053  33.120  1.00  0.00     0.031 C 
ATOM     46  C   UNL A   1      38.128  28.895  28.606  1.00  0.00     0.029 A 
ATOM     47  C   UNL A   1      39.338  28.886  29.429  1.00  0.00     0.049 A 
ATOM     48  H   UNL A   1      39.833  30.221  30.948  1.00  0.00     0.167 HD
ATOM     49  C   UNL A   1      40.870  33.125  34.010  1.00  0.00     0.031 A 
ATOM     50  C   UNL A   1      40.343  27.992  29.339  1.00  0.00     0.031 A 
ATOM     51  C   UNL A   1      41.946  32.173  34.038  1.00  0.00     0.049 A 
ATOM     52  C   UNL A   1      41.555  28.136  30.225  1.00  0.00     0.074 A 
ATOM     53  C   UNL A   1      43.034  32.130  34.894  1.00  0.00     0.029 A 
ATOM     54  N   UNL A   1      42.085  31.109  33.162  1.00  0.00    -0.354 N 
ATOM     55  N   UNL A   1      41.786  29.003  31.180  1.00  0.00    -0.248 NA
ATOM     56  C   UNL A   1      42.654  27.178  30.011  1.00  0.00     0.031 C 
ATOM     57  C   UNL A   1      43.866  31.080  34.491  1.00  0.00     0.029 A 
ATOM     58  C   UNL A   1      43.262  30.432  33.425  1.00  0.00     0.049 A 
ATOM     59  H   UNL A   1      41.439  30.870  32.457  1.00  0.00     0.167 HD
ATOM     60  C   UNL A   1      43.039  28.683  31.692  1.00  0.00     0.074 A 
ATOM     61  C   UNL A   1      43.515  27.533  30.954  1.00  0.00     0.031 C 
ATOM     62  C   UNL A   1      43.734  29.291  32.684  1.00  0.00     0.031 A 
BRANCH  49  63
ATOM     63  C   UNL A   1      40.924  34.279  34.969  1.00  0.00    -0.014 A 
ATOM     64  C   UNL A   1      41.547  35.488  34.625  1.00  0.00     0.009 A 
ATOM     65  C   UNL A   1      40.303  34.164  36.223  1.00  0.00     0.009 A 
ATOM     66  C   UNL A   1      41.572  36.551  35.532  1.00  0.00     0.001 A 
ATOM     67  C   UNL A   1      40.306  35.236  37.115  1.00  0.00     0.001 A 
ATOM     68  C   UNL A   1      40.947  36.425  36.773  1.00  0.00     0.000 A 
ENDBRANCH  49  63
BRANCH  50  69
ATOM     69  C   UNL A   1      40.288  26.897  28.332  1.00  0.00    -0.014 A 
ATOM     70  C   UNL A   1      40.858  27.063  27.061  1.00  0.00     0.009 A 
ATOM     71  C   UNL A   1      39.622  25.695  28.623  1.00  0.00     0.009 A 
ATOM     72  C   UNL A   1      40.741  26.058  26.096  1.00  0.00     0.001 A 
ATOM     73  C   UNL A   1      39.532  24.682  27.667  1.00  0.00     0.001 A 
ATOM     74  C   UNL A   1      40.084  24.868  26.401  1.00  0.00     0.000 A 
ENDBRANCH  50  69
BRANCH  62  75
ATOM     75  C   UNL A   1      45.076  28.722  33.053  1.00  0.00    -0.014 A 
ATOM     76  C   UNL A   1      46.257  29.214  32.476  1.00  0.00     0.009 A 
ATOM     77  C   UNL A   1      45.167  27.731  34.043  1.00  0.00     0.009 A 
ATOM     78  C   UNL A   1      47.499  28.711  32.869  1.00  0.00     0.001 A 
ATOM     79  C   UNL A   1      46.411  27.250  34.454  1.00  0.00     0.001 A 
ATOM     80  C   UNL A   1      47.576  27.735  33.862  1.00  0.00     0.000 A 
ENDBRANCH  62  75
ENDBRANCH  36  37
ENDBRANCH  29  31
ENDBRANCH  28  29
ENDBRANCH  27  28
ENDBRANCH  26  27
ENDBRANCH  25  26
ENDBRANCH  24  25
ENDBRANCH   1  24
TORSDOF 21
ENDMDL
MODEL 2
REMARK VINA RESULT:      -9.2      3.707      8.793
REMARK SMILES CC(=O)N/N=C/c1ccc(O[C@H](C)C(=O)OCCOCCOCCOC(=O)c2ccc(-c3c4nc(c(-c5ccccc5)c5ccc([nH]5)c(-c5ccccc5)c5nc(c(-c6ccccc6)c6ccc3[nH]6)C=C5)C=C4)cc2)cc1
REMARK SMILES IDX 20 1 19 2 18 3 17 4 16 5 14 6 15 7 12 8 13 9 11 10 10 11
REMARK SMILES IDX 7 12 8 13 77 14 9 15 76 16 6 17 5 18 4 19 1 20 2 21 3 22
REMARK SMILES IDX 21 24 22 25 23 26 24 27 25 28 26 29 27 30 28 31 29 32 75 33
REMARK SMILES IDX 30 34 74 35 31 36 32 37 33 38 68 39 34 40 73 41 67 42 69 43
REMARK SMILES IDX 35 44 72 45 66 46 65 47 36 49 58 50 43 51 57 52 44 53 47 54
REMARK SMILES IDX 56 55 70 56 45 57 46 58 55 60 71 61 48 62 37 63 38 64 42 65
REMARK SMILES IDX 39 66 41 67 40 68 59 69 60 70 64 71 61 72 63 73 62 74 49 75
REMARK SMILES IDX 50 76 54 77 51 78 53 79 52 80
REMARK H PARENT 4 23 69 48 47 59
REMARK Flexibility Score: inf
ROOT
ATOM      1  C   UNL A   1      35.996  21.664  24.312  1.00  0.00     0.188 C 
ENDROOT
BRANCH   1   2
ATOM      2  O   UNL A   1      34.955  22.086  25.184  1.00  0.00    -0.376 OA
BRANCH   2   3
ATOM      3  C   UNL A   1      33.637  21.631  24.873  1.00  0.00     0.202 C 
BRANCH   3   4
ATOM      4  C   UNL A   1      32.708  21.368  26.074  1.00  0.00     0.261 C 
BRANCH   4   5
ATOM      5  O   UNL A   1      32.315  22.577  26.750  1.00  0.00    -0.461 OA
BRANCH   5   6
ATOM      6  C   UNL A   1      31.617  23.504  26.026  1.00  0.00     0.347 C 
ATOM      7  O   UNL A   1      30.583  23.263  25.415  1.00  0.00    -0.248 OA
BRANCH   6   8
ATOM      8  C   UNL A   1      32.205  24.924  26.206  1.00  0.00     0.279 C 
ATOM      9  C   UNL A   1      33.350  25.253  25.246  1.00  0.00     0.066 C 
BRANCH   8  10
ATOM     10  O   UNL A   1      31.216  25.944  26.429  1.00  0.00    -0.479 OA
BRANCH  10  11
ATOM     11  C   UNL A   1      30.937  26.849  25.447  1.00  0.00     0.120 A 
ATOM     12  C   UNL A   1      30.106  28.737  23.569  1.00  0.00    -0.005 A 
ATOM     13  C   UNL A   1      31.076  29.078  24.505  1.00  0.00     0.013 A 
ATOM     14  C   UNL A   1      29.508  27.477  23.583  1.00  0.00     0.013 A 
ATOM     15  C   UNL A   1      31.451  28.145  25.468  1.00  0.00     0.047 A 
ATOM     16  C   UNL A   1      29.935  26.529  24.524  1.00  0.00     0.047 A 
BRANCH  12  17
ATOM     17  C   UNL A   1      29.741  29.758  22.579  1.00  0.00     0.141 C 
ATOM     18  N   UNL A   1      28.517  30.138  22.458  1.00  0.00    -0.181 NA
BRANCH  18  19
ATOM     19  N   UNL A   1      28.159  31.162  21.630  1.00  0.00    -0.247 N 
ATOM     20  C   UNL A   1      28.808  33.188  22.956  1.00  0.00     0.116 C 
ATOM     21  C   UNL A   1      28.186  32.526  21.762  1.00  0.00     0.236 C 
ATOM     22  O   UNL A   1      27.676  33.218  20.875  1.00  0.00    -0.274 OA
ATOM     23  H   UNL A   1      27.813  30.859  20.759  1.00  0.00     0.193 HD
ENDBRANCH  18  19
ENDBRANCH  12  17
ENDBRANCH  10  11
ENDBRANCH   8  10
ENDBRANCH   6   8
ENDBRANCH   5   6
ENDBRANCH   4   5
ENDBRANCH   3   4
ENDBRANCH   2   3
ENDBRANCH   1   2
BRANCH   1  24
ATOM     24  C   UNL A   1      37.419  22.096  24.680  1.00  0.00     0.188 C 
BRANCH  24  25
ATOM     25  O   UNL A   1      38.058  21.297  25.670  1.00  0.00    -0.376 OA
BRANCH  25  26
ATOM     26  C   UNL A   1      38.721  20.116  25.202  1.00  0.00     0.202 C 
BRANCH  26  27
ATOM     27  C   UNL A   1      39.777  19.491  26.137  1.00  0.00     0.261 C 
BRANCH  27  28
ATOM     28  O   UNL A   1      41.019  19.141  25.491  1.00  0.00    -0.460 OA
BRANCH  28  29
ATOM     29  C   UNL A   1      42.160  19.241  26.216  1.00  0.00     0.338 C 
ATOM     30  O   UNL A   1      43.032  18.394  26.321  1.00  0.00    -0.246 OA
BRANCH  29  31
ATOM     31  C   UNL A   1      42.313  20.660  26.632  1.00  0.00     0.060 A 
ATOM     32  C   UNL A   1      42.571  21.622  25.643  1.00  0.00     0.016 A 
ATOM     33  C   UNL A   1      42.096  21.066  27.953  1.00  0.00     0.016 A 
ATOM     34  C   UNL A   1      42.624  22.981  25.973  1.00  0.00     0.010 A 
ATOM     35  C   UNL A   1      42.162  22.423  28.285  1.00  0.00     0.010 A 
ATOM     36  C   UNL A   1      42.443  23.389  27.301  1.00  0.00    -0.014 A 
BRANCH  36  37
ATOM     37  C   UNL A   1      42.694  24.794  27.709  1.00  0.00     0.031 A 
ATOM     38  C   UNL A   1      44.108  25.217  27.999  1.00  0.00     0.074 A 
ATOM     39  C   UNL A   1      41.693  25.685  27.845  1.00  0.00     0.049 A 
ATOM     40  N   UNL A   1      44.556  26.353  28.468  1.00  0.00    -0.248 NA
ATOM     41  C   UNL A   1      45.155  24.220  27.723  1.00  0.00     0.031 C 
ATOM     42  C   UNL A   1      40.285  25.438  27.545  1.00  0.00     0.029 A 
ATOM     43  N   UNL A   1      41.720  26.986  28.290  1.00  0.00    -0.354 N 
ATOM     44  C   UNL A   1      45.934  26.205  28.554  1.00  0.00     0.074 A 
ATOM     45  C   UNL A   1      46.247  24.865  28.107  1.00  0.00     0.031 C 
ATOM     46  C   UNL A   1      39.579  26.549  27.826  1.00  0.00     0.029 A 
ATOM     47  C   UNL A   1      40.478  27.568  28.369  1.00  0.00     0.049 A 
ATOM     48  H   UNL A   1      42.551  27.456  28.531  1.00  0.00     0.167 HD
ATOM     49  C   UNL A   1      46.859  27.101  28.971  1.00  0.00     0.031 A 
ATOM     50  C   UNL A   1      40.103  28.769  28.855  1.00  0.00     0.031 A 
ATOM     51  C   UNL A   1      46.559  28.428  29.433  1.00  0.00     0.049 A 
ATOM     52  C   UNL A   1      41.140  29.703  29.428  1.00  0.00     0.074 A 
ATOM     53  C   UNL A   1      47.439  29.413  29.850  1.00  0.00     0.029 A 
ATOM     54  N   UNL A   1      45.284  28.953  29.558  1.00  0.00    -0.354 N 
ATOM     55  N   UNL A   1      42.442  29.565  29.477  1.00  0.00    -0.248 NA
ATOM     56  C   UNL A   1      40.649  30.958  30.023  1.00  0.00     0.031 C 
ATOM     57  C   UNL A   1      46.690  30.508  30.293  1.00  0.00     0.029 A 
ATOM     58  C   UNL A   1      45.349  30.228  30.091  1.00  0.00     0.049 A 
ATOM     59  H   UNL A   1      44.453  28.487  29.304  1.00  0.00     0.167 HD
ATOM     60  C   UNL A   1      42.926  30.719  30.086  1.00  0.00     0.074 A 
ATOM     61  C   UNL A   1      41.780  31.554  30.375  1.00  0.00     0.031 C 
ATOM     62  C   UNL A   1      44.205  31.053  30.381  1.00  0.00     0.031 A 
BRANCH  49  63
ATOM     63  C   UNL A   1      48.293  26.654  28.991  1.00  0.00    -0.014 A 
ATOM     64  C   UNL A   1      48.845  26.015  30.110  1.00  0.00     0.009 A 
ATOM     65  C   UNL A   1      49.090  26.842  27.850  1.00  0.00     0.009 A 
ATOM     66  C   UNL A   1      50.178  25.598  30.098  1.00  0.00     0.001 A 
ATOM     67  C   UNL A   1      50.412  26.400  27.830  1.00  0.00     0.001 A 
ATOM     68  C   UNL A   1      50.958  25.787  28.957  1.00  0.00     0.000 A 
ENDBRANCH  49  63
BRANCH  50  69
ATOM     69  C   UNL A   1      38.666  29.155  28.880  1.00  0.00    -0.014 A 
ATOM     70  C   UNL A   1      38.076  29.793  27.778  1.00  0.00     0.009 A 
ATOM     71  C   UNL A   1      37.887  28.928  30.026  1.00  0.00     0.009 A 
ATOM     72  C   UNL A   1      36.745  30.216  27.833  1.00  0.00     0.001 A 
ATOM     73  C   UNL A   1      36.549  29.325  30.068  1.00  0.00     0.001 A 
ATOM     74  C   UNL A   1      35.982  29.977  28.974  1.00  0.00     0.000 A 
ENDBRANCH  50  69
BRANCH  62  75
ATOM     75  C   UNL A   1      44.450  32.386  31.033  1.00  0.00    -0.014 A 
ATOM     76  C   UNL A   1      44.554  33.560  30.271  1.00  0.00     0.009 A 
ATOM     77  C   UNL A   1      44.504  32.480  32.433  1.00  0.00     0.009 A 
ATOM     78  C   UNL A   1      44.728  34.796  30.897  1.00  0.00     0.001 A 
ATOM     79  C   UNL A   1      44.649  33.720  33.057  1.00  0.00     0.001 A 
ATOM     80  C   UNL A   1      44.769  34.876  32.289  1.00  0.00     0.000 A 
ENDBRANCH  62  75
ENDBRANCH  36  37
ENDBRANCH  29  31
ENDBRANCH  28  29
ENDBRANCH  27  28
ENDBRANCH  26  27
ENDBRANCH  25  26
ENDBRANCH  24  25
ENDBRANCH   1  24
TORSDOF 21
ENDMDL
MODEL 3
REMARK VINA RESULT:      -9.2      4.414      9.699
REMARK SMILES CC(=O)N/N=C/c1ccc(O[C@H](C)C(=O)OCCOCCOCCOC(=O)c2ccc(-c3c4nc(c(-c5ccccc5)c5ccc([nH]5)c(-c5ccccc5)c5nc(c(-c6ccccc6)c6ccc3[nH]6)C=C5)C=C4)cc2)cc1
REMARK SMILES IDX 20 1 19 2 18 3 17 4 16 5 14 6 15 7 12 8 13 9 11 10 10 11
REMARK SMILES IDX 7 12 8 13 77 14 9 15 76 16 6 17 5 18 4 19 1 20 2 21 3 22
REMARK SMILES IDX 21 24 22 25 23 26 24 27 25 28 26 29 27 30 28 31 29 32 75 33
REMARK SMILES IDX 30 34 74 35 31 36 32 37 33 38 68 39 34 40 73 41 67 42 69 43
REMARK SMILES IDX 35 44 72 45 66 46 65 47 36 49 58 50 43 51 57 52 44 53 47 54
REMARK SMILES IDX 56 55 70 56 45 57 46 58 55 60 71 61 48 62 37 63 38 64 42 65
REMARK SMILES IDX 39 66 41 67 40 68 59 69 60 70 64 71 61 72 63 73 62 74 49 75
REMARK SMILES IDX 50 76 54 77 51 78 53 79 52 80
REMARK H PARENT 4 23 69 48 47 59
REMARK Flexibility Score: inf
ROOT
ATOM      1  C   UNL A   1      35.514  21.782  24.845  1.00  0.00     0.188 C 
ENDROOT
BRANCH   1   2
ATOM      2  O   UNL A   1      35.224  22.538  26.014  1.00  0.00    -0.376 OA
BRANCH   2   3
ATOM      3  C   UNL A   1      34.850  23.902  25.817  1.00  0.00     0.202 C 
BRANCH   3   4
ATOM      4  C   UNL A   1      35.199  24.512  24.446  1.00  0.00     0.261 C 
BRANCH   4   5
ATOM      5  O   UNL A   1      34.071  25.145  23.814  1.00  0.00    -0.461 OA
BRANCH   5   6
ATOM      6  C   UNL A   1      33.398  26.093  24.534  1.00  0.00     0.347 C 
ATOM      7  O   UNL A   1      33.786  27.245  24.687  1.00  0.00    -0.248 OA
BRANCH   6   8
ATOM      8  C   UNL A   1      32.012  25.578  24.992  1.00  0.00     0.279 C 
ATOM      9  C   UNL A   1      31.146  26.639  25.673  1.00  0.00     0.066 C 
BRANCH   8  10
ATOM     10  O   UNL A   1      31.368  24.707  24.047  1.00  0.00    -0.479 OA
BRANCH  10  11
ATOM     11  C   UNL A   1      31.540  23.357  24.137  1.00  0.00     0.120 A 
ATOM     12  C   UNL A   1      32.175  20.643  24.275  1.00  0.00    -0.005 A 
ATOM     13  C   UNL A   1      31.832  21.330  25.434  1.00  0.00     0.013 A 
ATOM     14  C   UNL A   1      32.250  21.302  23.048  1.00  0.00     0.013 A 
ATOM     15  C   UNL A   1      31.562  22.694  25.364  1.00  0.00     0.047 A 
ATOM     16  C   UNL A   1      31.923  22.664  22.983  1.00  0.00     0.047 A 
BRANCH  12  17
ATOM     17  C   UNL A   1      32.457  19.208  24.403  1.00  0.00     0.141 C 
ATOM     18  N   UNL A   1      33.392  18.797  25.188  1.00  0.00    -0.181 NA
BRANCH  18  19
ATOM     19  N   UNL A   1      33.606  17.469  25.418  1.00  0.00    -0.247 N 
ATOM     20  C   UNL A   1      34.285  16.626  23.157  1.00  0.00     0.116 C 
ATOM     21  C   UNL A   1      33.941  16.419  24.602  1.00  0.00     0.236 C 
ATOM     22  O   UNL A   1      33.950  15.279  25.077  1.00  0.00    -0.274 OA
ATOM     23  H   UNL A   1      33.499  17.213  26.362  1.00  0.00     0.193 HD
ENDBRANCH  18  19
ENDBRANCH  12  17
ENDBRANCH  10  11
ENDBRANCH   8  10
ENDBRANCH   6   8
ENDBRANCH   5   6
ENDBRANCH   4   5
ENDBRANCH   3   4
ENDBRANCH   2   3
ENDBRANCH   1   2
BRANCH   1  24
ATOM     24  C   UNL A   1      36.567  20.677  24.983  1.00  0.00     0.188 C 
BRANCH  24  25
ATOM     25  O   UNL A   1      37.903  21.075  24.698  1.00  0.00    -0.376 OA
BRANCH  25  26
ATOM     26  C   UNL A   1      38.864  20.867  25.740  1.00  0.00     0.202 C 
BRANCH  26  27
ATOM     27  C   UNL A   1      39.676  19.556  25.690  1.00  0.00     0.261 C 
BRANCH  27  28
ATOM     28  O   UNL A   1      40.832  19.532  26.554  1.00  0.00    -0.460 OA
BRANCH  28  29
ATOM     29  C   UNL A   1      42.022  19.918  26.030  1.00  0.00     0.338 C 
ATOM     30  O   UNL A   1      42.672  19.324  25.185  1.00  0.00    -0.246 OA
BRANCH  29  31
ATOM     31  C   UNL A   1      42.266  21.325  26.445  1.00  0.00     0.060 A 
ATOM     32  C   UNL A   1      42.242  21.632  27.814  1.00  0.00     0.016 A 
ATOM     33  C   UNL A   1      42.626  22.311  25.520  1.00  0.00     0.016 A 
ATOM     34  C   UNL A   1      42.563  22.920  28.257  1.00  0.00     0.010 A 
ATOM     35  C   UNL A   1      42.935  23.601  25.962  1.00  0.00     0.010 A 
ATOM     36  C   UNL A   1      42.890  23.920  27.331  1.00  0.00    -0.014 A 
BRANCH  36  37
ATOM     37  C   UNL A   1      43.036  25.335  27.756  1.00  0.00     0.031 A 
ATOM     38  C   UNL A   1      44.413  25.855  28.060  1.00  0.00     0.074 A 
ATOM     39  C   UNL A   1      41.973  26.150  27.894  1.00  0.00     0.049 A 
ATOM     40  N   UNL A   1      44.775  27.016  28.545  1.00  0.00    -0.248 NA
ATOM     41  C   UNL A   1      45.532  24.941  27.782  1.00  0.00     0.031 C 
ATOM     42  C   UNL A   1      40.588  25.805  27.581  1.00  0.00     0.029 A 
ATOM     43  N   UNL A   1      41.902  27.444  28.353  1.00  0.00    -0.354 N 
ATOM     44  C   UNL A   1      46.160  26.967  28.640  1.00  0.00     0.074 A 
ATOM     45  C   UNL A   1      46.572  25.658  28.181  1.00  0.00     0.031 C 
ATOM     46  C   UNL A   1      39.802  26.859  27.868  1.00  0.00     0.029 A 
ATOM     47  C   UNL A   1      40.620  27.934  28.429  1.00  0.00     0.049 A 
ATOM     48  H   UNL A   1      42.695  27.971  28.605  1.00  0.00     0.167 HD
ATOM     49  C   UNL A   1      47.015  27.923  29.073  1.00  0.00     0.031 A 
ATOM     50  C   UNL A   1      40.156  29.099  28.925  1.00  0.00     0.031 A 
ATOM     51  C   UNL A   1      46.616  29.220  29.547  1.00  0.00     0.049 A 
ATOM     52  C   UNL A   1      41.119  30.099  29.516  1.00  0.00     0.074 A 
ATOM     53  C   UNL A   1      47.420  30.260  29.981  1.00  0.00     0.029 A 
ATOM     54  N   UNL A   1      45.305  29.649  29.668  1.00  0.00    -0.354 N 
ATOM     55  N   UNL A   1      42.428  30.055  29.573  1.00  0.00    -0.248 NA
ATOM     56  C   UNL A   1      40.535  31.308  30.121  1.00  0.00     0.031 C 
ATOM     57  C   UNL A   1      46.591  31.294  30.431  1.00  0.00     0.029 A 
ATOM     58  C   UNL A   1      45.275  30.920  30.215  1.00  0.00     0.049 A 
ATOM     59  H   UNL A   1      44.513  29.127  29.403  1.00  0.00     0.167 HD
ATOM     60  C   UNL A   1      42.822  31.234  30.198  1.00  0.00     0.074 A 
ATOM     61  C   UNL A   1      41.618  31.981  30.487  1.00  0.00     0.031 C 
ATOM     62  C   UNL A   1      44.072  31.657  30.506  1.00  0.00     0.031 A 
BRANCH  49  63
ATOM     63  C   UNL A   1      48.477  27.581  29.099  1.00  0.00    -0.014 A 
ATOM     64  C   UNL A   1      49.072  26.995  30.226  1.00  0.00     0.009 A 
ATOM     65  C   UNL A   1      49.260  27.814  27.957  1.00  0.00     0.009 A 
ATOM     66  C   UNL A   1      50.432  26.675  30.218  1.00  0.00     0.001 A 
ATOM     67  C   UNL A   1      50.611  27.468  27.943  1.00  0.00     0.001 A 
ATOM     68  C   UNL A   1      51.198  26.907  29.076  1.00  0.00     0.000 A 
ENDBRANCH  49  63
BRANCH  50  69
ATOM     69  C   UNL A   1      38.695  29.380  28.944  1.00  0.00    -0.014 A 
ATOM     70  C   UNL A   1      38.061  29.953  27.830  1.00  0.00     0.009 A 
ATOM     71  C   UNL A   1      37.933  29.118  30.094  1.00  0.00     0.009 A 
ATOM     72  C   UNL A   1      36.703  30.279  27.878  1.00  0.00     0.001 A 
ATOM     73  C   UNL A   1      36.570  29.417  30.129  1.00  0.00     0.001 A 
ATOM     74  C   UNL A   1      35.958  30.006  29.024  1.00  0.00     0.000 A 
ENDBRANCH  50  69
BRANCH  62  75
ATOM     75  C   UNL A   1      44.216  32.996  31.174  1.00  0.00    -0.014 A 
ATOM     76  C   UNL A   1      44.288  34.179  30.422  1.00  0.00     0.009 A 
ATOM     77  C   UNL A   1      44.205  33.083  32.575  1.00  0.00     0.009 A 
ATOM     78  C   UNL A   1      44.367  35.419  31.061  1.00  0.00     0.001 A 
ATOM     79  C   UNL A   1      44.256  34.325  33.211  1.00  0.00     0.001 A 
ATOM     80  C   UNL A   1      44.344  35.491  32.454  1.00  0.00     0.000 A 
ENDBRANCH  62  75
ENDBRANCH  36  37
ENDBRANCH  29  31
ENDBRANCH  28  29
ENDBRANCH  27  28
ENDBRANCH  26  27
ENDBRANCH  25  26
ENDBRANCH  24  25
ENDBRANCH   1  24
TORSDOF 21
ENDMDL
