MODEL 1
REMARK VINA RESULT:     -14.2      0.000      0.000
REMARK SMILES Cc1ccc(-c2cc(C(=O)OCCOCCOCCOC(=O)c3ccc(-c4c5nc(c(-c6ccccc6)c6ccc([nH]6)c(-c6ccccc6)c6nc(c(-c7ccccc7)c7ccc4[nH]7)C=C6)C=C5)cc3)c3c(-c4cccc([N+](=O)[O-])c4)[nH]nc3n2)cc1
REMARK SMILES IDX 15 1 14 2 13 3 12 4 11 5 9 6 10 7 8 8 6 9 7 10 85 11 84 12
REMARK SMILES IDX 71 13 83 14 72 15 82 16 5 18 1 19 2 20 3 21 87 22 4 23 86 24
REMARK SMILES IDX 73 25 74 26 81 27 75 28 77 29 76 30 78 31 79 32 80 33 16 34
REMARK SMILES IDX 17 35 18 36 19 37 20 38 21 39 22 40 23 41 24 42 70 43 25 44
REMARK SMILES IDX 69 45 26 46 27 47 28 48 63 49 29 50 68 51 62 52 64 53 30 54
REMARK SMILES IDX 67 55 61 56 60 57 31 59 53 60 38 61 52 62 39 63 42 64 51 65
REMARK SMILES IDX 65 66 40 67 41 68 50 70 66 71 43 72 32 73 33 74 37 75 34 76
REMARK SMILES IDX 36 77 35 78 54 79 55 80 59 81 56 82 58 83 57 84 44 85 45 86
REMARK SMILES IDX 49 87 46 88 48 89 47 90
REMARK H PARENT 82 17 64 58 42 69
REMARK Flexibility Score: inf
ROOT
ATOM      1  C   UNL A   1      33.939  32.444  28.036  1.00  0.00     0.188 C 
ENDROOT
BRANCH   1   2
ATOM      2  O   UNL A   1      33.874  31.000  27.857  1.00  0.00    -0.376 OA
BRANCH   2   3
ATOM      3  C   UNL A   1      32.969  30.427  26.873  1.00  0.00     0.202 C 
BRANCH   3   4
ATOM      4  C   UNL A   1      31.783  29.290  27.375  1.00  0.00     0.261 C 
BRANCH   4   5
ATOM      5  O   UNL A   1      31.752  27.527  27.282  1.00  0.00    -0.460 OA
BRANCH   5   6
ATOM      6  C   UNL A   1      31.951  26.358  26.425  1.00  0.00     0.339 C 
ATOM      7  O   UNL A   1      31.811  25.160  26.665  1.00  0.00    -0.246 OA
BRANCH   6   8
ATOM      8  C   UNL A   1      32.628  26.468  25.143  1.00  0.00     0.075 A 
ATOM      9  C   UNL A   1      34.311  25.091  24.049  1.00  0.00     0.074 A 
ATOM     10  C   UNL A   1      33.783  25.701  25.190  1.00  0.00     0.045 A 
ATOM     11  N   UNL A   1      33.884  25.218  22.780  1.00  0.00    -0.226 NA
ATOM     12  C   UNL A   1      32.765  25.962  22.667  1.00  0.00     0.182 A 
ATOM     13  C   UNL A   1      32.079  26.594  23.797  1.00  0.00     0.061 A 
ATOM     14  N   UNL A   1      32.165  26.158  21.502  1.00  0.00    -0.154 NA
ATOM     15  C   UNL A   1      30.949  27.173  23.173  1.00  0.00     0.076 A 
ATOM     16  N   UNL A   1      31.090  26.846  21.832  1.00  0.00    -0.275 N 
ATOM     17  H   UNL A   1      30.422  27.114  21.161  1.00  0.00     0.190 HD
BRANCH   9  18
ATOM     18  C   UNL A   1      35.447  24.224  24.275  1.00  0.00     0.000 A 
ATOM     19  C   UNL A   1      37.905  20.893  25.324  1.00  0.00     0.044 C 
ATOM     20  C   UNL A   1      37.107  22.092  24.923  1.00  0.00    -0.051 A 
ATOM     21  C   UNL A   1      36.737  23.021  25.905  1.00  0.00     0.004 A 
ATOM     22  C   UNL A   1      36.710  22.280  23.594  1.00  0.00     0.004 A 
ATOM     23  C   UNL A   1      35.917  24.088  25.580  1.00  0.00     0.010 A 
ATOM     24  C   UNL A   1      35.883  23.347  23.268  1.00  0.00     0.010 A 
ENDBRANCH   9  18
BRANCH  15  25
ATOM     25  C   UNL A   1      29.775  28.054  23.358  1.00  0.00     0.007 A 
ATOM     26  C   UNL A   1      28.513  27.489  23.654  1.00  0.00     0.011 A 
ATOM     27  C   UNL A   1      29.776  29.333  22.771  1.00  0.00     0.096 A 
ATOM     28  C   UNL A   1      27.309  28.171  23.384  1.00  0.00     0.008 A 
ATOM     29  C   UNL A   1      28.569  30.038  22.552  1.00  0.00     0.270 A 
ATOM     30  C   UNL A   1      27.332  29.452  22.839  1.00  0.00     0.085 A 
BRANCH  29  31
ATOM     31  N   UNL A   1      28.609  31.431  22.079  1.00  0.00     0.062 N 
ATOM     32  O   UNL A   1      28.801  31.626  20.871  1.00  0.00    -0.258 OA
ATOM     33  O   UNL A   1      28.407  32.322  22.913  1.00  0.00    -0.258 OA
ENDBRANCH  29  31
ENDBRANCH  15  25
ENDBRANCH   6   8
ENDBRANCH   5   6
ENDBRANCH   4   5
ENDBRANCH   3   4
ENDBRANCH   2   3
ENDBRANCH   1   2
BRANCH   1  34
ATOM     34  C   UNL A   1      32.677  33.134  27.429  1.00  0.00     0.188 C 
BRANCH  34  35
ATOM     35  O   UNL A   1      32.406  34.280  28.218  1.00  0.00    -0.376 OA
BRANCH  35  36
ATOM     36  C   UNL A   1      33.465  34.998  28.808  1.00  0.00     0.202 C 
BRANCH  36  37
ATOM     37  C   UNL A   1      32.987  35.974  29.896  1.00  0.00     0.261 C 
BRANCH  37  38
ATOM     38  O   UNL A   1      32.581  35.270  31.094  1.00  0.00    -0.460 OA
BRANCH  38  39
ATOM     39  C   UNL A   1      33.277  35.596  32.228  1.00  0.00     0.338 C 
ATOM     40  O   UNL A   1      33.079  36.594  32.901  1.00  0.00    -0.246 OA
BRANCH  39  41
ATOM     41  C   UNL A   1      34.456  34.691  32.396  1.00  0.00     0.060 A 
ATOM     42  C   UNL A   1      35.770  35.097  32.643  1.00  0.00     0.016 A 
ATOM     43  C   UNL A   1      34.325  33.430  31.948  1.00  0.00     0.016 A 
ATOM     44  C   UNL A   1      36.929  34.250  32.358  1.00  0.00     0.010 A 
ATOM     45  C   UNL A   1      35.472  32.879  31.368  1.00  0.00     0.010 A 
ATOM     46  C   UNL A   1      36.854  33.081  31.616  1.00  0.00    -0.014 A 
BRANCH  46  47
ATOM     47  C   UNL A   1      38.151  32.099  31.129  1.00  0.00     0.031 A 
ATOM     48  C   UNL A   1      38.266  30.476  30.479  1.00  0.00     0.074 A 
ATOM     49  C   UNL A   1      39.405  32.585  31.315  1.00  0.00     0.049 A 
ATOM     50  N   UNL A   1      39.351  29.719  30.566  1.00  0.00    -0.248 NA
ATOM     51  C   UNL A   1      37.263  29.604  29.785  1.00  0.00     0.031 C 
ATOM     52  C   UNL A   1      40.653  32.036  30.785  1.00  0.00     0.029 A 
ATOM     53  N   UNL A   1      39.833  33.584  32.178  1.00  0.00    -0.354 N 
ATOM     54  C   UNL A   1      39.219  28.562  29.784  1.00  0.00     0.074 A 
ATOM     55  C   UNL A   1      37.890  28.535  29.333  1.00  0.00     0.031 C 
ATOM     56  C   UNL A   1      41.669  32.424  31.562  1.00  0.00     0.029 A 
ATOM     57  C   UNL A   1      41.128  33.240  32.623  1.00  0.00     0.049 A 
ATOM     58  H   UNL A   1      39.325  34.388  32.433  1.00  0.00     0.167 HD
ATOM     59  C   UNL A   1      40.221  27.692  29.485  1.00  0.00     0.031 A 
ATOM     60  C   UNL A   1      41.436  33.144  33.944  1.00  0.00     0.031 A 
ATOM     61  C   UNL A   1      41.386  27.964  30.277  1.00  0.00     0.049 A 
ATOM     62  C   UNL A   1      41.831  31.750  34.396  1.00  0.00     0.074 A 
ATOM     63  C   UNL A   1      42.585  28.604  30.046  1.00  0.00     0.029 A 
ATOM     64  N   UNL A   1      41.265  27.809  31.644  1.00  0.00    -0.354 N 
ATOM     65  N   UNL A   1      42.098  30.749  33.602  1.00  0.00    -0.248 NA
ATOM     66  C   UNL A   1      41.888  31.354  35.803  1.00  0.00     0.031 C 
ATOM     67  C   UNL A   1      43.168  28.890  31.309  1.00  0.00     0.029 A 
ATOM     68  C   UNL A   1      42.331  28.393  32.291  1.00  0.00     0.049 A 
ATOM     69  H   UNL A   1      40.521  27.347  32.093  1.00  0.00     0.167 HD
ATOM     70  C   UNL A   1      42.236  29.592  34.340  1.00  0.00     0.074 A 
ATOM     71  C   UNL A   1      42.164  30.040  35.716  1.00  0.00     0.031 C 
ATOM     72  C   UNL A   1      42.344  28.362  33.746  1.00  0.00     0.031 A 
BRANCH  59  73
ATOM     73  C   UNL A   1      40.174  26.780  28.261  1.00  0.00    -0.014 A 
ATOM     74  C   UNL A   1      39.606  25.502  28.398  1.00  0.00     0.009 A 
ATOM     75  C   UNL A   1      40.771  27.042  27.011  1.00  0.00     0.009 A 
ATOM     76  C   UNL A   1      39.771  24.500  27.427  1.00  0.00     0.001 A 
ATOM     77  C   UNL A   1      40.994  26.030  26.059  1.00  0.00     0.001 A 
ATOM     78  C   UNL A   1      40.513  24.749  26.280  1.00  0.00     0.000 A 
ENDBRANCH  59  73
BRANCH  60  79
ATOM     79  C   UNL A   1      40.767  34.199  34.750  1.00  0.00    -0.014 A 
ATOM     80  C   UNL A   1      39.477  33.953  35.251  1.00  0.00     0.009 A 
ATOM     81  C   UNL A   1      41.549  35.138  35.414  1.00  0.00     0.009 A 
ATOM     82  C   UNL A   1      39.038  34.540  36.448  1.00  0.00     0.001 A 
ATOM     83  C   UNL A   1      41.125  35.672  36.639  1.00  0.00     0.001 A 
ATOM     84  C   UNL A   1      39.884  35.367  37.169  1.00  0.00     0.000 A 
ENDBRANCH  60  79
BRANCH  72  85
ATOM     85  C   UNL A   1      42.434  26.985  34.398  1.00  0.00    -0.014 A 
ATOM     86  C   UNL A   1      41.446  26.380  35.179  1.00  0.00     0.009 A 
ATOM     87  C   UNL A   1      43.587  26.195  34.144  1.00  0.00     0.009 A 
ATOM     88  C   UNL A   1      41.610  25.079  35.695  1.00  0.00     0.001 A 
ATOM     89  C   UNL A   1      43.737  24.886  34.613  1.00  0.00     0.001 A 
ATOM     90  C   UNL A   1      42.747  24.330  35.403  1.00  0.00     0.000 A 
ENDBRANCH  72  85
ENDBRANCH  46  47
ENDBRANCH  39  41
ENDBRANCH  38  39
ENDBRANCH  37  38
ENDBRANCH  36  37
ENDBRANCH  35  36
ENDBRANCH  34  35
ENDBRANCH   1  34
TORSDOF 20
ENDMDL
MODEL 2
REMARK VINA RESULT:     -13.7      5.149     10.277
REMARK SMILES Cc1ccc(-c2cc(C(=O)OCCOCCOCCOC(=O)c3ccc(-c4c5nc(c(-c6ccccc6)c6ccc([nH]6)c(-c6ccccc6)c6nc(c(-c7ccccc7)c7ccc4[nH]7)C=C6)C=C5)cc3)c3c(-c4cccc([N+](=O)[O-])c4)[nH]nc3n2)cc1
REMARK SMILES IDX 15 1 14 2 13 3 12 4 11 5 9 6 10 7 8 8 6 9 7 10 85 11 84 12
REMARK SMILES IDX 71 13 83 14 72 15 82 16 5 18 1 19 2 20 3 21 87 22 4 23 86 24
REMARK SMILES IDX 73 25 74 26 81 27 75 28 77 29 76 30 78 31 79 32 80 33 16 34
REMARK SMILES IDX 17 35 18 36 19 37 20 38 21 39 22 40 23 41 24 42 70 43 25 44
REMARK SMILES IDX 69 45 26 46 27 47 28 48 63 49 29 50 68 51 62 52 64 53 30 54
REMARK SMILES IDX 67 55 61 56 60 57 31 59 53 60 38 61 52 62 39 63 42 64 51 65
REMARK SMILES IDX 65 66 40 67 41 68 50 70 66 71 43 72 32 73 33 74 37 75 34 76
REMARK SMILES IDX 36 77 35 78 54 79 55 80 59 81 56 82 58 83 57 84 44 85 45 86
REMARK SMILES IDX 49 87 46 88 48 89 47 90
REMARK H PARENT 82 17 64 58 42 69
REMARK Flexibility Score: inf
ROOT
ATOM      1  C   UNL A   1      40.292  21.004  26.772  1.00  0.00     0.188 C 
ENDROOT
BRANCH   1   2
ATOM      2  O   UNL A   1      39.631  21.883  25.816  1.00  0.00    -0.376 OA
BRANCH   2   3
ATOM      3  C   UNL A   1      38.181  21.880  25.703  1.00  0.00     0.202 C 
BRANCH   3   4
ATOM      4  C   UNL A   1      37.350  23.361  25.445  1.00  0.00     0.261 C 
BRANCH   4   5
ATOM      5  O   UNL A   1      35.633  23.704  25.215  1.00  0.00    -0.460 OA
BRANCH   5   6
ATOM      6  C   UNL A   1      34.566  23.938  24.241  1.00  0.00     0.339 C 
ATOM      7  O   UNL A   1      34.390  24.872  23.460  1.00  0.00    -0.246 OA
BRANCH   6   8
ATOM      8  C   UNL A   1      33.351  23.140  24.246  1.00  0.00     0.075 A 
ATOM      9  C   UNL A   1      32.946  20.765  24.591  1.00  0.00     0.074 A 
ATOM     10  C   UNL A   1      33.699  21.811  24.052  1.00  0.00     0.045 A 
ATOM     11  N   UNL A   1      31.780  20.851  25.256  1.00  0.00    -0.226 NA
ATOM     12  C   UNL A   1      31.383  22.122  25.470  1.00  0.00     0.182 A 
ATOM     13  C   UNL A   1      32.122  23.304  25.016  1.00  0.00     0.061 A 
ATOM     14  N   UNL A   1      30.285  22.411  26.153  1.00  0.00    -0.154 NA
ATOM     15  C   UNL A   1      31.349  24.361  25.548  1.00  0.00     0.076 A 
ATOM     16  N   UNL A   1      30.304  23.728  26.207  1.00  0.00    -0.275 N 
ATOM     17  H   UNL A   1      29.613  24.236  26.690  1.00  0.00     0.190 HD
BRANCH   9  18
ATOM     18  C   UNL A   1      33.499  19.441  24.408  1.00  0.00     0.000 A 
ATOM     19  C   UNL A   1      35.050  15.523  25.108  1.00  0.00     0.044 C 
ATOM     20  C   UNL A   1      34.504  16.877  24.786  1.00  0.00    -0.051 A 
ATOM     21  C   UNL A   1      35.360  17.985  24.841  1.00  0.00     0.004 A 
ATOM     22  C   UNL A   1      33.154  17.049  24.459  1.00  0.00     0.004 A 
ATOM     23  C   UNL A   1      34.861  19.262  24.644  1.00  0.00     0.010 A 
ATOM     24  C   UNL A   1      32.651  18.329  24.267  1.00  0.00     0.010 A 
ENDBRANCH   9  18
BRANCH  15  25
ATOM     25  C   UNL A   1      31.155  25.827  25.586  1.00  0.00     0.007 A 
ATOM     26  C   UNL A   1      30.306  26.449  24.641  1.00  0.00     0.011 A 
ATOM     27  C   UNL A   1      32.141  26.636  26.182  1.00  0.00     0.096 A 
ATOM     28  C   UNL A   1      30.431  27.813  24.311  1.00  0.00     0.008 A 
ATOM     29  C   UNL A   1      32.228  28.017  25.890  1.00  0.00     0.270 A 
ATOM     30  C   UNL A   1      31.388  28.606  24.939  1.00  0.00     0.085 A 
BRANCH  29  31
ATOM     31  N   UNL A   1      33.167  28.868  26.639  1.00  0.00     0.062 N 
ATOM     32  O   UNL A   1      32.775  29.989  26.994  1.00  0.00    -0.258 OA
ATOM     33  O   UNL A   1      34.279  28.394  26.903  1.00  0.00    -0.258 OA
ENDBRANCH  29  31
ENDBRANCH  15  25
ENDBRANCH   6   8
ENDBRANCH   5   6
ENDBRANCH   4   5
ENDBRANCH   3   4
ENDBRANCH   2   3
ENDBRANCH   1   2
BRANCH   1  34
ATOM     34  C   UNL A   1      40.757  19.684  26.079  1.00  0.00     0.188 C 
BRANCH  34  35
ATOM     35  O   UNL A   1      41.988  19.311  26.674  1.00  0.00    -0.376 OA
BRANCH  35  36
ATOM     36  C   UNL A   1      42.737  18.243  26.140  1.00  0.00     0.202 C 
BRANCH  36  37
ATOM     37  C   UNL A   1      43.741  18.700  25.069  1.00  0.00     0.261 C 
BRANCH  37  38
ATOM     38  O   UNL A   1      45.019  19.041  25.657  1.00  0.00    -0.460 OA
BRANCH  38  39
ATOM     39  C   UNL A   1      45.769  19.940  24.946  1.00  0.00     0.338 C 
ATOM     40  O   UNL A   1      46.803  19.670  24.357  1.00  0.00    -0.246 OA
BRANCH  39  41
ATOM     41  C   UNL A   1      45.278  21.333  25.183  1.00  0.00     0.060 A 
ATOM     42  C   UNL A   1      46.078  22.453  25.421  1.00  0.00     0.016 A 
ATOM     43  C   UNL A   1      43.986  21.472  25.530  1.00  0.00     0.016 A 
ATOM     44  C   UNL A   1      45.576  23.662  26.076  1.00  0.00     0.010 A 
ATOM     45  C   UNL A   1      43.722  22.480  26.463  1.00  0.00     0.010 A 
ATOM     46  C   UNL A   1      44.349  23.726  26.720  1.00  0.00    -0.014 A 
BRANCH  46  47
ATOM     47  C   UNL A   1      43.734  25.034  27.610  1.00  0.00     0.031 A 
ATOM     48  C   UNL A   1      42.305  26.038  27.459  1.00  0.00     0.074 A 
ATOM     49  C   UNL A   1      44.491  25.503  28.634  1.00  0.00     0.049 A 
ATOM     50  N   UNL A   1      42.205  27.262  27.959  1.00  0.00    -0.248 NA
ATOM     51  C   UNL A   1      40.998  25.818  26.760  1.00  0.00     0.031 C 
ATOM     52  C   UNL A   1      44.086  26.456  29.668  1.00  0.00     0.029 A 
ATOM     53  N   UNL A   1      45.852  25.348  28.854  1.00  0.00    -0.354 N 
ATOM     54  C   UNL A   1      40.888  27.736  27.863  1.00  0.00     0.074 A 
ATOM     55  C   UNL A   1      40.182  26.800  27.091  1.00  0.00     0.031 C 
ATOM     56  C   UNL A   1      45.173  27.061  30.157  1.00  0.00     0.029 A 
ATOM     57  C   UNL A   1      46.324  26.528  29.468  1.00  0.00     0.049 A 
ATOM     58  H   UNL A   1      46.392  24.558  28.623  1.00  0.00     0.167 HD
ATOM     59  C   UNL A   1      40.405  28.854  28.468  1.00  0.00     0.031 A 
ATOM     60  C   UNL A   1      47.353  27.251  28.950  1.00  0.00     0.031 A 
ATOM     61  C   UNL A   1      41.472  29.638  29.019  1.00  0.00     0.049 A 
ATOM     62  C   UNL A   1      46.973  28.649  28.497  1.00  0.00     0.074 A 
ATOM     63  C   UNL A   1      41.990  29.815  30.286  1.00  0.00     0.029 A 
ATOM     64  N   UNL A   1      42.390  30.163  28.130  1.00  0.00    -0.354 N 
ATOM     65  N   UNL A   1      45.843  29.245  28.766  1.00  0.00    -0.248 NA
ATOM     66  C   UNL A   1      47.823  29.466  27.632  1.00  0.00     0.031 C 
ATOM     67  C   UNL A   1      43.273  30.407  30.145  1.00  0.00     0.029 A 
ATOM     68  C   UNL A   1      43.507  30.611  28.798  1.00  0.00     0.049 A 
ATOM     69  H   UNL A   1      42.263  30.208  27.155  1.00  0.00     0.167 HD
ATOM     70  C   UNL A   1      45.753  30.421  28.050  1.00  0.00     0.074 A 
ATOM     71  C   UNL A   1      47.049  30.544  27.412  1.00  0.00     0.031 C 
ATOM     72  C   UNL A   1      44.600  31.158  28.007  1.00  0.00     0.031 A 
BRANCH  59  73
ATOM     73  C   UNL A   1      38.920  29.047  28.765  1.00  0.00    -0.014 A 
ATOM     74  C   UNL A   1      38.134  29.748  27.834  1.00  0.00     0.009 A 
ATOM     75  C   UNL A   1      38.264  28.699  29.964  1.00  0.00     0.009 A 
ATOM     76  C   UNL A   1      36.847  30.218  28.143  1.00  0.00     0.001 A 
ATOM     77  C   UNL A   1      37.000  29.216  30.306  1.00  0.00     0.001 A 
ATOM     78  C   UNL A   1      36.301  29.998  29.400  1.00  0.00     0.000 A 
ENDBRANCH  59  73
BRANCH  60  79
ATOM     79  C   UNL A   1      48.419  26.379  28.388  1.00  0.00    -0.014 A 
ATOM     80  C   UNL A   1      48.375  26.048  27.023  1.00  0.00     0.009 A 
ATOM     81  C   UNL A   1      49.655  26.330  29.026  1.00  0.00     0.009 A 
ATOM     82  C   UNL A   1      49.550  25.797  26.298  1.00  0.00     0.001 A 
ATOM     83  C   UNL A   1      50.826  26.137  28.281  1.00  0.00     0.001 A 
ATOM     84  C   UNL A   1      50.785  25.888  26.920  1.00  0.00     0.000 A 
ENDBRANCH  60  79
BRANCH  72  85
ATOM     85  C   UNL A   1      44.302  32.431  27.221  1.00  0.00    -0.014 A 
ATOM     86  C   UNL A   1      44.285  32.553  25.829  1.00  0.00     0.009 A 
ATOM     87  C   UNL A   1      43.933  33.597  27.944  1.00  0.00     0.009 A 
ATOM     88  C   UNL A   1      43.948  33.767  25.200  1.00  0.00     0.001 A 
ATOM     89  C   UNL A   1      43.552  34.792  27.327  1.00  0.00     0.001 A 
ATOM     90  C   UNL A   1      43.571  34.881  25.947  1.00  0.00     0.000 A 
ENDBRANCH  72  85
ENDBRANCH  46  47
ENDBRANCH  39  41
ENDBRANCH  38  39
ENDBRANCH  37  38
ENDBRANCH  36  37
ENDBRANCH  35  36
ENDBRANCH  34  35
ENDBRANCH   1  34
TORSDOF 20
ENDMDL
MODEL 3
REMARK VINA RESULT:     -13.5      3.954      9.020
REMARK SMILES Cc1ccc(-c2cc(C(=O)OCCOCCOCCOC(=O)c3ccc(-c4c5nc(c(-c6ccccc6)c6ccc([nH]6)c(-c6ccccc6)c6nc(c(-c7ccccc7)c7ccc4[nH]7)C=C6)C=C5)cc3)c3c(-c4cccc([N+](=O)[O-])c4)[nH]nc3n2)cc1
REMARK SMILES IDX 15 1 14 2 13 3 12 4 11 5 9 6 10 7 8 8 6 9 7 10 85 11 84 12
REMARK SMILES IDX 71 13 83 14 72 15 82 16 5 18 1 19 2 20 3 21 87 22 4 23 86 24
REMARK SMILES IDX 73 25 74 26 81 27 75 28 77 29 76 30 78 31 79 32 80 33 16 34
REMARK SMILES IDX 17 35 18 36 19 37 20 38 21 39 22 40 23 41 24 42 70 43 25 44
REMARK SMILES IDX 69 45 26 46 27 47 28 48 63 49 29 50 68 51 62 52 64 53 30 54
REMARK SMILES IDX 67 55 61 56 60 57 31 59 53 60 38 61 52 62 39 63 42 64 51 65
REMARK SMILES IDX 65 66 40 67 41 68 50 70 66 71 43 72 32 73 33 74 37 75 34 76
REMARK SMILES IDX 36 77 35 78 54 79 55 80 59 81 56 82 58 83 57 84 44 85 45 86
REMARK SMILES IDX 49 87 46 88 48 89 47 90
REMARK H PARENT 82 17 64 58 42 69
REMARK Flexibility Score: inf
ROOT
ATOM      1  C   UNL A   1      38.807  22.080  25.892  1.00  0.00     0.188 C 
ENDROOT
BRANCH   1   2
ATOM      2  O   UNL A   1      37.484  22.104  25.285  1.00  0.00    -0.376 OA
BRANCH   2   3
ATOM      3  C   UNL A   1      36.994  23.318  24.649  1.00  0.00     0.202 C 
BRANCH   3   4
ATOM      4  C   UNL A   1      35.820  23.204  23.400  1.00  0.00     0.261 C 
BRANCH   4   5
ATOM      5  O   UNL A   1      34.441  24.234  23.005  1.00  0.00    -0.460 OA
BRANCH   5   6
ATOM      6  C   UNL A   1      33.011  24.274  22.695  1.00  0.00     0.339 C 
ATOM      7  O   UNL A   1      32.383  24.995  21.923  1.00  0.00    -0.246 OA
BRANCH   6   8
ATOM      8  C   UNL A   1      32.042  23.562  23.512  1.00  0.00     0.075 A 
ATOM      9  C   UNL A   1      32.056  21.350  24.527  1.00  0.00     0.074 A 
ATOM     10  C   UNL A   1      32.335  22.207  23.460  1.00  0.00     0.045 A 
ATOM     11  N   UNL A   1      31.406  21.645  25.668  1.00  0.00    -0.226 NA
ATOM     12  C   UNL A   1      31.086  22.950  25.775  1.00  0.00     0.182 A 
ATOM     13  C   UNL A   1      31.388  23.959  24.755  1.00  0.00     0.061 A 
ATOM     14  N   UNL A   1      30.488  23.443  26.850  1.00  0.00    -0.154 NA
ATOM     15  C   UNL A   1      30.930  25.148  25.368  1.00  0.00     0.076 A 
ATOM     16  N   UNL A   1      30.434  24.735  26.597  1.00  0.00    -0.275 N 
ATOM     17  H   UNL A   1      30.062  25.374  27.246  1.00  0.00     0.190 HD
BRANCH   9  18
ATOM     18  C   UNL A   1      32.529  19.991  24.376  1.00  0.00     0.000 A 
ATOM     19  C   UNL A   1      34.547  16.495  22.983  1.00  0.00     0.044 C 
ATOM     20  C   UNL A   1      33.819  17.678  23.535  1.00  0.00    -0.051 A 
ATOM     21  C   UNL A   1      32.603  18.058  22.952  1.00  0.00     0.004 A 
ATOM     22  C   UNL A   1      34.349  18.416  24.599  1.00  0.00     0.004 A 
ATOM     23  C   UNL A   1      31.956  19.207  23.377  1.00  0.00     0.010 A 
ATOM     24  C   UNL A   1      33.704  19.571  25.023  1.00  0.00     0.010 A 
ENDBRANCH   9  18
BRANCH  15  25
ATOM     25  C   UNL A   1      30.675  26.593  25.181  1.00  0.00     0.007 A 
ATOM     26  C   UNL A   1      30.012  27.045  24.017  1.00  0.00     0.011 A 
ATOM     27  C   UNL A   1      31.488  27.527  25.850  1.00  0.00     0.096 A 
ATOM     28  C   UNL A   1      30.147  28.367  23.547  1.00  0.00     0.008 A 
ATOM     29  C   UNL A   1      31.579  28.868  25.408  1.00  0.00     0.270 A 
ATOM     30  C   UNL A   1      30.925  29.286  24.245  1.00  0.00     0.085 A 
BRANCH  29  31
ATOM     31  N   UNL A   1      32.313  29.858  26.212  1.00  0.00     0.062 N 
ATOM     32  O   UNL A   1      33.537  29.948  26.042  1.00  0.00    -0.258 OA
ATOM     33  O   UNL A   1      31.655  30.568  26.982  1.00  0.00    -0.258 OA
ENDBRANCH  29  31
ENDBRANCH  15  25
ENDBRANCH   6   8
ENDBRANCH   5   6
ENDBRANCH   4   5
ENDBRANCH   3   4
ENDBRANCH   2   3
ENDBRANCH   1   2
BRANCH   1  34
ATOM     34  C   UNL A   1      39.439  20.656  25.786  1.00  0.00     0.188 C 
BRANCH  34  35
ATOM     35  O   UNL A   1      40.367  20.529  26.849  1.00  0.00    -0.376 OA
BRANCH  35  36
ATOM     36  C   UNL A   1      41.555  19.794  26.666  1.00  0.00     0.202 C 
BRANCH  36  37
ATOM     37  C   UNL A   1      42.688  20.637  26.060  1.00  0.00     0.261 C 
BRANCH  37  38
ATOM     38  O   UNL A   1      42.674  21.989  26.577  1.00  0.00    -0.460 OA
BRANCH  38  39
ATOM     39  C   UNL A   1      42.563  22.976  25.633  1.00  0.00     0.338 C 
ATOM     40  O   UNL A   1      43.121  22.964  24.548  1.00  0.00    -0.246 OA
BRANCH  39  41
ATOM     41  C   UNL A   1      41.860  24.166  26.202  1.00  0.00     0.060 A 
ATOM     42  C   UNL A   1      41.920  25.469  25.700  1.00  0.00     0.016 A 
ATOM     43  C   UNL A   1      41.416  24.065  27.467  1.00  0.00     0.016 A 
ATOM     44  C   UNL A   1      41.605  26.647  26.510  1.00  0.00     0.010 A 
ATOM     45  C   UNL A   1      41.516  25.230  28.232  1.00  0.00     0.010 A 
ATOM     46  C   UNL A   1      41.447  26.604  27.887  1.00  0.00    -0.014 A 
BRANCH  46  47
ATOM     47  C   UNL A   1      41.204  27.926  28.925  1.00  0.00     0.031 A 
ATOM     48  C   UNL A   1      39.970  29.164  29.043  1.00  0.00     0.074 A 
ATOM     49  C   UNL A   1      42.168  28.181  29.846  1.00  0.00     0.049 A 
ATOM     50  N   UNL A   1      40.159  30.345  29.614  1.00  0.00    -0.248 NA
ATOM     51  C   UNL A   1      38.560  29.221  28.539  1.00  0.00     0.031 C 
ATOM     52  C   UNL A   1      42.088  29.107  30.976  1.00  0.00     0.029 A 
ATOM     53  N   UNL A   1      43.498  27.783  29.849  1.00  0.00    -0.354 N 
ATOM     54  C   UNL A   1      38.947  31.040  29.743  1.00  0.00     0.074 A 
ATOM     55  C   UNL A   1      37.986  30.297  29.040  1.00  0.00     0.031 C 
ATOM     56  C   UNL A   1      43.323  29.481  31.325  1.00  0.00     0.029 A 
ATOM     57  C   UNL A   1      44.253  28.816  30.444  1.00  0.00     0.049 A 
ATOM     58  H   UNL A   1      43.851  26.933  29.499  1.00  0.00     0.167 HD
ATOM     59  C   UNL A   1      38.760  32.174  30.470  1.00  0.00     0.031 A 
ATOM     60  C   UNL A   1      45.311  29.394  29.814  1.00  0.00     0.031 A 
ATOM     61  C   UNL A   1      40.016  32.723  30.893  1.00  0.00     0.049 A 
ATOM     62  C   UNL A   1      45.125  30.865  29.495  1.00  0.00     0.074 A 
ATOM     63  C   UNL A   1      40.729  32.712  32.074  1.00  0.00     0.029 A 
ATOM     64  N   UNL A   1      40.878  33.152  29.903  1.00  0.00    -0.354 N 
ATOM     65  N   UNL A   1      44.169  31.621  29.962  1.00  0.00    -0.248 NA
ATOM     66  C   UNL A   1      45.978  31.592  28.555  1.00  0.00     0.031 C 
ATOM     67  C   UNL A   1      42.064  33.089  31.772  1.00  0.00     0.029 A 
ATOM     68  C   UNL A   1      42.140  33.354  30.417  1.00  0.00     0.049 A 
ATOM     69  H   UNL A   1      40.627  33.293  28.962  1.00  0.00     0.167 HD
ATOM     70  C   UNL A   1      44.190  32.846  29.329  1.00  0.00     0.074 A 
ATOM     71  C   UNL A   1      45.384  32.799  28.510  1.00  0.00     0.031 C 
ATOM     72  C   UNL A   1      43.191  33.768  29.499  1.00  0.00     0.031 A 
BRANCH  59  73
ATOM     73  C   UNL A   1      37.389  32.590  30.998  1.00  0.00    -0.014 A 
ATOM     74  C   UNL A   1      37.037  32.230  32.310  1.00  0.00     0.009 A 
ATOM     75  C   UNL A   1      36.364  33.202  30.248  1.00  0.00     0.009 A 
ATOM     76  C   UNL A   1      35.716  32.314  32.782  1.00  0.00     0.001 A 
ATOM     77  C   UNL A   1      35.028  33.235  30.688  1.00  0.00     0.001 A 
ATOM     78  C   UNL A   1      34.701  32.766  31.951  1.00  0.00     0.000 A 
ENDBRANCH  59  73
BRANCH  60  79
ATOM     79  C   UNL A   1      46.116  28.400  29.054  1.00  0.00    -0.014 A 
ATOM     80  C   UNL A   1      46.929  27.500  29.765  1.00  0.00     0.009 A 
ATOM     81  C   UNL A   1      45.699  28.027  27.780  1.00  0.00     0.009 A 
ATOM     82  C   UNL A   1      47.208  26.220  29.261  1.00  0.00     0.001 A 
ATOM     83  C   UNL A   1      45.934  26.726  27.314  1.00  0.00     0.001 A 
ATOM     84  C   UNL A   1      46.669  25.815  28.051  1.00  0.00     0.000 A 
ENDBRANCH  60  79
BRANCH  72  85
ATOM     85  C   UNL A   1      43.017  35.129  28.833  1.00  0.00    -0.014 A 
ATOM     86  C   UNL A   1      42.484  35.361  27.561  1.00  0.00     0.009 A 
ATOM     87  C   UNL A   1      43.352  36.291  29.579  1.00  0.00     0.009 A 
ATOM     88  C   UNL A   1      42.321  36.666  27.058  1.00  0.00     0.001 A 
ATOM     89  C   UNL A   1      43.148  37.591  29.106  1.00  0.00     0.001 A 
ATOM     90  C   UNL A   1      42.641  37.778  27.833  1.00  0.00     0.000 A 
ENDBRANCH  72  85
ENDBRANCH  46  47
ENDBRANCH  39  41
ENDBRANCH  38  39
ENDBRANCH  37  38
ENDBRANCH  36  37
ENDBRANCH  35  36
ENDBRANCH  34  35
ENDBRANCH   1  34
TORSDOF 20
ENDMDL
