MODEL 1
REMARK VINA RESULT:     -10.3      0.000      0.000
REMARK SMILES O=C(OCCOCCOCCOC(=O)[C@]12COc3ccccc3[C@H]1C[N@H+](CCO)C2)c1ccc(-c2c3nc(c(-c4ccccc4)c4ccc([nH]4)c(-c4ccccc4)c4nc(c(-c5ccccc5)c5ccc2[nH]5)C=C4)C=C3)cc1
REMARK SMILES IDX 8 1 7 2 6 3 5 4 4 5 3 6 2 7 1 8 31 9 32 10 78 11 33 12 77 13
REMARK SMILES IDX 34 14 35 15 36 16 71 17 37 18 76 19 70 20 72 21 38 22 75 23
REMARK SMILES IDX 69 24 68 25 39 27 61 28 46 29 60 30 47 31 50 32 59 33 73 34
REMARK SMILES IDX 48 35 49 36 58 38 74 39 51 40 40 41 41 42 45 43 42 44 44 45
REMARK SMILES IDX 43 46 62 47 63 48 67 49 64 50 66 51 65 52 52 53 53 54 57 55
REMARK SMILES IDX 54 56 56 57 55 58 9 59 10 60 11 61 12 62 13 63 14 64 15 65
REMARK SMILES IDX 16 66 24 67 30 68 17 69 23 70 25 71 26 72 18 73 22 74 19 76
REMARK SMILES IDX 21 77 20 78 27 79 28 80 29 81
REMARK H PARENT 72 26 50 37 26 75 29 82
REMARK Flexibility Score: inf
ROOT
ATOM      1  C   UNL A   1      35.074  32.891  28.089  1.00  0.00     0.188 C 
ENDROOT
BRANCH   1   2
ATOM      2  C   UNL A   1      35.109  34.199  28.893  1.00  0.00     0.188 C 
BRANCH   2   3
ATOM      3  O   UNL A   1      34.801  35.367  28.125  1.00  0.00    -0.376 OA
BRANCH   3   4
ATOM      4  C   UNL A   1      33.940  36.277  28.817  1.00  0.00     0.202 C 
BRANCH   4   5
ATOM      5  C   UNL A   1      32.744  35.651  29.544  1.00  0.00     0.261 C 
BRANCH   5   6
ATOM      6  O   UNL A   1      32.348  36.324  30.743  1.00  0.00    -0.460 OA
BRANCH   6   7
ATOM      7  C   UNL A   1      32.850  36.204  31.989  1.00  0.00     0.338 C 
ATOM      8  O   UNL A   1      32.477  37.026  32.831  1.00  0.00    -0.246 OA
BRANCH   7   9
ATOM      9  C   UNL A   1      33.901  35.211  32.397  1.00  0.00     0.060 A 
ATOM     10  C   UNL A   1      35.216  35.683  32.347  1.00  0.00     0.016 A 
ATOM     11  C   UNL A   1      33.726  33.879  32.790  1.00  0.00     0.016 A 
ATOM     12  C   UNL A   1      36.295  34.826  32.575  1.00  0.00     0.010 A 
ATOM     13  C   UNL A   1      34.811  33.011  33.007  1.00  0.00     0.010 A 
ATOM     14  C   UNL A   1      36.116  33.463  32.862  1.00  0.00    -0.014 A 
BRANCH  14  15
ATOM     15  C   UNL A   1      37.299  32.616  33.175  1.00  0.00     0.031 A 
ATOM     16  C   UNL A   1      37.825  31.522  32.282  1.00  0.00     0.074 A 
ATOM     17  C   UNL A   1      37.939  32.887  34.329  1.00  0.00     0.049 A 
ATOM     18  N   UNL A   1      38.941  30.838  32.404  1.00  0.00    -0.248 NA
ATOM     19  C   UNL A   1      37.008  31.114  31.129  1.00  0.00     0.031 C 
ATOM     20  C   UNL A   1      37.498  33.887  35.304  1.00  0.00     0.029 A 
ATOM     21  N   UNL A   1      39.095  32.384  34.861  1.00  0.00    -0.354 N 
ATOM     22  C   UNL A   1      38.989  29.969  31.318  1.00  0.00     0.074 A 
ATOM     23  C   UNL A   1      37.748  30.143  30.598  1.00  0.00     0.031 C 
ATOM     24  C   UNL A   1      38.416  33.989  36.266  1.00  0.00     0.029 A 
ATOM     25  C   UNL A   1      39.448  32.985  36.042  1.00  0.00     0.049 A 
ATOM     26  H   UNL A   1      39.619  31.666  34.439  1.00  0.00     0.167 HD
ATOM     27  C   UNL A   1      39.984  29.119  30.959  1.00  0.00     0.031 A 
ATOM     28  C   UNL A   1      40.465  32.748  36.888  1.00  0.00     0.031 A 
ATOM     29  C   UNL A   1      41.165  28.870  31.750  1.00  0.00     0.049 A 
ATOM     30  C   UNL A   1      41.465  31.696  36.547  1.00  0.00     0.074 A 
ATOM     31  C   UNL A   1      42.223  28.023  31.461  1.00  0.00     0.029 A 
ATOM     32  N   UNL A   1      41.418  29.413  32.997  1.00  0.00    -0.354 N 
ATOM     33  N   UNL A   1      41.542  30.963  35.464  1.00  0.00    -0.248 NA
ATOM     34  C   UNL A   1      42.513  31.434  37.538  1.00  0.00     0.031 C 
ATOM     35  C   UNL A   1      43.057  27.972  32.579  1.00  0.00     0.029 A 
ATOM     36  C   UNL A   1      42.573  28.859  33.527  1.00  0.00     0.049 A 
ATOM     37  H   UNL A   1      40.861  30.092  33.442  1.00  0.00     0.167 HD
ATOM     38  C   UNL A   1      42.639  30.136  35.647  1.00  0.00     0.074 A 
ATOM     39  C   UNL A   1      43.219  30.491  36.927  1.00  0.00     0.031 C 
ATOM     40  C   UNL A   1      43.113  29.167  34.826  1.00  0.00     0.031 A 
BRANCH  27  41
ATOM     41  C   UNL A   1      39.896  28.372  29.653  1.00  0.00    -0.014 A 
ATOM     42  C   UNL A   1      39.510  27.023  29.621  1.00  0.00     0.009 A 
ATOM     43  C   UNL A   1      40.412  28.946  28.481  1.00  0.00     0.009 A 
ATOM     44  C   UNL A   1      39.637  26.272  28.446  1.00  0.00     0.001 A 
ATOM     45  C   UNL A   1      40.498  28.208  27.297  1.00  0.00     0.001 A 
ATOM     46  C   UNL A   1      40.121  26.868  27.283  1.00  0.00     0.000 A 
ENDBRANCH  27  41
BRANCH  28  47
ATOM     47  C   UNL A   1      40.513  33.546  38.140  1.00  0.00    -0.014 A 
ATOM     48  C   UNL A   1      41.418  34.621  38.242  1.00  0.00     0.009 A 
ATOM     49  C   UNL A   1      39.834  33.115  39.285  1.00  0.00     0.009 A 
ATOM     50  C   UNL A   1      41.713  35.181  39.483  1.00  0.00     0.001 A 
ATOM     51  C   UNL A   1      40.101  33.710  40.520  1.00  0.00     0.001 A 
ATOM     52  C   UNL A   1      41.059  34.720  40.623  1.00  0.00     0.000 A 
ENDBRANCH  28  47
BRANCH  40  53
ATOM     53  C   UNL A   1      44.298  28.380  35.309  1.00  0.00    -0.014 A 
ATOM     54  C   UNL A   1      44.112  27.206  36.055  1.00  0.00     0.009 A 
ATOM     55  C   UNL A   1      45.606  28.826  35.060  1.00  0.00     0.009 A 
ATOM     56  C   UNL A   1      45.210  26.493  36.539  1.00  0.00     0.001 A 
ATOM     57  C   UNL A   1      46.703  28.090  35.511  1.00  0.00     0.001 A 
ATOM     58  C   UNL A   1      46.503  26.928  36.256  1.00  0.00     0.000 A 
ENDBRANCH  40  53
ENDBRANCH  14  15
ENDBRANCH   7   9
ENDBRANCH   6   7
ENDBRANCH   5   6
ENDBRANCH   4   5
ENDBRANCH   3   4
ENDBRANCH   2   3
ENDBRANCH   1   2
BRANCH   1  59
ATOM     59  O   UNL A   1      33.874  32.129  28.107  1.00  0.00    -0.376 OA
BRANCH  59  60
ATOM     60  C   UNL A   1      33.853  30.855  27.473  1.00  0.00     0.202 C 
BRANCH  60  61
ATOM     61  C   UNL A   1      32.518  30.125  27.216  1.00  0.00     0.261 C 
BRANCH  61  62
ATOM     62  O   UNL A   1      32.514  29.033  26.261  1.00  0.00    -0.463 OA
BRANCH  62  63
ATOM     63  C   UNL A   1      31.954  27.873  26.728  1.00  0.00     0.322 C 
ATOM     64  O   UNL A   1      31.431  27.811  27.842  1.00  0.00    -0.251 OA
BRANCH  63  65
ATOM     65  C   UNL A   1      31.965  26.700  25.632  1.00  0.00     0.162 C 
ATOM     66  C   UNL A   1      33.558  26.738  25.903  1.00  0.00     0.255 C 
ATOM     67  C   UNL A   1      32.151  26.114  24.169  1.00  0.00     0.105 C 
ATOM     68  C   UNL A   1      30.908  27.786  24.898  1.00  0.00     0.285 C 
ATOM     69  O   UNL A   1      34.406  25.605  25.717  1.00  0.00    -0.492 OA
ATOM     70  C   UNL A   1      33.004  24.887  23.943  1.00  0.00     0.004 A 
ATOM     71  C   UNL A   1      30.766  25.918  23.585  1.00  0.00     0.272 C 
ATOM     72  N   UNL A   1      30.120  27.175  23.823  1.00  0.00    -0.331 N 
ATOM     73  C   UNL A   1      34.183  24.826  24.646  1.00  0.00     0.123 A 
ATOM     74  C   UNL A   1      32.802  23.925  22.936  1.00  0.00     0.008 A 
ATOM     75  H   UNL A   1      29.143  27.060  24.093  1.00  0.00     0.348 HD
ATOM     76  C   UNL A   1      35.192  23.935  24.298  1.00  0.00     0.047 A 
ATOM     77  C   UNL A   1      33.767  22.954  22.652  1.00  0.00     0.001 A 
ATOM     78  C   UNL A   1      34.982  22.975  23.318  1.00  0.00     0.004 A 
BRANCH  72  79
ATOM     79  C   UNL A   1      29.993  28.015  22.609  1.00  0.00     0.290 C 
BRANCH  79  80
ATOM     80  C   UNL A   1      30.812  29.323  22.493  1.00  0.00     0.217 C 
BRANCH  80  81
ATOM     81  O   UNL A   1      30.539  30.017  21.279  1.00  0.00    -0.391 OA
ATOM     82  H   UNL A   1      31.178  30.737  21.167  1.00  0.00     0.210 HD
ENDBRANCH  80  81
ENDBRANCH  79  80
ENDBRANCH  72  79
ENDBRANCH  63  65
ENDBRANCH  62  63
ENDBRANCH  61  62
ENDBRANCH  60  61
ENDBRANCH  59  60
ENDBRANCH   1  59
TORSDOF 20
ENDMDL
MODEL 2
REMARK VINA RESULT:     -10.2      4.317      7.194
REMARK SMILES O=C(OCCOCCOCCOC(=O)[C@]12COc3ccccc3[C@H]1C[N@H+](CCO)C2)c1ccc(-c2c3nc(c(-c4ccccc4)c4ccc([nH]4)c(-c4ccccc4)c4nc(c(-c5ccccc5)c5ccc2[nH]5)C=C4)C=C3)cc1
REMARK SMILES IDX 8 1 7 2 6 3 5 4 4 5 3 6 2 7 1 8 31 9 32 10 78 11 33 12 77 13
REMARK SMILES IDX 34 14 35 15 36 16 71 17 37 18 76 19 70 20 72 21 38 22 75 23
REMARK SMILES IDX 69 24 68 25 39 27 61 28 46 29 60 30 47 31 50 32 59 33 73 34
REMARK SMILES IDX 48 35 49 36 58 38 74 39 51 40 40 41 41 42 45 43 42 44 44 45
REMARK SMILES IDX 43 46 62 47 63 48 67 49 64 50 66 51 65 52 52 53 53 54 57 55
REMARK SMILES IDX 54 56 56 57 55 58 9 59 10 60 11 61 12 62 13 63 14 64 15 65
REMARK SMILES IDX 16 66 24 67 30 68 17 69 23 70 25 71 26 72 18 73 22 74 19 76
REMARK SMILES IDX 21 77 20 78 27 79 28 80 29 81
REMARK H PARENT 72 26 50 37 26 75 29 82
REMARK Flexibility Score: inf
ROOT
ATOM      1  C   UNL A   1      33.272  34.196  28.793  1.00  0.00     0.188 C 
ENDROOT
BRANCH   1   2
ATOM      2  C   UNL A   1      34.103  35.169  29.642  1.00  0.00     0.188 C 
BRANCH   2   3
ATOM      3  O   UNL A   1      34.658  34.586  30.826  1.00  0.00    -0.376 OA
BRANCH   3   4
ATOM      4  C   UNL A   1      33.850  34.809  31.986  1.00  0.00     0.202 C 
BRANCH   4   5
ATOM      5  C   UNL A   1      34.327  34.135  33.279  1.00  0.00     0.261 C 
BRANCH   5   6
ATOM      6  O   UNL A   1      34.893  32.832  33.105  1.00  0.00    -0.460 OA
BRANCH   6   7
ATOM      7  C   UNL A   1      36.127  32.393  33.428  1.00  0.00     0.338 C 
ATOM      8  O   UNL A   1      36.505  32.570  34.589  1.00  0.00    -0.246 OA
BRANCH   7   9
ATOM      9  C   UNL A   1      37.106  31.800  32.455  1.00  0.00     0.060 A 
ATOM     10  C   UNL A   1      38.179  31.114  33.034  1.00  0.00     0.016 A 
ATOM     11  C   UNL A   1      37.089  31.874  31.057  1.00  0.00     0.016 A 
ATOM     12  C   UNL A   1      39.227  30.629  32.250  1.00  0.00     0.010 A 
ATOM     13  C   UNL A   1      38.151  31.397  30.266  1.00  0.00     0.010 A 
ATOM     14  C   UNL A   1      39.258  30.802  30.856  1.00  0.00    -0.014 A 
BRANCH  14  15
ATOM     15  C   UNL A   1      40.359  30.192  30.064  1.00  0.00     0.031 A 
ATOM     16  C   UNL A   1      40.332  28.794  29.500  1.00  0.00     0.074 A 
ATOM     17  C   UNL A   1      41.429  30.974  29.826  1.00  0.00     0.049 A 
ATOM     18  N   UNL A   1      41.180  28.235  28.667  1.00  0.00    -0.248 NA
ATOM     19  C   UNL A   1      39.250  27.895  29.929  1.00  0.00     0.031 C 
ATOM     20  C   UNL A   1      41.599  32.328  30.359  1.00  0.00     0.029 A 
ATOM     21  N   UNL A   1      42.546  30.771  29.061  1.00  0.00    -0.354 N 
ATOM     22  C   UNL A   1      40.706  26.949  28.427  1.00  0.00     0.074 A 
ATOM     23  C   UNL A   1      39.546  26.776  29.272  1.00  0.00     0.031 C 
ATOM     24  C   UNL A   1      42.701  32.866  29.835  1.00  0.00     0.029 A 
ATOM     25  C   UNL A   1      43.378  31.860  29.025  1.00  0.00     0.049 A 
ATOM     26  H   UNL A   1      42.733  29.930  28.586  1.00  0.00     0.167 HD
ATOM     27  C   UNL A   1      41.191  26.015  27.571  1.00  0.00     0.031 A 
ATOM     28  C   UNL A   1      44.575  32.044  28.442  1.00  0.00     0.031 A 
ATOM     29  C   UNL A   1      42.415  26.158  26.821  1.00  0.00     0.049 A 
ATOM     30  C   UNL A   1      45.165  30.941  27.630  1.00  0.00     0.074 A 
ATOM     31  C   UNL A   1      42.982  25.259  25.932  1.00  0.00     0.029 A 
ATOM     32  N   UNL A   1      43.284  27.231  26.912  1.00  0.00    -0.354 N 
ATOM     33  N   UNL A   1      44.644  29.776  27.335  1.00  0.00    -0.248 NA
ATOM     34  C   UNL A   1      46.501  31.172  27.075  1.00  0.00     0.031 C 
ATOM     35  C   UNL A   1      44.243  25.739  25.572  1.00  0.00     0.029 A 
ATOM     36  C   UNL A   1      44.421  26.981  26.159  1.00  0.00     0.049 A 
ATOM     37  H   UNL A   1      43.120  28.050  27.433  1.00  0.00     0.167 HD
ATOM     38  C   UNL A   1      45.597  29.121  26.571  1.00  0.00     0.074 A 
ATOM     39  C   UNL A   1      46.708  30.040  26.414  1.00  0.00     0.031 C 
ATOM     40  C   UNL A   1      45.551  27.868  26.055  1.00  0.00     0.031 A 
BRANCH  27  41
ATOM     41  C   UNL A   1      40.430  24.733  27.351  1.00  0.00    -0.014 A 
ATOM     42  C   UNL A   1      40.974  23.498  27.742  1.00  0.00     0.009 A 
ATOM     43  C   UNL A   1      39.275  24.730  26.556  1.00  0.00     0.009 A 
ATOM     44  C   UNL A   1      40.373  22.298  27.345  1.00  0.00     0.001 A 
ATOM     45  C   UNL A   1      38.651  23.532  26.196  1.00  0.00     0.001 A 
ATOM     46  C   UNL A   1      39.207  22.315  26.583  1.00  0.00     0.000 A 
ENDBRANCH  27  41
BRANCH  28  47
ATOM     47  C   UNL A   1      45.253  33.346  28.668  1.00  0.00    -0.014 A 
ATOM     48  C   UNL A   1      45.174  34.348  27.682  1.00  0.00     0.009 A 
ATOM     49  C   UNL A   1      46.141  33.509  29.737  1.00  0.00     0.009 A 
ATOM     50  C   UNL A   1      46.040  35.440  27.712  1.00  0.00     0.001 A 
ATOM     51  C   UNL A   1      46.976  34.628  29.786  1.00  0.00     0.001 A 
ATOM     52  C   UNL A   1      46.946  35.575  28.761  1.00  0.00     0.000 A 
ENDBRANCH  28  47
BRANCH  40  53
ATOM     53  C   UNL A   1      46.764  27.392  25.306  1.00  0.00    -0.014 A 
ATOM     54  C   UNL A   1      46.977  27.792  23.978  1.00  0.00     0.009 A 
ATOM     55  C   UNL A   1      47.679  26.512  25.906  1.00  0.00     0.009 A 
ATOM     56  C   UNL A   1      48.081  27.321  23.265  1.00  0.00     0.001 A 
ATOM     57  C   UNL A   1      48.804  26.075  25.205  1.00  0.00     0.001 A 
ATOM     58  C   UNL A   1      49.000  26.475  23.883  1.00  0.00     0.000 A 
ENDBRANCH  40  53
ENDBRANCH  14  15
ENDBRANCH   7   9
ENDBRANCH   6   7
ENDBRANCH   5   6
ENDBRANCH   4   5
ENDBRANCH   3   4
ENDBRANCH   2   3
ENDBRANCH   1   2
BRANCH   1  59
ATOM     59  O   UNL A   1      33.966  33.288  27.946  1.00  0.00    -0.376 OA
BRANCH  59  60
ATOM     60  C   UNL A   1      34.482  32.082  28.498  1.00  0.00     0.202 C 
BRANCH  60  61
ATOM     61  C   UNL A   1      34.631  30.818  27.625  1.00  0.00     0.261 C 
BRANCH  61  62
ATOM     62  O   UNL A   1      33.605  30.552  26.635  1.00  0.00    -0.463 OA
BRANCH  62  63
ATOM     63  C   UNL A   1      33.488  29.233  26.281  1.00  0.00     0.322 C 
ATOM     64  O   UNL A   1      34.071  28.344  26.902  1.00  0.00    -0.251 OA
BRANCH  63  65
ATOM     65  C   UNL A   1      32.443  29.010  25.082  1.00  0.00     0.162 C 
ATOM     66  C   UNL A   1      31.648  30.207  25.823  1.00  0.00     0.255 C 
ATOM     67  C   UNL A   1      31.117  28.430  24.432  1.00  0.00     0.105 C 
ATOM     68  C   UNL A   1      32.753  27.412  25.510  1.00  0.00     0.285 C 
ATOM     69  O   UNL A   1      30.768  31.098  25.138  1.00  0.00    -0.492 OA
ATOM     70  C   UNL A   1      30.187  29.336  23.659  1.00  0.00     0.004 A 
ATOM     71  C   UNL A   1      31.516  27.232  23.594  1.00  0.00     0.272 C 
ATOM     72  N   UNL A   1      32.330  26.455  24.483  1.00  0.00    -0.331 N 
ATOM     73  C   UNL A   1      29.962  30.580  24.198  1.00  0.00     0.123 A 
ATOM     74  C   UNL A   1      29.383  28.946  22.573  1.00  0.00     0.008 A 
ATOM     75  H   UNL A   1      33.130  26.039  24.006  1.00  0.00     0.348 HD
ATOM     76  C   UNL A   1      28.902  31.374  23.774  1.00  0.00     0.047 A 
ATOM     77  C   UNL A   1      28.384  29.786  22.068  1.00  0.00     0.001 A 
ATOM     78  C   UNL A   1      28.123  30.996  22.690  1.00  0.00     0.004 A 
BRANCH  72  79
ATOM     79  C   UNL A   1      31.646  25.254  25.014  1.00  0.00     0.290 C 
BRANCH  79  80
ATOM     80  C   UNL A   1      32.199  24.554  26.280  1.00  0.00     0.217 C 
BRANCH  80  81
ATOM     81  O   UNL A   1      31.162  24.212  27.195  1.00  0.00    -0.391 OA
ATOM     82  H   UNL A   1      31.314  24.664  28.040  1.00  0.00     0.210 HD
ENDBRANCH  80  81
ENDBRANCH  79  80
ENDBRANCH  72  79
ENDBRANCH  63  65
ENDBRANCH  62  63
ENDBRANCH  61  62
ENDBRANCH  60  61
ENDBRANCH  59  60
ENDBRANCH   1  59
TORSDOF 20
ENDMDL
MODEL 3
REMARK VINA RESULT:     -10.1      3.665      8.668
REMARK SMILES O=C(OCCOCCOCCOC(=O)[C@]12COc3ccccc3[C@H]1C[N@H+](CCO)C2)c1ccc(-c2c3nc(c(-c4ccccc4)c4ccc([nH]4)c(-c4ccccc4)c4nc(c(-c5ccccc5)c5ccc2[nH]5)C=C4)C=C3)cc1
REMARK SMILES IDX 8 1 7 2 6 3 5 4 4 5 3 6 2 7 1 8 31 9 32 10 78 11 33 12 77 13
REMARK SMILES IDX 34 14 35 15 36 16 71 17 37 18 76 19 70 20 72 21 38 22 75 23
REMARK SMILES IDX 69 24 68 25 39 27 61 28 46 29 60 30 47 31 50 32 59 33 73 34
REMARK SMILES IDX 48 35 49 36 58 38 74 39 51 40 40 41 41 42 45 43 42 44 44 45
REMARK SMILES IDX 43 46 62 47 63 48 67 49 64 50 66 51 65 52 52 53 53 54 57 55
REMARK SMILES IDX 54 56 56 57 55 58 9 59 10 60 11 61 12 62 13 63 14 64 15 65
REMARK SMILES IDX 16 66 24 67 30 68 17 69 23 70 25 71 26 72 18 73 22 74 19 76
REMARK SMILES IDX 21 77 20 78 27 79 28 80 29 81
REMARK H PARENT 72 26 50 37 26 75 29 82
REMARK Flexibility Score: inf
ROOT
ATOM      1  C   UNL A   1      32.460  21.466  25.040  1.00  0.00     0.188 C 
ENDROOT
BRANCH   1   2
ATOM      2  C   UNL A   1      33.632  21.669  26.011  1.00  0.00     0.188 C 
BRANCH   2   3
ATOM      3  O   UNL A   1      34.852  22.076  25.380  1.00  0.00    -0.376 OA
BRANCH   3   4
ATOM      4  C   UNL A   1      35.871  21.073  25.443  1.00  0.00     0.202 C 
BRANCH   4   5
ATOM      5  C   UNL A   1      37.287  21.528  25.071  1.00  0.00     0.261 C 
BRANCH   5   6
ATOM      6  O   UNL A   1      37.793  22.616  25.851  1.00  0.00    -0.460 OA
BRANCH   6   7
ATOM      7  C   UNL A   1      39.066  22.886  26.206  1.00  0.00     0.338 C 
ATOM      8  O   UNL A   1      39.880  21.961  26.141  1.00  0.00    -0.246 OA
BRANCH   7   9
ATOM      9  C   UNL A   1      39.539  24.196  26.770  1.00  0.00     0.060 A 
ATOM     10  C   UNL A   1      39.103  24.476  28.069  1.00  0.00     0.016 A 
ATOM     11  C   UNL A   1      40.330  25.170  26.150  1.00  0.00     0.016 A 
ATOM     12  C   UNL A   1      39.361  25.714  28.661  1.00  0.00     0.010 A 
ATOM     13  C   UNL A   1      40.580  26.422  26.739  1.00  0.00     0.010 A 
ATOM     14  C   UNL A   1      40.063  26.729  27.991  1.00  0.00    -0.014 A 
BRANCH  14  15
ATOM     15  C   UNL A   1      40.379  27.998  28.701  1.00  0.00     0.031 A 
ATOM     16  C   UNL A   1      39.441  29.174  28.805  1.00  0.00     0.074 A 
ATOM     17  C   UNL A   1      41.579  28.060  29.308  1.00  0.00     0.049 A 
ATOM     18  N   UNL A   1      39.573  30.258  29.535  1.00  0.00    -0.248 NA
ATOM     19  C   UNL A   1      38.223  29.164  27.981  1.00  0.00     0.031 C 
ATOM     20  C   UNL A   1      42.596  27.008  29.238  1.00  0.00     0.029 A 
ATOM     21  N   UNL A   1      42.135  29.013  30.118  1.00  0.00    -0.354 N 
ATOM     22  C   UNL A   1      38.435  31.026  29.307  1.00  0.00     0.074 A 
ATOM     23  C   UNL A   1      37.665  30.329  28.301  1.00  0.00     0.031 C 
ATOM     24  C   UNL A   1      43.609  27.330  30.045  1.00  0.00     0.029 A 
ATOM     25  C   UNL A   1      43.371  28.659  30.594  1.00  0.00     0.049 A 
ATOM     26  H   UNL A   1      41.693  29.865  30.336  1.00  0.00     0.167 HD
ATOM     27  C   UNL A   1      38.071  32.193  29.896  1.00  0.00     0.031 A 
ATOM     28  C   UNL A   1      44.251  29.325  31.362  1.00  0.00     0.031 A 
ATOM     29  C   UNL A   1      38.902  32.935  30.812  1.00  0.00     0.049 A 
ATOM     30  C   UNL A   1      43.890  30.679  31.872  1.00  0.00     0.074 A 
ATOM     31  C   UNL A   1      38.612  34.128  31.454  1.00  0.00     0.029 A 
ATOM     32  N   UNL A   1      40.195  32.594  31.169  1.00  0.00    -0.354 N 
ATOM     33  N   UNL A   1      42.765  31.334  31.726  1.00  0.00    -0.248 NA
ATOM     34  C   UNL A   1      44.914  31.387  32.646  1.00  0.00     0.031 C 
ATOM     35  C   UNL A   1      39.765  34.562  32.109  1.00  0.00     0.029 A 
ATOM     36  C   UNL A   1      40.745  33.594  31.957  1.00  0.00     0.049 A 
ATOM     37  H   UNL A   1      40.656  31.766  30.904  1.00  0.00     0.167 HD
ATOM     38  C   UNL A   1      42.948  32.544  32.377  1.00  0.00     0.074 A 
ATOM     39  C   UNL A   1      44.278  32.510  32.953  1.00  0.00     0.031 C 
ATOM     40  C   UNL A   1      42.088  33.588  32.476  1.00  0.00     0.031 A 
BRANCH  27  41
ATOM     41  C   UNL A   1      36.714  32.783  29.611  1.00  0.00    -0.014 A 
ATOM     42  C   UNL A   1      35.620  32.509  30.448  1.00  0.00     0.009 A 
ATOM     43  C   UNL A   1      36.472  33.428  28.389  1.00  0.00     0.009 A 
ATOM     44  C   UNL A   1      34.323  32.873  30.068  1.00  0.00     0.001 A 
ATOM     45  C   UNL A   1      35.182  33.830  28.030  1.00  0.00     0.001 A 
ATOM     46  C   UNL A   1      34.107  33.542  28.866  1.00  0.00     0.000 A 
ENDBRANCH  27  41
BRANCH  28  47
ATOM     47  C   UNL A   1      45.554  28.668  31.635  1.00  0.00    -0.014 A 
ATOM     48  C   UNL A   1      46.626  28.859  30.742  1.00  0.00     0.009 A 
ATOM     49  C   UNL A   1      45.665  27.698  32.638  1.00  0.00     0.009 A 
ATOM     50  C   UNL A   1      47.742  28.025  30.789  1.00  0.00     0.001 A 
ATOM     51  C   UNL A   1      46.806  26.894  32.708  1.00  0.00     0.001 A 
ATOM     52  C   UNL A   1      47.828  27.038  31.768  1.00  0.00     0.000 A 
ENDBRANCH  28  47
BRANCH  40  53
ATOM     53  C   UNL A   1      42.578  34.810  33.202  1.00  0.00    -0.014 A 
ATOM     54  C   UNL A   1      43.247  35.826  32.503  1.00  0.00     0.009 A 
ATOM     55  C   UNL A   1      42.411  34.935  34.590  1.00  0.00     0.009 A 
ATOM     56  C   UNL A   1      43.738  36.944  33.179  1.00  0.00     0.001 A 
ATOM     57  C   UNL A   1      42.867  36.073  35.257  1.00  0.00     0.001 A 
ATOM     58  C   UNL A   1      43.535  37.073  34.551  1.00  0.00     0.000 A 
ENDBRANCH  40  53
ENDBRANCH  14  15
ENDBRANCH   7   9
ENDBRANCH   6   7
ENDBRANCH   5   6
ENDBRANCH   4   5
ENDBRANCH   3   4
ENDBRANCH   2   3
ENDBRANCH   1   2
BRANCH   1  59
ATOM     59  O   UNL A   1      32.761  21.205  23.675  1.00  0.00    -0.376 OA
BRANCH  59  60
ATOM     60  C   UNL A   1      32.536  22.224  22.708  1.00  0.00     0.202 C 
BRANCH  60  61
ATOM     61  C   UNL A   1      31.861  23.554  23.108  1.00  0.00     0.261 C 
BRANCH  61  62
ATOM     62  O   UNL A   1      32.717  24.671  23.457  1.00  0.00    -0.463 OA
BRANCH  62  63
ATOM     63  C   UNL A   1      32.654  25.727  22.586  1.00  0.00     0.322 C 
ATOM     64  O   UNL A   1      32.662  25.559  21.365  1.00  0.00    -0.251 OA
BRANCH  63  65
ATOM     65  C   UNL A   1      32.455  27.132  23.337  1.00  0.00     0.162 C 
ATOM     66  C   UNL A   1      33.294  26.396  24.506  1.00  0.00     0.255 C 
ATOM     67  C   UNL A   1      31.749  28.118  24.361  1.00  0.00     0.105 C 
ATOM     68  C   UNL A   1      30.904  26.897  22.727  1.00  0.00     0.285 C 
ATOM     69  O   UNL A   1      34.099  27.102  25.449  1.00  0.00    -0.492 OA
ATOM     70  C   UNL A   1      32.575  28.917  25.342  1.00  0.00     0.004 A 
ATOM     71  C   UNL A   1      30.845  29.029  23.554  1.00  0.00     0.272 C 
ATOM     72  N   UNL A   1      30.097  28.122  22.734  1.00  0.00    -0.331 N 
ATOM     73  C   UNL A   1      33.617  28.254  25.944  1.00  0.00     0.123 A 
ATOM     74  C   UNL A   1      32.244  30.190  25.841  1.00  0.00     0.008 A 
ATOM     75  H   UNL A   1      29.956  28.483  21.791  1.00  0.00     0.348 HD
ATOM     76  C   UNL A   1      34.240  28.758  27.080  1.00  0.00     0.047 A 
ATOM     77  C   UNL A   1      32.939  30.754  26.916  1.00  0.00     0.001 A 
ATOM     78  C   UNL A   1      33.926  30.022  27.558  1.00  0.00     0.004 A 
BRANCH  72  79
ATOM     79  C   UNL A   1      28.701  27.928  23.187  1.00  0.00     0.290 C 
BRANCH  79  80
ATOM     80  C   UNL A   1      27.632  28.998  22.857  1.00  0.00     0.217 C 
BRANCH  80  81
ATOM     81  O   UNL A   1      26.310  28.522  23.097  1.00  0.00    -0.391 OA
ATOM     82  H   UNL A   1      26.138  28.513  24.051  1.00  0.00     0.210 HD
ENDBRANCH  80  81
ENDBRANCH  79  80
ENDBRANCH  72  79
ENDBRANCH  63  65
ENDBRANCH  62  63
ENDBRANCH  61  62
ENDBRANCH  60  61
ENDBRANCH  59  60
ENDBRANCH   1  59
TORSDOF 20
ENDMDL
