MODEL 1
REMARK VINA RESULT:      -9.6      0.000      0.000
REMARK SMILES C[C@@H]1CCC[C@@](Cc2ncccn2)(C(=O)OCCOCCOCCOC(=O)c2ccc(-c3c4nc(c(-c5ccccc5)c5ccc([nH]5)c(-c5ccccc5)c5nc(c(-c6ccccc6)c6ccc3[nH]6)C=C5)C=C4)cc2)C1
REMARK SMILES IDX 20 1 19 2 18 3 17 4 16 5 14 6 15 7 6 8 1 9 2 10 3 11 76 12
REMARK SMILES IDX 4 13 5 14 7 15 8 16 9 17 13 18 10 19 12 20 11 21 21 22 22 23
REMARK SMILES IDX 23 24 24 25 25 26 26 27 27 28 28 29 29 30 75 31 30 32 74 33
REMARK SMILES IDX 31 34 32 35 33 36 68 37 34 38 73 39 67 40 69 41 35 42 72 43
REMARK SMILES IDX 66 44 65 45 36 47 58 48 43 49 57 50 44 51 47 52 56 53 70 54
REMARK SMILES IDX 45 55 46 56 55 58 71 59 48 60 37 61 38 62 42 63 39 64 41 65
REMARK SMILES IDX 40 66 59 67 60 68 64 69 61 70 63 71 62 72 49 73 50 74 54 75
REMARK SMILES IDX 51 76 53 77 52 78
REMARK H PARENT 69 46 47 57
REMARK Flexibility Score: inf
ROOT
ATOM      1  C   UNL A   1      35.147  21.522  26.086  1.00  0.00     0.188 C 
ENDROOT
BRANCH   1   2
ATOM      2  O   UNL A   1      33.924  22.178  25.802  1.00  0.00    -0.376 OA
BRANCH   2   3
ATOM      3  C   UNL A   1      32.971  22.313  26.856  1.00  0.00     0.202 C 
BRANCH   3   4
ATOM      4  C   UNL A   1      31.865  23.382  26.761  1.00  0.00     0.261 C 
BRANCH   4   5
ATOM      5  O   UNL A   1      32.247  24.740  27.091  1.00  0.00    -0.463 OA
BRANCH   5   6
ATOM      6  C   UNL A   1      31.440  25.705  26.586  1.00  0.00     0.312 C 
ATOM      7  O   UNL A   1      30.222  25.567  26.463  1.00  0.00    -0.252 OA
BRANCH   6   8
ATOM      8  C   UNL A   1      32.130  27.028  26.173  1.00  0.00     0.075 C 
ATOM      9  C   UNL A   1      31.700  30.347  26.588  1.00  0.00     0.007 C 
ATOM     10  C   UNL A   1      32.504  29.341  27.413  1.00  0.00    -0.013 C 
ATOM     11  C   UNL A   1      33.980  29.294  27.017  1.00  0.00     0.003 C 
ATOM     12  C   UNL A   1      31.876  27.945  27.412  1.00  0.00     0.022 C 
ATOM     13  C   UNL A   1      34.239  28.454  25.766  1.00  0.00     0.001 C 
ATOM     14  C   UNL A   1      33.658  27.036  25.889  1.00  0.00     0.019 C 
BRANCH   8  15
ATOM     15  C   UNL A   1      31.349  27.472  24.901  1.00  0.00     0.096 C 
BRANCH  15  16
ATOM     16  C   UNL A   1      31.819  26.723  23.670  1.00  0.00     0.129 A 
ATOM     17  N   UNL A   1      32.471  27.429  22.727  1.00  0.00    -0.241 NA
ATOM     18  N   UNL A   1      31.748  25.379  23.693  1.00  0.00    -0.241 NA
ATOM     19  C   UNL A   1      33.116  26.719  21.782  1.00  0.00     0.115 A 
ATOM     20  C   UNL A   1      32.428  24.719  22.739  1.00  0.00     0.115 A 
ATOM     21  C   UNL A   1      33.147  25.346  21.751  1.00  0.00     0.040 A 
ENDBRANCH  15  16
ENDBRANCH   8  15
ENDBRANCH   6   8
ENDBRANCH   5   6
ENDBRANCH   4   5
ENDBRANCH   3   4
ENDBRANCH   2   3
ENDBRANCH   1   2
BRANCH   1  22
ATOM     22  C   UNL A   1      35.736  20.597  25.020  1.00  0.00     0.188 C 
BRANCH  22  23
ATOM     23  O   UNL A   1      37.127  20.688  24.834  1.00  0.00    -0.376 OA
BRANCH  23  24
ATOM     24  C   UNL A   1      37.891  21.619  25.581  1.00  0.00     0.202 C 
BRANCH  24  25
ATOM     25  C   UNL A   1      39.395  21.405  25.844  1.00  0.00     0.261 C 
BRANCH  25  26
ATOM     26  O   UNL A   1      39.997  22.169  26.901  1.00  0.00    -0.460 OA
BRANCH  26  27
ATOM     27  C   UNL A   1      41.063  22.944  26.587  1.00  0.00     0.338 C 
ATOM     28  O   UNL A   1      41.893  22.731  25.719  1.00  0.00    -0.246 OA
BRANCH  27  29
ATOM     29  C   UNL A   1      40.873  24.247  27.280  1.00  0.00     0.060 A 
ATOM     30  C   UNL A   1      41.833  25.256  27.094  1.00  0.00     0.016 A 
ATOM     31  C   UNL A   1      39.723  24.506  28.027  1.00  0.00     0.016 A 
ATOM     32  C   UNL A   1      41.656  26.515  27.673  1.00  0.00     0.010 A 
ATOM     33  C   UNL A   1      39.562  25.757  28.634  1.00  0.00     0.010 A 
ATOM     34  C   UNL A   1      40.541  26.758  28.485  1.00  0.00    -0.014 A 
BRANCH  34  35
ATOM     35  C   UNL A   1      40.506  27.955  29.364  1.00  0.00     0.031 A 
ATOM     36  C   UNL A   1      41.540  28.053  30.455  1.00  0.00     0.074 A 
ATOM     37  C   UNL A   1      39.601  28.939  29.210  1.00  0.00     0.049 A 
ATOM     38  N   UNL A   1      41.665  28.941  31.408  1.00  0.00    -0.248 NA
ATOM     39  C   UNL A   1      42.573  27.003  30.470  1.00  0.00     0.031 C 
ATOM     40  C   UNL A   1      38.584  29.009  28.164  1.00  0.00     0.029 A 
ATOM     41  N   UNL A   1      39.392  30.074  29.959  1.00  0.00    -0.354 N 
ATOM     42  C   UNL A   1      42.785  28.556  32.132  1.00  0.00     0.074 A 
ATOM     43  C   UNL A   1      43.284  27.338  31.534  1.00  0.00     0.031 C 
ATOM     44  C   UNL A   1      37.842  30.116  28.351  1.00  0.00     0.029 A 
ATOM     45  C   UNL A   1      38.308  30.813  29.550  1.00  0.00     0.049 A 
ATOM     46  H   UNL A   1      39.966  30.332  30.717  1.00  0.00     0.167 HD
ATOM     47  C   UNL A   1      43.357  29.164  33.198  1.00  0.00     0.031 A 
ATOM     48  C   UNL A   1      37.740  31.906  30.101  1.00  0.00     0.031 A 
ATOM     49  C   UNL A   1      42.857  30.360  33.815  1.00  0.00     0.049 A 
ATOM     50  C   UNL A   1      38.331  32.501  31.357  1.00  0.00     0.074 A 
ATOM     51  C   UNL A   1      43.359  31.039  34.912  1.00  0.00     0.029 A 
ATOM     52  N   UNL A   1      41.736  31.056  33.391  1.00  0.00    -0.354 N 
ATOM     53  N   UNL A   1      39.395  32.134  32.031  1.00  0.00    -0.248 NA
ATOM     54  C   UNL A   1      37.643  33.673  31.923  1.00  0.00     0.031 C 
ATOM     55  C   UNL A   1      42.511  32.116  35.184  1.00  0.00     0.029 A 
ATOM     56  C   UNL A   1      41.521  32.146  34.216  1.00  0.00     0.049 A 
ATOM     57  H   UNL A   1      41.176  30.811  32.619  1.00  0.00     0.167 HD
ATOM     58  C   UNL A   1      39.522  33.047  33.072  1.00  0.00     0.074 A 
ATOM     59  C   UNL A   1      38.440  33.997  32.932  1.00  0.00     0.031 C 
ATOM     60  C   UNL A   1      40.451  33.096  34.058  1.00  0.00     0.031 A 
BRANCH  47  61
ATOM     61  C   UNL A   1      44.587  28.526  33.780  1.00  0.00    -0.014 A 
ATOM     62  C   UNL A   1      44.492  27.592  34.825  1.00  0.00     0.009 A 
ATOM     63  C   UNL A   1      45.849  28.827  33.247  1.00  0.00     0.009 A 
ATOM     64  C   UNL A   1      45.642  26.988  35.338  1.00  0.00     0.001 A 
ATOM     65  C   UNL A   1      46.994  28.199  33.742  1.00  0.00     0.001 A 
ATOM     66  C   UNL A   1      46.889  27.286  34.791  1.00  0.00     0.000 A 
ENDBRANCH  47  61
BRANCH  48  67
ATOM     67  C   UNL A   1      36.504  32.497  29.514  1.00  0.00    -0.014 A 
ATOM     68  C   UNL A   1      35.239  31.957  29.798  1.00  0.00     0.009 A 
ATOM     69  C   UNL A   1      36.592  33.561  28.602  1.00  0.00     0.009 A 
ATOM     70  C   UNL A   1      34.100  32.437  29.146  1.00  0.00     0.001 A 
ATOM     71  C   UNL A   1      35.448  34.065  27.981  1.00  0.00     0.001 A 
ATOM     72  C   UNL A   1      34.204  33.492  28.241  1.00  0.00     0.000 A 
ENDBRANCH  48  67
BRANCH  60  73
ATOM     73  C   UNL A   1      40.381  34.243  35.029  1.00  0.00    -0.014 A 
ATOM     74  C   UNL A   1      40.946  35.493  34.735  1.00  0.00     0.009 A 
ATOM     75  C   UNL A   1      39.693  34.079  36.243  1.00  0.00     0.009 A 
ATOM     76  C   UNL A   1      40.856  36.544  35.651  1.00  0.00     0.001 A 
ATOM     77  C   UNL A   1      39.575  35.140  37.142  1.00  0.00     0.001 A 
ATOM     78  C   UNL A   1      40.166  36.368  36.850  1.00  0.00     0.000 A 
ENDBRANCH  60  73
ENDBRANCH  34  35
ENDBRANCH  27  29
ENDBRANCH  26  27
ENDBRANCH  25  26
ENDBRANCH  24  25
ENDBRANCH  23  24
ENDBRANCH  22  23
ENDBRANCH   1  22
TORSDOF 19
ENDMDL
MODEL 2
REMARK VINA RESULT:      -9.5      3.343      4.928
REMARK SMILES C[C@@H]1CCC[C@@](Cc2ncccn2)(C(=O)OCCOCCOCCOC(=O)c2ccc(-c3c4nc(c(-c5ccccc5)c5ccc([nH]5)c(-c5ccccc5)c5nc(c(-c6ccccc6)c6ccc3[nH]6)C=C5)C=C4)cc2)C1
REMARK SMILES IDX 20 1 19 2 18 3 17 4 16 5 14 6 15 7 6 8 1 9 2 10 3 11 76 12
REMARK SMILES IDX 4 13 5 14 7 15 8 16 9 17 13 18 10 19 12 20 11 21 21 22 22 23
REMARK SMILES IDX 23 24 24 25 25 26 26 27 27 28 28 29 29 30 75 31 30 32 74 33
REMARK SMILES IDX 31 34 32 35 33 36 68 37 34 38 73 39 67 40 69 41 35 42 72 43
REMARK SMILES IDX 66 44 65 45 36 47 58 48 43 49 57 50 44 51 47 52 56 53 70 54
REMARK SMILES IDX 45 55 46 56 55 58 71 59 48 60 37 61 38 62 42 63 39 64 41 65
REMARK SMILES IDX 40 66 59 67 60 68 64 69 61 70 63 71 62 72 49 73 50 74 54 75
REMARK SMILES IDX 51 76 53 77 52 78
REMARK H PARENT 69 46 47 57
REMARK Flexibility Score: inf
ROOT
ATOM      1  C   UNL A   1      32.877  21.156  23.936  1.00  0.00     0.188 C 
ENDROOT
BRANCH   1   2
ATOM      2  O   UNL A   1      31.848  21.881  24.586  1.00  0.00    -0.376 OA
BRANCH   2   3
ATOM      3  C   UNL A   1      32.175  22.594  25.778  1.00  0.00     0.202 C 
BRANCH   3   4
ATOM      4  C   UNL A   1      31.063  23.276  26.597  1.00  0.00     0.261 C 
BRANCH   4   5
ATOM      5  O   UNL A   1      31.366  24.586  27.136  1.00  0.00    -0.463 OA
BRANCH   5   6
ATOM      6  C   UNL A   1      30.781  25.625  26.490  1.00  0.00     0.312 C 
ATOM      7  O   UNL A   1      29.584  25.650  26.202  1.00  0.00    -0.252 OA
BRANCH   6   8
ATOM      8  C   UNL A   1      31.704  26.816  26.134  1.00  0.00     0.075 C 
ATOM      9  C   UNL A   1      31.796  30.161  26.550  1.00  0.00     0.007 C 
ATOM     10  C   UNL A   1      32.369  29.039  27.416  1.00  0.00    -0.013 C 
ATOM     11  C   UNL A   1      33.840  28.750  27.114  1.00  0.00     0.003 C 
ATOM     12  C   UNL A   1      31.523  27.764  27.362  1.00  0.00     0.022 C 
ATOM     13  C   UNL A   1      34.039  27.877  25.876  1.00  0.00     0.001 C 
ATOM     14  C   UNL A   1      33.227  26.574  25.949  1.00  0.00     0.019 C 
BRANCH   8  15
ATOM     15  C   UNL A   1      31.089  27.380  24.819  1.00  0.00     0.096 C 
BRANCH  15  16
ATOM     16  C   UNL A   1      31.713  26.740  23.594  1.00  0.00     0.129 A 
ATOM     17  N   UNL A   1      32.626  27.461  22.916  1.00  0.00    -0.241 NA
ATOM     18  N   UNL A   1      31.479  25.430  23.389  1.00  0.00    -0.241 NA
ATOM     19  C   UNL A   1      33.365  26.794  22.008  1.00  0.00     0.115 A 
ATOM     20  C   UNL A   1      32.261  24.809  22.487  1.00  0.00     0.115 A 
ATOM     21  C   UNL A   1      33.238  25.448  21.765  1.00  0.00     0.040 A 
ENDBRANCH  15  16
ENDBRANCH   8  15
ENDBRANCH   6   8
ENDBRANCH   5   6
ENDBRANCH   4   5
ENDBRANCH   3   4
ENDBRANCH   2   3
ENDBRANCH   1   2
BRANCH   1  22
ATOM     22  C   UNL A   1      33.213  19.756  24.454  1.00  0.00     0.188 C 
BRANCH  22  23
ATOM     23  O   UNL A   1      34.459  19.626  25.092  1.00  0.00    -0.376 OA
BRANCH  23  24
ATOM     24  C   UNL A   1      35.396  20.689  25.062  1.00  0.00     0.202 C 
BRANCH  24  25
ATOM     25  C   UNL A   1      36.914  20.428  24.989  1.00  0.00     0.261 C 
BRANCH  25  26
ATOM     26  O   UNL A   1      37.789  21.526  25.291  1.00  0.00    -0.460 OA
BRANCH  26  27
ATOM     27  C   UNL A   1      38.949  21.246  25.934  1.00  0.00     0.338 C 
ATOM     28  O   UNL A   1      39.587  20.208  25.874  1.00  0.00    -0.246 OA
BRANCH  27  29
ATOM     29  C   UNL A   1      39.463  22.530  26.484  1.00  0.00     0.060 A 
ATOM     30  C   UNL A   1      38.760  23.713  26.202  1.00  0.00     0.016 A 
ATOM     31  C   UNL A   1      40.564  22.558  27.341  1.00  0.00     0.016 A 
ATOM     32  C   UNL A   1      39.172  24.928  26.755  1.00  0.00     0.010 A 
ATOM     33  C   UNL A   1      40.995  23.780  27.869  1.00  0.00     0.010 A 
ATOM     34  C   UNL A   1      40.320  24.975  27.556  1.00  0.00    -0.014 A 
BRANCH  34  35
ATOM     35  C   UNL A   1      40.954  26.281  27.873  1.00  0.00     0.031 A 
ATOM     36  C   UNL A   1      42.335  26.538  27.332  1.00  0.00     0.074 A 
ATOM     37  C   UNL A   1      40.337  27.226  28.607  1.00  0.00     0.049 A 
ATOM     38  N   UNL A   1      43.139  27.549  27.543  1.00  0.00    -0.248 NA
ATOM     39  C   UNL A   1      42.883  25.510  26.429  1.00  0.00     0.031 C 
ATOM     40  C   UNL A   1      38.981  27.141  29.143  1.00  0.00     0.029 A 
ATOM     41  N   UNL A   1      40.793  28.450  29.037  1.00  0.00    -0.354 N 
ATOM     42  C   UNL A   1      44.282  27.278  26.802  1.00  0.00     0.074 A 
ATOM     43  C   UNL A   1      44.086  25.995  26.166  1.00  0.00     0.031 C 
ATOM     44  C   UNL A   1      38.722  28.256  29.851  1.00  0.00     0.029 A 
ATOM     45  C   UNL A   1      39.906  29.115  29.849  1.00  0.00     0.049 A 
ATOM     46  H   UNL A   1      41.672  28.815  28.786  1.00  0.00     0.167 HD
ATOM     47  C   UNL A   1      45.397  28.032  26.656  1.00  0.00     0.031 A 
ATOM     48  C   UNL A   1      40.049  30.266  30.537  1.00  0.00     0.031 A 
ATOM     49  C   UNL A   1      45.613  29.296  27.302  1.00  0.00     0.049 A 
ATOM     50  C   UNL A   1      41.346  31.034  30.446  1.00  0.00     0.074 A 
ATOM     51  C   UNL A   1      46.720  30.123  27.229  1.00  0.00     0.029 A 
ATOM     52  N   UNL A   1      44.703  29.916  28.144  1.00  0.00    -0.354 N 
ATOM     53  N   UNL A   1      42.419  30.773  29.738  1.00  0.00    -0.248 NA
ATOM     54  C   UNL A   1      41.447  32.265  31.247  1.00  0.00     0.031 C 
ATOM     55  C   UNL A   1      46.502  31.219  28.069  1.00  0.00     0.029 A 
ATOM     56  C   UNL A   1      45.233  31.106  28.611  1.00  0.00     0.049 A 
ATOM     57  H   UNL A   1      43.815  29.562  28.376  1.00  0.00     0.167 HD
ATOM     58  C   UNL A   1      43.301  31.822  29.979  1.00  0.00     0.074 A 
ATOM     59  C   UNL A   1      42.633  32.733  30.884  1.00  0.00     0.031 C 
ATOM     60  C   UNL A   1      44.553  32.014  29.498  1.00  0.00     0.031 A 
BRANCH  47  61
ATOM     61  C   UNL A   1      46.485  27.492  25.771  1.00  0.00    -0.014 A 
ATOM     62  C   UNL A   1      47.317  26.447  26.203  1.00  0.00     0.009 A 
ATOM     63  C   UNL A   1      46.649  28.003  24.474  1.00  0.00     0.009 A 
ATOM     64  C   UNL A   1      48.307  25.939  25.360  1.00  0.00     0.001 A 
ATOM     65  C   UNL A   1      47.620  27.473  23.623  1.00  0.00     0.001 A 
ATOM     66  C   UNL A   1      48.452  26.446  24.069  1.00  0.00     0.000 A 
ENDBRANCH  47  61
BRANCH  48  67
ATOM     67  C   UNL A   1      38.960  30.760  31.428  1.00  0.00    -0.014 A 
ATOM     68  C   UNL A   1      38.903  30.379  32.778  1.00  0.00     0.009 A 
ATOM     69  C   UNL A   1      37.926  31.554  30.908  1.00  0.00     0.009 A 
ATOM     70  C   UNL A   1      37.812  30.743  33.573  1.00  0.00     0.001 A 
ATOM     71  C   UNL A   1      36.856  31.948  31.715  1.00  0.00     0.001 A 
ATOM     72  C   UNL A   1      36.791  31.529  33.042  1.00  0.00     0.000 A 
ENDBRANCH  48  67
BRANCH  60  73
ATOM     73  C   UNL A   1      45.264  33.283  29.884  1.00  0.00    -0.014 A 
ATOM     74  C   UNL A   1      46.193  33.314  30.936  1.00  0.00     0.009 A 
ATOM     75  C   UNL A   1      45.035  34.456  29.148  1.00  0.00     0.009 A 
ATOM     76  C   UNL A   1      46.847  34.504  31.266  1.00  0.00     0.001 A 
ATOM     77  C   UNL A   1      45.715  35.634  29.456  1.00  0.00     0.001 A 
ATOM     78  C   UNL A   1      46.613  35.660  30.522  1.00  0.00     0.000 A 
ENDBRANCH  60  73
ENDBRANCH  34  35
ENDBRANCH  27  29
ENDBRANCH  26  27
ENDBRANCH  25  26
ENDBRANCH  24  25
ENDBRANCH  23  24
ENDBRANCH  22  23
ENDBRANCH   1  22
TORSDOF 19
ENDMDL
MODEL 3
REMARK VINA RESULT:      -9.4      3.470      7.214
REMARK SMILES C[C@@H]1CCC[C@@](Cc2ncccn2)(C(=O)OCCOCCOCCOC(=O)c2ccc(-c3c4nc(c(-c5ccccc5)c5ccc([nH]5)c(-c5ccccc5)c5nc(c(-c6ccccc6)c6ccc3[nH]6)C=C5)C=C4)cc2)C1
REMARK SMILES IDX 20 1 19 2 18 3 17 4 16 5 14 6 15 7 6 8 1 9 2 10 3 11 76 12
REMARK SMILES IDX 4 13 5 14 7 15 8 16 9 17 13 18 10 19 12 20 11 21 21 22 22 23
REMARK SMILES IDX 23 24 24 25 25 26 26 27 27 28 28 29 29 30 75 31 30 32 74 33
REMARK SMILES IDX 31 34 32 35 33 36 68 37 34 38 73 39 67 40 69 41 35 42 72 43
REMARK SMILES IDX 66 44 65 45 36 47 58 48 43 49 57 50 44 51 47 52 56 53 70 54
REMARK SMILES IDX 45 55 46 56 55 58 71 59 48 60 37 61 38 62 42 63 39 64 41 65
REMARK SMILES IDX 40 66 59 67 60 68 64 69 61 70 63 71 62 72 49 73 50 74 54 75
REMARK SMILES IDX 51 76 53 77 52 78
REMARK H PARENT 69 46 47 57
REMARK Flexibility Score: inf
ROOT
ATOM      1  C   UNL A   1      33.535  21.041  25.233  1.00  0.00     0.188 C 
ENDROOT
BRANCH   1   2
ATOM      2  O   UNL A   1      32.164  21.368  25.095  1.00  0.00    -0.376 OA
BRANCH   2   3
ATOM      3  C   UNL A   1      31.782  22.738  25.215  1.00  0.00     0.202 C 
BRANCH   3   4
ATOM      4  C   UNL A   1      31.169  23.254  26.531  1.00  0.00     0.261 C 
BRANCH   4   5
ATOM      5  O   UNL A   1      31.641  24.540  27.004  1.00  0.00    -0.463 OA
BRANCH   5   6
ATOM      6  C   UNL A   1      30.996  25.616  26.489  1.00  0.00     0.312 C 
ATOM      7  O   UNL A   1      29.779  25.644  26.301  1.00  0.00    -0.252 OA
BRANCH   6   8
ATOM      8  C   UNL A   1      31.876  26.846  26.154  1.00  0.00     0.075 C 
ATOM      9  C   UNL A   1      31.750  30.203  26.440  1.00  0.00     0.007 C 
ATOM     10  C   UNL A   1      32.317  29.149  27.391  1.00  0.00    -0.013 C 
ATOM     11  C   UNL A   1      33.820  28.935  27.210  1.00  0.00     0.003 C 
ATOM     12  C   UNL A   1      31.550  27.826  27.326  1.00  0.00     0.022 C 
ATOM     13  C   UNL A   1      34.161  28.030  26.026  1.00  0.00     0.001 C 
ATOM     14  C   UNL A   1      33.420  26.686  26.092  1.00  0.00     0.019 C 
BRANCH   8  15
ATOM     15  C   UNL A   1      31.332  27.324  24.775  1.00  0.00     0.096 C 
BRANCH  15  16
ATOM     16  C   UNL A   1      32.015  26.605  23.628  1.00  0.00     0.129 A 
ATOM     17  N   UNL A   1      31.532  25.397  23.280  1.00  0.00    -0.241 NA
ATOM     18  N   UNL A   1      32.907  27.301  22.900  1.00  0.00    -0.241 NA
ATOM     19  C   UNL A   1      31.958  24.895  22.105  1.00  0.00     0.115 A 
ATOM     20  C   UNL A   1      33.281  26.764  21.725  1.00  0.00     0.115 A 
ATOM     21  C   UNL A   1      32.825  25.553  21.267  1.00  0.00     0.040 A 
ENDBRANCH  15  16
ENDBRANCH   8  15
ENDBRANCH   6   8
ENDBRANCH   5   6
ENDBRANCH   4   5
ENDBRANCH   3   4
ENDBRANCH   2   3
ENDBRANCH   1   2
BRANCH   1  22
ATOM     22  C   UNL A   1      33.951  19.579  25.064  1.00  0.00     0.188 C 
BRANCH  22  23
ATOM     23  O   UNL A   1      35.269  19.366  24.625  1.00  0.00    -0.376 OA
BRANCH  23  24
ATOM     24  C   UNL A   1      36.288  20.303  24.932  1.00  0.00     0.202 C 
BRANCH  24  25
ATOM     25  C   UNL A   1      37.768  19.884  25.034  1.00  0.00     0.261 C 
BRANCH  25  26
ATOM     26  O   UNL A   1      38.654  20.755  25.754  1.00  0.00    -0.460 OA
BRANCH  26  27
ATOM     27  C   UNL A   1      39.894  20.291  26.045  1.00  0.00     0.338 C 
ATOM     28  O   UNL A   1      40.354  19.200  25.751  1.00  0.00    -0.246 OA
BRANCH  27  29
ATOM     29  C   UNL A   1      40.694  21.452  26.518  1.00  0.00     0.060 A 
ATOM     30  C   UNL A   1      40.789  21.687  27.899  1.00  0.00     0.016 A 
ATOM     31  C   UNL A   1      41.417  22.243  25.623  1.00  0.00     0.016 A 
ATOM     32  C   UNL A   1      41.586  22.727  28.386  1.00  0.00     0.010 A 
ATOM     33  C   UNL A   1      42.190  23.303  26.109  1.00  0.00     0.010 A 
ATOM     34  C   UNL A   1      42.255  23.570  27.490  1.00  0.00    -0.014 A 
BRANCH  34  35
ATOM     35  C   UNL A   1      42.825  24.858  27.963  1.00  0.00     0.031 A 
ATOM     36  C   UNL A   1      41.863  25.963  28.309  1.00  0.00     0.074 A 
ATOM     37  C   UNL A   1      44.149  25.058  28.097  1.00  0.00     0.049 A 
ATOM     38  N   UNL A   1      42.105  27.203  28.651  1.00  0.00    -0.248 NA
ATOM     39  C   UNL A   1      40.431  25.620  28.263  1.00  0.00     0.031 C 
ATOM     40  C   UNL A   1      45.192  24.063  27.857  1.00  0.00     0.029 A 
ATOM     41  N   UNL A   1      44.841  26.189  28.461  1.00  0.00    -0.354 N 
ATOM     42  C   UNL A   1      40.861  27.784  28.857  1.00  0.00     0.074 A 
ATOM     43  C   UNL A   1      39.865  26.776  28.571  1.00  0.00     0.031 C 
ATOM     44  C   UNL A   1      46.393  24.634  28.059  1.00  0.00     0.029 A 
ATOM     45  C   UNL A   1      46.206  26.043  28.405  1.00  0.00     0.049 A 
ATOM     46  H   UNL A   1      44.399  27.025  28.737  1.00  0.00     0.167 HD
ATOM     47  C   UNL A   1      40.568  29.042  29.259  1.00  0.00     0.031 A 
ATOM     48  C   UNL A   1      47.188  26.952  28.578  1.00  0.00     0.031 A 
ATOM     49  C   UNL A   1      41.547  30.059  29.523  1.00  0.00     0.049 A 
ATOM     50  C   UNL A   1      46.831  28.380  28.916  1.00  0.00     0.074 A 
ATOM     51  C   UNL A   1      41.343  31.371  29.916  1.00  0.00     0.029 A 
ATOM     52  N   UNL A   1      42.917  29.879  29.419  1.00  0.00    -0.354 N 
ATOM     53  N   UNL A   1      45.652  28.918  29.116  1.00  0.00    -0.248 NA
ATOM     54  C   UNL A   1      47.949  29.327  29.060  1.00  0.00     0.031 C 
ATOM     55  C   UNL A   1      42.589  32.000  29.998  1.00  0.00     0.029 A 
ATOM     56  C   UNL A   1      43.569  31.062  29.722  1.00  0.00     0.049 A 
ATOM     57  H   UNL A   1      43.360  29.037  29.166  1.00  0.00     0.167 HD
ATOM     58  C   UNL A   1      45.888  30.249  29.445  1.00  0.00     0.074 A 
ATOM     59  C   UNL A   1      47.323  30.434  29.436  1.00  0.00     0.031 C 
ATOM     60  C   UNL A   1      44.999  31.231  29.727  1.00  0.00     0.031 A 
BRANCH  47  61
ATOM     61  C   UNL A   1      39.116  29.398  29.416  1.00  0.00    -0.014 A 
ATOM     62  C   UNL A   1      38.407  30.022  28.377  1.00  0.00     0.009 A 
ATOM     63  C   UNL A   1      38.438  29.062  30.598  1.00  0.00     0.009 A 
ATOM     64  C   UNL A   1      37.052  30.322  28.529  1.00  0.00     0.001 A 
ATOM     65  C   UNL A   1      37.077  29.336  30.735  1.00  0.00     0.001 A 
ATOM     66  C   UNL A   1      36.387  29.972  29.703  1.00  0.00     0.000 A 
ENDBRANCH  47  61
BRANCH  48  67
ATOM     67  C   UNL A   1      48.617  26.573  28.387  1.00  0.00    -0.014 A 
ATOM     68  C   UNL A   1      49.208  26.604  27.114  1.00  0.00     0.009 A 
ATOM     69  C   UNL A   1      49.375  26.102  29.471  1.00  0.00     0.009 A 
ATOM     70  C   UNL A   1      50.509  26.129  26.924  1.00  0.00     0.001 A 
ATOM     71  C   UNL A   1      50.688  25.663  29.285  1.00  0.00     0.001 A 
ATOM     72  C   UNL A   1      51.248  25.661  28.010  1.00  0.00     0.000 A 
ENDBRANCH  48  67
BRANCH  60  73
ATOM     73  C   UNL A   1      45.544  32.580  30.111  1.00  0.00    -0.014 A 
ATOM     74  C   UNL A   1      45.864  32.895  31.441  1.00  0.00     0.009 A 
ATOM     75  C   UNL A   1      45.786  33.537  29.112  1.00  0.00     0.009 A 
ATOM     76  C   UNL A   1      46.379  34.152  31.766  1.00  0.00     0.001 A 
ATOM     77  C   UNL A   1      46.334  34.780  29.434  1.00  0.00     0.001 A 
ATOM     78  C   UNL A   1      46.619  35.090  30.762  1.00  0.00     0.000 A 
ENDBRANCH  60  73
ENDBRANCH  34  35
ENDBRANCH  27  29
ENDBRANCH  26  27
ENDBRANCH  25  26
ENDBRANCH  24  25
ENDBRANCH  23  24
ENDBRANCH  22  23
ENDBRANCH   1  22
TORSDOF 19
ENDMDL
