MODEL 1
REMARK VINA RESULT:      -9.3      0.000      0.000
REMARK SMILES COCc1nc2ccccc2n1CC(=O)OCCOCCOCCOC(=O)c1ccc(-c2c3nc(c(-c4ccccc4)c4ccc([nH]4)c(-c4ccccc4)c4nc(c(-c5ccccc5)c5ccc2[nH]5)C=C4)C=C3)cc1
REMARK SMILES IDX 20 1 19 2 18 3 17 4 16 5 14 6 15 7 13 8 12 9 4 10 5 11 6 12
REMARK SMILES IDX 11 13 7 14 10 15 8 16 9 17 3 18 2 19 1 20 21 21 22 22 23 23
REMARK SMILES IDX 24 24 25 25 26 26 27 27 28 28 29 29 75 30 30 31 74 32 31 33
REMARK SMILES IDX 32 34 33 35 68 36 34 37 73 38 67 39 69 40 35 41 72 42 66 43
REMARK SMILES IDX 65 44 36 46 58 47 43 48 57 49 44 50 47 51 56 52 70 53 45 54
REMARK SMILES IDX 46 55 55 57 71 58 48 59 37 60 38 61 42 62 39 63 41 64 40 65
REMARK SMILES IDX 59 66 60 67 64 68 61 69 63 70 62 71 49 72 50 73 54 74 51 75
REMARK SMILES IDX 53 76 52 77
REMARK H PARENT 69 45 47 56
REMARK Flexibility Score: inf
ROOT
ATOM      1  C   UNL A   1      30.858  28.138  23.616  1.00  0.00     0.188 C 
ENDROOT
BRANCH   1   2
ATOM      2  O   UNL A   1      31.469  26.871  23.441  1.00  0.00    -0.376 OA
BRANCH   2   3
ATOM      3  C   UNL A   1      30.688  25.709  23.684  1.00  0.00     0.202 C 
BRANCH   3   4
ATOM      4  C   UNL A   1      31.325  24.694  24.638  1.00  0.00     0.261 C 
BRANCH   4   5
ATOM      5  O   UNL A   1      32.487  24.111  24.012  1.00  0.00    -0.462 OA
BRANCH   5   6
ATOM      6  C   UNL A   1      33.689  24.460  24.530  1.00  0.00     0.326 C 
ATOM      7  O   UNL A   1      34.222  25.550  24.354  1.00  0.00    -0.250 OA
BRANCH   6   8
ATOM      8  C   UNL A   1      34.168  23.471  25.564  1.00  0.00     0.246 C 
BRANCH   8   9
ATOM      9  N   UNL A   1      35.257  22.573  25.231  1.00  0.00    -0.315 N 
ATOM     10  C   UNL A   1      35.162  21.193  25.101  1.00  0.00     0.136 A 
ATOM     11  N   UNL A   1      36.362  20.667  24.945  1.00  0.00    -0.231 NA
ATOM     12  C   UNL A   1      37.226  21.640  25.357  1.00  0.00     0.089 A 
ATOM     13  C   UNL A   1      36.566  22.842  25.574  1.00  0.00     0.069 A 
ATOM     14  C   UNL A   1      38.584  21.530  25.672  1.00  0.00     0.030 A 
ATOM     15  C   UNL A   1      37.185  23.964  26.134  1.00  0.00     0.028 A 
ATOM     16  C   UNL A   1      39.217  22.625  26.268  1.00  0.00     0.002 A 
ATOM     17  C   UNL A   1      38.525  23.817  26.502  1.00  0.00     0.002 A 
BRANCH  10  18
ATOM     18  C   UNL A   1      33.910  20.434  25.385  1.00  0.00     0.235 C 
BRANCH  18  19
ATOM     19  O   UNL A   1      32.825  20.786  24.529  1.00  0.00    -0.377 OA
ATOM     20  C   UNL A   1      32.402  19.724  23.685  1.00  0.00     0.195 C 
ENDBRANCH  18  19
ENDBRANCH  10  18
ENDBRANCH   8   9
ENDBRANCH   6   8
ENDBRANCH   5   6
ENDBRANCH   4   5
ENDBRANCH   3   4
ENDBRANCH   2   3
ENDBRANCH   1   2
BRANCH   1  21
ATOM     21  C   UNL A   1      31.666  29.276  24.261  1.00  0.00     0.188 C 
BRANCH  21  22
ATOM     22  O   UNL A   1      31.532  29.490  25.653  1.00  0.00    -0.376 OA
BRANCH  22  23
ATOM     23  C   UNL A   1      32.738  29.710  26.380  1.00  0.00     0.202 C 
BRANCH  23  24
ATOM     24  C   UNL A   1      32.986  31.169  26.787  1.00  0.00     0.261 C 
BRANCH  24  25
ATOM     25  O   UNL A   1      33.835  31.209  27.955  1.00  0.00    -0.460 OA
BRANCH  25  26
ATOM     26  C   UNL A   1      34.999  31.889  27.806  1.00  0.00     0.338 C 
ATOM     27  O   UNL A   1      35.114  33.086  27.596  1.00  0.00    -0.246 OA
BRANCH  26  28
ATOM     28  C   UNL A   1      36.097  31.018  28.306  1.00  0.00     0.060 A 
ATOM     29  C   UNL A   1      37.243  31.518  28.935  1.00  0.00     0.016 A 
ATOM     30  C   UNL A   1      36.041  29.667  27.956  1.00  0.00     0.016 A 
ATOM     31  C   UNL A   1      38.366  30.692  29.112  1.00  0.00     0.010 A 
ATOM     32  C   UNL A   1      37.160  28.849  28.135  1.00  0.00     0.010 A 
ATOM     33  C   UNL A   1      38.347  29.360  28.672  1.00  0.00    -0.014 A 
BRANCH  33  34
ATOM     34  C   UNL A   1      39.399  28.419  29.088  1.00  0.00     0.031 A 
ATOM     35  C   UNL A   1      39.566  28.383  30.543  1.00  0.00     0.074 A 
ATOM     36  C   UNL A   1      40.249  27.624  28.402  1.00  0.00     0.049 A 
ATOM     37  N   UNL A   1      40.491  29.039  31.155  1.00  0.00    -0.248 NA
ATOM     38  C   UNL A   1      38.622  27.671  31.402  1.00  0.00     0.031 C 
ATOM     39  C   UNL A   1      40.375  27.480  26.969  1.00  0.00     0.029 A 
ATOM     40  N   UNL A   1      41.194  26.737  28.867  1.00  0.00    -0.354 N 
ATOM     41  C   UNL A   1      40.387  28.663  32.474  1.00  0.00     0.074 A 
ATOM     42  C   UNL A   1      39.129  27.963  32.603  1.00  0.00     0.031 C 
ATOM     43  C   UNL A   1      41.130  26.401  26.657  1.00  0.00     0.029 A 
ATOM     44  C   UNL A   1      41.718  25.898  27.892  1.00  0.00     0.049 A 
ATOM     45  H   UNL A   1      41.475  26.700  29.810  1.00  0.00     0.167 HD
ATOM     46  C   UNL A   1      41.471  28.733  33.284  1.00  0.00     0.031 A 
ATOM     47  C   UNL A   1      42.813  25.104  27.946  1.00  0.00     0.031 A 
ATOM     48  C   UNL A   1      42.577  29.438  32.679  1.00  0.00     0.049 A 
ATOM     49  C   UNL A   1      43.826  25.769  28.784  1.00  0.00     0.074 A 
ATOM     50  C   UNL A   1      42.924  30.750  32.443  1.00  0.00     0.029 A 
ATOM     51  N   UNL A   1      43.393  28.663  31.898  1.00  0.00    -0.354 N 
ATOM     52  N   UNL A   1      44.426  26.872  28.440  1.00  0.00    -0.248 NA
ATOM     53  C   UNL A   1      44.060  25.326  30.152  1.00  0.00     0.031 C 
ATOM     54  C   UNL A   1      43.890  30.739  31.391  1.00  0.00     0.029 A 
ATOM     55  C   UNL A   1      44.108  29.421  31.002  1.00  0.00     0.049 A 
ATOM     56  H   UNL A   1      43.459  27.683  31.970  1.00  0.00     0.167 HD
ATOM     57  C   UNL A   1      44.735  27.473  29.641  1.00  0.00     0.074 A 
ATOM     58  C   UNL A   1      44.668  26.412  30.634  1.00  0.00     0.031 C 
ATOM     59  C   UNL A   1      44.650  28.823  29.795  1.00  0.00     0.031 A 
BRANCH  46  60
ATOM     60  C   UNL A   1      41.673  27.821  34.453  1.00  0.00    -0.014 A 
ATOM     61  C   UNL A   1      41.906  26.438  34.317  1.00  0.00     0.009 A 
ATOM     62  C   UNL A   1      41.874  28.384  35.722  1.00  0.00     0.009 A 
ATOM     63  C   UNL A   1      42.276  25.645  35.405  1.00  0.00     0.001 A 
ATOM     64  C   UNL A   1      42.284  27.599  36.804  1.00  0.00     0.001 A 
ATOM     65  C   UNL A   1      42.477  26.229  36.646  1.00  0.00     0.000 A 
ENDBRANCH  46  60
BRANCH  47  66
ATOM     66  C   UNL A   1      43.008  23.739  27.413  1.00  0.00    -0.014 A 
ATOM     67  C   UNL A   1      43.578  23.550  26.143  1.00  0.00     0.009 A 
ATOM     68  C   UNL A   1      42.386  22.635  28.022  1.00  0.00     0.009 A 
ATOM     69  C   UNL A   1      43.481  22.318  25.483  1.00  0.00     0.001 A 
ATOM     70  C   UNL A   1      42.286  21.404  27.362  1.00  0.00     0.001 A 
ATOM     71  C   UNL A   1      42.819  21.251  26.086  1.00  0.00     0.000 A 
ENDBRANCH  47  66
BRANCH  59  72
ATOM     72  C   UNL A   1      44.901  29.692  28.592  1.00  0.00    -0.014 A 
ATOM     73  C   UNL A   1      46.219  29.799  28.120  1.00  0.00     0.009 A 
ATOM     74  C   UNL A   1      43.902  30.431  27.939  1.00  0.00     0.009 A 
ATOM     75  C   UNL A   1      46.533  30.620  27.035  1.00  0.00     0.001 A 
ATOM     76  C   UNL A   1      44.212  31.236  26.836  1.00  0.00     0.001 A 
ATOM     77  C   UNL A   1      45.528  31.336  26.390  1.00  0.00     0.000 A 
ENDBRANCH  59  72
ENDBRANCH  33  34
ENDBRANCH  26  28
ENDBRANCH  25  26
ENDBRANCH  24  25
ENDBRANCH  23  24
ENDBRANCH  22  23
ENDBRANCH  21  22
ENDBRANCH   1  21
TORSDOF 20
ENDMDL
MODEL 2
REMARK VINA RESULT:      -9.2      2.519      8.277
REMARK SMILES COCc1nc2ccccc2n1CC(=O)OCCOCCOCCOC(=O)c1ccc(-c2c3nc(c(-c4ccccc4)c4ccc([nH]4)c(-c4ccccc4)c4nc(c(-c5ccccc5)c5ccc2[nH]5)C=C4)C=C3)cc1
REMARK SMILES IDX 20 1 19 2 18 3 17 4 16 5 14 6 15 7 13 8 12 9 4 10 5 11 6 12
REMARK SMILES IDX 11 13 7 14 10 15 8 16 9 17 3 18 2 19 1 20 21 21 22 22 23 23
REMARK SMILES IDX 24 24 25 25 26 26 27 27 28 28 29 29 75 30 30 31 74 32 31 33
REMARK SMILES IDX 32 34 33 35 68 36 34 37 73 38 67 39 69 40 35 41 72 42 66 43
REMARK SMILES IDX 65 44 36 46 58 47 43 48 57 49 44 50 47 51 56 52 70 53 45 54
REMARK SMILES IDX 46 55 55 57 71 58 48 59 37 60 38 61 42 62 39 63 41 64 40 65
REMARK SMILES IDX 59 66 60 67 64 68 61 69 63 70 62 71 49 72 50 73 54 74 51 75
REMARK SMILES IDX 53 76 52 77
REMARK H PARENT 69 45 47 56
REMARK Flexibility Score: inf
ROOT
ATOM      1  C   UNL A   1      35.598  23.401  25.343  1.00  0.00     0.188 C 
ENDROOT
BRANCH   1   2
ATOM      2  O   UNL A   1      34.346  22.767  25.543  1.00  0.00    -0.376 OA
BRANCH   2   3
ATOM      3  C   UNL A   1      33.186  23.584  25.635  1.00  0.00     0.202 C 
BRANCH   3   4
ATOM      4  C   UNL A   1      33.074  24.665  24.556  1.00  0.00     0.261 C 
BRANCH   4   5
ATOM      5  O   UNL A   1      31.685  24.859  24.213  1.00  0.00    -0.462 OA
BRANCH   5   6
ATOM      6  C   UNL A   1      31.135  26.042  24.576  1.00  0.00     0.326 C 
ATOM      7  O   UNL A   1      30.091  26.147  25.211  1.00  0.00    -0.250 OA
BRANCH   6   8
ATOM      8  C   UNL A   1      32.080  27.198  24.357  1.00  0.00     0.246 C 
BRANCH   8   9
ATOM      9  N   UNL A   1      31.908  28.408  25.135  1.00  0.00    -0.315 N 
ATOM     10  C   UNL A   1      31.185  29.530  24.746  1.00  0.00     0.136 A 
ATOM     11  N   UNL A   1      31.358  30.506  25.615  1.00  0.00    -0.231 NA
ATOM     12  C   UNL A   1      32.467  30.150  26.326  1.00  0.00     0.089 A 
ATOM     13  C   UNL A   1      32.859  28.851  26.031  1.00  0.00     0.069 A 
ATOM     14  C   UNL A   1      33.258  30.936  27.169  1.00  0.00     0.030 A 
ATOM     15  C   UNL A   1      34.044  28.283  26.510  1.00  0.00     0.028 A 
ATOM     16  C   UNL A   1      34.466  30.405  27.630  1.00  0.00     0.002 A 
ATOM     17  C   UNL A   1      34.854  29.103  27.299  1.00  0.00     0.002 A 
BRANCH  10  18
ATOM     18  C   UNL A   1      30.554  29.663  23.401  1.00  0.00     0.235 C 
BRANCH  18  19
ATOM     19  O   UNL A   1      29.168  29.328  23.388  1.00  0.00    -0.377 OA
ATOM     20  C   UNL A   1      28.447  29.939  22.326  1.00  0.00     0.195 C 
ENDBRANCH  18  19
ENDBRANCH  10  18
ENDBRANCH   8   9
ENDBRANCH   6   8
ENDBRANCH   5   6
ENDBRANCH   4   5
ENDBRANCH   3   4
ENDBRANCH   2   3
ENDBRANCH   1   2
BRANCH   1  21
ATOM     21  C   UNL A   1      36.796  22.559  24.873  1.00  0.00     0.188 C 
BRANCH  21  22
ATOM     22  O   UNL A   1      37.131  21.398  25.609  1.00  0.00    -0.376 OA
BRANCH  22  23
ATOM     23  C   UNL A   1      37.999  20.468  24.966  1.00  0.00     0.202 C 
BRANCH  23  24
ATOM     24  C   UNL A   1      39.334  20.232  25.686  1.00  0.00     0.261 C 
BRANCH  24  25
ATOM     25  O   UNL A   1      39.976  21.500  25.943  1.00  0.00    -0.460 OA
BRANCH  25  26
ATOM     26  C   UNL A   1      40.408  21.686  27.215  1.00  0.00     0.338 C 
ATOM     27  O   UNL A   1      40.892  20.835  27.945  1.00  0.00    -0.246 OA
BRANCH  26  28
ATOM     28  C   UNL A   1      40.541  23.151  27.437  1.00  0.00     0.060 A 
ATOM     29  C   UNL A   1      41.667  23.737  28.026  1.00  0.00     0.016 A 
ATOM     30  C   UNL A   1      39.404  23.930  27.206  1.00  0.00     0.016 A 
ATOM     31  C   UNL A   1      41.613  25.066  28.479  1.00  0.00     0.010 A 
ATOM     32  C   UNL A   1      39.356  25.251  27.658  1.00  0.00     0.010 A 
ATOM     33  C   UNL A   1      40.439  25.820  28.337  1.00  0.00    -0.014 A 
BRANCH  33  34
ATOM     34  C   UNL A   1      40.453  27.275  28.556  1.00  0.00     0.031 A 
ATOM     35  C   UNL A   1      41.587  27.924  27.893  1.00  0.00     0.074 A 
ATOM     36  C   UNL A   1      39.660  28.109  29.265  1.00  0.00     0.049 A 
ATOM     37  N   UNL A   1      42.671  28.239  28.515  1.00  0.00    -0.248 NA
ATOM     38  C   UNL A   1      41.593  28.165  26.452  1.00  0.00     0.031 C 
ATOM     39  C   UNL A   1      38.507  27.773  30.070  1.00  0.00     0.029 A 
ATOM     40  N   UNL A   1      39.718  29.478  29.397  1.00  0.00    -0.354 N 
ATOM     41  C   UNL A   1      43.432  28.916  27.592  1.00  0.00     0.074 A 
ATOM     42  C   UNL A   1      42.810  28.696  26.306  1.00  0.00     0.031 C 
ATOM     43  C   UNL A   1      37.809  28.885  30.400  1.00  0.00     0.029 A 
ATOM     44  C   UNL A   1      38.599  30.041  29.996  1.00  0.00     0.049 A 
ATOM     45  H   UNL A   1      40.487  30.013  29.093  1.00  0.00     0.167 HD
ATOM     46  C   UNL A   1      44.358  29.816  28.007  1.00  0.00     0.031 A 
ATOM     47  C   UNL A   1      38.433  31.289  30.497  1.00  0.00     0.031 A 
ATOM     48  C   UNL A   1      44.582  29.770  29.433  1.00  0.00     0.049 A 
ATOM     49  C   UNL A   1      39.717  31.732  31.068  1.00  0.00     0.074 A 
ATOM     50  C   UNL A   1      45.266  28.965  30.317  1.00  0.00     0.029 A 
ATOM     51  N   UNL A   1      43.720  30.534  30.174  1.00  0.00    -0.354 N 
ATOM     52  N   UNL A   1      40.255  31.190  32.123  1.00  0.00    -0.248 NA
ATOM     53  C   UNL A   1      40.558  32.679  30.349  1.00  0.00     0.031 C 
ATOM     54  C   UNL A   1      44.687  29.181  31.605  1.00  0.00     0.029 A 
ATOM     55  C   UNL A   1      43.658  30.109  31.480  1.00  0.00     0.049 A 
ATOM     56  H   UNL A   1      43.208  31.295  29.815  1.00  0.00     0.167 HD
ATOM     57  C   UNL A   1      41.607  31.382  31.943  1.00  0.00     0.074 A 
ATOM     58  C   UNL A   1      41.721  32.450  30.963  1.00  0.00     0.031 C 
ATOM     59  C   UNL A   1      42.509  30.429  32.307  1.00  0.00     0.031 A 
BRANCH  46  60
ATOM     60  C   UNL A   1      44.760  31.005  27.192  1.00  0.00    -0.014 A 
ATOM     61  C   UNL A   1      43.829  31.896  26.622  1.00  0.00     0.009 A 
ATOM     62  C   UNL A   1      46.107  31.392  27.182  1.00  0.00     0.009 A 
ATOM     63  C   UNL A   1      44.227  33.094  26.028  1.00  0.00     0.001 A 
ATOM     64  C   UNL A   1      46.505  32.611  26.624  1.00  0.00     0.001 A 
ATOM     65  C   UNL A   1      45.566  33.457  26.041  1.00  0.00     0.000 A 
ENDBRANCH  46  60
BRANCH  47  66
ATOM     66  C   UNL A   1      37.259  32.183  30.413  1.00  0.00    -0.014 A 
ATOM     67  C   UNL A   1      36.162  31.993  31.269  1.00  0.00     0.009 A 
ATOM     68  C   UNL A   1      37.093  33.046  29.315  1.00  0.00     0.009 A 
ATOM     69  C   UNL A   1      34.927  32.600  31.006  1.00  0.00     0.001 A 
ATOM     70  C   UNL A   1      35.858  33.651  29.051  1.00  0.00     0.001 A 
ATOM     71  C   UNL A   1      34.770  33.414  29.886  1.00  0.00     0.000 A 
ENDBRANCH  47  66
BRANCH  59  72
ATOM     72  C   UNL A   1      42.165  29.533  33.466  1.00  0.00    -0.014 A 
ATOM     73  C   UNL A   1      42.358  30.032  34.765  1.00  0.00     0.009 A 
ATOM     74  C   UNL A   1      41.699  28.216  33.327  1.00  0.00     0.009 A 
ATOM     75  C   UNL A   1      42.101  29.242  35.888  1.00  0.00     0.001 A 
ATOM     76  C   UNL A   1      41.419  27.431  34.452  1.00  0.00     0.001 A 
ATOM     77  C   UNL A   1      41.627  27.943  35.731  1.00  0.00     0.000 A 
ENDBRANCH  59  72
ENDBRANCH  33  34
ENDBRANCH  26  28
ENDBRANCH  25  26
ENDBRANCH  24  25
ENDBRANCH  23  24
ENDBRANCH  22  23
ENDBRANCH  21  22
ENDBRANCH   1  21
TORSDOF 20
ENDMDL
MODEL 3
REMARK VINA RESULT:      -9.2      3.127      5.478
REMARK SMILES COCc1nc2ccccc2n1CC(=O)OCCOCCOCCOC(=O)c1ccc(-c2c3nc(c(-c4ccccc4)c4ccc([nH]4)c(-c4ccccc4)c4nc(c(-c5ccccc5)c5ccc2[nH]5)C=C4)C=C3)cc1
REMARK SMILES IDX 20 1 19 2 18 3 17 4 16 5 14 6 15 7 13 8 12 9 4 10 5 11 6 12
REMARK SMILES IDX 11 13 7 14 10 15 8 16 9 17 3 18 2 19 1 20 21 21 22 22 23 23
REMARK SMILES IDX 24 24 25 25 26 26 27 27 28 28 29 29 75 30 30 31 74 32 31 33
REMARK SMILES IDX 32 34 33 35 68 36 34 37 73 38 67 39 69 40 35 41 72 42 66 43
REMARK SMILES IDX 65 44 36 46 58 47 43 48 57 49 44 50 47 51 56 52 70 53 45 54
REMARK SMILES IDX 46 55 55 57 71 58 48 59 37 60 38 61 42 62 39 63 41 64 40 65
REMARK SMILES IDX 59 66 60 67 64 68 61 69 63 70 62 71 49 72 50 73 54 74 51 75
REMARK SMILES IDX 53 76 52 77
REMARK H PARENT 69 45 47 56
REMARK Flexibility Score: inf
ROOT
ATOM      1  C   UNL A   1      33.790  33.025  28.207  1.00  0.00     0.188 C 
ENDROOT
BRANCH   1   2
ATOM      2  O   UNL A   1      34.854  32.102  28.365  1.00  0.00    -0.376 OA
BRANCH   2   3
ATOM      3  C   UNL A   1      34.752  30.841  27.717  1.00  0.00     0.202 C 
BRANCH   3   4
ATOM      4  C   UNL A   1      33.412  30.583  27.020  1.00  0.00     0.261 C 
BRANCH   4   5
ATOM      5  O   UNL A   1      33.554  29.481  26.100  1.00  0.00    -0.462 OA
BRANCH   5   6
ATOM      6  C   UNL A   1      32.407  28.910  25.661  1.00  0.00     0.326 C 
ATOM      7  O   UNL A   1      31.593  28.356  26.392  1.00  0.00    -0.250 OA
BRANCH   6   8
ATOM      8  C   UNL A   1      32.108  29.269  24.226  1.00  0.00     0.246 C 
BRANCH   8   9
ATOM      9  N   UNL A   1      31.946  28.208  23.252  1.00  0.00    -0.315 N 
ATOM     10  C   UNL A   1      30.767  27.883  22.590  1.00  0.00     0.136 A 
ATOM     11  N   UNL A   1      30.928  26.777  21.892  1.00  0.00    -0.231 NA
ATOM     12  C   UNL A   1      32.054  26.200  22.405  1.00  0.00     0.089 A 
ATOM     13  C   UNL A   1      32.704  27.056  23.283  1.00  0.00     0.069 A 
ATOM     14  C   UNL A   1      32.522  24.893  22.239  1.00  0.00     0.030 A 
ATOM     15  C   UNL A   1      33.803  26.668  24.055  1.00  0.00     0.028 A 
ATOM     16  C   UNL A   1      33.596  24.469  23.028  1.00  0.00     0.002 A 
ATOM     17  C   UNL A   1      34.219  25.341  23.925  1.00  0.00     0.002 A 
BRANCH  10  18
ATOM     18  C   UNL A   1      29.464  28.549  22.879  1.00  0.00     0.235 C 
BRANCH  18  19
ATOM     19  O   UNL A   1      28.913  29.232  21.755  1.00  0.00    -0.377 OA
ATOM     20  C   UNL A   1      29.357  30.576  21.636  1.00  0.00     0.195 C 
ENDBRANCH  18  19
ENDBRANCH  10  18
ENDBRANCH   8   9
ENDBRANCH   6   8
ENDBRANCH   5   6
ENDBRANCH   4   5
ENDBRANCH   3   4
ENDBRANCH   2   3
ENDBRANCH   1   2
BRANCH   1  21
ATOM     21  C   UNL A   1      33.874  34.390  28.911  1.00  0.00     0.188 C 
BRANCH  21  22
ATOM     22  O   UNL A   1      32.737  34.853  29.616  1.00  0.00    -0.376 OA
BRANCH  22  23
ATOM     23  C   UNL A   1      32.874  36.100  30.291  1.00  0.00     0.202 C 
BRANCH  23  24
ATOM     24  C   UNL A   1      32.316  36.122  31.720  1.00  0.00     0.261 C 
BRANCH  24  25
ATOM     25  O   UNL A   1      33.011  35.146  32.526  1.00  0.00    -0.460 OA
BRANCH  25  26
ATOM     26  C   UNL A   1      34.116  35.602  33.167  1.00  0.00     0.338 C 
ATOM     27  O   UNL A   1      34.153  36.496  33.997  1.00  0.00    -0.246 OA
BRANCH  26  28
ATOM     28  C   UNL A   1      35.197  34.597  32.972  1.00  0.00     0.060 A 
ATOM     29  C   UNL A   1      36.556  34.899  33.113  1.00  0.00     0.016 A 
ATOM     30  C   UNL A   1      34.820  33.358  32.449  1.00  0.00     0.016 A 
ATOM     31  C   UNL A   1      37.529  34.007  32.631  1.00  0.00     0.010 A 
ATOM     32  C   UNL A   1      35.791  32.473  31.972  1.00  0.00     0.010 A 
ATOM     33  C   UNL A   1      37.150  32.804  32.015  1.00  0.00    -0.014 A 
BRANCH  33  34
ATOM     34  C   UNL A   1      38.144  31.751  31.755  1.00  0.00     0.031 A 
ATOM     35  C   UNL A   1      38.820  31.312  32.978  1.00  0.00     0.074 A 
ATOM     36  C   UNL A   1      38.573  31.147  30.625  1.00  0.00     0.049 A 
ATOM     37  N   UNL A   1      39.983  31.745  33.326  1.00  0.00    -0.248 NA
ATOM     38  C   UNL A   1      38.164  30.423  33.935  1.00  0.00     0.031 C 
ATOM     39  C   UNL A   1      38.151  31.398  29.265  1.00  0.00     0.029 A 
ATOM     40  N   UNL A   1      39.493  30.136  30.462  1.00  0.00    -0.354 N 
ATOM     41  C   UNL A   1      40.314  31.025  34.450  1.00  0.00     0.074 A 
ATOM     42  C   UNL A   1      39.105  30.358  34.881  1.00  0.00     0.031 C 
ATOM     43  C   UNL A   1      38.590  30.421  28.436  1.00  0.00     0.029 A 
ATOM     44  C   UNL A   1      39.511  29.579  29.190  1.00  0.00     0.049 A 
ATOM     45  H   UNL A   1      40.089  29.833  31.185  1.00  0.00     0.167 HD
ATOM     46  C   UNL A   1      41.616  30.834  34.772  1.00  0.00     0.031 A 
ATOM     47  C   UNL A   1      40.434  28.765  28.625  1.00  0.00     0.031 A 
ATOM     48  C   UNL A   1      42.512  31.641  33.978  1.00  0.00     0.049 A 
ATOM     49  C   UNL A   1      41.761  29.142  29.142  1.00  0.00     0.074 A 
ATOM     50  C   UNL A   1      42.924  32.956  33.950  1.00  0.00     0.029 A 
ATOM     51  N   UNL A   1      42.878  31.083  32.781  1.00  0.00    -0.354 N 
ATOM     52  N   UNL A   1      42.339  30.276  28.870  1.00  0.00    -0.248 NA
ATOM     53  C   UNL A   1      42.412  28.333  30.164  1.00  0.00     0.031 C 
ATOM     54  C   UNL A   1      43.433  33.202  32.638  1.00  0.00     0.029 A 
ATOM     55  C   UNL A   1      43.316  32.035  31.890  1.00  0.00     0.049 A 
ATOM     56  H   UNL A   1      42.833  30.120  32.583  1.00  0.00     0.167 HD
ATOM     57  C   UNL A   1      43.139  30.514  29.967  1.00  0.00     0.074 A 
ATOM     58  C   UNL A   1      43.294  29.225  30.622  1.00  0.00     0.031 C 
ATOM     59  C   UNL A   1      43.299  31.773  30.463  1.00  0.00     0.031 A 
BRANCH  46  60
ATOM     60  C   UNL A   1      42.103  29.630  35.517  1.00  0.00    -0.014 A 
ATOM     61  C   UNL A   1      41.632  28.327  35.261  1.00  0.00     0.009 A 
ATOM     62  C   UNL A   1      43.233  29.755  36.336  1.00  0.00     0.009 A 
ATOM     63  C   UNL A   1      42.231  27.204  35.833  1.00  0.00     0.001 A 
ATOM     64  C   UNL A   1      43.861  28.629  36.878  1.00  0.00     0.001 A 
ATOM     65  C   UNL A   1      43.355  27.356  36.632  1.00  0.00     0.000 A 
ENDBRANCH  46  60
BRANCH  47  66
ATOM     66  C   UNL A   1      40.236  27.593  27.746  1.00  0.00    -0.014 A 
ATOM     67  C   UNL A   1      39.386  26.547  28.142  1.00  0.00     0.009 A 
ATOM     68  C   UNL A   1      41.087  27.367  26.650  1.00  0.00     0.009 A 
ATOM     69  C   UNL A   1      39.427  25.302  27.501  1.00  0.00     0.001 A 
ATOM     70  C   UNL A   1      41.129  26.122  26.011  1.00  0.00     0.001 A 
ATOM     71  C   UNL A   1      40.311  25.084  26.448  1.00  0.00     0.000 A 
ENDBRANCH  47  66
BRANCH  59  72
ATOM     72  C   UNL A   1      43.212  32.929  29.504  1.00  0.00    -0.014 A 
ATOM     73  C   UNL A   1      42.149  33.835  29.658  1.00  0.00     0.009 A 
ATOM     74  C   UNL A   1      44.107  33.134  28.442  1.00  0.00     0.009 A 
ATOM     75  C   UNL A   1      41.982  34.907  28.779  1.00  0.00     0.001 A 
ATOM     76  C   UNL A   1      43.953  34.223  27.574  1.00  0.00     0.001 A 
ATOM     77  C   UNL A   1      42.886  35.104  27.739  1.00  0.00     0.000 A 
ENDBRANCH  59  72
ENDBRANCH  33  34
ENDBRANCH  26  28
ENDBRANCH  25  26
ENDBRANCH  24  25
ENDBRANCH  23  24
ENDBRANCH  22  23
ENDBRANCH  21  22
ENDBRANCH   1  21
TORSDOF 20
ENDMDL
