MODEL 1
REMARK VINA RESULT:     -10.8      0.000      0.000
REMARK SMILES COc1ccc2c(c1)c(CC(=O)OCCOCCOCCOC(=O)c1ccc(-c3c4nc(c(-c5ccccc5)c5ccc([nH]5)c(-c5ccccc5)c5nc(c(-c6ccccc6)c6ccc3[nH]6)C=C5)C=C4)cc1)c(C(F)(F)F)n2C(=O)c1ccc(Cl)cc1
REMARK SMILES IDX 17 1 16 2 15 3 14 4 13 5 11 6 12 7 10 8 9 9 3 10 4 11 8 12
REMARK SMILES IDX 5 13 7 14 6 15 78 16 73 17 2 18 1 19 79 20 80 21 81 22 82 23
REMARK SMILES IDX 87 24 83 25 86 26 84 27 85 28 74 29 75 30 76 31 77 32 18 33
REMARK SMILES IDX 19 34 20 35 21 36 22 37 23 38 24 39 25 40 26 41 72 42 27 43
REMARK SMILES IDX 71 44 28 45 29 46 30 47 65 48 31 49 70 50 64 51 66 52 32 53
REMARK SMILES IDX 69 54 63 55 62 56 33 58 55 59 40 60 54 61 41 62 44 63 53 64
REMARK SMILES IDX 67 65 42 66 43 67 52 69 68 70 45 71 34 72 35 73 39 74 36 75
REMARK SMILES IDX 38 76 37 77 56 78 57 79 61 80 58 81 60 82 59 83 46 84 47 85
REMARK SMILES IDX 51 86 48 87 50 88 49 89
REMARK H PARENT 66 57 44 68
REMARK Flexibility Score: inf
ROOT
ATOM      1  C   UNL A   1      34.632  22.009  24.443  1.00  0.00     0.188 C 
ENDROOT
BRANCH   1   2
ATOM      2  O   UNL A   1      34.647  23.402  24.648  1.00  0.00    -0.376 OA
BRANCH   2   3
ATOM      3  C   UNL A   1      34.679  24.256  23.528  1.00  0.00     0.202 C 
BRANCH   3   4
ATOM      4  C   UNL A   1      34.322  23.626  22.180  1.00  0.00     0.261 C 
BRANCH   4   5
ATOM      5  O   UNL A   1      32.949  23.873  21.774  1.00  0.00    -0.463 OA
BRANCH   5   6
ATOM      6  C   UNL A   1      32.700  25.121  21.301  1.00  0.00     0.310 C 
ATOM      7  O   UNL A   1      33.113  25.479  20.200  1.00  0.00    -0.252 OA
BRANCH   6   8
ATOM      8  C   UNL A   1      31.687  25.972  22.084  1.00  0.00     0.161 C 
BRANCH   8   9
ATOM      9  C   UNL A   1      31.654  26.104  23.592  1.00  0.00     0.002 A 
ATOM     10  C   UNL A   1      30.702  22.934  25.619  1.00  0.00     0.119 A 
ATOM     11  C   UNL A   1      30.492  23.567  26.815  1.00  0.00     0.048 A 
ATOM     12  C   UNL A   1      31.038  23.707  24.499  1.00  0.00     0.057 A 
ATOM     13  C   UNL A   1      30.649  24.950  26.889  1.00  0.00     0.031 A 
ATOM     14  C   UNL A   1      31.306  25.093  24.550  1.00  0.00     0.008 A 
ATOM     15  C   UNL A   1      31.129  25.705  25.784  1.00  0.00     0.057 A 
ATOM     16  N   UNL A   1      31.493  27.056  25.642  1.00  0.00    -0.271 N 
ATOM     17  C   UNL A   1      31.595  27.323  24.276  1.00  0.00     0.135 A 
BRANCH  10  18
ATOM     18  O   UNL A   1      30.678  21.583  25.448  1.00  0.00    -0.497 OA
ATOM     19  C   UNL A   1      31.928  20.902  25.375  1.00  0.00     0.278 C 
ENDBRANCH  10  18
BRANCH  16  20
ATOM     20  C   UNL A   1      31.704  27.931  26.737  1.00  0.00     0.262 C 
ATOM     21  O   UNL A   1      30.954  27.886  27.707  1.00  0.00    -0.268 OA
BRANCH  20  22
ATOM     22  C   UNL A   1      32.800  28.913  26.774  1.00  0.00     0.040 A 
ATOM     23  C   UNL A   1      34.123  28.473  26.621  1.00  0.00     0.015 A 
ATOM     24  C   UNL A   1      32.510  30.213  27.201  1.00  0.00     0.015 A 
ATOM     25  C   UNL A   1      35.168  29.325  26.979  1.00  0.00     0.021 A 
ATOM     26  C   UNL A   1      33.563  31.055  27.563  1.00  0.00     0.021 A 
ATOM     27  C   UNL A   1      34.882  30.602  27.469  1.00  0.00     0.041 A 
ATOM     28  Cl  UNL A   1      36.164  31.598  28.035  1.00  0.00    -0.084 Cl
ENDBRANCH  20  22
ENDBRANCH  16  20
BRANCH  17  29
ATOM     29  C   UNL A   1      31.538  28.664  23.616  1.00  0.00     0.432 C 
ATOM     30  F   UNL A   1      30.966  28.549  22.386  1.00  0.00    -0.165 F 
ATOM     31  F   UNL A   1      30.715  29.477  24.334  1.00  0.00    -0.165 F 
ATOM     32  F   UNL A   1      32.681  29.341  23.430  1.00  0.00    -0.165 F 
ENDBRANCH  17  29
ENDBRANCH   8   9
ENDBRANCH   6   8
ENDBRANCH   5   6
ENDBRANCH   4   5
ENDBRANCH   3   4
ENDBRANCH   2   3
ENDBRANCH   1   2
BRANCH   1  33
ATOM     33  C   UNL A   1      35.456  21.028  25.288  1.00  0.00     0.188 C 
BRANCH  33  34
ATOM     34  O   UNL A   1      36.434  20.203  24.709  1.00  0.00    -0.376 OA
BRANCH  34  35
ATOM     35  C   UNL A   1      37.779  20.509  25.035  1.00  0.00     0.202 C 
BRANCH  35  36
ATOM     36  C   UNL A   1      38.083  21.881  25.688  1.00  0.00     0.261 C 
BRANCH  36  37
ATOM     37  O   UNL A   1      39.509  22.160  25.805  1.00  0.00    -0.460 OA
BRANCH  37  38
ATOM     38  C   UNL A   1      40.013  22.287  27.072  1.00  0.00     0.338 C 
ATOM     39  O   UNL A   1      40.406  21.363  27.767  1.00  0.00    -0.246 OA
BRANCH  38  40
ATOM     40  C   UNL A   1      40.383  23.729  27.324  1.00  0.00     0.060 A 
ATOM     41  C   UNL A   1      41.614  24.196  27.794  1.00  0.00     0.016 A 
ATOM     42  C   UNL A   1      39.322  24.621  27.330  1.00  0.00     0.016 A 
ATOM     43  C   UNL A   1      41.705  25.447  28.472  1.00  0.00     0.010 A 
ATOM     44  C   UNL A   1      39.382  25.793  28.084  1.00  0.00     0.010 A 
ATOM     45  C   UNL A   1      40.557  26.207  28.725  1.00  0.00    -0.014 A 
BRANCH  45  46
ATOM     46  C   UNL A   1      40.493  27.569  29.314  1.00  0.00     0.031 A 
ATOM     47  C   UNL A   1      41.393  28.480  28.601  1.00  0.00     0.074 A 
ATOM     48  C   UNL A   1      39.803  28.132  30.337  1.00  0.00     0.049 A 
ATOM     49  N   UNL A   1      42.616  28.635  28.979  1.00  0.00    -0.248 NA
ATOM     50  C   UNL A   1      41.058  29.087  27.315  1.00  0.00     0.031 C 
ATOM     51  C   UNL A   1      39.059  27.471  31.385  1.00  0.00     0.029 A 
ATOM     52  N   UNL A   1      39.600  29.471  30.639  1.00  0.00    -0.354 N 
ATOM     53  C   UNL A   1      43.146  29.559  28.114  1.00  0.00     0.074 A 
ATOM     54  C   UNL A   1      42.250  29.588  26.982  1.00  0.00     0.031 C 
ATOM     55  C   UNL A   1      38.318  28.370  32.078  1.00  0.00     0.029 A 
ATOM     56  C   UNL A   1      38.585  29.715  31.578  1.00  0.00     0.049 A 
ATOM     57  H   UNL A   1      40.127  30.193  30.228  1.00  0.00     0.167 HD
ATOM     58  C   UNL A   1      44.095  30.424  28.555  1.00  0.00     0.031 A 
ATOM     59  C   UNL A   1      38.361  30.784  32.397  1.00  0.00     0.031 A 
ATOM     60  C   UNL A   1      44.587  30.053  29.870  1.00  0.00     0.049 A 
ATOM     61  C   UNL A   1      39.686  31.358  32.697  1.00  0.00     0.074 A 
ATOM     62  C   UNL A   1      45.195  28.933  30.405  1.00  0.00     0.029 A 
ATOM     63  N   UNL A   1      44.091  30.761  30.941  1.00  0.00    -0.354 N 
ATOM     64  N   UNL A   1      40.551  30.773  33.472  1.00  0.00    -0.248 NA
ATOM     65  C   UNL A   1      40.220  32.370  31.805  1.00  0.00     0.031 C 
ATOM     66  C   UNL A   1      44.677  28.811  31.727  1.00  0.00     0.029 A 
ATOM     67  C   UNL A   1      43.831  29.893  31.971  1.00  0.00     0.049 A 
ATOM     68  H   UNL A   1      43.945  31.734  30.965  1.00  0.00     0.167 HD
ATOM     69  C   UNL A   1      41.764  30.978  32.838  1.00  0.00     0.074 A 
ATOM     70  C   UNL A   1      41.515  32.059  31.886  1.00  0.00     0.031 C 
ATOM     71  C   UNL A   1      42.779  30.075  32.955  1.00  0.00     0.031 A 
BRANCH  58  72
ATOM     72  C   UNL A   1      44.257  31.810  27.999  1.00  0.00    -0.014 A 
ATOM     73  C   UNL A   1      44.838  32.098  26.750  1.00  0.00     0.009 A 
ATOM     74  C   UNL A   1      43.595  32.865  28.645  1.00  0.00     0.009 A 
ATOM     75  C   UNL A   1      44.753  33.359  26.164  1.00  0.00     0.001 A 
ATOM     76  C   UNL A   1      43.468  34.119  28.042  1.00  0.00     0.001 A 
ATOM     77  C   UNL A   1      44.045  34.364  26.800  1.00  0.00     0.000 A 
ENDBRANCH  58  72
BRANCH  59  78
ATOM     78  C   UNL A   1      37.124  31.618  32.429  1.00  0.00    -0.014 A 
ATOM     79  C   UNL A   1      36.753  32.353  33.567  1.00  0.00     0.009 A 
ATOM     80  C   UNL A   1      36.214  31.600  31.352  1.00  0.00     0.009 A 
ATOM     81  C   UNL A   1      35.511  33.003  33.647  1.00  0.00     0.001 A 
ATOM     82  C   UNL A   1      34.970  32.252  31.432  1.00  0.00     0.001 A 
ATOM     83  C   UNL A   1      34.613  32.942  32.586  1.00  0.00     0.000 A 
ENDBRANCH  59  78
BRANCH  71  84
ATOM     84  C   UNL A   1      42.682  29.012  34.033  1.00  0.00    -0.014 A 
ATOM     85  C   UNL A   1      41.913  27.868  33.768  1.00  0.00     0.009 A 
ATOM     86  C   UNL A   1      43.154  29.193  35.344  1.00  0.00     0.009 A 
ATOM     87  C   UNL A   1      41.586  26.966  34.785  1.00  0.00     0.001 A 
ATOM     88  C   UNL A   1      42.844  28.281  36.361  1.00  0.00     0.001 A 
ATOM     89  C   UNL A   1      42.044  27.177  36.084  1.00  0.00     0.000 A 
ENDBRANCH  71  84
ENDBRANCH  45  46
ENDBRANCH  38  40
ENDBRANCH  37  38
ENDBRANCH  36  37
ENDBRANCH  35  36
ENDBRANCH  34  35
ENDBRANCH  33  34
ENDBRANCH   1  33
TORSDOF 22
ENDMDL
MODEL 2
REMARK VINA RESULT:      -9.9      2.483      4.231
REMARK SMILES COc1ccc2c(c1)c(CC(=O)OCCOCCOCCOC(=O)c1ccc(-c3c4nc(c(-c5ccccc5)c5ccc([nH]5)c(-c5ccccc5)c5nc(c(-c6ccccc6)c6ccc3[nH]6)C=C5)C=C4)cc1)c(C(F)(F)F)n2C(=O)c1ccc(Cl)cc1
REMARK SMILES IDX 17 1 16 2 15 3 14 4 13 5 11 6 12 7 10 8 9 9 3 10 4 11 8 12
REMARK SMILES IDX 5 13 7 14 6 15 78 16 73 17 2 18 1 19 79 20 80 21 81 22 82 23
REMARK SMILES IDX 87 24 83 25 86 26 84 27 85 28 74 29 75 30 76 31 77 32 18 33
REMARK SMILES IDX 19 34 20 35 21 36 22 37 23 38 24 39 25 40 26 41 72 42 27 43
REMARK SMILES IDX 71 44 28 45 29 46 30 47 65 48 31 49 70 50 64 51 66 52 32 53
REMARK SMILES IDX 69 54 63 55 62 56 33 58 55 59 40 60 54 61 41 62 44 63 53 64
REMARK SMILES IDX 67 65 42 66 43 67 52 69 68 70 45 71 34 72 35 73 39 74 36 75
REMARK SMILES IDX 38 76 37 77 56 78 57 79 61 80 58 81 60 82 59 83 46 84 47 85
REMARK SMILES IDX 51 86 48 87 50 88 49 89
REMARK H PARENT 66 57 44 68
REMARK Flexibility Score: inf
ROOT
ATOM      1  C   UNL A   1      40.610  21.757  27.256  1.00  0.00     0.188 C 
ENDROOT
BRANCH   1   2
ATOM      2  O   UNL A   1      39.546  22.672  27.150  1.00  0.00    -0.376 OA
BRANCH   2   3
ATOM      3  C   UNL A   1      38.795  22.711  25.958  1.00  0.00     0.202 C 
BRANCH   3   4
ATOM      4  C   UNL A   1      37.279  22.849  26.112  1.00  0.00     0.261 C 
BRANCH   4   5
ATOM      5  O   UNL A   1      36.670  23.685  25.091  1.00  0.00    -0.463 OA
BRANCH   5   6
ATOM      6  C   UNL A   1      35.415  24.122  25.371  1.00  0.00     0.310 C 
ATOM      7  O   UNL A   1      34.970  24.085  26.517  1.00  0.00    -0.252 OA
BRANCH   6   8
ATOM      8  C   UNL A   1      34.678  24.879  24.256  1.00  0.00     0.161 C 
BRANCH   8   9
ATOM      9  C   UNL A   1      33.441  25.728  24.462  1.00  0.00     0.002 A 
ATOM     10  C   UNL A   1      33.638  28.502  27.170  1.00  0.00     0.119 A 
ATOM     11  C   UNL A   1      32.295  28.763  27.229  1.00  0.00     0.048 A 
ATOM     12  C   UNL A   1      34.088  27.482  26.320  1.00  0.00     0.057 A 
ATOM     13  C   UNL A   1      31.424  28.032  26.421  1.00  0.00     0.031 A 
ATOM     14  C   UNL A   1      33.257  26.788  25.413  1.00  0.00     0.008 A 
ATOM     15  C   UNL A   1      31.905  27.101  25.461  1.00  0.00     0.057 A 
ATOM     16  N   UNL A   1      31.263  26.353  24.457  1.00  0.00    -0.271 N 
ATOM     17  C   UNL A   1      32.161  25.379  24.018  1.00  0.00     0.135 A 
BRANCH  10  18
ATOM     18  O   UNL A   1      34.590  29.215  27.831  1.00  0.00    -0.497 OA
ATOM     19  C   UNL A   1      35.378  30.131  27.074  1.00  0.00     0.278 C 
ENDBRANCH  10  18
BRANCH  16  20
ATOM     20  C   UNL A   1      29.938  26.602  24.021  1.00  0.00     0.262 C 
ATOM     21  O   UNL A   1      29.038  25.827  24.328  1.00  0.00    -0.268 OA
BRANCH  20  22
ATOM     22  C   UNL A   1      29.574  27.768  23.198  1.00  0.00     0.040 A 
ATOM     23  C   UNL A   1      30.573  28.441  22.481  1.00  0.00     0.015 A 
ATOM     24  C   UNL A   1      28.294  28.311  23.348  1.00  0.00     0.015 A 
ATOM     25  C   UNL A   1      30.307  29.714  21.978  1.00  0.00     0.021 A 
ATOM     26  C   UNL A   1      28.040  29.588  22.847  1.00  0.00     0.021 A 
ATOM     27  C   UNL A   1      29.050  30.291  22.183  1.00  0.00     0.041 A 
ATOM     28  Cl  UNL A   1      28.768  31.910  21.679  1.00  0.00    -0.084 Cl
ENDBRANCH  20  22
ENDBRANCH  16  20
BRANCH  17  29
ATOM     29  C   UNL A   1      31.830  24.111  23.297  1.00  0.00     0.432 C 
ATOM     30  F   UNL A   1      31.137  23.278  24.121  1.00  0.00    -0.165 F 
ATOM     31  F   UNL A   1      30.989  24.395  22.264  1.00  0.00    -0.165 F 
ATOM     32  F   UNL A   1      32.831  23.378  22.788  1.00  0.00    -0.165 F 
ENDBRANCH  17  29
ENDBRANCH   8   9
ENDBRANCH   6   8
ENDBRANCH   5   6
ENDBRANCH   4   5
ENDBRANCH   3   4
ENDBRANCH   2   3
ENDBRANCH   1   2
BRANCH   1  33
ATOM     33  C   UNL A   1      41.281  21.107  26.039  1.00  0.00     0.188 C 
BRANCH  33  34
ATOM     34  O   UNL A   1      42.386  21.700  25.407  1.00  0.00    -0.376 OA
BRANCH  34  35
ATOM     35  C   UNL A   1      43.658  21.184  25.763  1.00  0.00     0.202 C 
BRANCH  35  36
ATOM     36  C   UNL A   1      44.780  22.188  26.131  1.00  0.00     0.261 C 
BRANCH  36  37
ATOM     37  O   UNL A   1      44.274  23.449  26.658  1.00  0.00    -0.460 OA
BRANCH  37  38
ATOM     38  C   UNL A   1      43.876  23.458  27.968  1.00  0.00     0.338 C 
ATOM     39  O   UNL A   1      44.432  22.857  28.874  1.00  0.00    -0.246 OA
BRANCH  38  40
ATOM     40  C   UNL A   1      42.924  24.607  28.199  1.00  0.00     0.060 A 
ATOM     41  C   UNL A   1      42.030  25.140  27.266  1.00  0.00     0.016 A 
ATOM     42  C   UNL A   1      43.153  25.344  29.350  1.00  0.00     0.016 A 
ATOM     43  C   UNL A   1      41.572  26.484  27.384  1.00  0.00     0.010 A 
ATOM     44  C   UNL A   1      42.796  26.691  29.415  1.00  0.00     0.010 A 
ATOM     45  C   UNL A   1      42.048  27.313  28.407  1.00  0.00    -0.014 A 
BRANCH  45  46
ATOM     46  C   UNL A   1      41.594  28.689  28.734  1.00  0.00     0.031 A 
ATOM     47  C   UNL A   1      42.562  29.678  28.251  1.00  0.00     0.074 A 
ATOM     48  C   UNL A   1      40.510  29.209  29.362  1.00  0.00     0.049 A 
ATOM     49  N   UNL A   1      43.530  30.078  29.001  1.00  0.00    -0.248 NA
ATOM     50  C   UNL A   1      42.640  30.101  26.854  1.00  0.00     0.031 C 
ATOM     51  C   UNL A   1      39.530  28.523  30.173  1.00  0.00     0.029 A 
ATOM     52  N   UNL A   1      40.035  30.513  29.377  1.00  0.00    -0.354 N 
ATOM     53  C   UNL A   1      44.212  31.001  28.248  1.00  0.00     0.074 A 
ATOM     54  C   UNL A   1      43.795  30.773  26.885  1.00  0.00     0.031 C 
ATOM     55  C   UNL A   1      38.475  29.335  30.428  1.00  0.00     0.029 A 
ATOM     56  C   UNL A   1      38.725  30.656  29.861  1.00  0.00     0.049 A 
ATOM     57  H   UNL A   1      40.574  31.278  29.072  1.00  0.00     0.167 HD
ATOM     58  C   UNL A   1      44.811  32.056  28.859  1.00  0.00     0.031 A 
ATOM     59  C   UNL A   1      38.078  31.736  30.387  1.00  0.00     0.031 A 
ATOM     60  C   UNL A   1      44.835  31.895  30.302  1.00  0.00     0.049 A 
ATOM     61  C   UNL A   1      39.113  32.559  31.040  1.00  0.00     0.074 A 
ATOM     62  C   UNL A   1      45.349  30.951  31.171  1.00  0.00     0.029 A 
ATOM     63  N   UNL A   1      43.892  32.596  31.021  1.00  0.00    -0.354 N 
ATOM     64  N   UNL A   1      39.706  32.207  32.142  1.00  0.00    -0.248 NA
ATOM     65  C   UNL A   1      39.796  33.568  30.249  1.00  0.00     0.031 C 
ATOM     66  C   UNL A   1      44.406  30.857  32.235  1.00  0.00     0.029 A 
ATOM     67  C   UNL A   1      43.393  31.790  32.012  1.00  0.00     0.049 A 
ATOM     68  H   UNL A   1      43.620  33.527  30.851  1.00  0.00     0.167 HD
ATOM     69  C   UNL A   1      41.027  32.566  31.943  1.00  0.00     0.074 A 
ATOM     70  C   UNL A   1      41.002  33.498  30.818  1.00  0.00     0.031 C 
ATOM     71  C   UNL A   1      42.041  31.870  32.534  1.00  0.00     0.031 A 
BRANCH  58  72
ATOM     72  C   UNL A   1      44.978  33.394  28.198  1.00  0.00    -0.014 A 
ATOM     73  C   UNL A   1      43.935  34.101  27.569  1.00  0.00     0.009 A 
ATOM     74  C   UNL A   1      46.177  34.091  28.405  1.00  0.00     0.009 A 
ATOM     75  C   UNL A   1      44.067  35.434  27.183  1.00  0.00     0.001 A 
ATOM     76  C   UNL A   1      46.301  35.440  28.060  1.00  0.00     0.001 A 
ATOM     77  C   UNL A   1      45.244  36.111  27.453  1.00  0.00     0.000 A 
ENDBRANCH  58  72
BRANCH  59  78
ATOM     78  C   UNL A   1      36.815  32.339  29.868  1.00  0.00    -0.014 A 
ATOM     79  C   UNL A   1      35.551  31.910  30.308  1.00  0.00     0.009 A 
ATOM     80  C   UNL A   1      36.843  33.282  28.820  1.00  0.00     0.009 A 
ATOM     81  C   UNL A   1      34.370  32.365  29.700  1.00  0.00     0.001 A 
ATOM     82  C   UNL A   1      35.659  33.739  28.212  1.00  0.00     0.001 A 
ATOM     83  C   UNL A   1      34.424  33.269  28.643  1.00  0.00     0.000 A 
ENDBRANCH  59  78
BRANCH  71  84
ATOM     84  C   UNL A   1      41.700  30.906  33.654  1.00  0.00    -0.014 A 
ATOM     85  C   UNL A   1      41.873  31.340  34.978  1.00  0.00     0.009 A 
ATOM     86  C   UNL A   1      41.410  29.547  33.445  1.00  0.00     0.009 A 
ATOM     87  C   UNL A   1      41.807  30.442  36.047  1.00  0.00     0.001 A 
ATOM     88  C   UNL A   1      41.324  28.648  34.516  1.00  0.00     0.001 A 
ATOM     89  C   UNL A   1      41.541  29.094  35.816  1.00  0.00     0.000 A 
ENDBRANCH  71  84
ENDBRANCH  45  46
ENDBRANCH  38  40
ENDBRANCH  37  38
ENDBRANCH  36  37
ENDBRANCH  35  36
ENDBRANCH  34  35
ENDBRANCH  33  34
ENDBRANCH   1  33
TORSDOF 22
ENDMDL
MODEL 3
REMARK VINA RESULT:      -9.8      2.585      4.476
REMARK SMILES COc1ccc2c(c1)c(CC(=O)OCCOCCOCCOC(=O)c1ccc(-c3c4nc(c(-c5ccccc5)c5ccc([nH]5)c(-c5ccccc5)c5nc(c(-c6ccccc6)c6ccc3[nH]6)C=C5)C=C4)cc1)c(C(F)(F)F)n2C(=O)c1ccc(Cl)cc1
REMARK SMILES IDX 17 1 16 2 15 3 14 4 13 5 11 6 12 7 10 8 9 9 3 10 4 11 8 12
REMARK SMILES IDX 5 13 7 14 6 15 78 16 73 17 2 18 1 19 79 20 80 21 81 22 82 23
REMARK SMILES IDX 87 24 83 25 86 26 84 27 85 28 74 29 75 30 76 31 77 32 18 33
REMARK SMILES IDX 19 34 20 35 21 36 22 37 23 38 24 39 25 40 26 41 72 42 27 43
REMARK SMILES IDX 71 44 28 45 29 46 30 47 65 48 31 49 70 50 64 51 66 52 32 53
REMARK SMILES IDX 69 54 63 55 62 56 33 58 55 59 40 60 54 61 41 62 44 63 53 64
REMARK SMILES IDX 67 65 42 66 43 67 52 69 68 70 45 71 34 72 35 73 39 74 36 75
REMARK SMILES IDX 38 76 37 77 56 78 57 79 61 80 58 81 60 82 59 83 46 84 47 85
REMARK SMILES IDX 51 86 48 87 50 88 49 89
REMARK H PARENT 66 57 44 68
REMARK Flexibility Score: inf
ROOT
ATOM      1  C   UNL A   1      41.402  21.892  27.014  1.00  0.00     0.188 C 
ENDROOT
BRANCH   1   2
ATOM      2  O   UNL A   1      40.136  22.300  27.473  1.00  0.00    -0.376 OA
BRANCH   2   3
ATOM      3  C   UNL A   1      39.379  23.193  26.687  1.00  0.00     0.202 C 
BRANCH   3   4
ATOM      4  C   UNL A   1      38.163  22.605  25.968  1.00  0.00     0.261 C 
BRANCH   4   5
ATOM      5  O   UNL A   1      36.914  23.256  26.321  1.00  0.00    -0.463 OA
BRANCH   5   6
ATOM      6  C   UNL A   1      35.803  22.484  26.206  1.00  0.00     0.310 C 
ATOM      7  O   UNL A   1      35.871  21.258  26.273  1.00  0.00    -0.252 OA
BRANCH   6   8
ATOM      8  C   UNL A   1      34.448  23.207  26.232  1.00  0.00     0.161 C 
BRANCH   8   9
ATOM      9  C   UNL A   1      33.551  23.404  25.028  1.00  0.00     0.002 A 
ATOM     10  C   UNL A   1      32.389  20.210  23.153  1.00  0.00     0.119 A 
ATOM     11  C   UNL A   1      31.917  20.844  22.035  1.00  0.00     0.048 A 
ATOM     12  C   UNL A   1      32.987  20.979  24.161  1.00  0.00     0.057 A 
ATOM     13  C   UNL A   1      32.017  22.232  21.948  1.00  0.00     0.031 A 
ATOM     14  C   UNL A   1      33.018  22.392  24.160  1.00  0.00     0.008 A 
ATOM     15  C   UNL A   1      32.494  23.014  23.034  1.00  0.00     0.057 A 
ATOM     16  N   UNL A   1      32.567  24.403  23.247  1.00  0.00    -0.271 N 
ATOM     17  C   UNL A   1      33.399  24.617  24.347  1.00  0.00     0.135 A 
BRANCH  10  18
ATOM     18  O   UNL A   1      32.255  18.877  23.396  1.00  0.00    -0.497 OA
ATOM     19  C   UNL A   1      33.298  18.227  24.119  1.00  0.00     0.278 C 
ENDBRANCH  10  18
BRANCH  16  20
ATOM     20  C   UNL A   1      31.888  25.355  22.447  1.00  0.00     0.262 C 
ATOM     21  O   UNL A   1      32.181  25.477  21.262  1.00  0.00    -0.268 OA
BRANCH  20  22
ATOM     22  C   UNL A   1      30.825  26.228  22.974  1.00  0.00     0.040 A 
ATOM     23  C   UNL A   1      29.798  25.669  23.747  1.00  0.00     0.015 A 
ATOM     24  C   UNL A   1      30.742  27.537  22.488  1.00  0.00     0.015 A 
ATOM     25  C   UNL A   1      28.635  26.407  23.967  1.00  0.00     0.021 A 
ATOM     26  C   UNL A   1      29.571  28.264  22.707  1.00  0.00     0.021 A 
ATOM     27  C   UNL A   1      28.518  27.691  23.427  1.00  0.00     0.041 A 
ATOM     28  Cl  UNL A   1      27.035  28.545  23.585  1.00  0.00    -0.084 Cl
ENDBRANCH  20  22
ENDBRANCH  16  20
BRANCH  17  29
ATOM     29  C   UNL A   1      34.114  25.882  24.700  1.00  0.00     0.432 C 
ATOM     30  F   UNL A   1      33.599  26.399  25.849  1.00  0.00    -0.165 F 
ATOM     31  F   UNL A   1      35.417  25.595  24.973  1.00  0.00    -0.165 F 
ATOM     32  F   UNL A   1      34.121  26.889  23.813  1.00  0.00    -0.165 F 
ENDBRANCH  17  29
ENDBRANCH   8   9
ENDBRANCH   6   8
ENDBRANCH   5   6
ENDBRANCH   4   5
ENDBRANCH   3   4
ENDBRANCH   2   3
ENDBRANCH   1   2
BRANCH   1  33
ATOM     33  C   UNL A   1      42.069  22.479  25.762  1.00  0.00     0.188 C 
BRANCH  33  34
ATOM     34  O   UNL A   1      43.151  21.837  25.138  1.00  0.00    -0.376 OA
BRANCH  34  35
ATOM     35  C   UNL A   1      44.343  22.594  25.023  1.00  0.00     0.202 C 
BRANCH  35  36
ATOM     36  C   UNL A   1      45.519  22.261  25.977  1.00  0.00     0.261 C 
BRANCH  36  37
ATOM     37  O   UNL A   1      45.849  23.353  26.885  1.00  0.00    -0.460 OA
BRANCH  37  38
ATOM     38  C   UNL A   1      44.942  23.633  27.871  1.00  0.00     0.338 C 
ATOM     39  O   UNL A   1      44.806  22.993  28.903  1.00  0.00    -0.246 OA
BRANCH  38  40
ATOM     40  C   UNL A   1      44.427  25.042  27.697  1.00  0.00     0.060 A 
ATOM     41  C   UNL A   1      45.185  26.214  27.772  1.00  0.00     0.016 A 
ATOM     42  C   UNL A   1      43.048  25.177  27.722  1.00  0.00     0.016 A 
ATOM     43  C   UNL A   1      44.571  27.457  28.105  1.00  0.00     0.010 A 
ATOM     44  C   UNL A   1      42.457  26.364  28.153  1.00  0.00     0.010 A 
ATOM     45  C   UNL A   1      43.207  27.518  28.414  1.00  0.00    -0.014 A 
BRANCH  45  46
ATOM     46  C   UNL A   1      42.398  28.737  28.671  1.00  0.00     0.031 A 
ATOM     47  C   UNL A   1      43.154  29.940  28.313  1.00  0.00     0.074 A 
ATOM     48  C   UNL A   1      41.150  28.968  29.149  1.00  0.00     0.049 A 
ATOM     49  N   UNL A   1      43.895  30.540  29.181  1.00  0.00    -0.248 NA
ATOM     50  C   UNL A   1      43.307  30.406  26.936  1.00  0.00     0.031 C 
ATOM     51  C   UNL A   1      40.268  28.047  29.829  1.00  0.00     0.029 A 
ATOM     52  N   UNL A   1      40.378  30.119  29.096  1.00  0.00    -0.354 N 
ATOM     53  C   UNL A   1      44.426  31.618  28.518  1.00  0.00     0.074 A 
ATOM     54  C   UNL A   1      44.253  31.332  27.113  1.00  0.00     0.031 C 
ATOM     55  C   UNL A   1      39.026  28.577  29.941  1.00  0.00     0.029 A 
ATOM     56  C   UNL A   1      39.022  29.934  29.404  1.00  0.00     0.049 A 
ATOM     57  H   UNL A   1      40.753  30.999  28.860  1.00  0.00     0.167 HD
ATOM     58  C   UNL A   1      44.671  32.769  29.196  1.00  0.00     0.031 A 
ATOM     59  C   UNL A   1      38.073  30.815  29.835  1.00  0.00     0.031 A 
ATOM     60  C   UNL A   1      44.549  32.581  30.630  1.00  0.00     0.049 A 
ATOM     61  C   UNL A   1      38.788  31.843  30.613  1.00  0.00     0.074 A 
ATOM     62  C   UNL A   1      45.158  31.765  31.564  1.00  0.00     0.029 A 
ATOM     63  N   UNL A   1      43.382  33.018  31.216  1.00  0.00    -0.354 N 
ATOM     64  N   UNL A   1      39.302  31.614  31.785  1.00  0.00    -0.248 NA
ATOM     65  C   UNL A   1      39.305  33.006  29.913  1.00  0.00     0.031 C 
ATOM     66  C   UNL A   1      44.138  31.421  32.497  1.00  0.00     0.029 A 
ATOM     67  C   UNL A   1      42.968  32.091  32.139  1.00  0.00     0.049 A 
ATOM     68  H   UNL A   1      42.918  33.861  31.007  1.00  0.00     0.167 HD
ATOM     69  C   UNL A   1      40.514  32.283  31.758  1.00  0.00     0.074 A 
ATOM     70  C   UNL A   1      40.410  33.210  30.634  1.00  0.00     0.031 C 
ATOM     71  C   UNL A   1      41.581  31.833  32.480  1.00  0.00     0.031 A 
BRANCH  58  72
ATOM     72  C   UNL A   1      44.596  34.125  28.555  1.00  0.00    -0.014 A 
ATOM     73  C   UNL A   1      45.679  35.021  28.470  1.00  0.00     0.009 A 
ATOM     74  C   UNL A   1      43.457  34.438  27.798  1.00  0.00     0.009 A 
ATOM     75  C   UNL A   1      45.642  36.157  27.663  1.00  0.00     0.001 A 
ATOM     76  C   UNL A   1      43.431  35.552  26.954  1.00  0.00     0.001 A 
ATOM     77  C   UNL A   1      44.525  36.408  26.885  1.00  0.00     0.000 A 
ENDBRANCH  58  72
BRANCH  59  78
ATOM     78  C   UNL A   1      36.779  31.113  29.153  1.00  0.00    -0.014 A 
ATOM     79  C   UNL A   1      35.908  32.113  29.616  1.00  0.00     0.009 A 
ATOM     80  C   UNL A   1      36.326  30.313  28.084  1.00  0.00     0.009 A 
ATOM     81  C   UNL A   1      34.625  32.278  29.070  1.00  0.00     0.001 A 
ATOM     82  C   UNL A   1      35.042  30.478  27.535  1.00  0.00     0.001 A 
ATOM     83  C   UNL A   1      34.186  31.452  28.039  1.00  0.00     0.000 A 
ENDBRANCH  59  78
BRANCH  71  84
ATOM     84  C   UNL A   1      41.341  30.786  33.551  1.00  0.00    -0.014 A 
ATOM     85  C   UNL A   1      41.320  31.203  34.891  1.00  0.00     0.009 A 
ATOM     86  C   UNL A   1      41.331  29.405  33.296  1.00  0.00     0.009 A 
ATOM     87  C   UNL A   1      41.341  30.275  35.937  1.00  0.00     0.001 A 
ATOM     88  C   UNL A   1      41.332  28.472  34.341  1.00  0.00     0.001 A 
ATOM     89  C   UNL A   1      41.356  28.909  35.662  1.00  0.00     0.000 A 
ENDBRANCH  71  84
ENDBRANCH  45  46
ENDBRANCH  38  40
ENDBRANCH  37  38
ENDBRANCH  36  37
ENDBRANCH  35  36
ENDBRANCH  34  35
ENDBRANCH  33  34
ENDBRANCH   1  33
TORSDOF 22
ENDMDL
