MODEL 1
REMARK VINA RESULT:     -11.3      0.000      0.000
REMARK SMILES CCc1cccc(C)c1Nc1ccccc1CC(=O)OCCOCCOCCOC(=O)c1ccc(-c2c3nc(c(-c4ccccc4)c4ccc([nH]4)c(-c4ccccc4)c4nc(c(-c5ccccc5)c5ccc2[nH]5)C=C4)C=C3)cc1
REMARK SMILES IDX 24 1 23 2 22 3 21 4 20 5 18 6 19 7 17 8 16 9 11 10 12 11
REMARK SMILES IDX 13 12 15 13 14 14 10 15 9 17 3 18 4 19 5 20 7 21 6 22 8 23
REMARK SMILES IDX 2 24 1 25 25 26 26 27 27 28 28 29 29 30 30 31 31 32 32 33
REMARK SMILES IDX 33 34 79 35 34 36 78 37 35 38 36 39 37 40 72 41 38 42 77 43
REMARK SMILES IDX 71 44 73 45 39 46 76 47 70 48 69 49 40 51 62 52 47 53 61 54
REMARK SMILES IDX 48 55 51 56 60 57 74 58 49 59 50 60 59 62 75 63 52 64 41 65
REMARK SMILES IDX 42 66 46 67 43 68 45 69 44 70 63 71 64 72 68 73 65 74 67 75
REMARK SMILES IDX 66 76 53 77 54 78 58 79 55 80 57 81 56 82
REMARK H PARENT 10 16 73 50 51 61
REMARK Flexibility Score: inf
ROOT
ATOM      1  C   UNL A   1      31.635  28.776  25.731  1.00  0.00     0.188 C 
ENDROOT
BRANCH   1   2
ATOM      2  O   UNL A   1      31.218  29.127  24.375  1.00  0.00    -0.376 OA
BRANCH   2   3
ATOM      3  C   UNL A   1      31.727  28.379  23.256  1.00  0.00     0.202 C 
BRANCH   3   4
ATOM      4  C   UNL A   1      33.314  28.137  23.186  1.00  0.00     0.261 C 
BRANCH   4   5
ATOM      5  O   UNL A   1      33.899  26.802  23.517  1.00  0.00    -0.463 OA
BRANCH   5   6
ATOM      6  C   UNL A   1      33.533  25.781  22.643  1.00  0.00     0.310 C 
ATOM      7  O   UNL A   1      33.716  25.953  21.442  1.00  0.00    -0.252 OA
BRANCH   6   8
ATOM      8  C   UNL A   1      32.878  24.419  23.192  1.00  0.00     0.160 C 
BRANCH   8   9
ATOM      9  C   UNL A   1      31.798  23.813  24.366  1.00  0.00    -0.013 A 
ATOM     10  C   UNL A   1      31.406  22.338  25.014  1.00  0.00     0.042 A 
ATOM     11  C   UNL A   1      30.636  22.673  26.311  1.00  0.00     0.026 A 
ATOM     12  C   UNL A   1      30.162  23.940  26.726  1.00  0.00     0.002 A 
ATOM     13  C   UNL A   1      31.051  24.981  24.775  1.00  0.00     0.006 A 
ATOM     14  C   UNL A   1      30.277  25.049  25.924  1.00  0.00     0.000 A 
BRANCH  10  15
ATOM     15  N   UNL A   1      31.980  20.527  24.428  1.00  0.00    -0.355 N 
ATOM     16  H   UNL A   1      31.124  20.107  24.185  1.00  0.00     0.167 HD
BRANCH  15  17
ATOM     17  C   UNL A   1      33.063  19.321  24.114  1.00  0.00     0.045 A 
ATOM     18  C   UNL A   1      34.390  19.328  24.673  1.00  0.00    -0.024 A 
ATOM     19  C   UNL A   1      35.203  18.127  24.590  1.00  0.00     0.006 A 
ATOM     20  C   UNL A   1      34.804  16.955  23.995  1.00  0.00     0.001 A 
ATOM     21  C   UNL A   1      32.887  18.208  23.285  1.00  0.00    -0.027 A 
ATOM     22  C   UNL A   1      33.635  17.011  23.329  1.00  0.00     0.005 A 
ATOM     23  C   UNL A   1      32.117  18.165  22.058  1.00  0.00     0.046 C 
BRANCH  18  24
ATOM     24  C   UNL A   1      35.293  20.494  25.048  1.00  0.00     0.034 C 
ATOM     25  C   UNL A   1      35.114  21.907  24.569  1.00  0.00     0.009 C 
ENDBRANCH  18  24
ENDBRANCH  15  17
ENDBRANCH  10  15
ENDBRANCH   8   9
ENDBRANCH   6   8
ENDBRANCH   5   6
ENDBRANCH   4   5
ENDBRANCH   3   4
ENDBRANCH   2   3
ENDBRANCH   1   2
BRANCH   1  26
ATOM     26  C   UNL A   1      32.367  29.985  26.430  1.00  0.00     0.188 C 
BRANCH  26  27
ATOM     27  O   UNL A   1      33.771  29.949  26.162  1.00  0.00    -0.376 OA
BRANCH  27  28
ATOM     28  C   UNL A   1      34.629  29.279  27.073  1.00  0.00     0.202 C 
BRANCH  28  29
ATOM     29  C   UNL A   1      35.445  30.145  28.070  1.00  0.00     0.261 C 
BRANCH  29  30
ATOM     30  O   UNL A   1      35.878  29.631  29.420  1.00  0.00    -0.460 OA
BRANCH  30  31
ATOM     31  C   UNL A   1      36.870  29.686  30.360  1.00  0.00     0.338 C 
ATOM     32  O   UNL A   1      36.604  29.745  31.558  1.00  0.00    -0.246 OA
BRANCH  31  33
ATOM     33  C   UNL A   1      38.299  29.485  30.019  1.00  0.00     0.060 A 
ATOM     34  C   UNL A   1      39.734  30.541  30.560  1.00  0.00     0.016 A 
ATOM     35  C   UNL A   1      38.566  28.144  28.890  1.00  0.00     0.016 A 
ATOM     36  C   UNL A   1      41.397  30.290  29.793  1.00  0.00     0.010 A 
ATOM     37  C   UNL A   1      40.207  27.941  28.125  1.00  0.00     0.010 A 
ATOM     38  C   UNL A   1      41.691  28.992  28.535  1.00  0.00    -0.014 A 
BRANCH  38  39
ATOM     39  C   UNL A   1      43.057  28.877  27.716  1.00  0.00     0.031 A 
ATOM     40  C   UNL A   1      44.060  29.947  26.968  1.00  0.00     0.074 A 
ATOM     41  C   UNL A   1      43.705  27.720  28.009  1.00  0.00     0.049 A 
ATOM     42  N   UNL A   1      45.331  29.690  26.694  1.00  0.00    -0.248 NA
ATOM     43  C   UNL A   1      43.805  31.342  26.462  1.00  0.00     0.031 C 
ATOM     44  C   UNL A   1      45.102  27.663  28.452  1.00  0.00     0.029 A 
ATOM     45  N   UNL A   1      43.285  26.416  28.204  1.00  0.00    -0.354 N 
ATOM     46  C   UNL A   1      46.009  30.912  26.629  1.00  0.00     0.074 A 
ATOM     47  C   UNL A   1      45.023  31.856  26.239  1.00  0.00     0.031 C 
ATOM     48  C   UNL A   1      45.435  26.405  28.749  1.00  0.00     0.029 A 
ATOM     49  C   UNL A   1      44.375  25.548  28.286  1.00  0.00     0.049 A 
ATOM     50  H   UNL A   1      42.344  26.138  28.276  1.00  0.00     0.167 HD
ATOM     51  C   UNL A   1      47.261  31.095  27.163  1.00  0.00     0.031 A 
ATOM     52  C   UNL A   1      44.563  24.417  27.547  1.00  0.00     0.031 A 
ATOM     53  C   UNL A   1      47.955  29.834  27.325  1.00  0.00     0.049 A 
ATOM     54  C   UNL A   1      45.822  24.524  26.691  1.00  0.00     0.074 A 
ATOM     55  C   UNL A   1      48.483  29.090  28.360  1.00  0.00     0.029 A 
ATOM     56  N   UNL A   1      47.969  29.018  26.215  1.00  0.00    -0.354 N 
ATOM     57  N   UNL A   1      46.780  25.393  26.900  1.00  0.00    -0.248 NA
ATOM     58  C   UNL A   1      46.074  23.750  25.473  1.00  0.00     0.031 C 
ATOM     59  C   UNL A   1      48.643  27.748  27.869  1.00  0.00     0.029 A 
ATOM     60  C   UNL A   1      48.295  27.719  26.526  1.00  0.00     0.049 A 
ATOM     61  H   UNL A   1      47.770  29.330  25.304  1.00  0.00     0.167 HD
ATOM     62  C   UNL A   1      47.478  25.574  25.739  1.00  0.00     0.074 A 
ATOM     63  C   UNL A   1      47.122  24.412  24.948  1.00  0.00     0.031 C 
ATOM     64  C   UNL A   1      48.143  26.735  25.449  1.00  0.00     0.031 A 
BRANCH  51  65
ATOM     65  C   UNL A   1      47.825  32.432  27.658  1.00  0.00    -0.014 A 
ATOM     66  C   UNL A   1      48.462  33.318  26.765  1.00  0.00     0.009 A 
ATOM     67  C   UNL A   1      47.872  32.818  29.017  1.00  0.00     0.009 A 
ATOM     68  C   UNL A   1      49.071  34.517  27.195  1.00  0.00     0.001 A 
ATOM     69  C   UNL A   1      48.447  34.030  29.449  1.00  0.00     0.001 A 
ATOM     70  C   UNL A   1      49.050  34.882  28.535  1.00  0.00     0.000 A 
ENDBRANCH  51  65
BRANCH  52  71
ATOM     71  C   UNL A   1      43.278  23.715  27.259  1.00  0.00    -0.014 A 
ATOM     72  C   UNL A   1      42.965  23.558  25.892  1.00  0.00     0.009 A 
ATOM     73  C   UNL A   1      42.801  22.756  28.168  1.00  0.00     0.009 A 
ATOM     74  C   UNL A   1      42.403  22.365  25.424  1.00  0.00     0.001 A 
ATOM     75  C   UNL A   1      42.259  21.554  27.690  1.00  0.00     0.001 A 
ATOM     76  C   UNL A   1      42.106  21.343  26.320  1.00  0.00     0.000 A 
ENDBRANCH  52  71
BRANCH  64  77
ATOM     77  C   UNL A   1      48.560  27.129  24.034  1.00  0.00    -0.014 A 
ATOM     78  C   UNL A   1      47.663  27.617  23.072  1.00  0.00     0.009 A 
ATOM     79  C   UNL A   1      49.931  27.188  23.690  1.00  0.00     0.009 A 
ATOM     80  C   UNL A   1      48.094  28.037  21.806  1.00  0.00     0.001 A 
ATOM     81  C   UNL A   1      50.373  27.694  22.462  1.00  0.00     0.001 A 
ATOM     82  C   UNL A   1      49.449  28.083  21.503  1.00  0.00     0.000 A 
ENDBRANCH  64  77
ENDBRANCH  38  39
ENDBRANCH  31  33
ENDBRANCH  30  31
ENDBRANCH  29  30
ENDBRANCH  28  29
ENDBRANCH  27  28
ENDBRANCH  26  27
ENDBRANCH   1  26
TORSDOF 21
ENDMDL
MODEL 2
REMARK VINA RESULT:     -11.2      5.031      9.499
REMARK SMILES CCc1cccc(C)c1Nc1ccccc1CC(=O)OCCOCCOCCOC(=O)c1ccc(-c2c3nc(c(-c4ccccc4)c4ccc([nH]4)c(-c4ccccc4)c4nc(c(-c5ccccc5)c5ccc2[nH]5)C=C4)C=C3)cc1
REMARK SMILES IDX 24 1 23 2 22 3 21 4 20 5 18 6 19 7 17 8 16 9 11 10 12 11
REMARK SMILES IDX 13 12 15 13 14 14 10 15 9 17 3 18 4 19 5 20 7 21 6 22 8 23
REMARK SMILES IDX 2 24 1 25 25 26 26 27 27 28 28 29 29 30 30 31 31 32 32 33
REMARK SMILES IDX 33 34 79 35 34 36 78 37 35 38 36 39 37 40 72 41 38 42 77 43
REMARK SMILES IDX 71 44 73 45 39 46 76 47 70 48 69 49 40 51 62 52 47 53 61 54
REMARK SMILES IDX 48 55 51 56 60 57 74 58 49 59 50 60 59 62 75 63 52 64 41 65
REMARK SMILES IDX 42 66 46 67 43 68 45 69 44 70 63 71 64 72 68 73 65 74 67 75
REMARK SMILES IDX 66 76 53 77 54 78 58 79 55 80 57 81 56 82
REMARK H PARENT 10 16 73 50 51 61
REMARK Flexibility Score: inf
ROOT
ATOM      1  C   UNL A   1      36.641  23.075  23.339  1.00  0.00     0.188 C 
ENDROOT
BRANCH   1   2
ATOM      2  O   UNL A   1      35.221  23.237  23.036  1.00  0.00    -0.376 OA
BRANCH   2   3
ATOM      3  C   UNL A   1      34.566  24.483  23.331  1.00  0.00     0.202 C 
BRANCH   3   4
ATOM      4  C   UNL A   1      33.309  24.894  22.418  1.00  0.00     0.261 C 
BRANCH   4   5
ATOM      5  O   UNL A   1      33.407  26.027  21.448  1.00  0.00    -0.463 OA
BRANCH   5   6
ATOM      6  C   UNL A   1      33.457  27.287  22.039  1.00  0.00     0.310 C 
ATOM      7  O   UNL A   1      34.351  28.053  21.693  1.00  0.00    -0.252 OA
BRANCH   6   8
ATOM      8  C   UNL A   1      32.380  27.723  23.151  1.00  0.00     0.160 C 
BRANCH   8   9
ATOM      9  C   UNL A   1      32.220  28.090  24.809  1.00  0.00    -0.013 A 
ATOM     10  C   UNL A   1      32.435  27.308  26.256  1.00  0.00     0.042 A 
ATOM     11  C   UNL A   1      32.486  28.439  27.307  1.00  0.00     0.026 A 
ATOM     12  C   UNL A   1      32.177  29.806  27.115  1.00  0.00     0.002 A 
ATOM     13  C   UNL A   1      31.696  29.437  24.810  1.00  0.00     0.006 A 
ATOM     14  C   UNL A   1      31.692  30.272  25.917  1.00  0.00     0.000 A 
BRANCH  10  15
ATOM     15  N   UNL A   1      32.795  25.382  26.590  1.00  0.00    -0.355 N 
ATOM     16  H   UNL A   1      33.434  25.417  27.338  1.00  0.00     0.167 HD
BRANCH  15  17
ATOM     17  C   UNL A   1      32.642  23.757  26.337  1.00  0.00     0.045 A 
ATOM     18  C   UNL A   1      31.360  23.142  26.110  1.00  0.00    -0.024 A 
ATOM     19  C   UNL A   1      31.304  21.773  25.629  1.00  0.00     0.006 A 
ATOM     20  C   UNL A   1      32.404  20.988  25.377  1.00  0.00     0.001 A 
ATOM     21  C   UNL A   1      33.654  22.792  26.344  1.00  0.00    -0.027 A 
ATOM     22  C   UNL A   1      33.587  21.511  25.753  1.00  0.00     0.005 A 
ATOM     23  C   UNL A   1      34.837  22.793  27.182  1.00  0.00     0.046 C 
BRANCH  18  24
ATOM     24  C   UNL A   1      29.979  23.529  26.619  1.00  0.00     0.034 C 
ATOM     25  C   UNL A   1      29.084  22.638  27.433  1.00  0.00     0.009 C 
ENDBRANCH  18  24
ENDBRANCH  15  17
ENDBRANCH  10  15
ENDBRANCH   8   9
ENDBRANCH   6   8
ENDBRANCH   5   6
ENDBRANCH   4   5
ENDBRANCH   3   4
ENDBRANCH   2   3
ENDBRANCH   1   2
BRANCH   1  26
ATOM     26  C   UNL A   1      36.940  21.630  23.895  1.00  0.00     0.188 C 
BRANCH  26  27
ATOM     27  O   UNL A   1      37.128  21.663  25.312  1.00  0.00    -0.376 OA
BRANCH  27  28
ATOM     28  C   UNL A   1      38.431  21.884  25.829  1.00  0.00     0.202 C 
BRANCH  28  29
ATOM     29  C   UNL A   1      38.767  23.301  26.366  1.00  0.00     0.261 C 
BRANCH  29  30
ATOM     30  O   UNL A   1      40.178  23.731  26.681  1.00  0.00    -0.460 OA
BRANCH  30  31
ATOM     31  C   UNL A   1      41.057  23.983  27.699  1.00  0.00     0.338 C 
ATOM     32  O   UNL A   1      41.930  23.171  27.996  1.00  0.00    -0.246 OA
BRANCH  31  33
ATOM     33  C   UNL A   1      41.142  25.304  28.367  1.00  0.00     0.060 A 
ATOM     34  C   UNL A   1      42.696  26.221  28.829  1.00  0.00     0.016 A 
ATOM     35  C   UNL A   1      39.561  25.953  28.836  1.00  0.00     0.016 A 
ATOM     36  C   UNL A   1      42.589  27.716  29.911  1.00  0.00     0.010 A 
ATOM     37  C   UNL A   1      39.487  27.407  29.931  1.00  0.00     0.010 A 
ATOM     38  C   UNL A   1      40.982  28.354  30.517  1.00  0.00    -0.014 A 
BRANCH  38  39
ATOM     39  C   UNL A   1      40.870  29.517  31.604  1.00  0.00     0.031 A 
ATOM     40  C   UNL A   1      41.605  29.843  33.041  1.00  0.00     0.074 A 
ATOM     41  C   UNL A   1      40.333  30.641  31.063  1.00  0.00     0.049 A 
ATOM     42  N   UNL A   1      41.650  31.052  33.582  1.00  0.00    -0.248 NA
ATOM     43  C   UNL A   1      42.331  28.937  33.999  1.00  0.00     0.031 C 
ATOM     44  C   UNL A   1      40.965  31.962  31.142  1.00  0.00     0.029 A 
ATOM     45  N   UNL A   1      39.295  30.869  30.175  1.00  0.00    -0.354 N 
ATOM     46  C   UNL A   1      42.775  31.106  34.412  1.00  0.00     0.074 A 
ATOM     47  C   UNL A   1      42.989  29.765  34.825  1.00  0.00     0.031 C 
ATOM     48  C   UNL A   1      40.254  32.851  30.445  1.00  0.00     0.029 A 
ATOM     49  C   UNL A   1      39.004  32.231  30.087  1.00  0.00     0.049 A 
ATOM     50  H   UNL A   1      38.826  30.164  29.674  1.00  0.00     0.167 HD
ATOM     51  C   UNL A   1      43.599  32.203  34.475  1.00  0.00     0.031 A 
ATOM     52  C   UNL A   1      37.780  32.807  30.256  1.00  0.00     0.031 A 
ATOM     53  C   UNL A   1      42.923  33.397  34.011  1.00  0.00     0.049 A 
ATOM     54  C   UNL A   1      37.786  33.773  31.438  1.00  0.00     0.074 A 
ATOM     55  C   UNL A   1      43.076  34.323  32.999  1.00  0.00     0.029 A 
ATOM     56  N   UNL A   1      41.687  33.634  34.569  1.00  0.00    -0.354 N 
ATOM     57  N   UNL A   1      38.874  34.266  31.977  1.00  0.00    -0.248 NA
ATOM     58  C   UNL A   1      36.597  34.190  32.185  1.00  0.00     0.031 C 
ATOM     59  C   UNL A   1      41.814  34.998  32.858  1.00  0.00     0.029 A 
ATOM     60  C   UNL A   1      40.948  34.537  33.840  1.00  0.00     0.049 A 
ATOM     61  H   UNL A   1      41.369  33.207  35.396  1.00  0.00     0.167 HD
ATOM     62  C   UNL A   1      38.596  34.663  33.255  1.00  0.00     0.074 A 
ATOM     63  C   UNL A   1      37.150  34.762  33.270  1.00  0.00     0.031 C 
ATOM     64  C   UNL A   1      39.547  34.704  34.240  1.00  0.00     0.031 A 
BRANCH  51  65
ATOM     65  C   UNL A   1      45.084  32.174  34.854  1.00  0.00    -0.014 A 
ATOM     66  C   UNL A   1      45.680  33.271  35.509  1.00  0.00     0.009 A 
ATOM     67  C   UNL A   1      45.978  31.146  34.478  1.00  0.00     0.009 A 
ATOM     68  C   UNL A   1      47.061  33.321  35.797  1.00  0.00     0.001 A 
ATOM     69  C   UNL A   1      47.351  31.173  34.793  1.00  0.00     0.001 A 
ATOM     70  C   UNL A   1      47.895  32.264  35.454  1.00  0.00     0.000 A 
ENDBRANCH  51  65
BRANCH  52  71
ATOM     71  C   UNL A   1      36.677  31.941  29.746  1.00  0.00    -0.014 A 
ATOM     72  C   UNL A   1      36.525  31.917  28.343  1.00  0.00     0.009 A 
ATOM     73  C   UNL A   1      36.302  30.803  30.478  1.00  0.00     0.009 A 
ATOM     74  C   UNL A   1      36.236  30.719  27.680  1.00  0.00     0.001 A 
ATOM     75  C   UNL A   1      36.035  29.601  29.807  1.00  0.00     0.001 A 
ATOM     76  C   UNL A   1      36.050  29.551  28.413  1.00  0.00     0.000 A 
ENDBRANCH  52  71
BRANCH  64  77
ATOM     77  C   UNL A   1      39.209  34.726  35.729  1.00  0.00    -0.014 A 
ATOM     78  C   UNL A   1      38.528  33.688  36.382  1.00  0.00     0.009 A 
ATOM     79  C   UNL A   1      39.742  35.738  36.562  1.00  0.00     0.009 A 
ATOM     80  C   UNL A   1      38.299  33.710  37.764  1.00  0.00     0.001 A 
ATOM     81  C   UNL A   1      39.596  35.716  37.953  1.00  0.00     0.001 A 
ATOM     82  C   UNL A   1      38.838  34.720  38.552  1.00  0.00     0.000 A 
ENDBRANCH  64  77
ENDBRANCH  38  39
ENDBRANCH  31  33
ENDBRANCH  30  31
ENDBRANCH  29  30
ENDBRANCH  28  29
ENDBRANCH  27  28
ENDBRANCH  26  27
ENDBRANCH   1  26
TORSDOF 21
ENDMDL
MODEL 3
REMARK VINA RESULT:     -10.6      4.979     10.527
REMARK SMILES CCc1cccc(C)c1Nc1ccccc1CC(=O)OCCOCCOCCOC(=O)c1ccc(-c2c3nc(c(-c4ccccc4)c4ccc([nH]4)c(-c4ccccc4)c4nc(c(-c5ccccc5)c5ccc2[nH]5)C=C4)C=C3)cc1
REMARK SMILES IDX 24 1 23 2 22 3 21 4 20 5 18 6 19 7 17 8 16 9 11 10 12 11
REMARK SMILES IDX 13 12 15 13 14 14 10 15 9 17 3 18 4 19 5 20 7 21 6 22 8 23
REMARK SMILES IDX 2 24 1 25 25 26 26 27 27 28 28 29 29 30 30 31 31 32 32 33
REMARK SMILES IDX 33 34 79 35 34 36 78 37 35 38 36 39 37 40 72 41 38 42 77 43
REMARK SMILES IDX 71 44 73 45 39 46 76 47 70 48 69 49 40 51 62 52 47 53 61 54
REMARK SMILES IDX 48 55 51 56 60 57 74 58 49 59 50 60 59 62 75 63 52 64 41 65
REMARK SMILES IDX 42 66 46 67 43 68 45 69 44 70 63 71 64 72 68 73 65 74 67 75
REMARK SMILES IDX 66 76 53 77 54 78 58 79 55 80 57 81 56 82
REMARK H PARENT 10 16 73 50 51 61
REMARK Flexibility Score: inf
ROOT
ATOM      1  C   UNL A   1      35.954  21.345  25.460  1.00  0.00     0.188 C 
ENDROOT
BRANCH   1   2
ATOM      2  O   UNL A   1      34.710  21.044  24.755  1.00  0.00    -0.376 OA
BRANCH   2   3
ATOM      3  C   UNL A   1      33.733  22.081  24.560  1.00  0.00     0.202 C 
BRANCH   3   4
ATOM      4  C   UNL A   1      33.607  23.205  25.700  1.00  0.00     0.261 C 
BRANCH   4   5
ATOM      5  O   UNL A   1      34.297  24.523  25.555  1.00  0.00    -0.463 OA
BRANCH   5   6
ATOM      6  C   UNL A   1      33.495  25.626  25.838  1.00  0.00     0.310 C 
ATOM      7  O   UNL A   1      32.357  25.424  26.252  1.00  0.00    -0.252 OA
BRANCH   6   8
ATOM      8  C   UNL A   1      34.040  27.123  25.619  1.00  0.00     0.160 C 
BRANCH   8   9
ATOM      9  C   UNL A   1      33.836  28.730  26.155  1.00  0.00    -0.013 A 
ATOM     10  C   UNL A   1      32.779  29.979  25.886  1.00  0.00     0.042 A 
ATOM     11  C   UNL A   1      33.026  30.959  27.054  1.00  0.00     0.026 A 
ATOM     12  C   UNL A   1      34.077  30.921  28.001  1.00  0.00     0.002 A 
ATOM     13  C   UNL A   1      34.981  28.951  27.010  1.00  0.00     0.006 A 
ATOM     14  C   UNL A   1      35.089  29.997  27.914  1.00  0.00     0.000 A 
BRANCH  10  15
ATOM     15  N   UNL A   1      31.336  30.119  24.525  1.00  0.00    -0.355 N 
ATOM     16  H   UNL A   1      31.708  30.778  23.896  1.00  0.00     0.167 HD
BRANCH  15  17
ATOM     17  C   UNL A   1      29.874  29.768  23.842  1.00  0.00     0.045 A 
ATOM     18  C   UNL A   1      29.513  28.425  23.472  1.00  0.00    -0.024 A 
ATOM     19  C   UNL A   1      28.132  28.129  23.130  1.00  0.00     0.006 A 
ATOM     20  C   UNL A   1      27.116  29.053  23.119  1.00  0.00     0.001 A 
ATOM     21  C   UNL A   1      28.853  30.661  23.504  1.00  0.00    -0.027 A 
ATOM     22  C   UNL A   1      27.495  30.333  23.299  1.00  0.00     0.005 A 
ATOM     23  C   UNL A   1      29.022  32.018  23.024  1.00  0.00     0.046 C 
BRANCH  18  24
ATOM     24  C   UNL A   1      30.381  27.264  23.009  1.00  0.00     0.034 C 
ATOM     25  C   UNL A   1      30.281  25.857  23.530  1.00  0.00     0.009 C 
ENDBRANCH  18  24
ENDBRANCH  15  17
ENDBRANCH  10  15
ENDBRANCH   8   9
ENDBRANCH   6   8
ENDBRANCH   5   6
ENDBRANCH   4   5
ENDBRANCH   3   4
ENDBRANCH   2   3
ENDBRANCH   1   2
BRANCH   1  26
ATOM     26  C   UNL A   1      37.178  20.608  24.791  1.00  0.00     0.188 C 
BRANCH  26  27
ATOM     27  O   UNL A   1      38.381  20.867  25.518  1.00  0.00    -0.376 OA
BRANCH  27  28
ATOM     28  C   UNL A   1      38.570  22.146  26.104  1.00  0.00     0.202 C 
BRANCH  28  29
ATOM     29  C   UNL A   1      40.021  22.578  26.446  1.00  0.00     0.261 C 
BRANCH  29  30
ATOM     30  O   UNL A   1      40.382  24.007  26.769  1.00  0.00    -0.460 OA
BRANCH  30  31
ATOM     31  C   UNL A   1      41.296  24.998  26.535  1.00  0.00     0.338 C 
ATOM     32  O   UNL A   1      42.043  24.952  25.561  1.00  0.00    -0.246 OA
BRANCH  31  33
ATOM     33  C   UNL A   1      41.312  26.262  27.309  1.00  0.00     0.060 A 
ATOM     34  C   UNL A   1      42.813  27.255  27.789  1.00  0.00     0.016 A 
ATOM     35  C   UNL A   1      39.709  26.748  27.889  1.00  0.00     0.016 A 
ATOM     36  C   UNL A   1      42.643  28.643  28.998  1.00  0.00     0.010 A 
ATOM     37  C   UNL A   1      39.577  28.098  29.105  1.00  0.00     0.010 A 
ATOM     38  C   UNL A   1      41.022  29.105  29.715  1.00  0.00    -0.014 A 
BRANCH  38  39
ATOM     39  C   UNL A   1      40.872  30.163  30.900  1.00  0.00     0.031 A 
ATOM     40  C   UNL A   1      40.258  31.685  31.033  1.00  0.00     0.074 A 
ATOM     41  C   UNL A   1      40.927  29.550  32.111  1.00  0.00     0.049 A 
ATOM     42  N   UNL A   1      39.878  32.223  32.183  1.00  0.00    -0.248 NA
ATOM     43  C   UNL A   1      40.006  32.736  29.984  1.00  0.00     0.031 C 
ATOM     44  C   UNL A   1      39.903  29.710  33.148  1.00  0.00     0.029 A 
ATOM     45  N   UNL A   1      41.707  28.530  32.627  1.00  0.00    -0.354 N 
ATOM     46  C   UNL A   1      38.914  33.197  31.899  1.00  0.00     0.074 A 
ATOM     47  C   UNL A   1      39.218  33.640  30.585  1.00  0.00     0.031 C 
ATOM     48  C   UNL A   1      40.180  28.920  34.189  1.00  0.00     0.029 A 
ATOM     49  C   UNL A   1      41.509  28.398  34.003  1.00  0.00     0.049 A 
ATOM     50  H   UNL A   1      42.319  27.972  32.096  1.00  0.00     0.167 HD
ATOM     51  C   UNL A   1      37.785  33.367  32.661  1.00  0.00     0.031 A 
ATOM     52  C   UNL A   1      42.480  28.399  34.961  1.00  0.00     0.031 A 
ATOM     53  C   UNL A   1      37.955  32.812  33.988  1.00  0.00     0.049 A 
ATOM     54  C   UNL A   1      42.298  29.567  35.926  1.00  0.00     0.074 A 
ATOM     55  C   UNL A   1      37.374  31.827  34.760  1.00  0.00     0.029 A 
ATOM     56  N   UNL A   1      39.100  33.197  34.650  1.00  0.00    -0.354 N 
ATOM     57  N   UNL A   1      41.185  30.247  36.055  1.00  0.00    -0.248 NA
ATOM     58  C   UNL A   1      43.362  30.144  36.751  1.00  0.00     0.031 C 
ATOM     59  C   UNL A   1      38.306  31.515  35.809  1.00  0.00     0.029 A 
ATOM     60  C   UNL A   1      39.393  32.372  35.710  1.00  0.00     0.049 A 
ATOM     61  H   UNL A   1      39.644  33.975  34.393  1.00  0.00     0.167 HD
ATOM     62  C   UNL A   1      41.472  31.474  36.583  1.00  0.00     0.074 A 
ATOM     63  C   UNL A   1      42.790  31.293  37.159  1.00  0.00     0.031 C 
ATOM     64  C   UNL A   1      40.695  32.578  36.353  1.00  0.00     0.031 A 
BRANCH  51  65
ATOM     65  C   UNL A   1      36.456  33.944  32.158  1.00  0.00    -0.014 A 
ATOM     66  C   UNL A   1      35.797  34.963  32.875  1.00  0.00     0.009 A 
ATOM     67  C   UNL A   1      35.739  33.434  31.051  1.00  0.00     0.009 A 
ATOM     68  C   UNL A   1      34.532  35.460  32.495  1.00  0.00     0.001 A 
ATOM     69  C   UNL A   1      34.492  33.949  30.644  1.00  0.00     0.001 A 
ATOM     70  C   UNL A   1      33.886  34.965  31.369  1.00  0.00     0.000 A 
ENDBRANCH  51  65
BRANCH  52  71
ATOM     71  C   UNL A   1      43.735  27.747  34.488  1.00  0.00    -0.014 A 
ATOM     72  C   UNL A   1      43.569  26.494  33.859  1.00  0.00     0.009 A 
ATOM     73  C   UNL A   1      44.823  28.548  34.103  1.00  0.00     0.009 A 
ATOM     74  C   UNL A   1      44.319  26.163  32.725  1.00  0.00     0.001 A 
ATOM     75  C   UNL A   1      45.555  28.221  32.953  1.00  0.00     0.001 A 
ATOM     76  C   UNL A   1      45.270  27.055  32.241  1.00  0.00     0.000 A 
ENDBRANCH  52  71
BRANCH  64  77
ATOM     77  C   UNL A   1      41.191  34.007  36.559  1.00  0.00    -0.014 A 
ATOM     78  C   UNL A   1      42.251  34.570  35.832  1.00  0.00     0.009 A 
ATOM     79  C   UNL A   1      40.465  34.898  37.385  1.00  0.00     0.009 A 
ATOM     80  C   UNL A   1      42.632  35.908  35.998  1.00  0.00     0.001 A 
ATOM     81  C   UNL A   1      40.783  36.257  37.481  1.00  0.00     0.001 A 
ATOM     82  C   UNL A   1      41.894  36.755  36.816  1.00  0.00     0.000 A 
ENDBRANCH  64  77
ENDBRANCH  38  39
ENDBRANCH  31  33
ENDBRANCH  30  31
ENDBRANCH  29  30
ENDBRANCH  28  29
ENDBRANCH  27  28
ENDBRANCH  26  27
ENDBRANCH   1  26
TORSDOF 21
ENDMDL
