MODEL 1
REMARK VINA RESULT:      -9.6      0.000      0.000
REMARK SMILES CCC[NH+]1CCN(c2cc(C(=O)OCCOCCOCCOC(=O)c3ccc(-c4c5nc(c(-c6ccccc6)c6ccc([nH]6)c(-c6ccccc6)c6nc(c(-c7ccccc7)c7ccc4[nH]7)C=C6)C=C5)cc3)c3cc(NC(=O)c4ccc(F)cc4)ccc3n2)CC1
REMARK SMILES IDX 17 1 16 2 15 3 14 4 13 5 11 6 12 7 10 8 8 9 9 10 89 11 88 12
REMARK SMILES IDX 73 13 87 14 74 15 86 16 75 17 7 18 4 19 5 20 91 21 6 23
REMARK SMILES IDX 90 24 3 25 2 26 1 27 76 28 77 29 78 31 79 32 80 33 85 34
REMARK SMILES IDX 81 35 84 36 82 37 83 38 18 39 19 40 20 41 21 42 22 43 23 44
REMARK SMILES IDX 24 45 25 46 26 47 72 48 27 49 71 50 28 51 29 52 30 53 65 54
REMARK SMILES IDX 31 55 70 56 64 57 66 58 32 59 69 60 63 61 62 62 33 64 55 65
REMARK SMILES IDX 40 66 54 67 41 68 44 69 53 70 67 71 42 72 43 73 52 75 68 76
REMARK SMILES IDX 45 77 34 78 35 79 39 80 36 81 38 82 37 83 56 84 57 85 61 86
REMARK SMILES IDX 58 87 60 88 59 89 46 90 47 91 51 92 48 93 50 94 49 95
REMARK H PARENT 4 22 76 30 66 63 44 74
REMARK Flexibility Score: inf
ROOT
ATOM      1  C   UNL A   1      38.776  27.090  30.971  1.00  0.00     0.188 C 
ENDROOT
BRANCH   1   2
ATOM      2  O   UNL A   1      38.893  27.903  32.136  1.00  0.00    -0.376 OA
BRANCH   2   3
ATOM      3  C   UNL A   1      37.719  28.586  32.582  1.00  0.00     0.202 C 
BRANCH   3   4
ATOM      4  C   UNL A   1      37.471  29.934  31.907  1.00  0.00     0.261 C 
BRANCH   4   5
ATOM      5  O   UNL A   1      36.462  29.796  30.883  1.00  0.00    -0.460 OA
BRANCH   5   6
ATOM      6  C   UNL A   1      36.732  30.455  29.736  1.00  0.00     0.339 C 
ATOM      7  O   UNL A   1      37.833  30.581  29.224  1.00  0.00    -0.246 OA
BRANCH   6   8
ATOM      8  C   UNL A   1      35.491  30.837  29.023  1.00  0.00     0.073 A 
ATOM      9  C   UNL A   1      34.041  30.247  27.219  1.00  0.00     0.130 A 
ATOM     10  C   UNL A   1      35.050  29.895  28.086  1.00  0.00     0.063 A 
ATOM     11  N   UNL A   1      33.537  31.489  27.215  1.00  0.00    -0.231 NA
ATOM     12  C   UNL A   1      33.906  32.368  28.146  1.00  0.00     0.074 A 
ATOM     13  C   UNL A   1      34.838  32.087  29.155  1.00  0.00     0.017 A 
ATOM     14  C   UNL A   1      33.314  33.613  28.089  1.00  0.00     0.031 A 
ATOM     15  C   UNL A   1      35.018  33.054  30.191  1.00  0.00     0.037 A 
ATOM     16  C   UNL A   1      33.548  34.573  29.069  1.00  0.00     0.028 A 
ATOM     17  C   UNL A   1      34.359  34.286  30.167  1.00  0.00     0.042 A 
BRANCH   9  18
ATOM     18  N   UNL A   1      33.556  29.400  26.266  1.00  0.00    -0.345 N 
ATOM     19  N   UNL A   1      32.881  27.466  24.186  1.00  0.00    -0.332 N 
ATOM     20  C   UNL A   1      32.802  28.936  23.958  1.00  0.00     0.284 C 
ATOM     21  C   UNL A   1      33.928  27.219  25.197  1.00  0.00     0.284 C 
ATOM     22  H   UNL A   1      33.162  26.959  23.347  1.00  0.00     0.348 HD
ATOM     23  C   UNL A   1      32.608  29.802  25.237  1.00  0.00     0.179 C 
ATOM     24  C   UNL A   1      33.743  27.978  26.521  1.00  0.00     0.179 C 
BRANCH  19  25
ATOM     25  C   UNL A   1      31.550  26.924  24.498  1.00  0.00     0.262 C 
BRANCH  25  26
ATOM     26  C   UNL A   1      30.533  26.829  23.348  1.00  0.00     0.058 C 
ATOM     27  C   UNL A   1      29.086  27.040  23.782  1.00  0.00     0.010 C 
ENDBRANCH  25  26
ENDBRANCH  19  25
ENDBRANCH   9  18
BRANCH  17  28
ATOM     28  N   UNL A   1      34.374  35.277  31.165  1.00  0.00    -0.322 N 
ATOM     29  C   UNL A   1      34.988  35.433  32.379  1.00  0.00     0.255 C 
ATOM     30  H   UNL A   1      33.804  36.046  30.935  1.00  0.00     0.170 HD
ATOM     31  O   UNL A   1      34.646  36.365  33.108  1.00  0.00    -0.269 OA
BRANCH  29  32
ATOM     32  C   UNL A   1      36.026  34.527  32.878  1.00  0.00     0.040 A 
ATOM     33  C   UNL A   1      37.312  34.622  32.331  1.00  0.00     0.017 A 
ATOM     34  C   UNL A   1      35.710  33.526  33.802  1.00  0.00     0.017 A 
ATOM     35  C   UNL A   1      38.305  33.746  32.761  1.00  0.00     0.040 A 
ATOM     36  C   UNL A   1      36.715  32.663  34.240  1.00  0.00     0.040 A 
ATOM     37  C   UNL A   1      38.000  32.783  33.717  1.00  0.00     0.123 A 
ATOM     38  F   UNL A   1      38.964  31.967  34.161  1.00  0.00    -0.207 F 
ENDBRANCH  29  32
ENDBRANCH  17  28
ENDBRANCH   6   8
ENDBRANCH   5   6
ENDBRANCH   4   5
ENDBRANCH   3   4
ENDBRANCH   2   3
ENDBRANCH   1   2
BRANCH   1  39
ATOM     39  C   UNL A   1      39.437  27.600  29.674  1.00  0.00     0.188 C 
BRANCH  39  40
ATOM     40  O   UNL A   1      40.191  26.592  29.025  1.00  0.00    -0.376 OA
BRANCH  40  41
ATOM     41  C   UNL A   1      39.653  26.058  27.830  1.00  0.00     0.202 C 
BRANCH  41  42
ATOM     42  C   UNL A   1      40.234  24.734  27.308  1.00  0.00     0.261 C 
BRANCH  42  43
ATOM     43  O   UNL A   1      41.306  24.158  28.065  1.00  0.00    -0.460 OA
BRANCH  43  44
ATOM     44  C   UNL A   1      42.330  23.585  27.383  1.00  0.00     0.338 C 
ATOM     45  O   UNL A   1      42.375  22.477  26.916  1.00  0.00    -0.246 OA
BRANCH  44  46
ATOM     46  C   UNL A   1      43.329  24.661  27.148  1.00  0.00     0.060 A 
ATOM     47  C   UNL A   1      43.928  25.290  28.248  1.00  0.00     0.016 A 
ATOM     48  C   UNL A   1      43.723  24.984  25.846  1.00  0.00     0.016 A 
ATOM     49  C   UNL A   1      44.923  26.251  28.043  1.00  0.00     0.010 A 
ATOM     50  C   UNL A   1      44.700  25.958  25.643  1.00  0.00     0.010 A 
ATOM     51  C   UNL A   1      45.290  26.609  26.740  1.00  0.00    -0.014 A 
BRANCH  51  52
ATOM     52  C   UNL A   1      46.132  27.803  26.491  1.00  0.00     0.031 A 
ATOM     53  C   UNL A   1      47.599  27.590  26.256  1.00  0.00     0.074 A 
ATOM     54  C   UNL A   1      45.627  29.048  26.533  1.00  0.00     0.049 A 
ATOM     55  N   UNL A   1      48.560  28.468  26.133  1.00  0.00    -0.248 NA
ATOM     56  C   UNL A   1      48.041  26.188  26.159  1.00  0.00     0.031 C 
ATOM     57  C   UNL A   1      44.220  29.387  26.733  1.00  0.00     0.029 A 
ATOM     58  N   UNL A   1      46.261  30.262  26.440  1.00  0.00    -0.354 N 
ATOM     59  C   UNL A   1      49.720  27.726  25.956  1.00  0.00     0.074 A 
ATOM     60  C   UNL A   1      49.348  26.330  26.010  1.00  0.00     0.031 C 
ATOM     61  C   UNL A   1      44.101  30.727  26.778  1.00  0.00     0.029 A 
ATOM     62  C   UNL A   1      45.426  31.332  26.646  1.00  0.00     0.049 A 
ATOM     63  H   UNL A   1      47.221  30.356  26.243  1.00  0.00     0.167 HD
ATOM     64  C   UNL A   1      50.987  28.165  25.771  1.00  0.00     0.031 A 
ATOM     65  C   UNL A   1      45.707  32.646  26.754  1.00  0.00     0.031 A 
ATOM     66  C   UNL A   1      51.366  29.550  25.763  1.00  0.00     0.049 A 
ATOM     67  C   UNL A   1      47.132  33.115  26.619  1.00  0.00     0.074 A 
ATOM     68  C   UNL A   1      52.620  30.102  25.572  1.00  0.00     0.029 A 
ATOM     69  N   UNL A   1      50.492  30.605  25.979  1.00  0.00    -0.354 N 
ATOM     70  N   UNL A   1      48.217  32.410  26.410  1.00  0.00    -0.248 NA
ATOM     71  C   UNL A   1      47.368  34.563  26.729  1.00  0.00     0.031 C 
ATOM     72  C   UNL A   1      52.513  31.489  25.728  1.00  0.00     0.029 A 
ATOM     73  C   UNL A   1      51.182  31.804  25.953  1.00  0.00     0.049 A 
ATOM     74  H   UNL A   1      49.522  30.513  26.127  1.00  0.00     0.167 HD
ATOM     75  C   UNL A   1      49.260  33.326  26.340  1.00  0.00     0.074 A 
ATOM     76  C   UNL A   1      48.675  34.640  26.517  1.00  0.00     0.031 C 
ATOM     77  C   UNL A   1      50.584  33.101  26.139  1.00  0.00     0.031 A 
BRANCH  64  78
ATOM     78  C   UNL A   1      52.051  27.114  25.621  1.00  0.00    -0.014 A 
ATOM     79  C   UNL A   1      52.515  26.720  24.355  1.00  0.00     0.009 A 
ATOM     80  C   UNL A   1      52.573  26.487  26.762  1.00  0.00     0.009 A 
ATOM     81  C   UNL A   1      53.443  25.684  24.234  1.00  0.00     0.001 A 
ATOM     82  C   UNL A   1      53.524  25.472  26.640  1.00  0.00     0.001 A 
ATOM     83  C   UNL A   1      53.947  25.062  25.377  1.00  0.00     0.000 A 
ENDBRANCH  64  78
BRANCH  65  84
ATOM     84  C   UNL A   1      44.613  33.613  27.037  1.00  0.00    -0.014 A 
ATOM     85  C   UNL A   1      44.251  33.922  28.357  1.00  0.00     0.009 A 
ATOM     86  C   UNL A   1      43.931  34.241  25.983  1.00  0.00     0.009 A 
ATOM     87  C   UNL A   1      43.221  34.829  28.614  1.00  0.00     0.001 A 
ATOM     88  C   UNL A   1      42.918  35.166  26.243  1.00  0.00     0.001 A 
ATOM     89  C   UNL A   1      42.560  35.456  27.558  1.00  0.00     0.000 A 
ENDBRANCH  65  84
BRANCH  77  90
ATOM     90  C   UNL A   1      51.488  34.301  26.066  1.00  0.00    -0.014 A 
ATOM     91  C   UNL A   1      52.157  34.784  27.200  1.00  0.00     0.009 A 
ATOM     92  C   UNL A   1      51.718  34.918  24.826  1.00  0.00     0.009 A 
ATOM     93  C   UNL A   1      53.017  35.880  27.098  1.00  0.00     0.001 A 
ATOM     94  C   UNL A   1      52.599  35.995  24.722  1.00  0.00     0.001 A 
ATOM     95  C   UNL A   1      53.242  36.480  25.860  1.00  0.00     0.000 A 
ENDBRANCH  77  90
ENDBRANCH  51  52
ENDBRANCH  44  46
ENDBRANCH  43  44
ENDBRANCH  42  43
ENDBRANCH  41  42
ENDBRANCH  40  41
ENDBRANCH  39  40
ENDBRANCH   1  39
TORSDOF 22
ENDMDL
MODEL 2
REMARK VINA RESULT:      -9.6      8.141     12.585
REMARK SMILES CCC[NH+]1CCN(c2cc(C(=O)OCCOCCOCCOC(=O)c3ccc(-c4c5nc(c(-c6ccccc6)c6ccc([nH]6)c(-c6ccccc6)c6nc(c(-c7ccccc7)c7ccc4[nH]7)C=C6)C=C5)cc3)c3cc(NC(=O)c4ccc(F)cc4)ccc3n2)CC1
REMARK SMILES IDX 17 1 16 2 15 3 14 4 13 5 11 6 12 7 10 8 8 9 9 10 89 11 88 12
REMARK SMILES IDX 73 13 87 14 74 15 86 16 75 17 7 18 4 19 5 20 91 21 6 23
REMARK SMILES IDX 90 24 3 25 2 26 1 27 76 28 77 29 78 31 79 32 80 33 85 34
REMARK SMILES IDX 81 35 84 36 82 37 83 38 18 39 19 40 20 41 21 42 22 43 23 44
REMARK SMILES IDX 24 45 25 46 26 47 72 48 27 49 71 50 28 51 29 52 30 53 65 54
REMARK SMILES IDX 31 55 70 56 64 57 66 58 32 59 69 60 63 61 62 62 33 64 55 65
REMARK SMILES IDX 40 66 54 67 41 68 44 69 53 70 67 71 42 72 43 73 52 75 68 76
REMARK SMILES IDX 45 77 34 78 35 79 39 80 36 81 38 82 37 83 56 84 57 85 61 86
REMARK SMILES IDX 58 87 60 88 59 89 46 90 47 91 51 92 48 93 50 94 49 95
REMARK H PARENT 4 22 76 30 66 63 44 74
REMARK Flexibility Score: inf
ROOT
ATOM      1  C   UNL A   1      33.350  32.640  28.043  1.00  0.00     0.188 C 
ENDROOT
BRANCH   1   2
ATOM      2  O   UNL A   1      34.144  31.922  27.101  1.00  0.00    -0.376 OA
BRANCH   2   3
ATOM      3  C   UNL A   1      34.235  30.505  27.264  1.00  0.00     0.202 C 
BRANCH   3   4
ATOM      4  C   UNL A   1      33.002  29.730  26.802  1.00  0.00     0.261 C 
BRANCH   4   5
ATOM      5  O   UNL A   1      33.182  28.320  27.054  1.00  0.00    -0.460 OA
BRANCH   5   6
ATOM      6  C   UNL A   1      32.035  27.613  27.136  1.00  0.00     0.339 C 
ATOM      7  O   UNL A   1      31.010  27.973  27.694  1.00  0.00    -0.246 OA
BRANCH   6   8
ATOM      8  C   UNL A   1      32.071  26.412  26.270  1.00  0.00     0.073 A 
ATOM      9  C   UNL A   1      33.460  24.626  25.503  1.00  0.00     0.130 A 
ATOM     10  C   UNL A   1      33.226  25.633  26.411  1.00  0.00     0.063 A 
ATOM     11  N   UNL A   1      32.642  24.437  24.457  1.00  0.00    -0.231 NA
ATOM     12  C   UNL A   1      31.509  25.130  24.355  1.00  0.00     0.074 A 
ATOM     13  C   UNL A   1      31.104  26.100  25.284  1.00  0.00     0.017 A 
ATOM     14  C   UNL A   1      30.710  24.850  23.266  1.00  0.00     0.031 A 
ATOM     15  C   UNL A   1      29.792  26.647  25.153  1.00  0.00     0.037 A 
ATOM     16  C   UNL A   1      29.458  25.440  23.114  1.00  0.00     0.028 A 
ATOM     17  C   UNL A   1      28.956  26.303  24.087  1.00  0.00     0.042 A 
BRANCH   9  18
ATOM     18  N   UNL A   1      34.563  23.826  25.553  1.00  0.00    -0.345 N 
ATOM     19  N   UNL A   1      36.786  21.985  25.996  1.00  0.00    -0.332 N 
ATOM     20  C   UNL A   1      36.962  23.464  26.031  1.00  0.00     0.284 C 
ATOM     21  C   UNL A   1      35.403  21.682  26.413  1.00  0.00     0.284 C 
ATOM     22  H   UNL A   1      37.399  21.507  26.655  1.00  0.00     0.348 HD
ATOM     23  C   UNL A   1      35.907  24.283  25.230  1.00  0.00     0.179 C 
ATOM     24  C   UNL A   1      34.309  22.392  25.598  1.00  0.00     0.179 C 
BRANCH  19  25
ATOM     25  C   UNL A   1      37.190  21.453  24.686  1.00  0.00     0.262 C 
BRANCH  25  26
ATOM     26  C   UNL A   1      37.497  19.948  24.594  1.00  0.00     0.058 C 
ATOM     27  C   UNL A   1      38.738  19.521  25.370  1.00  0.00     0.010 C 
ENDBRANCH  25  26
ENDBRANCH  19  25
ENDBRANCH   9  18
BRANCH  17  28
ATOM     28  N   UNL A   1      27.618  26.693  23.896  1.00  0.00    -0.322 N 
ATOM     29  C   UNL A   1      26.973  27.865  23.601  1.00  0.00     0.255 C 
ATOM     30  H   UNL A   1      26.993  25.940  24.002  1.00  0.00     0.170 HD
ATOM     31  O   UNL A   1      25.745  27.908  23.678  1.00  0.00    -0.269 OA
BRANCH  29  32
ATOM     32  C   UNL A   1      27.673  29.093  23.216  1.00  0.00     0.040 A 
ATOM     33  C   UNL A   1      28.854  28.981  22.471  1.00  0.00     0.017 A 
ATOM     34  C   UNL A   1      27.226  30.338  23.671  1.00  0.00     0.017 A 
ATOM     35  C   UNL A   1      29.558  30.133  22.127  1.00  0.00     0.040 A 
ATOM     36  C   UNL A   1      27.927  31.487  23.308  1.00  0.00     0.040 A 
ATOM     37  C   UNL A   1      29.083  31.373  22.540  1.00  0.00     0.123 A 
ATOM     38  F   UNL A   1      29.736  32.483  22.174  1.00  0.00    -0.207 F 
ENDBRANCH  29  32
ENDBRANCH  17  28
ENDBRANCH   6   8
ENDBRANCH   5   6
ENDBRANCH   4   5
ENDBRANCH   3   4
ENDBRANCH   2   3
ENDBRANCH   1   2
BRANCH   1  39
ATOM     39  C   UNL A   1      33.874  34.009  28.524  1.00  0.00     0.188 C 
BRANCH  39  40
ATOM     40  O   UNL A   1      33.229  34.444  29.707  1.00  0.00    -0.376 OA
BRANCH  40  41
ATOM     41  C   UNL A   1      34.059  34.789  30.801  1.00  0.00     0.202 C 
BRANCH  41  42
ATOM     42  C   UNL A   1      35.428  34.099  30.912  1.00  0.00     0.261 C 
BRANCH  42  43
ATOM     43  O   UNL A   1      35.421  32.670  31.023  1.00  0.00    -0.460 OA
BRANCH  43  44
ATOM     44  C   UNL A   1      36.448  31.984  30.461  1.00  0.00     0.338 C 
ATOM     45  O   UNL A   1      36.629  31.754  29.294  1.00  0.00    -0.246 OA
BRANCH  44  46
ATOM     46  C   UNL A   1      37.426  31.730  31.552  1.00  0.00     0.060 A 
ATOM     47  C   UNL A   1      38.775  32.052  31.348  1.00  0.00     0.016 A 
ATOM     48  C   UNL A   1      36.991  31.252  32.791  1.00  0.00     0.016 A 
ATOM     49  C   UNL A   1      39.694  31.888  32.390  1.00  0.00     0.010 A 
ATOM     50  C   UNL A   1      37.912  31.069  33.822  1.00  0.00     0.010 A 
ATOM     51  C   UNL A   1      39.271  31.368  33.620  1.00  0.00    -0.014 A 
BRANCH  51  52
ATOM     52  C   UNL A   1      40.256  30.933  34.637  1.00  0.00     0.031 A 
ATOM     53  C   UNL A   1      40.697  31.937  35.662  1.00  0.00     0.074 A 
ATOM     54  C   UNL A   1      40.795  29.701  34.620  1.00  0.00     0.049 A 
ATOM     55  N   UNL A   1      41.626  31.841  36.577  1.00  0.00    -0.248 NA
ATOM     56  C   UNL A   1      39.997  33.232  35.640  1.00  0.00     0.031 C 
ATOM     57  C   UNL A   1      40.439  28.631  33.691  1.00  0.00     0.029 A 
ATOM     58  N   UNL A   1      41.787  29.160  35.399  1.00  0.00    -0.354 N 
ATOM     59  C   UNL A   1      41.630  33.065  37.231  1.00  0.00     0.074 A 
ATOM     60  C   UNL A   1      40.630  33.894  36.595  1.00  0.00     0.031 C 
ATOM     61  C   UNL A   1      41.226  27.567  33.935  1.00  0.00     0.029 A 
ATOM     62  C   UNL A   1      42.161  27.898  35.011  1.00  0.00     0.049 A 
ATOM     63  H   UNL A   1      42.192  29.632  36.163  1.00  0.00     0.167 HD
ATOM     64  C   UNL A   1      42.402  33.471  38.266  1.00  0.00     0.031 A 
ATOM     65  C   UNL A   1      43.167  27.115  35.448  1.00  0.00     0.031 A 
ATOM     66  C   UNL A   1      43.428  32.668  38.869  1.00  0.00     0.049 A 
ATOM     67  C   UNL A   1      44.066  27.608  36.552  1.00  0.00     0.074 A 
ATOM     68  C   UNL A   1      44.259  32.979  39.930  1.00  0.00     0.029 A 
ATOM     69  N   UNL A   1      43.778  31.394  38.445  1.00  0.00    -0.354 N 
ATOM     70  N   UNL A   1      44.036  28.752  37.193  1.00  0.00    -0.248 NA
ATOM     71  C   UNL A   1      45.134  26.699  36.996  1.00  0.00     0.031 C 
ATOM     72  C   UNL A   1      45.150  31.915  40.112  1.00  0.00     0.029 A 
ATOM     73  C   UNL A   1      44.832  30.916  39.204  1.00  0.00     0.049 A 
ATOM     74  H   UNL A   1      43.340  30.903  37.712  1.00  0.00     0.167 HD
ATOM     75  C   UNL A   1      45.061  28.692  38.130  1.00  0.00     0.074 A 
ATOM     76  C   UNL A   1      45.688  27.393  37.981  1.00  0.00     0.031 C 
ATOM     77  C   UNL A   1      45.446  29.624  39.037  1.00  0.00     0.031 A 
BRANCH  64  78
ATOM     78  C   UNL A   1      42.188  34.875  38.759  1.00  0.00    -0.014 A 
ATOM     79  C   UNL A   1      41.149  35.184  39.653  1.00  0.00     0.009 A 
ATOM     80  C   UNL A   1      43.017  35.908  38.297  1.00  0.00     0.009 A 
ATOM     81  C   UNL A   1      40.916  36.507  40.034  1.00  0.00     0.001 A 
ATOM     82  C   UNL A   1      42.800  37.225  38.703  1.00  0.00     0.001 A 
ATOM     83  C   UNL A   1      41.742  37.526  39.559  1.00  0.00     0.000 A 
ENDBRANCH  64  78
BRANCH  65  84
ATOM     84  C   UNL A   1      43.399  25.789  34.816  1.00  0.00    -0.014 A 
ATOM     85  C   UNL A   1      44.266  25.658  33.721  1.00  0.00     0.009 A 
ATOM     86  C   UNL A   1      42.758  24.644  35.315  1.00  0.00     0.009 A 
ATOM     87  C   UNL A   1      44.476  24.408  33.132  1.00  0.00     0.001 A 
ATOM     88  C   UNL A   1      42.988  23.393  34.739  1.00  0.00     0.001 A 
ATOM     89  C   UNL A   1      43.843  23.276  33.645  1.00  0.00     0.000 A 
ENDBRANCH  65  84
BRANCH  77  90
ATOM     90  C   UNL A   1      46.575  29.265  39.964  1.00  0.00    -0.014 A 
ATOM     91  C   UNL A   1      47.911  29.536  39.631  1.00  0.00     0.009 A 
ATOM     92  C   UNL A   1      46.287  28.702  41.218  1.00  0.00     0.009 A 
ATOM     93  C   UNL A   1      48.938  29.224  40.526  1.00  0.00     0.001 A 
ATOM     94  C   UNL A   1      47.312  28.416  42.120  1.00  0.00     0.001 A 
ATOM     95  C   UNL A   1      48.638  28.670  41.770  1.00  0.00     0.000 A 
ENDBRANCH  77  90
ENDBRANCH  51  52
ENDBRANCH  44  46
ENDBRANCH  43  44
ENDBRANCH  42  43
ENDBRANCH  41  42
ENDBRANCH  40  41
ENDBRANCH  39  40
ENDBRANCH   1  39
TORSDOF 22
ENDMDL
MODEL 3
REMARK VINA RESULT:      -9.5      0.861      5.461
REMARK SMILES CCC[NH+]1CCN(c2cc(C(=O)OCCOCCOCCOC(=O)c3ccc(-c4c5nc(c(-c6ccccc6)c6ccc([nH]6)c(-c6ccccc6)c6nc(c(-c7ccccc7)c7ccc4[nH]7)C=C6)C=C5)cc3)c3cc(NC(=O)c4ccc(F)cc4)ccc3n2)CC1
REMARK SMILES IDX 17 1 16 2 15 3 14 4 13 5 11 6 12 7 10 8 8 9 9 10 89 11 88 12
REMARK SMILES IDX 73 13 87 14 74 15 86 16 75 17 7 18 4 19 5 20 91 21 6 23
REMARK SMILES IDX 90 24 3 25 2 26 1 27 76 28 77 29 78 31 79 32 80 33 85 34
REMARK SMILES IDX 81 35 84 36 82 37 83 38 18 39 19 40 20 41 21 42 22 43 23 44
REMARK SMILES IDX 24 45 25 46 26 47 72 48 27 49 71 50 28 51 29 52 30 53 65 54
REMARK SMILES IDX 31 55 70 56 64 57 66 58 32 59 69 60 63 61 62 62 33 64 55 65
REMARK SMILES IDX 40 66 54 67 41 68 44 69 53 70 67 71 42 72 43 73 52 75 68 76
REMARK SMILES IDX 45 77 34 78 35 79 39 80 36 81 38 82 37 83 56 84 57 85 61 86
REMARK SMILES IDX 58 87 60 88 59 89 46 90 47 91 51 92 48 93 50 94 49 95
REMARK H PARENT 4 22 76 30 66 63 44 74
REMARK Flexibility Score: inf
ROOT
ATOM      1  C   UNL A   1      38.580  27.608  31.635  1.00  0.00     0.188 C 
ENDROOT
BRANCH   1   2
ATOM      2  O   UNL A   1      38.259  28.228  32.878  1.00  0.00    -0.376 OA
BRANCH   2   3
ATOM      3  C   UNL A   1      37.404  29.373  32.841  1.00  0.00     0.202 C 
BRANCH   3   4
ATOM      4  C   UNL A   1      37.665  30.325  31.675  1.00  0.00     0.261 C 
BRANCH   4   5
ATOM      5  O   UNL A   1      36.454  30.515  30.912  1.00  0.00    -0.460 OA
BRANCH   5   6
ATOM      6  C   UNL A   1      36.615  31.215  29.768  1.00  0.00     0.339 C 
ATOM      7  O   UNL A   1      37.674  31.424  29.199  1.00  0.00    -0.246 OA
BRANCH   6   8
ATOM      8  C   UNL A   1      35.314  31.529  29.135  1.00  0.00     0.073 A 
ATOM      9  C   UNL A   1      33.778  30.848  27.437  1.00  0.00     0.130 A 
ATOM     10  C   UNL A   1      34.857  30.556  28.238  1.00  0.00     0.063 A 
ATOM     11  N   UNL A   1      33.216  32.066  27.453  1.00  0.00    -0.231 NA
ATOM     12  C   UNL A   1      33.603  32.973  28.350  1.00  0.00     0.074 A 
ATOM     13  C   UNL A   1      34.612  32.749  29.297  1.00  0.00     0.017 A 
ATOM     14  C   UNL A   1      32.950  34.188  28.318  1.00  0.00     0.031 A 
ATOM     15  C   UNL A   1      34.813  33.736  30.309  1.00  0.00     0.037 A 
ATOM     16  C   UNL A   1      33.202  35.170  29.272  1.00  0.00     0.028 A 
ATOM     17  C   UNL A   1      34.095  34.936  30.317  1.00  0.00     0.042 A 
BRANCH   9  18
ATOM     18  N   UNL A   1      33.273  29.967  26.526  1.00  0.00    -0.345 N 
ATOM     19  N   UNL A   1      32.460  28.217  24.335  1.00  0.00    -0.332 N 
ATOM     20  C   UNL A   1      31.598  29.329  24.823  1.00  0.00     0.284 C 
ATOM     21  C   UNL A   1      33.867  28.593  24.577  1.00  0.00     0.284 C 
ATOM     22  H   UNL A   1      32.368  28.068  23.331  1.00  0.00     0.348 HD
ATOM     23  C   UNL A   1      31.848  29.775  26.294  1.00  0.00     0.179 C 
ATOM     24  C   UNL A   1      34.200  28.957  26.034  1.00  0.00     0.179 C 
BRANCH  19  25
ATOM     25  C   UNL A   1      32.030  26.939  24.923  1.00  0.00     0.262 C 
BRANCH  25  26
ATOM     26  C   UNL A   1      32.640  25.650  24.346  1.00  0.00     0.058 C 
ATOM     27  C   UNL A   1      32.546  24.449  25.282  1.00  0.00     0.010 C 
ENDBRANCH  25  26
ENDBRANCH  19  25
ENDBRANCH   9  18
BRANCH  17  28
ATOM     28  N   UNL A   1      34.129  35.940  31.302  1.00  0.00    -0.322 N 
ATOM     29  C   UNL A   1      34.656  36.057  32.560  1.00  0.00     0.255 C 
ATOM     30  H   UNL A   1      33.659  36.756  31.016  1.00  0.00     0.170 HD
ATOM     31  O   UNL A   1      34.351  37.033  33.248  1.00  0.00    -0.269 OA
BRANCH  29  32
ATOM     32  C   UNL A   1      35.555  35.063  33.152  1.00  0.00     0.040 A 
ATOM     33  C   UNL A   1      35.162  34.434  34.340  1.00  0.00     0.017 A 
ATOM     34  C   UNL A   1      36.817  34.828  32.597  1.00  0.00     0.017 A 
ATOM     35  C   UNL A   1      36.017  33.515  34.943  1.00  0.00     0.040 A 
ATOM     36  C   UNL A   1      37.660  33.893  33.197  1.00  0.00     0.040 A 
ATOM     37  C   UNL A   1      37.252  33.246  34.360  1.00  0.00     0.123 A 
ATOM     38  F   UNL A   1      38.056  32.332  34.917  1.00  0.00    -0.207 F 
ENDBRANCH  29  32
ENDBRANCH  17  28
ENDBRANCH   6   8
ENDBRANCH   5   6
ENDBRANCH   4   5
ENDBRANCH   3   4
ENDBRANCH   2   3
ENDBRANCH   1   2
BRANCH   1  39
ATOM     39  C   UNL A   1      39.757  28.192  30.827  1.00  0.00     0.188 C 
BRANCH  39  40
ATOM     40  O   UNL A   1      40.210  27.303  29.822  1.00  0.00    -0.376 OA
BRANCH  40  41
ATOM     41  C   UNL A   1      39.691  27.490  28.519  1.00  0.00     0.202 C 
BRANCH  41  42
ATOM     42  C   UNL A   1      39.697  26.287  27.562  1.00  0.00     0.261 C 
BRANCH  42  43
ATOM     43  O   UNL A   1      40.400  25.118  28.002  1.00  0.00    -0.460 OA
BRANCH  43  44
ATOM     44  C   UNL A   1      41.259  24.529  27.133  1.00  0.00     0.338 C 
ATOM     45  O   UNL A   1      41.047  23.588  26.411  1.00  0.00    -0.246 OA
BRANCH  44  46
ATOM     46  C   UNL A   1      42.469  25.391  27.092  1.00  0.00     0.060 A 
ATOM     47  C   UNL A   1      43.161  25.653  28.283  1.00  0.00     0.016 A 
ATOM     48  C   UNL A   1      42.955  25.867  25.872  1.00  0.00     0.016 A 
ATOM     49  C   UNL A   1      44.343  26.400  28.252  1.00  0.00     0.010 A 
ATOM     50  C   UNL A   1      44.122  26.630  25.844  1.00  0.00     0.010 A 
ATOM     51  C   UNL A   1      44.810  26.916  27.036  1.00  0.00    -0.014 A 
BRANCH  51  52
ATOM     52  C   UNL A   1      45.893  27.927  27.009  1.00  0.00     0.031 A 
ATOM     53  C   UNL A   1      45.501  29.376  27.025  1.00  0.00     0.074 A 
ATOM     54  C   UNL A   1      47.187  27.577  26.911  1.00  0.00     0.049 A 
ATOM     55  N   UNL A   1      46.246  30.442  26.892  1.00  0.00    -0.248 NA
ATOM     56  C   UNL A   1      44.066  29.655  27.205  1.00  0.00     0.031 C 
ATOM     57  C   UNL A   1      47.699  26.208  26.906  1.00  0.00     0.029 A 
ATOM     58  N   UNL A   1      48.306  28.359  26.764  1.00  0.00    -0.354 N 
ATOM     59  C   UNL A   1      45.370  31.517  26.959  1.00  0.00     0.074 A 
ATOM     60  C   UNL A   1      44.039  30.975  27.122  1.00  0.00     0.031 C 
ATOM     61  C   UNL A   1      49.032  26.245  26.731  1.00  0.00     0.029 A 
ATOM     62  C   UNL A   1      49.458  27.637  26.577  1.00  0.00     0.049 A 
ATOM     63  H   UNL A   1      48.283  29.343  26.790  1.00  0.00     0.167 HD
ATOM     64  C   UNL A   1      45.644  32.841  26.886  1.00  0.00     0.031 A 
ATOM     65  C   UNL A   1      50.705  28.051  26.279  1.00  0.00     0.031 A 
ATOM     66  C   UNL A   1      46.958  33.380  26.676  1.00  0.00     0.049 A 
ATOM     67  C   UNL A   1      50.984  29.524  26.128  1.00  0.00     0.074 A 
ATOM     68  C   UNL A   1      47.347  34.706  26.598  1.00  0.00     0.029 A 
ATOM     69  N   UNL A   1      48.100  32.615  26.489  1.00  0.00    -0.354 N 
ATOM     70  N   UNL A   1      50.156  30.536  26.235  1.00  0.00    -0.248 NA
ATOM     71  C   UNL A   1      52.369  29.911  25.820  1.00  0.00     0.031 C 
ATOM     72  C   UNL A   1      48.715  34.741  26.308  1.00  0.00     0.029 A 
ATOM     73  C   UNL A   1      49.190  33.439  26.268  1.00  0.00     0.049 A 
ATOM     74  H   UNL A   1      48.130  31.630  26.512  1.00  0.00     0.167 HD
ATOM     75  C   UNL A   1      50.922  31.678  26.032  1.00  0.00     0.074 A 
ATOM     76  C   UNL A   1      52.283  31.234  25.806  1.00  0.00     0.031 C 
ATOM     77  C   UNL A   1      50.535  32.979  26.039  1.00  0.00     0.031 A 
BRANCH  64  78
ATOM     78  C   UNL A   1      44.474  33.779  26.976  1.00  0.00    -0.014 A 
ATOM     79  C   UNL A   1      43.858  34.292  25.822  1.00  0.00     0.009 A 
ATOM     80  C   UNL A   1      44.001  34.181  28.235  1.00  0.00     0.009 A 
ATOM     81  C   UNL A   1      42.826  35.227  25.928  1.00  0.00     0.001 A 
ATOM     82  C   UNL A   1      42.949  35.092  28.338  1.00  0.00     0.001 A 
ATOM     83  C   UNL A   1      42.372  35.625  27.186  1.00  0.00     0.000 A 
ENDBRANCH  64  78
BRANCH  65  84
ATOM     84  C   UNL A   1      51.785  27.050  26.072  1.00  0.00    -0.014 A 
ATOM     85  C   UNL A   1      52.062  26.548  24.791  1.00  0.00     0.009 A 
ATOM     86  C   UNL A   1      52.552  26.598  27.158  1.00  0.00     0.009 A 
ATOM     87  C   UNL A   1      53.077  25.605  24.606  1.00  0.00     0.001 A 
ATOM     88  C   UNL A   1      53.581  25.675  26.965  1.00  0.00     0.001 A 
ATOM     89  C   UNL A   1      53.840  25.175  25.690  1.00  0.00     0.000 A 
ENDBRANCH  65  84
BRANCH  77  90
ATOM     90  C   UNL A   1      51.600  34.020  25.829  1.00  0.00    -0.014 A 
ATOM     91  C   UNL A   1      52.343  34.534  26.903  1.00  0.00     0.009 A 
ATOM     92  C   UNL A   1      51.904  34.446  24.526  1.00  0.00     0.009 A 
ATOM     93  C   UNL A   1      53.350  35.476  26.677  1.00  0.00     0.001 A 
ATOM     94  C   UNL A   1      52.929  35.366  24.301  1.00  0.00     0.001 A 
ATOM     95  C   UNL A   1      53.646  35.885  25.377  1.00  0.00     0.000 A 
ENDBRANCH  77  90
ENDBRANCH  51  52
ENDBRANCH  44  46
ENDBRANCH  43  44
ENDBRANCH  42  43
ENDBRANCH  41  42
ENDBRANCH  40  41
ENDBRANCH  39  40
ENDBRANCH   1  39
TORSDOF 22
ENDMDL
