MODEL 1
REMARK VINA RESULT:      -8.9      0.000      0.000
REMARK SMILES CC1(C)CCC[C@@H]1[C@H](O)C(=O)OCCOCCOCCOC(=O)c1ccc(-c2c3nc(c(-c4ccccc4)c4ccc([nH]4)c(-c4ccccc4)c4nc(c(-c5ccccc5)c5ccc2[nH]5)C=C4)C=C3)cc1
REMARK SMILES IDX 17 1 16 2 15 3 14 4 13 5 12 6 10 7 11 8 8 9 7 10 1 11 2 12
REMARK SMILES IDX 3 13 4 14 5 15 6 16 9 17 18 19 19 20 20 21 21 22 22 23 23 24
REMARK SMILES IDX 24 25 25 26 71 27 26 28 70 29 27 30 28 31 29 32 64 33 30 34
REMARK SMILES IDX 69 35 63 36 65 37 31 38 68 39 62 40 61 41 32 43 54 44 39 45
REMARK SMILES IDX 53 46 40 47 43 48 52 49 66 50 41 51 42 52 51 54 67 55 44 56
REMARK SMILES IDX 33 57 34 58 38 59 35 60 37 61 36 62 55 63 56 64 60 65 57 66
REMARK SMILES IDX 59 67 58 68 45 69 46 70 50 71 47 72 49 73 48 74
REMARK H PARENT 9 18 65 42 43 53
REMARK Flexibility Score: inf
ROOT
ATOM      1  C   UNL A   1      36.422  22.107  24.200  1.00  0.00     0.188 C 
ENDROOT
BRANCH   1   2
ATOM      2  C   UNL A   1      36.380  23.632  24.411  1.00  0.00     0.188 C 
BRANCH   2   3
ATOM      3  O   UNL A   1      35.699  24.177  25.533  1.00  0.00    -0.376 OA
BRANCH   3   4
ATOM      4  C   UNL A   1      35.014  23.311  26.432  1.00  0.00     0.202 C 
BRANCH   4   5
ATOM      5  C   UNL A   1      33.482  23.382  26.494  1.00  0.00     0.261 C 
BRANCH   5   6
ATOM      6  O   UNL A   1      32.923  24.600  25.973  1.00  0.00    -0.461 OA
BRANCH   6   7
ATOM      7  C   UNL A   1      31.623  24.847  26.292  1.00  0.00     0.335 C 
ATOM      8  O   UNL A   1      31.052  24.380  27.273  1.00  0.00    -0.249 OA
BRANCH   7   9
ATOM      9  C   UNL A   1      30.956  25.879  25.345  1.00  0.00     0.227 C 
BRANCH   9  10
ATOM     10  C   UNL A   1      31.071  27.315  25.861  1.00  0.00     0.035 C 
ATOM     11  C   UNL A   1      30.989  28.744  23.699  1.00  0.00     0.011 C 
ATOM     12  C   UNL A   1      31.808  28.321  24.925  1.00  0.00    -0.030 C 
ATOM     13  C   UNL A   1      33.185  27.819  24.445  1.00  0.00     0.011 C 
ATOM     14  C   UNL A   1      31.977  29.511  25.885  1.00  0.00     0.007 C 
ATOM     15  C   UNL A   1      32.328  28.896  27.236  1.00  0.00     0.001 C 
ATOM     16  C   UNL A   1      31.814  27.459  27.195  1.00  0.00     0.007 C 
ENDBRANCH   9  10
BRANCH   9  17
ATOM     17  O   UNL A   1      29.578  25.660  25.062  1.00  0.00    -0.381 OA
ATOM     18  H   UNL A   1      29.190  25.104  25.756  1.00  0.00     0.211 HD
ENDBRANCH   9  17
ENDBRANCH   7   9
ENDBRANCH   6   7
ENDBRANCH   5   6
ENDBRANCH   4   5
ENDBRANCH   3   4
ENDBRANCH   2   3
ENDBRANCH   1   2
BRANCH   1  19
ATOM     19  O   UNL A   1      37.615  21.483  24.624  1.00  0.00    -0.376 OA
BRANCH  19  20
ATOM     20  C   UNL A   1      37.533  20.095  24.906  1.00  0.00     0.202 C 
BRANCH  20  21
ATOM     21  C   UNL A   1      38.869  19.412  25.235  1.00  0.00     0.261 C 
BRANCH  21  22
ATOM     22  O   UNL A   1      39.672  20.074  26.230  1.00  0.00    -0.460 OA
BRANCH  22  23
ATOM     23  C   UNL A   1      41.010  19.902  26.142  1.00  0.00     0.338 C 
ATOM     24  O   UNL A   1      41.595  18.994  25.584  1.00  0.00    -0.246 OA
BRANCH  23  25
ATOM     25  C   UNL A   1      41.676  21.125  26.650  1.00  0.00     0.060 A 
ATOM     26  C   UNL A   1      41.701  21.344  28.034  1.00  0.00     0.016 A 
ATOM     27  C   UNL A   1      42.236  22.062  25.779  1.00  0.00     0.016 A 
ATOM     28  C   UNL A   1      42.230  22.530  28.547  1.00  0.00     0.010 A 
ATOM     29  C   UNL A   1      42.747  23.261  26.293  1.00  0.00     0.010 A 
ATOM     30  C   UNL A   1      42.699  23.521  27.675  1.00  0.00    -0.014 A 
BRANCH  30  31
ATOM     31  C   UNL A   1      42.879  24.905  28.186  1.00  0.00     0.031 A 
ATOM     32  C   UNL A   1      44.274  25.342  28.558  1.00  0.00     0.074 A 
ATOM     33  C   UNL A   1      41.859  25.778  28.274  1.00  0.00     0.049 A 
ATOM     34  N   UNL A   1      44.693  26.498  29.008  1.00  0.00    -0.248 NA
ATOM     35  C   UNL A   1      45.340  24.338  28.395  1.00  0.00     0.031 C 
ATOM     36  C   UNL A   1      40.471  25.506  27.909  1.00  0.00     0.029 A 
ATOM     37  N   UNL A   1      41.847  27.083  28.704  1.00  0.00    -0.354 N 
ATOM     38  C   UNL A   1      46.064  26.356  29.187  1.00  0.00     0.074 A 
ATOM     39  C   UNL A   1      46.403  24.998  28.826  1.00  0.00     0.031 C 
ATOM     40  C   UNL A   1      39.739  26.613  28.134  1.00  0.00     0.029 A 
ATOM     41  C   UNL A   1      40.601  27.660  28.680  1.00  0.00     0.049 A 
ATOM     42  H   UNL A   1      42.655  27.560  28.999  1.00  0.00     0.167 HD
ATOM     43  C   UNL A   1      46.967  27.272  29.605  1.00  0.00     0.031 A 
ATOM     44  C   UNL A   1      40.202  28.888  29.067  1.00  0.00     0.031 A 
ATOM     45  C   UNL A   1      46.643  28.622  29.980  1.00  0.00     0.049 A 
ATOM     46  C   UNL A   1      41.218  29.870  29.596  1.00  0.00     0.074 A 
ATOM     47  C   UNL A   1      47.493  29.625  30.411  1.00  0.00     0.029 A 
ATOM     48  N   UNL A   1      45.364  29.153  29.974  1.00  0.00    -0.354 N 
ATOM     49  N   UNL A   1      42.516  29.733  29.728  1.00  0.00    -0.248 NA
ATOM     50  C   UNL A   1      40.710  31.186  30.015  1.00  0.00     0.031 C 
ATOM     51  C   UNL A   1      46.720  30.750  30.714  1.00  0.00     0.029 A 
ATOM     52  C   UNL A   1      45.398  30.464  30.414  1.00  0.00     0.049 A 
ATOM     53  H   UNL A   1      44.551  28.669  29.698  1.00  0.00     0.167 HD
ATOM     54  C   UNL A   1      42.980  30.952  30.211  1.00  0.00     0.074 A 
ATOM     55  C   UNL A   1      41.830  31.821  30.332  1.00  0.00     0.031 C 
ATOM     56  C   UNL A   1      44.247  31.322  30.523  1.00  0.00     0.031 A 
BRANCH  43  57
ATOM     57  C   UNL A   1      48.398  26.829  29.710  1.00  0.00    -0.014 A 
ATOM     58  C   UNL A   1      48.889  26.217  30.874  1.00  0.00     0.009 A 
ATOM     59  C   UNL A   1      49.262  27.004  28.617  1.00  0.00     0.009 A 
ATOM     60  C   UNL A   1      50.224  25.815  30.952  1.00  0.00     0.001 A 
ATOM     61  C   UNL A   1      50.588  26.577  28.688  1.00  0.00     0.001 A 
ATOM     62  C   UNL A   1      51.071  25.991  29.857  1.00  0.00     0.000 A 
ENDBRANCH  43  57
BRANCH  44  63
ATOM     63  C   UNL A   1      38.768  29.274  28.993  1.00  0.00    -0.014 A 
ATOM     64  C   UNL A   1      37.927  29.134  30.108  1.00  0.00     0.009 A 
ATOM     65  C   UNL A   1      38.218  29.729  27.784  1.00  0.00     0.009 A 
ATOM     66  C   UNL A   1      36.560  29.407  30.004  1.00  0.00     0.001 A 
ATOM     67  C   UNL A   1      36.858  30.030  27.691  1.00  0.00     0.001 A 
ATOM     68  C   UNL A   1      36.028  29.858  28.797  1.00  0.00     0.000 A 
ENDBRANCH  44  63
BRANCH  56  69
ATOM     69  C   UNL A   1      44.463  32.739  30.976  1.00  0.00    -0.014 A 
ATOM     70  C   UNL A   1      44.444  33.087  32.335  1.00  0.00     0.009 A 
ATOM     71  C   UNL A   1      44.723  33.738  30.024  1.00  0.00     0.009 A 
ATOM     72  C   UNL A   1      44.638  34.414  32.727  1.00  0.00     0.001 A 
ATOM     73  C   UNL A   1      44.946  35.057  30.420  1.00  0.00     0.001 A 
ATOM     74  C   UNL A   1      44.892  35.396  31.771  1.00  0.00     0.000 A 
ENDBRANCH  56  69
ENDBRANCH  30  31
ENDBRANCH  23  25
ENDBRANCH  22  23
ENDBRANCH  21  22
ENDBRANCH  20  21
ENDBRANCH  19  20
ENDBRANCH   1  19
TORSDOF 19
ENDMDL
MODEL 2
REMARK VINA RESULT:      -8.9      3.742      5.603
REMARK SMILES CC1(C)CCC[C@@H]1[C@H](O)C(=O)OCCOCCOCCOC(=O)c1ccc(-c2c3nc(c(-c4ccccc4)c4ccc([nH]4)c(-c4ccccc4)c4nc(c(-c5ccccc5)c5ccc2[nH]5)C=C4)C=C3)cc1
REMARK SMILES IDX 17 1 16 2 15 3 14 4 13 5 12 6 10 7 11 8 8 9 7 10 1 11 2 12
REMARK SMILES IDX 3 13 4 14 5 15 6 16 9 17 18 19 19 20 20 21 21 22 22 23 23 24
REMARK SMILES IDX 24 25 25 26 71 27 26 28 70 29 27 30 28 31 29 32 64 33 30 34
REMARK SMILES IDX 69 35 63 36 65 37 31 38 68 39 62 40 61 41 32 43 54 44 39 45
REMARK SMILES IDX 53 46 40 47 43 48 52 49 66 50 41 51 42 52 51 54 67 55 44 56
REMARK SMILES IDX 33 57 34 58 38 59 35 60 37 61 36 62 55 63 56 64 60 65 57 66
REMARK SMILES IDX 59 67 58 68 45 69 46 70 50 71 47 72 49 73 48 74
REMARK H PARENT 9 18 65 42 43 53
REMARK Flexibility Score: inf
ROOT
ATOM      1  C   UNL A   1      41.433  21.359  27.078  1.00  0.00     0.188 C 
ENDROOT
BRANCH   1   2
ATOM      2  C   UNL A   1      40.202  20.823  26.324  1.00  0.00     0.188 C 
BRANCH   2   3
ATOM      3  O   UNL A   1      39.204  21.724  25.859  1.00  0.00    -0.376 OA
BRANCH   3   4
ATOM      4  C   UNL A   1      39.057  22.996  26.482  1.00  0.00     0.202 C 
BRANCH   4   5
ATOM      5  C   UNL A   1      37.862  23.872  26.084  1.00  0.00     0.261 C 
BRANCH   5   6
ATOM      6  O   UNL A   1      36.603  23.178  26.046  1.00  0.00    -0.461 OA
BRANCH   6   7
ATOM      7  C   UNL A   1      36.136  22.852  24.809  1.00  0.00     0.335 C 
ATOM      8  O   UNL A   1      36.516  23.376  23.768  1.00  0.00    -0.249 OA
BRANCH   7   9
ATOM      9  C   UNL A   1      35.146  21.657  24.837  1.00  0.00     0.227 C 
BRANCH   9  10
ATOM     10  C   UNL A   1      33.755  22.054  25.340  1.00  0.00     0.035 C 
ATOM     11  C   UNL A   1      32.224  20.172  24.427  1.00  0.00     0.011 C 
ATOM     12  C   UNL A   1      32.560  21.668  24.416  1.00  0.00    -0.030 C 
ATOM     13  C   UNL A   1      32.742  22.118  22.952  1.00  0.00     0.011 C 
ATOM     14  C   UNL A   1      31.430  22.470  25.086  1.00  0.00     0.007 C 
ATOM     15  C   UNL A   1      32.056  23.805  25.477  1.00  0.00     0.001 C 
ATOM     16  C   UNL A   1      33.560  23.558  25.565  1.00  0.00     0.007 C 
ENDBRANCH   9  10
BRANCH   9  17
ATOM     17  O   UNL A   1      35.552  20.536  25.614  1.00  0.00    -0.381 OA
ATOM     18  H   UNL A   1      34.771  20.113  26.005  1.00  0.00     0.211 HD
ENDBRANCH   9  17
ENDBRANCH   7   9
ENDBRANCH   6   7
ENDBRANCH   5   6
ENDBRANCH   4   5
ENDBRANCH   3   4
ENDBRANCH   2   3
ENDBRANCH   1   2
BRANCH   1  19
ATOM     19  O   UNL A   1      42.662  20.781  26.691  1.00  0.00    -0.376 OA
BRANCH  19  20
ATOM     20  C   UNL A   1      43.721  21.684  26.415  1.00  0.00     0.202 C 
BRANCH  20  21
ATOM     21  C   UNL A   1      43.851  22.112  24.946  1.00  0.00     0.261 C 
BRANCH  21  22
ATOM     22  O   UNL A   1      43.352  23.428  24.639  1.00  0.00    -0.460 OA
BRANCH  22  23
ATOM     23  C   UNL A   1      44.118  24.472  25.028  1.00  0.00     0.338 C 
ATOM     24  O   UNL A   1      45.243  24.735  24.647  1.00  0.00    -0.246 OA
BRANCH  23  25
ATOM     25  C   UNL A   1      43.285  25.389  25.842  1.00  0.00     0.060 A 
ATOM     26  C   UNL A   1      43.752  26.692  26.067  1.00  0.00     0.016 A 
ATOM     27  C   UNL A   1      42.080  24.966  26.406  1.00  0.00     0.016 A 
ATOM     28  C   UNL A   1      43.047  27.553  26.908  1.00  0.00     0.010 A 
ATOM     29  C   UNL A   1      41.383  25.825  27.267  1.00  0.00     0.010 A 
ATOM     30  C   UNL A   1      41.891  27.104  27.561  1.00  0.00    -0.014 A 
BRANCH  30  31
ATOM     31  C   UNL A   1      41.385  27.862  28.734  1.00  0.00     0.031 A 
ATOM     32  C   UNL A   1      42.120  27.708  30.042  1.00  0.00     0.074 A 
ATOM     33  C   UNL A   1      40.342  28.707  28.650  1.00  0.00     0.049 A 
ATOM     34  N   UNL A   1      41.890  28.273  31.200  1.00  0.00    -0.248 NA
ATOM     35  C   UNL A   1      43.276  26.794  30.040  1.00  0.00     0.031 C 
ATOM     36  C   UNL A   1      39.567  28.986  27.443  1.00  0.00     0.029 A 
ATOM     37  N   UNL A   1      39.758  29.490  29.616  1.00  0.00    -0.354 N 
ATOM     38  C   UNL A   1      42.864  27.780  32.060  1.00  0.00     0.074 A 
ATOM     39  C   UNL A   1      43.669  26.849  31.302  1.00  0.00     0.031 C 
ATOM     40  C   UNL A   1      38.604  29.878  27.743  1.00  0.00     0.029 A 
ATOM     41  C   UNL A   1      38.680  30.212  29.164  1.00  0.00     0.049 A 
ATOM     42  H   UNL A   1      40.082  29.531  30.545  1.00  0.00     0.167 HD
ATOM     43  C   UNL A   1      43.079  28.077  33.362  1.00  0.00     0.031 A 
ATOM     44  C   UNL A   1      37.845  31.038  29.827  1.00  0.00     0.031 A 
ATOM     45  C   UNL A   1      42.279  28.989  34.131  1.00  0.00     0.049 A 
ATOM     46  C   UNL A   1      38.065  31.299  31.296  1.00  0.00     0.074 A 
ATOM     47  C   UNL A   1      42.426  29.358  35.457  1.00  0.00     0.029 A 
ATOM     48  N   UNL A   1      41.177  29.671  33.644  1.00  0.00    -0.354 N 
ATOM     49  N   UNL A   1      39.009  30.851  32.088  1.00  0.00    -0.248 NA
ATOM     50  C   UNL A   1      37.106  32.198  31.959  1.00  0.00     0.031 C 
ATOM     51  C   UNL A   1      41.380  30.227  35.786  1.00  0.00     0.029 A 
ATOM     52  C   UNL A   1      40.620  30.444  34.648  1.00  0.00     0.049 A 
ATOM     53  H   UNL A   1      40.840  29.615  32.720  1.00  0.00     0.167 HD
ATOM     54  C   UNL A   1      38.778  31.438  33.327  1.00  0.00     0.074 A 
ATOM     55  C   UNL A   1      37.616  32.287  33.179  1.00  0.00     0.031 C 
ATOM     56  C   UNL A   1      39.468  31.291  34.485  1.00  0.00     0.031 A 
BRANCH  43  57
ATOM     57  C   UNL A   1      44.217  27.375  34.048  1.00  0.00    -0.014 A 
ATOM     58  C   UNL A   1      44.037  26.130  34.671  1.00  0.00     0.009 A 
ATOM     59  C   UNL A   1      45.494  27.958  34.048  1.00  0.00     0.009 A 
ATOM     60  C   UNL A   1      45.107  25.497  35.305  1.00  0.00     0.001 A 
ATOM     61  C   UNL A   1      46.567  27.310  34.660  1.00  0.00     0.001 A 
ATOM     62  C   UNL A   1      46.372  26.085  35.295  1.00  0.00     0.000 A 
ENDBRANCH  43  57
BRANCH  44  63
ATOM     63  C   UNL A   1      36.701  31.676  29.123  1.00  0.00    -0.014 A 
ATOM     64  C   UNL A   1      36.774  33.011  28.696  1.00  0.00     0.009 A 
ATOM     65  C   UNL A   1      35.505  30.968  28.928  1.00  0.00     0.009 A 
ATOM     66  C   UNL A   1      35.661  33.633  28.121  1.00  0.00     0.001 A 
ATOM     67  C   UNL A   1      34.405  31.583  28.327  1.00  0.00     0.001 A 
ATOM     68  C   UNL A   1      34.480  32.918  27.935  1.00  0.00     0.000 A 
ENDBRANCH  44  63
BRANCH  56  69
ATOM     69  C   UNL A   1      39.016  32.102  35.668  1.00  0.00    -0.014 A 
ATOM     70  C   UNL A   1      38.140  31.576  36.630  1.00  0.00     0.009 A 
ATOM     71  C   UNL A   1      39.504  33.409  35.838  1.00  0.00     0.009 A 
ATOM     72  C   UNL A   1      37.729  32.356  37.713  1.00  0.00     0.001 A 
ATOM     73  C   UNL A   1      39.117  34.175  36.938  1.00  0.00     0.001 A 
ATOM     74  C   UNL A   1      38.220  33.652  37.868  1.00  0.00     0.000 A 
ENDBRANCH  56  69
ENDBRANCH  30  31
ENDBRANCH  23  25
ENDBRANCH  22  23
ENDBRANCH  21  22
ENDBRANCH  20  21
ENDBRANCH  19  20
ENDBRANCH   1  19
TORSDOF 19
ENDMDL
MODEL 3
REMARK VINA RESULT:      -8.7      4.161      8.565
REMARK SMILES CC1(C)CCC[C@@H]1[C@H](O)C(=O)OCCOCCOCCOC(=O)c1ccc(-c2c3nc(c(-c4ccccc4)c4ccc([nH]4)c(-c4ccccc4)c4nc(c(-c5ccccc5)c5ccc2[nH]5)C=C4)C=C3)cc1
REMARK SMILES IDX 17 1 16 2 15 3 14 4 13 5 12 6 10 7 11 8 8 9 7 10 1 11 2 12
REMARK SMILES IDX 3 13 4 14 5 15 6 16 9 17 18 19 19 20 20 21 21 22 22 23 23 24
REMARK SMILES IDX 24 25 25 26 71 27 26 28 70 29 27 30 28 31 29 32 64 33 30 34
REMARK SMILES IDX 69 35 63 36 65 37 31 38 68 39 62 40 61 41 32 43 54 44 39 45
REMARK SMILES IDX 53 46 40 47 43 48 52 49 66 50 41 51 42 52 51 54 67 55 44 56
REMARK SMILES IDX 33 57 34 58 38 59 35 60 37 61 36 62 55 63 56 64 60 65 57 66
REMARK SMILES IDX 59 67 58 68 45 69 46 70 50 71 47 72 49 73 48 74
REMARK H PARENT 9 18 65 42 43 53
REMARK Flexibility Score: inf
ROOT
ATOM      1  C   UNL A   1      32.771  28.891  26.958  1.00  0.00     0.188 C 
ENDROOT
BRANCH   1   2
ATOM      2  C   UNL A   1      32.376  27.403  26.945  1.00  0.00     0.188 C 
BRANCH   2   3
ATOM      3  O   UNL A   1      31.005  27.030  26.882  1.00  0.00    -0.376 OA
BRANCH   3   4
ATOM      4  C   UNL A   1      30.608  25.943  26.054  1.00  0.00     0.202 C 
BRANCH   4   5
ATOM      5  C   UNL A   1      31.472  25.597  24.834  1.00  0.00     0.261 C 
BRANCH   5   6
ATOM      6  O   UNL A   1      31.738  24.193  24.672  1.00  0.00    -0.461 OA
BRANCH   6   7
ATOM      7  C   UNL A   1      31.995  23.775  23.403  1.00  0.00     0.335 C 
ATOM      8  O   UNL A   1      32.189  24.527  22.454  1.00  0.00    -0.249 OA
BRANCH   7   9
ATOM      9  C   UNL A   1      32.134  22.233  23.295  1.00  0.00     0.227 C 
BRANCH   9  10
ATOM     10  C   UNL A   1      33.563  21.749  23.552  1.00  0.00     0.035 C 
ATOM     11  C   UNL A   1      33.230  19.353  24.486  1.00  0.00     0.011 C 
ATOM     12  C   UNL A   1      33.747  20.772  24.753  1.00  0.00    -0.030 C 
ATOM     13  C   UNL A   1      33.117  21.283  26.065  1.00  0.00     0.011 C 
ATOM     14  C   UNL A   1      35.282  20.765  24.865  1.00  0.00     0.007 C 
ATOM     15  C   UNL A   1      35.713  22.207  24.618  1.00  0.00     0.001 C 
ATOM     16  C   UNL A   1      34.576  22.864  23.841  1.00  0.00     0.007 C 
ENDBRANCH   9  10
BRANCH   9  17
ATOM     17  O   UNL A   1      31.731  21.661  22.055  1.00  0.00    -0.381 OA
ATOM     18  H   UNL A   1      32.464  21.147  21.682  1.00  0.00     0.211 HD
ENDBRANCH   9  17
ENDBRANCH   7   9
ENDBRANCH   6   7
ENDBRANCH   5   6
ENDBRANCH   4   5
ENDBRANCH   3   4
ENDBRANCH   2   3
ENDBRANCH   1   2
BRANCH   1  19
ATOM     19  O   UNL A   1      31.690  29.790  27.090  1.00  0.00    -0.376 OA
BRANCH  19  20
ATOM     20  C   UNL A   1      31.725  30.941  26.262  1.00  0.00     0.202 C 
BRANCH  20  21
ATOM     21  C   UNL A   1      31.524  32.279  26.990  1.00  0.00     0.261 C 
BRANCH  21  22
ATOM     22  O   UNL A   1      32.577  33.245  26.807  1.00  0.00    -0.460 OA
BRANCH  22  23
ATOM     23  C   UNL A   1      33.071  33.822  27.925  1.00  0.00     0.338 C 
ATOM     24  O   UNL A   1      32.517  34.643  28.631  1.00  0.00    -0.246 OA
BRANCH  23  25
ATOM     25  C   UNL A   1      34.330  33.131  28.293  1.00  0.00     0.060 A 
ATOM     26  C   UNL A   1      34.266  31.778  28.657  1.00  0.00     0.016 A 
ATOM     27  C   UNL A   1      35.551  33.808  28.316  1.00  0.00     0.016 A 
ATOM     28  C   UNL A   1      35.411  31.118  29.104  1.00  0.00     0.010 A 
ATOM     29  C   UNL A   1      36.696  33.150  28.784  1.00  0.00     0.010 A 
ATOM     30  C   UNL A   1      36.619  31.818  29.229  1.00  0.00    -0.014 A 
BRANCH  30  31
ATOM     31  C   UNL A   1      37.704  31.240  30.064  1.00  0.00     0.031 A 
ATOM     32  C   UNL A   1      38.639  30.249  29.417  1.00  0.00     0.074 A 
ATOM     33  C   UNL A   1      37.902  31.610  31.342  1.00  0.00     0.049 A 
ATOM     34  N   UNL A   1      39.669  29.622  29.924  1.00  0.00    -0.248 NA
ATOM     35  C   UNL A   1      38.376  29.928  28.003  1.00  0.00     0.031 C 
ATOM     36  C   UNL A   1      37.105  32.587  32.080  1.00  0.00     0.029 A 
ATOM     37  N   UNL A   1      38.852  31.197  32.244  1.00  0.00    -0.354 N 
ATOM     38  C   UNL A   1      40.170  28.831  28.897  1.00  0.00     0.074 A 
ATOM     39  C   UNL A   1      39.316  29.033  27.748  1.00  0.00     0.031 C 
ATOM     40  C   UNL A   1      37.599  32.695  33.328  1.00  0.00     0.029 A 
ATOM     41  C   UNL A   1      38.729  31.780  33.482  1.00  0.00     0.049 A 
ATOM     42  H   UNL A   1      39.557  30.545  32.025  1.00  0.00     0.167 HD
ATOM     43  C   UNL A   1      41.248  28.013  28.899  1.00  0.00     0.031 A 
ATOM     44  C   UNL A   1      39.439  31.585  34.611  1.00  0.00     0.031 A 
ATOM     45  C   UNL A   1      42.098  27.792  30.037  1.00  0.00     0.049 A 
ATOM     46  C   UNL A   1      40.595  30.616  34.609  1.00  0.00     0.074 A 
ATOM     47  C   UNL A   1      43.218  26.985  30.133  1.00  0.00     0.029 A 
ATOM     48  N   UNL A   1      41.915  28.375  31.280  1.00  0.00    -0.354 N 
ATOM     49  N   UNL A   1      41.076  29.900  33.621  1.00  0.00    -0.248 NA
ATOM     50  C   UNL A   1      41.315  30.442  35.880  1.00  0.00     0.031 C 
ATOM     51  C   UNL A   1      43.685  27.042  31.450  1.00  0.00     0.029 A 
ATOM     52  C   UNL A   1      42.889  27.931  32.156  1.00  0.00     0.049 A 
ATOM     53  H   UNL A   1      41.198  29.012  31.506  1.00  0.00     0.167 HD
ATOM     54  C   UNL A   1      42.171  29.220  34.143  1.00  0.00     0.074 A 
ATOM     55  C   UNL A   1      42.294  29.622  35.527  1.00  0.00     0.031 C 
ATOM     56  C   UNL A   1      43.006  28.344  33.529  1.00  0.00     0.031 A 
BRANCH  43  57
ATOM     57  C   UNL A   1      41.549  27.268  27.630  1.00  0.00    -0.014 A 
ATOM     58  C   UNL A   1      41.018  25.991  27.390  1.00  0.00     0.009 A 
ATOM     59  C   UNL A   1      42.358  27.865  26.650  1.00  0.00     0.009 A 
ATOM     60  C   UNL A   1      41.313  25.315  26.204  1.00  0.00     0.001 A 
ATOM     61  C   UNL A   1      42.629  27.198  25.455  1.00  0.00     0.001 A 
ATOM     62  C   UNL A   1      42.115  25.921  25.236  1.00  0.00     0.000 A 
ENDBRANCH  43  57
BRANCH  44  63
ATOM     63  C   UNL A   1      39.079  32.307  35.862  1.00  0.00    -0.014 A 
ATOM     64  C   UNL A   1      38.157  31.759  36.768  1.00  0.00     0.009 A 
ATOM     65  C   UNL A   1      39.614  33.577  36.126  1.00  0.00     0.009 A 
ATOM     66  C   UNL A   1      37.752  32.485  37.892  1.00  0.00     0.001 A 
ATOM     67  C   UNL A   1      39.230  34.287  37.265  1.00  0.00     0.001 A 
ATOM     68  C   UNL A   1      38.290  33.746  38.140  1.00  0.00     0.000 A 
ENDBRANCH  44  63
BRANCH  56  69
ATOM     69  C   UNL A   1      44.152  27.800  34.335  1.00  0.00    -0.014 A 
ATOM     70  C   UNL A   1      44.039  26.605  35.063  1.00  0.00     0.009 A 
ATOM     71  C   UNL A   1      45.380  28.482  34.340  1.00  0.00     0.009 A 
ATOM     72  C   UNL A   1      45.117  26.128  35.811  1.00  0.00     0.001 A 
ATOM     73  C   UNL A   1      46.466  27.987  35.063  1.00  0.00     0.001 A 
ATOM     74  C   UNL A   1      46.330  26.817  35.808  1.00  0.00     0.000 A 
ENDBRANCH  56  69
ENDBRANCH  30  31
ENDBRANCH  23  25
ENDBRANCH  22  23
ENDBRANCH  21  22
ENDBRANCH  20  21
ENDBRANCH  19  20
ENDBRANCH   1  19
TORSDOF 19
ENDMDL
