MODEL 1
REMARK VINA RESULT:      -8.1      0.000      0.000
REMARK SMILES C=CCN1C(=O)/C(=C/c2ccccn2)S/C1=[NH+]\c1ccc(C(=O)OCCOCCOCCOC(=O)c2ccc(-c3c4nc(c(-c5ccccc5)c5ccc([nH]5)c(-c5ccccc5)c5nc(c(-c6ccccc6)c6ccc3[nH]6)C=C5)C=C4)cc2)cc1
REMARK SMILES IDX 28 1 27 2 26 3 25 4 24 5 22 6 23 7 21 8 18 9 19 10 85 11
REMARK SMILES IDX 20 12 84 13 17 14 4 15 5 16 16 17 6 18 7 19 15 20 8 21 3 23
REMARK SMILES IDX 2 24 1 25 9 26 10 27 14 28 11 29 13 30 12 31 29 32 30 33
REMARK SMILES IDX 31 34 32 35 33 36 34 37 35 38 36 39 37 40 83 41 38 42 82 43
REMARK SMILES IDX 39 44 40 45 41 46 76 47 42 48 81 49 75 50 77 51 43 52 80 53
REMARK SMILES IDX 74 54 73 55 44 57 66 58 51 59 65 60 52 61 55 62 64 63 78 64
REMARK SMILES IDX 53 65 54 66 63 68 79 69 56 70 45 71 46 72 50 73 47 74 49 75
REMARK SMILES IDX 48 76 67 77 68 78 72 79 69 80 71 81 70 82 57 83 58 84 62 85
REMARK SMILES IDX 59 86 61 87 60 88
REMARK H PARENT 17 22 77 56 55 67
REMARK Flexibility Score: inf
ROOT
ATOM      1  C   UNL A   1      32.413  35.991  31.347  1.00  0.00     0.188 C 
ENDROOT
BRANCH   1   2
ATOM      2  O   UNL A   1      32.951  36.290  32.625  1.00  0.00    -0.376 OA
BRANCH   2   3
ATOM      3  C   UNL A   1      34.352  36.447  32.788  1.00  0.00     0.202 C 
BRANCH   3   4
ATOM      4  C   UNL A   1      35.201  35.305  33.356  1.00  0.00     0.261 C 
BRANCH   4   5
ATOM      5  O   UNL A   1      36.434  35.095  32.653  1.00  0.00    -0.460 OA
BRANCH   5   6
ATOM      6  C   UNL A   1      37.432  34.568  33.401  1.00  0.00     0.338 C 
ATOM      7  O   UNL A   1      37.349  34.159  34.550  1.00  0.00    -0.246 OA
BRANCH   6   8
ATOM      8  C   UNL A   1      38.656  34.385  32.588  1.00  0.00     0.060 A 
ATOM      9  C   UNL A   1      40.871  33.772  30.995  1.00  0.00     0.125 A 
ATOM     10  C   UNL A   1      39.589  33.747  30.447  1.00  0.00     0.052 A 
ATOM     11  C   UNL A   1      41.049  34.234  32.308  1.00  0.00     0.052 A 
ATOM     12  C   UNL A   1      38.483  34.043  31.241  1.00  0.00     0.020 A 
ATOM     13  C   UNL A   1      39.943  34.521  33.116  1.00  0.00     0.020 A 
BRANCH   9  14
ATOM     14  N   UNL A   1      41.933  33.237  30.244  1.00  0.00    -0.234 N 
ATOM     15  N   UNL A   1      43.717  33.665  28.765  1.00  0.00    -0.182 N 
ATOM     16  C   UNL A   1      44.200  34.594  27.862  1.00  0.00     0.349 C 
ATOM     17  C   UNL A   1      42.641  34.048  29.521  1.00  0.00     0.324 C 
ATOM     18  O   UNL A   1      45.071  34.407  27.022  1.00  0.00    -0.240 OA
ATOM     19  C   UNL A   1      43.501  35.894  28.043  1.00  0.00     0.111 C 
ATOM     20  S   UNL A   1      42.382  35.775  29.333  1.00  0.00     0.007 SA
ATOM     21  C   UNL A   1      43.720  36.953  27.253  1.00  0.00     0.052 C 
ATOM     22  H   UNL A   1      42.134  32.274  30.267  1.00  0.00     0.313 HD
BRANCH  15  23
ATOM     23  C   UNL A   1      44.312  32.342  28.847  1.00  0.00     0.275 C 
BRANCH  23  24
ATOM     24  C   UNL A   1      45.161  32.269  30.090  1.00  0.00     0.011 C 
ATOM     25  C   UNL A   1      44.931  31.481  31.149  1.00  0.00     0.008 C 
ENDBRANCH  23  24
ENDBRANCH  15  23
BRANCH  21  26
ATOM     26  C   UNL A   1      43.035  38.244  27.341  1.00  0.00     0.064 A 
ATOM     27  C   UNL A   1      43.427  39.243  28.227  1.00  0.00     0.028 A 
ATOM     28  N   UNL A   1      42.012  38.399  26.471  1.00  0.00    -0.257 NA
ATOM     29  C   UNL A   1      42.710  40.435  28.256  1.00  0.00     0.004 A 
ATOM     30  C   UNL A   1      41.335  39.568  26.519  1.00  0.00     0.111 A 
ATOM     31  C   UNL A   1      41.638  40.603  27.388  1.00  0.00     0.020 A 
ENDBRANCH  21  26
ENDBRANCH   9  14
ENDBRANCH   6   8
ENDBRANCH   5   6
ENDBRANCH   4   5
ENDBRANCH   3   4
ENDBRANCH   2   3
ENDBRANCH   1   2
BRANCH   1  32
ATOM     32  C   UNL A   1      33.262  35.278  30.274  1.00  0.00     0.188 C 
BRANCH  32  33
ATOM     33  O   UNL A   1      32.804  35.232  28.944  1.00  0.00    -0.376 OA
BRANCH  33  34
ATOM     34  C   UNL A   1      33.371  34.352  27.990  1.00  0.00     0.202 C 
BRANCH  34  35
ATOM     35  C   UNL A   1      33.349  32.815  28.048  1.00  0.00     0.261 C 
BRANCH  35  36
ATOM     36  O   UNL A   1      34.409  32.160  28.743  1.00  0.00    -0.460 OA
BRANCH  36  37
ATOM     37  C   UNL A   1      34.808  30.985  28.200  1.00  0.00     0.338 C 
ATOM     38  O   UNL A   1      34.315  30.394  27.255  1.00  0.00    -0.246 OA
BRANCH  37  39
ATOM     39  C   UNL A   1      36.068  30.574  28.837  1.00  0.00     0.060 A 
ATOM     40  C   UNL A   1      37.268  31.108  28.351  1.00  0.00     0.016 A 
ATOM     41  C   UNL A   1      36.068  29.636  29.871  1.00  0.00     0.016 A 
ATOM     42  C   UNL A   1      38.482  30.682  28.887  1.00  0.00     0.010 A 
ATOM     43  C   UNL A   1      37.286  29.197  30.391  1.00  0.00     0.010 A 
ATOM     44  C   UNL A   1      38.498  29.697  29.883  1.00  0.00    -0.014 A 
BRANCH  44  45
ATOM     45  C   UNL A   1      39.779  29.069  30.278  1.00  0.00     0.031 A 
ATOM     46  C   UNL A   1      40.496  29.592  31.491  1.00  0.00     0.074 A 
ATOM     47  C   UNL A   1      40.297  28.047  29.575  1.00  0.00     0.049 A 
ATOM     48  N   UNL A   1      41.647  29.229  31.995  1.00  0.00    -0.248 NA
ATOM     49  C   UNL A   1      39.822  30.669  32.236  1.00  0.00     0.031 C 
ATOM     50  C   UNL A   1      39.681  27.422  28.406  1.00  0.00     0.029 A 
ATOM     51  N   UNL A   1      41.474  27.362  29.745  1.00  0.00    -0.354 N 
ATOM     52  C   UNL A   1      41.839  30.035  33.109  1.00  0.00     0.074 A 
ATOM     53  C   UNL A   1      40.699  30.923  33.194  1.00  0.00     0.031 C 
ATOM     54  C   UNL A   1      40.494  26.450  27.955  1.00  0.00     0.029 A 
ATOM     55  C   UNL A   1      41.698  26.408  28.784  1.00  0.00     0.049 A 
ATOM     56  H   UNL A   1      42.098  27.538  30.486  1.00  0.00     0.167 HD
ATOM     57  C   UNL A   1      42.869  30.036  33.988  1.00  0.00     0.031 A 
ATOM     58  C   UNL A   1      42.764  25.611  28.582  1.00  0.00     0.031 A 
ATOM     59  C   UNL A   1      44.014  29.171  33.893  1.00  0.00     0.049 A 
ATOM     60  C   UNL A   1      43.939  25.690  29.523  1.00  0.00     0.074 A 
ATOM     61  C   UNL A   1      45.106  29.091  34.741  1.00  0.00     0.029 A 
ATOM     62  N   UNL A   1      44.221  28.245  32.884  1.00  0.00    -0.354 N 
ATOM     63  N   UNL A   1      44.097  26.436  30.589  1.00  0.00    -0.248 NA
ATOM     64  C   UNL A   1      45.081  24.812  29.230  1.00  0.00     0.031 C 
ATOM     65  C   UNL A   1      45.999  28.154  34.213  1.00  0.00     0.029 A 
ATOM     66  C   UNL A   1      45.436  27.608  33.071  1.00  0.00     0.049 A 
ATOM     67  H   UNL A   1      43.597  28.067  32.144  1.00  0.00     0.167 HD
ATOM     68  C   UNL A   1      45.340  26.095  31.111  1.00  0.00     0.074 A 
ATOM     69  C   UNL A   1      45.888  25.068  30.251  1.00  0.00     0.031 C 
ATOM     70  C   UNL A   1      45.968  26.587  32.207  1.00  0.00     0.031 A 
BRANCH  57  71
ATOM     71  C   UNL A   1      42.817  31.034  35.109  1.00  0.00    -0.014 A 
ATOM     72  C   UNL A   1      43.353  32.323  34.962  1.00  0.00     0.009 A 
ATOM     73  C   UNL A   1      42.202  30.687  36.321  1.00  0.00     0.009 A 
ATOM     74  C   UNL A   1      43.303  33.233  36.021  1.00  0.00     0.001 A 
ATOM     75  C   UNL A   1      42.129  31.607  37.368  1.00  0.00     0.001 A 
ATOM     76  C   UNL A   1      42.687  32.876  37.219  1.00  0.00     0.000 A 
ENDBRANCH  57  71
BRANCH  58  77
ATOM     77  C   UNL A   1      42.789  24.677  27.427  1.00  0.00    -0.014 A 
ATOM     78  C   UNL A   1      43.332  25.074  26.196  1.00  0.00     0.009 A 
ATOM     79  C   UNL A   1      42.242  23.389  27.542  1.00  0.00     0.009 A 
ATOM     80  C   UNL A   1      43.304  24.211  25.098  1.00  0.00     0.001 A 
ATOM     81  C   UNL A   1      42.241  22.518  26.451  1.00  0.00     0.001 A 
ATOM     82  C   UNL A   1      42.763  22.933  25.228  1.00  0.00     0.000 A 
ENDBRANCH  58  77
BRANCH  70  83
ATOM     83  C   UNL A   1      47.303  25.993  32.564  1.00  0.00    -0.014 A 
ATOM     84  C   UNL A   1      48.491  26.460  31.982  1.00  0.00     0.009 A 
ATOM     85  C   UNL A   1      47.374  24.980  33.534  1.00  0.00     0.009 A 
ATOM     86  C   UNL A   1      49.720  25.903  32.342  1.00  0.00     0.001 A 
ATOM     87  C   UNL A   1      48.605  24.446  33.913  1.00  0.00     0.001 A 
ATOM     88  C   UNL A   1      49.777  24.900  33.311  1.00  0.00     0.000 A 
ENDBRANCH  70  83
ENDBRANCH  44  45
ENDBRANCH  37  39
ENDBRANCH  36  37
ENDBRANCH  35  36
ENDBRANCH  34  35
ENDBRANCH  33  34
ENDBRANCH  32  33
ENDBRANCH   1  32
TORSDOF 21
ENDMDL
MODEL 2
REMARK VINA RESULT:      -7.5      6.205     13.099
REMARK SMILES C=CCN1C(=O)/C(=C/c2ccccn2)S/C1=[NH+]\c1ccc(C(=O)OCCOCCOCCOC(=O)c2ccc(-c3c4nc(c(-c5ccccc5)c5ccc([nH]5)c(-c5ccccc5)c5nc(c(-c6ccccc6)c6ccc3[nH]6)C=C5)C=C4)cc2)cc1
REMARK SMILES IDX 28 1 27 2 26 3 25 4 24 5 22 6 23 7 21 8 18 9 19 10 85 11
REMARK SMILES IDX 20 12 84 13 17 14 4 15 5 16 16 17 6 18 7 19 15 20 8 21 3 23
REMARK SMILES IDX 2 24 1 25 9 26 10 27 14 28 11 29 13 30 12 31 29 32 30 33
REMARK SMILES IDX 31 34 32 35 33 36 34 37 35 38 36 39 37 40 83 41 38 42 82 43
REMARK SMILES IDX 39 44 40 45 41 46 76 47 42 48 81 49 75 50 77 51 43 52 80 53
REMARK SMILES IDX 74 54 73 55 44 57 66 58 51 59 65 60 52 61 55 62 64 63 78 64
REMARK SMILES IDX 53 65 54 66 63 68 79 69 56 70 45 71 46 72 50 73 47 74 49 75
REMARK SMILES IDX 48 76 67 77 68 78 72 79 69 80 71 81 70 82 57 83 58 84 62 85
REMARK SMILES IDX 59 86 61 87 60 88
REMARK H PARENT 17 22 77 56 55 67
REMARK Flexibility Score: inf
ROOT
ATOM      1  C   UNL A   1      43.580  23.080  26.258  1.00  0.00     0.188 C 
ENDROOT
BRANCH   1   2
ATOM      2  O   UNL A   1      43.837  21.686  26.285  1.00  0.00    -0.376 OA
BRANCH   2   3
ATOM      3  C   UNL A   1      42.912  20.781  25.701  1.00  0.00     0.202 C 
BRANCH   3   4
ATOM      4  C   UNL A   1      41.995  19.928  26.584  1.00  0.00     0.261 C 
BRANCH   4   5
ATOM      5  O   UNL A   1      40.599  20.207  26.410  1.00  0.00    -0.460 OA
BRANCH   5   6
ATOM      6  C   UNL A   1      40.167  21.343  27.009  1.00  0.00     0.338 C 
ATOM      7  O   UNL A   1      40.645  21.875  28.000  1.00  0.00    -0.246 OA
BRANCH   6   8
ATOM      8  C   UNL A   1      39.101  21.986  26.208  1.00  0.00     0.060 A 
ATOM      9  C   UNL A   1      36.949  23.248  24.945  1.00  0.00     0.125 A 
ATOM     10  C   UNL A   1      37.716  23.943  25.880  1.00  0.00     0.052 A 
ATOM     11  C   UNL A   1      37.348  21.962  24.548  1.00  0.00     0.052 A 
ATOM     12  C   UNL A   1      38.782  23.314  26.517  1.00  0.00     0.020 A 
ATOM     13  C   UNL A   1      38.411  21.318  25.192  1.00  0.00     0.020 A 
BRANCH   9  14
ATOM     14  N   UNL A   1      35.744  23.823  24.503  1.00  0.00    -0.234 N 
ATOM     15  N   UNL A   1      33.453  23.505  24.054  1.00  0.00    -0.182 N 
ATOM     16  C   UNL A   1      32.506  22.531  23.797  1.00  0.00     0.349 C 
ATOM     17  C   UNL A   1      34.692  23.067  24.440  1.00  0.00     0.324 C 
ATOM     18  O   UNL A   1      31.387  22.709  23.333  1.00  0.00    -0.240 OA
ATOM     19  C   UNL A   1      33.039  21.191  24.162  1.00  0.00     0.111 C 
ATOM     20  S   UNL A   1      34.616  21.352  24.807  1.00  0.00     0.007 SA
ATOM     21  C   UNL A   1      32.360  20.056  23.950  1.00  0.00     0.052 C 
ATOM     22  H   UNL A   1      35.701  24.773  24.249  1.00  0.00     0.313 HD
BRANCH  15  23
ATOM     23  C   UNL A   1      33.132  24.909  23.867  1.00  0.00     0.275 C 
BRANCH  23  24
ATOM     24  C   UNL A   1      33.391  25.278  22.428  1.00  0.00     0.011 C 
ATOM     25  C   UNL A   1      32.460  25.623  21.529  1.00  0.00     0.008 C 
ENDBRANCH  23  24
ENDBRANCH  15  23
BRANCH  21  26
ATOM     26  C   UNL A   1      32.840  18.704  24.237  1.00  0.00     0.064 A 
ATOM     27  C   UNL A   1      32.721  18.116  25.494  1.00  0.00     0.028 A 
ATOM     28  N   UNL A   1      33.380  18.060  23.178  1.00  0.00    -0.257 NA
ATOM     29  C   UNL A   1      33.219  16.831  25.684  1.00  0.00     0.004 A 
ATOM     30  C   UNL A   1      33.853  16.813  23.392  1.00  0.00     0.111 A 
ATOM     31  C   UNL A   1      33.802  16.164  24.614  1.00  0.00     0.020 A 
ENDBRANCH  21  26
ENDBRANCH   9  14
ENDBRANCH   6   8
ENDBRANCH   5   6
ENDBRANCH   4   5
ENDBRANCH   3   4
ENDBRANCH   2   3
ENDBRANCH   1   2
BRANCH   1  32
ATOM     32  C   UNL A   1      44.112  23.966  25.113  1.00  0.00     0.188 C 
BRANCH  32  33
ATOM     33  O   UNL A   1      44.173  25.361  25.286  1.00  0.00    -0.376 OA
BRANCH  33  34
ATOM     34  C   UNL A   1      43.004  26.146  25.437  1.00  0.00     0.202 C 
BRANCH  34  35
ATOM     35  C   UNL A   1      42.842  27.619  25.025  1.00  0.00     0.261 C 
BRANCH  35  36
ATOM     36  O   UNL A   1      42.925  28.610  26.048  1.00  0.00    -0.460 OA
BRANCH  36  37
ATOM     37  C   UNL A   1      41.889  28.618  26.921  1.00  0.00     0.338 C 
ATOM     38  O   UNL A   1      40.699  28.689  26.667  1.00  0.00    -0.246 OA
BRANCH  37  39
ATOM     39  C   UNL A   1      42.409  28.366  28.273  1.00  0.00     0.060 A 
ATOM     40  C   UNL A   1      41.496  28.098  29.301  1.00  0.00     0.016 A 
ATOM     41  C   UNL A   1      43.779  28.440  28.532  1.00  0.00     0.016 A 
ATOM     42  C   UNL A   1      41.955  27.927  30.606  1.00  0.00     0.010 A 
ATOM     43  C   UNL A   1      44.233  28.288  29.843  1.00  0.00     0.010 A 
ATOM     44  C   UNL A   1      43.320  28.058  30.889  1.00  0.00    -0.014 A 
BRANCH  44  45
ATOM     45  C   UNL A   1      43.779  28.122  32.295  1.00  0.00     0.031 A 
ATOM     46  C   UNL A   1      44.294  26.867  32.944  1.00  0.00     0.074 A 
ATOM     47  C   UNL A   1      43.745  29.275  32.986  1.00  0.00     0.049 A 
ATOM     48  N   UNL A   1      44.704  26.676  34.171  1.00  0.00    -0.248 NA
ATOM     49  C   UNL A   1      44.356  25.668  32.091  1.00  0.00     0.031 C 
ATOM     50  C   UNL A   1      43.308  30.566  32.460  1.00  0.00     0.029 A 
ATOM     51  N   UNL A   1      44.080  29.535  34.291  1.00  0.00    -0.354 N 
ATOM     52  C   UNL A   1      45.064  25.337  34.241  1.00  0.00     0.074 A 
ATOM     53  C   UNL A   1      44.802  24.757  32.942  1.00  0.00     0.031 C 
ATOM     54  C   UNL A   1      43.390  31.483  33.439  1.00  0.00     0.029 A 
ATOM     55  C   UNL A   1      43.854  30.836  34.665  1.00  0.00     0.049 A 
ATOM     56  H   UNL A   1      44.447  28.855  34.899  1.00  0.00     0.167 HD
ATOM     57  C   UNL A   1      45.573  24.650  35.291  1.00  0.00     0.031 A 
ATOM     58  C   UNL A   1      43.983  31.429  35.868  1.00  0.00     0.031 A 
ATOM     59  C   UNL A   1      45.812  25.218  36.591  1.00  0.00     0.049 A 
ATOM     60  C   UNL A   1      44.467  30.623  37.045  1.00  0.00     0.074 A 
ATOM     61  C   UNL A   1      46.333  24.604  37.717  1.00  0.00     0.029 A 
ATOM     62  N   UNL A   1      45.535  26.529  36.941  1.00  0.00    -0.354 N 
ATOM     63  N   UNL A   1      44.833  29.364  37.093  1.00  0.00    -0.248 NA
ATOM     64  C   UNL A   1      44.560  31.323  38.334  1.00  0.00     0.031 C 
ATOM     65  C   UNL A   1      46.319  25.531  38.764  1.00  0.00     0.029 A 
ATOM     66  C   UNL A   1      45.847  26.737  38.273  1.00  0.00     0.049 A 
ATOM     67  H   UNL A   1      45.169  27.211  36.332  1.00  0.00     0.167 HD
ATOM     68  C   UNL A   1      45.227  29.132  38.406  1.00  0.00     0.074 A 
ATOM     69  C   UNL A   1      45.067  30.382  39.118  1.00  0.00     0.031 C 
ATOM     70  C   UNL A   1      45.683  27.987  38.969  1.00  0.00     0.031 A 
BRANCH  57  71
ATOM     71  C   UNL A   1      45.867  23.192  35.082  1.00  0.00    -0.014 A 
ATOM     72  C   UNL A   1      47.161  22.749  34.764  1.00  0.00     0.009 A 
ATOM     73  C   UNL A   1      44.841  22.247  35.227  1.00  0.00     0.009 A 
ATOM     74  C   UNL A   1      47.412  21.389  34.564  1.00  0.00     0.001 A 
ATOM     75  C   UNL A   1      45.100  20.887  35.053  1.00  0.00     0.001 A 
ATOM     76  C   UNL A   1      46.383  20.461  34.713  1.00  0.00     0.000 A 
ENDBRANCH  57  71
BRANCH  58  77
ATOM     77  C   UNL A   1      43.627  32.862  36.035  1.00  0.00    -0.014 A 
ATOM     78  C   UNL A   1      44.596  33.864  35.873  1.00  0.00     0.009 A 
ATOM     79  C   UNL A   1      42.320  33.234  36.387  1.00  0.00     0.009 A 
ATOM     80  C   UNL A   1      44.268  35.206  36.085  1.00  0.00     0.001 A 
ATOM     81  C   UNL A   1      41.989  34.577  36.570  1.00  0.00     0.001 A 
ATOM     82  C   UNL A   1      42.965  35.561  36.428  1.00  0.00     0.000 A 
ENDBRANCH  58  77
BRANCH  70  83
ATOM     83  C   UNL A   1      46.083  28.040  40.418  1.00  0.00    -0.014 A 
ATOM     84  C   UNL A   1      47.386  28.390  40.805  1.00  0.00     0.009 A 
ATOM     85  C   UNL A   1      45.126  27.779  41.411  1.00  0.00     0.009 A 
ATOM     86  C   UNL A   1      47.728  28.447  42.157  1.00  0.00     0.001 A 
ATOM     87  C   UNL A   1      45.463  27.866  42.762  1.00  0.00     0.001 A 
ATOM     88  C   UNL A   1      46.766  28.191  43.135  1.00  0.00     0.000 A 
ENDBRANCH  70  83
ENDBRANCH  44  45
ENDBRANCH  37  39
ENDBRANCH  36  37
ENDBRANCH  35  36
ENDBRANCH  34  35
ENDBRANCH  33  34
ENDBRANCH  32  33
ENDBRANCH   1  32
TORSDOF 21
ENDMDL
MODEL 3
REMARK VINA RESULT:      -7.2      2.021      2.287
REMARK SMILES C=CCN1C(=O)/C(=C/c2ccccn2)S/C1=[NH+]\c1ccc(C(=O)OCCOCCOCCOC(=O)c2ccc(-c3c4nc(c(-c5ccccc5)c5ccc([nH]5)c(-c5ccccc5)c5nc(c(-c6ccccc6)c6ccc3[nH]6)C=C5)C=C4)cc2)cc1
REMARK SMILES IDX 28 1 27 2 26 3 25 4 24 5 22 6 23 7 21 8 18 9 19 10 85 11
REMARK SMILES IDX 20 12 84 13 17 14 4 15 5 16 16 17 6 18 7 19 15 20 8 21 3 23
REMARK SMILES IDX 2 24 1 25 9 26 10 27 14 28 11 29 13 30 12 31 29 32 30 33
REMARK SMILES IDX 31 34 32 35 33 36 34 37 35 38 36 39 37 40 83 41 38 42 82 43
REMARK SMILES IDX 39 44 40 45 41 46 76 47 42 48 81 49 75 50 77 51 43 52 80 53
REMARK SMILES IDX 74 54 73 55 44 57 66 58 51 59 65 60 52 61 55 62 64 63 78 64
REMARK SMILES IDX 53 65 54 66 63 68 79 69 56 70 45 71 46 72 50 73 47 74 49 75
REMARK SMILES IDX 48 76 67 77 68 78 72 79 69 80 71 81 70 82 57 83 58 84 62 85
REMARK SMILES IDX 59 86 61 87 60 88
REMARK H PARENT 17 22 77 56 55 67
REMARK Flexibility Score: inf
ROOT
ATOM      1  C   UNL A   1      32.486  36.182  31.465  1.00  0.00     0.188 C 
ENDROOT
BRANCH   1   2
ATOM      2  O   UNL A   1      32.913  36.426  32.795  1.00  0.00    -0.376 OA
BRANCH   2   3
ATOM      3  C   UNL A   1      34.296  36.417  33.112  1.00  0.00     0.202 C 
BRANCH   3   4
ATOM      4  C   UNL A   1      34.951  35.164  33.701  1.00  0.00     0.261 C 
BRANCH   4   5
ATOM      5  O   UNL A   1      36.349  35.044  33.399  1.00  0.00    -0.460 OA
BRANCH   5   6
ATOM      6  C   UNL A   1      37.059  34.303  34.283  1.00  0.00     0.338 C 
ATOM      7  O   UNL A   1      36.614  33.517  35.105  1.00  0.00    -0.246 OA
BRANCH   6   8
ATOM      8  C   UNL A   1      38.512  34.435  34.029  1.00  0.00     0.060 A 
ATOM      9  C   UNL A   1      41.236  34.438  33.396  1.00  0.00     0.125 A 
ATOM     10  C   UNL A   1      40.283  34.489  32.379  1.00  0.00     0.052 A 
ATOM     11  C   UNL A   1      40.819  34.521  34.734  1.00  0.00     0.052 A 
ATOM     12  C   UNL A   1      38.926  34.478  32.691  1.00  0.00     0.020 A 
ATOM     13  C   UNL A   1      39.458  34.498  35.056  1.00  0.00     0.020 A 
BRANCH   9  14
ATOM     14  N   UNL A   1      42.578  34.206  33.047  1.00  0.00    -0.234 N 
ATOM     15  N   UNL A   1      44.726  35.126  32.736  1.00  0.00    -0.182 N 
ATOM     16  C   UNL A   1      45.391  36.318  32.514  1.00  0.00     0.349 C 
ATOM     17  C   UNL A   1      43.391  35.217  33.031  1.00  0.00     0.324 C 
ATOM     18  O   UNL A   1      46.546  36.444  32.128  1.00  0.00    -0.240 OA
ATOM     19  C   UNL A   1      44.495  37.467  32.808  1.00  0.00     0.111 C 
ATOM     20  S   UNL A   1      42.978  36.892  33.356  1.00  0.00     0.007 SA
ATOM     21  C   UNL A   1      44.857  38.741  32.609  1.00  0.00     0.052 C 
ATOM     22  H   UNL A   1      42.893  33.301  32.823  1.00  0.00     0.313 HD
BRANCH  15  23
ATOM     23  C   UNL A   1      45.424  33.860  32.608  1.00  0.00     0.275 C 
BRANCH  23  24
ATOM     24  C   UNL A   1      45.151  33.292  31.238  1.00  0.00     0.011 C 
ATOM     25  C   UNL A   1      45.971  33.368  30.182  1.00  0.00     0.008 C 
ENDBRANCH  23  24
ENDBRANCH  15  23
BRANCH  21  26
ATOM     26  C   UNL A   1      44.013  39.916  32.829  1.00  0.00     0.064 A 
ATOM     27  C   UNL A   1      43.932  40.564  34.059  1.00  0.00     0.028 A 
ATOM     28  N   UNL A   1      43.342  40.341  31.735  1.00  0.00    -0.257 NA
ATOM     29  C   UNL A   1      43.092  41.666  34.185  1.00  0.00     0.004 A 
ATOM     30  C   UNL A   1      42.535  41.414  31.886  1.00  0.00     0.111 A 
ATOM     31  C   UNL A   1      42.373  42.100  33.078  1.00  0.00     0.020 A 
ENDBRANCH  21  26
ENDBRANCH   9  14
ENDBRANCH   6   8
ENDBRANCH   5   6
ENDBRANCH   4   5
ENDBRANCH   3   4
ENDBRANCH   2   3
ENDBRANCH   1   2
BRANCH   1  32
ATOM     32  C   UNL A   1      33.419  35.498  30.443  1.00  0.00     0.188 C 
BRANCH  32  33
ATOM     33  O   UNL A   1      33.100  35.545  29.073  1.00  0.00    -0.376 OA
BRANCH  33  34
ATOM     34  C   UNL A   1      33.665  34.636  28.145  1.00  0.00     0.202 C 
BRANCH  34  35
ATOM     35  C   UNL A   1      33.580  33.102  28.213  1.00  0.00     0.261 C 
BRANCH  35  36
ATOM     36  O   UNL A   1      34.623  32.407  28.893  1.00  0.00    -0.460 OA
BRANCH  36  37
ATOM     37  C   UNL A   1      35.003  31.240  28.318  1.00  0.00     0.338 C 
ATOM     38  O   UNL A   1      34.517  30.698  27.341  1.00  0.00    -0.246 OA
BRANCH  37  39
ATOM     39  C   UNL A   1      36.234  30.771  28.969  1.00  0.00     0.060 A 
ATOM     40  C   UNL A   1      37.452  31.352  28.595  1.00  0.00     0.016 A 
ATOM     41  C   UNL A   1      36.192  29.735  29.905  1.00  0.00     0.016 A 
ATOM     42  C   UNL A   1      38.643  30.878  29.143  1.00  0.00     0.010 A 
ATOM     43  C   UNL A   1      37.387  29.249  30.436  1.00  0.00     0.010 A 
ATOM     44  C   UNL A   1      38.619  29.800  30.037  1.00  0.00    -0.014 A 
BRANCH  44  45
ATOM     45  C   UNL A   1      39.884  29.138  30.427  1.00  0.00     0.031 A 
ATOM     46  C   UNL A   1      40.607  29.628  31.651  1.00  0.00     0.074 A 
ATOM     47  C   UNL A   1      40.382  28.114  29.712  1.00  0.00     0.049 A 
ATOM     48  N   UNL A   1      41.748  29.232  32.154  1.00  0.00    -0.248 NA
ATOM     49  C   UNL A   1      39.954  30.708  32.408  1.00  0.00     0.031 C 
ATOM     50  C   UNL A   1      39.757  27.520  28.532  1.00  0.00     0.029 A 
ATOM     51  N   UNL A   1      41.543  27.401  29.877  1.00  0.00    -0.354 N 
ATOM     52  C   UNL A   1      41.953  30.018  33.280  1.00  0.00     0.074 A 
ATOM     53  C   UNL A   1      40.833  30.930  33.373  1.00  0.00     0.031 C 
ATOM     54  C   UNL A   1      40.550  26.537  28.071  1.00  0.00     0.029 A 
ATOM     55  C   UNL A   1      41.749  26.457  28.903  1.00  0.00     0.049 A 
ATOM     56  H   UNL A   1      42.167  27.553  30.622  1.00  0.00     0.167 HD
ATOM     57  C   UNL A   1      42.980  29.984  34.162  1.00  0.00     0.031 A 
ATOM     58  C   UNL A   1      42.799  25.639  28.694  1.00  0.00     0.031 A 
ATOM     59  C   UNL A   1      44.106  29.095  34.059  1.00  0.00     0.049 A 
ATOM     60  C   UNL A   1      43.971  25.679  29.640  1.00  0.00     0.074 A 
ATOM     61  C   UNL A   1      45.192  28.979  34.910  1.00  0.00     0.029 A 
ATOM     62  N   UNL A   1      44.296  28.180  33.038  1.00  0.00    -0.354 N 
ATOM     63  N   UNL A   1      44.141  26.406  30.718  1.00  0.00    -0.248 NA
ATOM     64  C   UNL A   1      45.095  24.780  29.339  1.00  0.00     0.031 C 
ATOM     65  C   UNL A   1      46.067  28.030  34.371  1.00  0.00     0.029 A 
ATOM     66  C   UNL A   1      45.496  27.514  33.220  1.00  0.00     0.049 A 
ATOM     67  H   UNL A   1      43.671  28.026  32.293  1.00  0.00     0.167 HD
ATOM     68  C   UNL A   1      45.374  26.031  31.239  1.00  0.00     0.074 A 
ATOM     69  C   UNL A   1      45.903  25.003  30.366  1.00  0.00     0.031 C 
ATOM     70  C   UNL A   1      46.009  26.493  32.344  1.00  0.00     0.031 A 
BRANCH  57  71
ATOM     71  C   UNL A   1      42.945  30.967  35.297  1.00  0.00    -0.014 A 
ATOM     72  C   UNL A   1      43.750  32.117  35.289  1.00  0.00     0.009 A 
ATOM     73  C   UNL A   1      42.078  30.751  36.378  1.00  0.00     0.009 A 
ATOM     74  C   UNL A   1      43.710  33.014  36.360  1.00  0.00     0.001 A 
ATOM     75  C   UNL A   1      42.020  31.662  37.434  1.00  0.00     0.001 A 
ATOM     76  C   UNL A   1      42.842  32.788  37.427  1.00  0.00     0.000 A 
ENDBRANCH  57  71
BRANCH  58  77
ATOM     77  C   UNL A   1      42.808  24.721  27.525  1.00  0.00    -0.014 A 
ATOM     78  C   UNL A   1      43.456  25.083  26.335  1.00  0.00     0.009 A 
ATOM     79  C   UNL A   1      42.141  23.486  27.586  1.00  0.00     0.009 A 
ATOM     80  C   UNL A   1      43.415  24.239  25.222  1.00  0.00     0.001 A 
ATOM     81  C   UNL A   1      42.126  22.633  26.482  1.00  0.00     0.001 A 
ATOM     82  C   UNL A   1      42.754  23.014  25.298  1.00  0.00     0.000 A 
ENDBRANCH  58  77
BRANCH  70  83
ATOM     83  C   UNL A   1      47.329  25.864  32.697  1.00  0.00    -0.014 A 
ATOM     84  C   UNL A   1      48.532  26.329  32.145  1.00  0.00     0.009 A 
ATOM     85  C   UNL A   1      47.370  24.820  33.634  1.00  0.00     0.009 A 
ATOM     86  C   UNL A   1      49.746  25.740  32.502  1.00  0.00     0.001 A 
ATOM     87  C   UNL A   1      48.588  24.252  34.011  1.00  0.00     0.001 A 
ATOM     88  C   UNL A   1      49.774  24.706  33.438  1.00  0.00     0.000 A 
ENDBRANCH  70  83
ENDBRANCH  44  45
ENDBRANCH  37  39
ENDBRANCH  36  37
ENDBRANCH  35  36
ENDBRANCH  34  35
ENDBRANCH  33  34
ENDBRANCH  32  33
ENDBRANCH   1  32
TORSDOF 21
ENDMDL
