MODEL 1
REMARK VINA RESULT:     -10.1      0.000      0.000
REMARK SMILES COc1ccc2c(C[NH2+]Cc3cccs3)c(C(=O)OCCOCCOCCOC(=O)c3ccc(-c4c5nc(c(-c6ccccc6)c6ccc([nH]6)c(-c6ccccc6)c6nc(c(-c7ccccc7)c7ccc4[nH]7)C=C6)C=C5)cc3)[nH]c2c1
REMARK SMILES IDX 23 1 22 2 21 3 20 4 19 5 17 6 18 7 16 8 3 9 4 10 81 11 5 12
REMARK SMILES IDX 80 13 6 14 79 15 7 16 2 18 1 19 8 20 9 21 10 24 11 25 12 26
REMARK SMILES IDX 15 27 13 28 14 29 24 30 25 31 26 32 27 33 28 34 29 35 30 36
REMARK SMILES IDX 31 37 32 38 78 39 33 40 77 41 34 42 35 43 36 44 71 45 37 46
REMARK SMILES IDX 76 47 70 48 72 49 38 50 75 51 69 52 68 53 39 55 61 56 46 57
REMARK SMILES IDX 60 58 47 59 50 60 59 61 73 62 48 63 49 64 58 66 74 67 51 68
REMARK SMILES IDX 40 69 41 70 45 71 42 72 44 73 43 74 62 75 63 76 67 77 64 78
REMARK SMILES IDX 66 79 65 80 52 81 53 82 57 83 54 84 56 85 55 86
REMARK H PARENT 79 17 9 22 9 23 72 54 50 65
REMARK Flexibility Score: inf
ROOT
ATOM      1  C   UNL A   1      35.338  33.888  28.700  1.00  0.00     0.188 C 
ENDROOT
BRANCH   1   2
ATOM      2  O   UNL A   1      35.118  32.975  27.631  1.00  0.00    -0.376 OA
BRANCH   2   3
ATOM      3  C   UNL A   1      35.026  31.605  27.997  1.00  0.00     0.202 C 
BRANCH   3   4
ATOM      4  C   UNL A   1      33.678  30.981  27.620  1.00  0.00     0.261 C 
BRANCH   4   5
ATOM      5  O   UNL A   1      33.639  30.412  26.301  1.00  0.00    -0.459 OA
BRANCH   5   6
ATOM      6  C   UNL A   1      33.154  29.140  26.212  1.00  0.00     0.355 C 
ATOM      7  O   UNL A   1      33.587  28.194  26.838  1.00  0.00    -0.244 OA
BRANCH   6   8
ATOM      8  C   UNL A   1      32.017  29.154  25.316  1.00  0.00     0.134 A 
ATOM      9  C   UNL A   1      28.401  30.303  22.658  1.00  0.00     0.120 A 
ATOM     10  C   UNL A   1      28.429  28.938  22.383  1.00  0.00     0.047 A 
ATOM     11  C   UNL A   1      29.346  30.867  23.527  1.00  0.00     0.073 A 
ATOM     12  C   UNL A   1      29.379  28.106  22.988  1.00  0.00     0.015 A 
ATOM     13  C   UNL A   1      30.298  30.022  24.116  1.00  0.00     0.050 A 
ATOM     14  C   UNL A   1      30.330  28.654  23.873  1.00  0.00     0.009 A 
ATOM     15  N   UNL A   1      31.310  30.296  25.002  1.00  0.00    -0.349 N 
ATOM     16  C   UNL A   1      31.374  28.094  24.680  1.00  0.00     0.046 A 
ATOM     17  H   UNL A   1      31.506  31.190  25.366  1.00  0.00     0.167 HD
BRANCH   9  18
ATOM     18  O   UNL A   1      27.505  31.198  22.132  1.00  0.00    -0.497 OA
ATOM     19  C   UNL A   1      28.051  32.348  21.495  1.00  0.00     0.278 C 
ENDBRANCH   9  18
BRANCH  16  20
ATOM     20  C   UNL A   1      31.598  26.628  24.862  1.00  0.00     0.300 C 
BRANCH  20  21
ATOM     21  N   UNL A   1      31.780  25.978  23.580  1.00  0.00    -0.338 N 
ATOM     22  H   UNL A   1      32.778  25.826  23.426  1.00  0.00     0.346 HD
ATOM     23  H   UNL A   1      31.388  26.585  22.860  1.00  0.00     0.346 HD
BRANCH  21  24
ATOM     24  C   UNL A   1      31.090  24.693  23.519  1.00  0.00     0.308 C 
BRANCH  24  25
ATOM     25  C   UNL A   1      31.832  23.600  24.236  1.00  0.00     0.059 A 
ATOM     26  C   UNL A   1      33.118  23.155  23.988  1.00  0.00     0.021 A 
ATOM     27  S   UNL A   1      31.131  22.753  25.554  1.00  0.00    -0.143 S 
ATOM     28  C   UNL A   1      33.519  22.121  24.881  1.00  0.00     0.012 A 
ATOM     29  C   UNL A   1      32.532  21.809  25.787  1.00  0.00     0.065 A 
ENDBRANCH  24  25
ENDBRANCH  21  24
ENDBRANCH  20  21
ENDBRANCH  16  20
ENDBRANCH   6   8
ENDBRANCH   5   6
ENDBRANCH   4   5
ENDBRANCH   3   4
ENDBRANCH   2   3
ENDBRANCH   1   2
BRANCH   1  30
ATOM     30  C   UNL A   1      34.388  33.699  29.897  1.00  0.00     0.188 C 
BRANCH  30  31
ATOM     31  O   UNL A   1      34.301  34.709  30.897  1.00  0.00    -0.376 OA
BRANCH  31  32
ATOM     32  C   UNL A   1      35.042  34.561  32.099  1.00  0.00     0.202 C 
BRANCH  32  33
ATOM     33  C   UNL A   1      34.547  33.509  33.093  1.00  0.00     0.261 C 
BRANCH  33  34
ATOM     34  O   UNL A   1      35.138  32.214  32.892  1.00  0.00    -0.460 OA
BRANCH  34  35
ATOM     35  C   UNL A   1      36.366  32.053  33.436  1.00  0.00     0.338 C 
ATOM     36  O   UNL A   1      36.733  32.369  34.555  1.00  0.00    -0.246 OA
BRANCH  35  37
ATOM     37  C   UNL A   1      37.232  31.297  32.511  1.00  0.00     0.060 A 
ATOM     38  C   UNL A   1      38.282  30.550  33.061  1.00  0.00     0.016 A 
ATOM     39  C   UNL A   1      37.085  31.406  31.127  1.00  0.00     0.016 A 
ATOM     40  C   UNL A   1      39.215  29.941  32.224  1.00  0.00     0.010 A 
ATOM     41  C   UNL A   1      38.036  30.813  30.289  1.00  0.00     0.010 A 
ATOM     42  C   UNL A   1      39.123  30.109  30.835  1.00  0.00    -0.014 A 
BRANCH  42  43
ATOM     43  C   UNL A   1      40.252  29.681  29.976  1.00  0.00     0.031 A 
ATOM     44  C   UNL A   1      41.380  30.642  29.726  1.00  0.00     0.074 A 
ATOM     45  C   UNL A   1      40.287  28.449  29.444  1.00  0.00     0.049 A 
ATOM     46  N   UNL A   1      42.478  30.468  29.036  1.00  0.00    -0.248 NA
ATOM     47  C   UNL A   1      41.247  31.980  30.325  1.00  0.00     0.031 C 
ATOM     48  C   UNL A   1      39.259  27.426  29.621  1.00  0.00     0.029 A 
ATOM     49  N   UNL A   1      41.238  27.842  28.665  1.00  0.00    -0.354 N 
ATOM     50  C   UNL A   1      43.154  31.679  29.096  1.00  0.00     0.074 A 
ATOM     51  C   UNL A   1      42.347  32.578  29.892  1.00  0.00     0.031 C 
ATOM     52  C   UNL A   1      39.657  26.301  29.004  1.00  0.00     0.029 A 
ATOM     53  C   UNL A   1      40.954  26.531  28.371  1.00  0.00     0.049 A 
ATOM     54  H   UNL A   1      42.049  28.302  28.348  1.00  0.00     0.167 HD
ATOM     55  C   UNL A   1      44.334  32.020  28.524  1.00  0.00     0.031 A 
ATOM     56  C   UNL A   1      41.663  25.621  27.677  1.00  0.00     0.031 A 
ATOM     57  C   UNL A   1      45.128  31.139  27.712  1.00  0.00     0.049 A 
ATOM     58  C   UNL A   1      42.973  26.023  27.054  1.00  0.00     0.074 A 
ATOM     59  C   UNL A   1      46.331  31.399  27.079  1.00  0.00     0.029 A 
ATOM     60  N   UNL A   1      44.795  29.827  27.418  1.00  0.00    -0.354 N 
ATOM     61  N   UNL A   1      43.610  27.166  27.134  1.00  0.00    -0.248 NA
ATOM     62  C   UNL A   1      43.652  25.011  26.231  1.00  0.00     0.031 C 
ATOM     63  C   UNL A   1      46.704  30.254  26.365  1.00  0.00     0.029 A 
ATOM     64  C   UNL A   1      45.757  29.269  26.594  1.00  0.00     0.049 A 
ATOM     65  H   UNL A   1      43.993  29.360  27.747  1.00  0.00     0.167 HD
ATOM     66  C   UNL A   1      44.760  27.012  26.370  1.00  0.00     0.074 A 
ATOM     67  C   UNL A   1      44.753  25.655  25.866  1.00  0.00     0.031 C 
ATOM     68  C   UNL A   1      45.729  27.920  26.097  1.00  0.00     0.031 A 
BRANCH  55  69
ATOM     69  C   UNL A   1      44.800  33.433  28.712  1.00  0.00    -0.014 A 
ATOM     70  C   UNL A   1      45.636  33.790  29.781  1.00  0.00     0.009 A 
ATOM     71  C   UNL A   1      44.403  34.420  27.797  1.00  0.00     0.009 A 
ATOM     72  C   UNL A   1      46.040  35.117  29.946  1.00  0.00     0.001 A 
ATOM     73  C   UNL A   1      44.826  35.741  27.953  1.00  0.00     0.001 A 
ATOM     74  C   UNL A   1      45.637  36.089  29.031  1.00  0.00     0.000 A 
ENDBRANCH  55  69
BRANCH  56  75
ATOM     75  C   UNL A   1      41.156  24.231  27.526  1.00  0.00    -0.014 A 
ATOM     76  C   UNL A   1      41.777  23.173  28.210  1.00  0.00     0.009 A 
ATOM     77  C   UNL A   1      40.071  23.948  26.684  1.00  0.00     0.009 A 
ATOM     78  C   UNL A   1      41.331  21.860  28.040  1.00  0.00     0.001 A 
ATOM     79  C   UNL A   1      39.611  22.638  26.537  1.00  0.00     0.001 A 
ATOM     80  C   UNL A   1      40.245  21.595  27.209  1.00  0.00     0.000 A 
ENDBRANCH  56  75
BRANCH  68  81
ATOM     81  C   UNL A   1      46.860  27.474  25.214  1.00  0.00    -0.014 A 
ATOM     82  C   UNL A   1      46.924  27.872  23.869  1.00  0.00     0.009 A 
ATOM     83  C   UNL A   1      47.894  26.689  25.743  1.00  0.00     0.009 A 
ATOM     84  C   UNL A   1      47.992  27.469  23.065  1.00  0.00     0.001 A 
ATOM     85  C   UNL A   1      48.972  26.306  24.943  1.00  0.00     0.001 A 
ATOM     86  C   UNL A   1      49.017  26.691  23.603  1.00  0.00     0.000 A 
ENDBRANCH  68  81
ENDBRANCH  42  43
ENDBRANCH  35  37
ENDBRANCH  34  35
ENDBRANCH  33  34
ENDBRANCH  32  33
ENDBRANCH  31  32
ENDBRANCH  30  31
ENDBRANCH   1  30
TORSDOF 22
ENDMDL
MODEL 2
REMARK VINA RESULT:      -9.7      0.989      5.731
REMARK SMILES COc1ccc2c(C[NH2+]Cc3cccs3)c(C(=O)OCCOCCOCCOC(=O)c3ccc(-c4c5nc(c(-c6ccccc6)c6ccc([nH]6)c(-c6ccccc6)c6nc(c(-c7ccccc7)c7ccc4[nH]7)C=C6)C=C5)cc3)[nH]c2c1
REMARK SMILES IDX 23 1 22 2 21 3 20 4 19 5 17 6 18 7 16 8 3 9 4 10 81 11 5 12
REMARK SMILES IDX 80 13 6 14 79 15 7 16 2 18 1 19 8 20 9 21 10 24 11 25 12 26
REMARK SMILES IDX 15 27 13 28 14 29 24 30 25 31 26 32 27 33 28 34 29 35 30 36
REMARK SMILES IDX 31 37 32 38 78 39 33 40 77 41 34 42 35 43 36 44 71 45 37 46
REMARK SMILES IDX 76 47 70 48 72 49 38 50 75 51 69 52 68 53 39 55 61 56 46 57
REMARK SMILES IDX 60 58 47 59 50 60 59 61 73 62 48 63 49 64 58 66 74 67 51 68
REMARK SMILES IDX 40 69 41 70 45 71 42 72 44 73 43 74 62 75 63 76 67 77 64 78
REMARK SMILES IDX 66 79 65 80 52 81 53 82 57 83 54 84 56 85 55 86
REMARK H PARENT 79 17 9 22 9 23 72 54 50 65
REMARK Flexibility Score: inf
ROOT
ATOM      1  C   UNL A   1      34.441  32.426  28.725  1.00  0.00     0.188 C 
ENDROOT
BRANCH   1   2
ATOM      2  O   UNL A   1      35.619  32.013  28.043  1.00  0.00    -0.376 OA
BRANCH   2   3
ATOM      3  C   UNL A   1      35.545  30.755  27.386  1.00  0.00     0.202 C 
BRANCH   3   4
ATOM      4  C   UNL A   1      34.472  29.838  27.982  1.00  0.00     0.261 C 
BRANCH   4   5
ATOM      5  O   UNL A   1      33.286  29.717  27.178  1.00  0.00    -0.459 OA
BRANCH   5   6
ATOM      6  C   UNL A   1      33.306  28.738  26.228  1.00  0.00     0.355 C 
ATOM      7  O   UNL A   1      34.098  27.820  26.203  1.00  0.00    -0.244 OA
BRANCH   6   8
ATOM      8  C   UNL A   1      32.190  28.961  25.331  1.00  0.00     0.134 A 
ATOM      9  C   UNL A   1      28.637  30.700  22.920  1.00  0.00     0.120 A 
ATOM     10  C   UNL A   1      28.676  29.434  22.340  1.00  0.00     0.047 A 
ATOM     11  C   UNL A   1      29.559  31.047  23.918  1.00  0.00     0.073 A 
ATOM     12  C   UNL A   1      29.613  28.483  22.761  1.00  0.00     0.015 A 
ATOM     13  C   UNL A   1      30.498  30.086  24.321  1.00  0.00     0.050 A 
ATOM     14  C   UNL A   1      30.540  28.811  23.771  1.00  0.00     0.009 A 
ATOM     15  N   UNL A   1      31.488  30.146  25.271  1.00  0.00    -0.349 N 
ATOM     16  C   UNL A   1      31.566  28.077  24.454  1.00  0.00     0.046 A 
ATOM     17  H   UNL A   1      31.672  30.933  25.834  1.00  0.00     0.167 HD
BRANCH   9  18
ATOM     18  O   UNL A   1      27.752  31.694  22.592  1.00  0.00    -0.497 OA
ATOM     19  C   UNL A   1      28.108  32.529  21.496  1.00  0.00     0.278 C 
ENDBRANCH   9  18
BRANCH  16  20
ATOM     20  C   UNL A   1      31.790  26.608  24.300  1.00  0.00     0.300 C 
BRANCH  20  21
ATOM     21  N   UNL A   1      33.064  26.352  23.659  1.00  0.00    -0.338 N 
ATOM     22  H   UNL A   1      33.814  26.624  24.295  1.00  0.00     0.346 HD
ATOM     23  H   UNL A   1      33.099  26.896  22.797  1.00  0.00     0.346 HD
BRANCH  21  24
ATOM     24  C   UNL A   1      33.224  24.942  23.314  1.00  0.00     0.308 C 
BRANCH  24  25
ATOM     25  C   UNL A   1      33.830  24.135  24.429  1.00  0.00     0.059 A 
ATOM     26  C   UNL A   1      34.921  24.469  25.210  1.00  0.00     0.021 A 
ATOM     27  S   UNL A   1      33.166  22.628  24.911  1.00  0.00    -0.143 S 
ATOM     28  C   UNL A   1      35.206  23.484  26.198  1.00  0.00     0.012 A 
ATOM     29  C   UNL A   1      34.322  22.431  26.148  1.00  0.00     0.065 A 
ENDBRANCH  24  25
ENDBRANCH  21  24
ENDBRANCH  20  21
ENDBRANCH  16  20
ENDBRANCH   6   8
ENDBRANCH   5   6
ENDBRANCH   4   5
ENDBRANCH   3   4
ENDBRANCH   2   3
ENDBRANCH   1   2
BRANCH   1  30
ATOM     30  C   UNL A   1      34.383  33.935  29.028  1.00  0.00     0.188 C 
BRANCH  30  31
ATOM     31  O   UNL A   1      35.022  34.446  30.194  1.00  0.00    -0.376 OA
BRANCH  31  32
ATOM     32  C   UNL A   1      34.455  34.181  31.468  1.00  0.00     0.202 C 
BRANCH  32  33
ATOM     33  C   UNL A   1      35.314  34.508  32.691  1.00  0.00     0.261 C 
BRANCH  33  34
ATOM     34  O   UNL A   1      36.649  33.985  32.604  1.00  0.00    -0.460 OA
BRANCH  34  35
ATOM     35  C   UNL A   1      36.811  32.737  33.103  1.00  0.00     0.338 C 
ATOM     36  O   UNL A   1      36.250  32.241  34.065  1.00  0.00    -0.246 OA
BRANCH  35  37
ATOM     37  C   UNL A   1      37.703  31.955  32.226  1.00  0.00     0.060 A 
ATOM     38  C   UNL A   1      38.735  31.223  32.828  1.00  0.00     0.016 A 
ATOM     39  C   UNL A   1      37.600  32.026  30.836  1.00  0.00     0.016 A 
ATOM     40  C   UNL A   1      39.693  30.591  32.038  1.00  0.00     0.010 A 
ATOM     41  C   UNL A   1      38.575  31.409  30.044  1.00  0.00     0.010 A 
ATOM     42  C   UNL A   1      39.644  30.721  30.643  1.00  0.00    -0.014 A 
BRANCH  42  43
ATOM     43  C   UNL A   1      40.798  30.269  29.831  1.00  0.00     0.031 A 
ATOM     44  C   UNL A   1      40.726  28.933  29.146  1.00  0.00     0.074 A 
ATOM     45  C   UNL A   1      41.885  31.043  29.684  1.00  0.00     0.049 A 
ATOM     46  N   UNL A   1      41.603  28.356  28.364  1.00  0.00    -0.248 NA
ATOM     47  C   UNL A   1      39.510  28.139  29.382  1.00  0.00     0.031 C 
ATOM     48  C   UNL A   1      42.069  32.359  30.290  1.00  0.00     0.029 A 
ATOM     49  N   UNL A   1      43.031  30.841  28.959  1.00  0.00    -0.354 N 
ATOM     50  C   UNL A   1      41.056  27.122  28.035  1.00  0.00     0.074 A 
ATOM     51  C   UNL A   1      39.773  27.035  28.698  1.00  0.00     0.031 C 
ATOM     52  C   UNL A   1      43.242  32.867  29.875  1.00  0.00     0.029 A 
ATOM     53  C   UNL A   1      43.899  31.904  28.994  1.00  0.00     0.049 A 
ATOM     54  H   UNL A   1      43.214  30.012  28.458  1.00  0.00     0.167 HD
ATOM     55  C   UNL A   1      41.583  26.141  27.265  1.00  0.00     0.031 A 
ATOM     56  C   UNL A   1      45.085  32.081  28.380  1.00  0.00     0.031 A 
ATOM     57  C   UNL A   1      42.868  26.211  26.624  1.00  0.00     0.049 A 
ATOM     58  C   UNL A   1      45.647  30.977  27.527  1.00  0.00     0.074 A 
ATOM     59  C   UNL A   1      43.492  25.260  25.836  1.00  0.00     0.029 A 
ATOM     60  N   UNL A   1      43.727  27.294  26.703  1.00  0.00    -0.354 N 
ATOM     61  N   UNL A   1      45.112  29.822  27.209  1.00  0.00    -0.248 NA
ATOM     62  C   UNL A   1      46.987  31.195  26.961  1.00  0.00     0.031 C 
ATOM     63  C   UNL A   1      44.751  25.753  25.472  1.00  0.00     0.029 A 
ATOM     64  C   UNL A   1      44.887  27.029  25.997  1.00  0.00     0.049 A 
ATOM     65  H   UNL A   1      43.540  28.130  27.190  1.00  0.00     0.167 HD
ATOM     66  C   UNL A   1      46.049  29.177  26.412  1.00  0.00     0.074 A 
ATOM     67  C   UNL A   1      47.170  30.082  26.262  1.00  0.00     0.031 C 
ATOM     68  C   UNL A   1      45.994  27.938  25.865  1.00  0.00     0.031 A 
BRANCH  55  69
ATOM     69  C   UNL A   1      40.785  24.878  27.130  1.00  0.00    -0.014 A 
ATOM     70  C   UNL A   1      41.228  23.670  27.691  1.00  0.00     0.009 A 
ATOM     71  C   UNL A   1      39.564  24.901  26.438  1.00  0.00     0.009 A 
ATOM     72  C   UNL A   1      40.476  22.503  27.535  1.00  0.00     0.001 A 
ATOM     73  C   UNL A   1      38.805  23.738  26.302  1.00  0.00     0.001 A 
ATOM     74  C   UNL A   1      39.265  22.539  26.843  1.00  0.00     0.000 A 
ENDBRANCH  55  69
BRANCH  56  75
ATOM     75  C   UNL A   1      45.832  33.356  28.544  1.00  0.00    -0.014 A 
ATOM     76  C   UNL A   1      45.597  34.431  27.672  1.00  0.00     0.009 A 
ATOM     77  C   UNL A   1      46.796  33.501  29.552  1.00  0.00     0.009 A 
ATOM     78  C   UNL A   1      46.325  35.617  27.796  1.00  0.00     0.001 A 
ATOM     79  C   UNL A   1      47.503  34.697  29.690  1.00  0.00     0.001 A 
ATOM     80  C   UNL A   1      47.272  35.751  28.808  1.00  0.00     0.000 A 
ENDBRANCH  56  75
BRANCH  68  81
ATOM     81  C   UNL A   1      47.177  27.491  25.055  1.00  0.00    -0.014 A 
ATOM     82  C   UNL A   1      47.282  27.814  23.693  1.00  0.00     0.009 A 
ATOM     83  C   UNL A   1      48.220  26.782  25.670  1.00  0.00     0.009 A 
ATOM     84  C   UNL A   1      48.397  27.412  22.957  1.00  0.00     0.001 A 
ATOM     85  C   UNL A   1      49.344  26.400  24.937  1.00  0.00     0.001 A 
ATOM     86  C   UNL A   1      49.430  26.710  23.580  1.00  0.00     0.000 A 
ENDBRANCH  68  81
ENDBRANCH  42  43
ENDBRANCH  35  37
ENDBRANCH  34  35
ENDBRANCH  33  34
ENDBRANCH  32  33
ENDBRANCH  31  32
ENDBRANCH  30  31
ENDBRANCH   1  30
TORSDOF 22
ENDMDL
MODEL 3
REMARK VINA RESULT:      -9.4      2.961      4.021
REMARK SMILES COc1ccc2c(C[NH2+]Cc3cccs3)c(C(=O)OCCOCCOCCOC(=O)c3ccc(-c4c5nc(c(-c6ccccc6)c6ccc([nH]6)c(-c6ccccc6)c6nc(c(-c7ccccc7)c7ccc4[nH]7)C=C6)C=C5)cc3)[nH]c2c1
REMARK SMILES IDX 23 1 22 2 21 3 20 4 19 5 17 6 18 7 16 8 3 9 4 10 81 11 5 12
REMARK SMILES IDX 80 13 6 14 79 15 7 16 2 18 1 19 8 20 9 21 10 24 11 25 12 26
REMARK SMILES IDX 15 27 13 28 14 29 24 30 25 31 26 32 27 33 28 34 29 35 30 36
REMARK SMILES IDX 31 37 32 38 78 39 33 40 77 41 34 42 35 43 36 44 71 45 37 46
REMARK SMILES IDX 76 47 70 48 72 49 38 50 75 51 69 52 68 53 39 55 61 56 46 57
REMARK SMILES IDX 60 58 47 59 50 60 59 61 73 62 48 63 49 64 58 66 74 67 51 68
REMARK SMILES IDX 40 69 41 70 45 71 42 72 44 73 43 74 62 75 63 76 67 77 64 78
REMARK SMILES IDX 66 79 65 80 52 81 53 82 57 83 54 84 56 85 55 86
REMARK H PARENT 79 17 9 22 9 23 72 54 50 65
REMARK Flexibility Score: inf
ROOT
ATOM      1  C   UNL A   1      31.975  28.247  26.155  1.00  0.00     0.188 C 
ENDROOT
BRANCH   1   2
ATOM      2  O   UNL A   1      32.286  26.974  25.601  1.00  0.00    -0.376 OA
BRANCH   2   3
ATOM      3  C   UNL A   1      33.670  26.662  25.506  1.00  0.00     0.202 C 
BRANCH   3   4
ATOM      4  C   UNL A   1      34.051  26.076  24.142  1.00  0.00     0.261 C 
BRANCH   4   5
ATOM      5  O   UNL A   1      33.844  26.971  23.036  1.00  0.00    -0.459 OA
BRANCH   5   6
ATOM      6  C   UNL A   1      32.964  26.548  22.083  1.00  0.00     0.355 C 
ATOM      7  O   UNL A   1      33.247  25.803  21.168  1.00  0.00    -0.244 OA
BRANCH   6   8
ATOM      8  C   UNL A   1      31.658  27.084  22.409  1.00  0.00     0.134 A 
ATOM      9  C   UNL A   1      27.976  29.777  23.213  1.00  0.00     0.120 A 
ATOM     10  C   UNL A   1      27.380  28.541  23.455  1.00  0.00     0.047 A 
ATOM     11  C   UNL A   1      29.325  29.848  22.836  1.00  0.00     0.073 A 
ATOM     12  C   UNL A   1      28.122  27.358  23.353  1.00  0.00     0.015 A 
ATOM     13  C   UNL A   1      30.051  28.653  22.729  1.00  0.00     0.050 A 
ATOM     14  C   UNL A   1      29.482  27.411  22.987  1.00  0.00     0.009 A 
ATOM     15  N   UNL A   1      31.366  28.431  22.402  1.00  0.00    -0.349 N 
ATOM     16  C   UNL A   1      30.513  26.424  22.848  1.00  0.00     0.046 A 
ATOM     17  H   UNL A   1      32.014  29.141  22.190  1.00  0.00     0.167 HD
BRANCH   9  18
ATOM     18  O   UNL A   1      27.344  30.990  23.301  1.00  0.00    -0.497 OA
ATOM     19  C   UNL A   1      28.127  32.140  22.997  1.00  0.00     0.278 C 
ENDBRANCH   9  18
BRANCH  16  20
ATOM     20  C   UNL A   1      30.359  24.991  23.242  1.00  0.00     0.300 C 
BRANCH  20  21
ATOM     21  N   UNL A   1      30.858  24.776  24.585  1.00  0.00    -0.338 N 
ATOM     22  H   UNL A   1      30.208  25.196  25.250  1.00  0.00     0.346 HD
ATOM     23  H   UNL A   1      31.780  25.208  24.652  1.00  0.00     0.346 HD
BRANCH  21  24
ATOM     24  C   UNL A   1      30.998  23.355  24.891  1.00  0.00     0.308 C 
BRANCH  24  25
ATOM     25  C   UNL A   1      32.298  23.032  25.573  1.00  0.00     0.059 A 
ATOM     26  C   UNL A   1      32.707  23.427  26.834  1.00  0.00     0.021 A 
ATOM     27  S   UNL A   1      33.482  22.039  24.826  1.00  0.00    -0.143 S 
ATOM     28  C   UNL A   1      33.990  22.913  27.178  1.00  0.00     0.012 A 
ATOM     29  C   UNL A   1      34.521  22.138  26.174  1.00  0.00     0.065 A 
ENDBRANCH  24  25
ENDBRANCH  21  24
ENDBRANCH  20  21
ENDBRANCH  16  20
ENDBRANCH   6   8
ENDBRANCH   5   6
ENDBRANCH   4   5
ENDBRANCH   3   4
ENDBRANCH   2   3
ENDBRANCH   1   2
BRANCH   1  30
ATOM     30  C   UNL A   1      32.461  29.438  25.308  1.00  0.00     0.188 C 
BRANCH  30  31
ATOM     31  O   UNL A   1      32.135  30.767  25.705  1.00  0.00    -0.376 OA
BRANCH  31  32
ATOM     32  C   UNL A   1      32.165  31.106  27.084  1.00  0.00     0.202 C 
BRANCH  32  33
ATOM     33  C   UNL A   1      33.478  31.673  27.629  1.00  0.00     0.261 C 
BRANCH  33  34
ATOM     34  O   UNL A   1      34.630  30.902  27.251  1.00  0.00    -0.460 OA
BRANCH  34  35
ATOM     35  C   UNL A   1      34.865  29.809  28.014  1.00  0.00     0.338 C 
ATOM     36  O   UNL A   1      34.080  28.922  28.306  1.00  0.00    -0.246 OA
BRANCH  35  37
ATOM     37  C   UNL A   1      36.294  29.741  28.372  1.00  0.00     0.060 A 
ATOM     38  C   UNL A   1      37.234  29.992  27.364  1.00  0.00     0.016 A 
ATOM     39  C   UNL A   1      36.705  29.334  29.643  1.00  0.00     0.016 A 
ATOM     40  C   UNL A   1      38.591  29.795  27.614  1.00  0.00     0.010 A 
ATOM     41  C   UNL A   1      38.066  29.115  29.885  1.00  0.00     0.010 A 
ATOM     42  C   UNL A   1      39.009  29.311  28.861  1.00  0.00    -0.014 A 
BRANCH  42  43
ATOM     43  C   UNL A   1      40.411  28.862  29.033  1.00  0.00     0.031 A 
ATOM     44  C   UNL A   1      41.372  29.748  29.773  1.00  0.00     0.074 A 
ATOM     45  C   UNL A   1      40.819  27.673  28.559  1.00  0.00     0.049 A 
ATOM     46  N   UNL A   1      42.631  29.542  30.066  1.00  0.00    -0.248 NA
ATOM     47  C   UNL A   1      40.848  31.044  30.234  1.00  0.00     0.031 C 
ATOM     48  C   UNL A   1      39.980  26.723  27.834  1.00  0.00     0.029 A 
ATOM     49  N   UNL A   1      42.040  27.055  28.640  1.00  0.00    -0.354 N 
ATOM     50  C   UNL A   1      43.056  30.689  30.723  1.00  0.00     0.074 A 
ATOM     51  C   UNL A   1      41.922  31.586  30.789  1.00  0.00     0.031 C 
ATOM     52  C   UNL A   1      40.701  25.620  27.574  1.00  0.00     0.029 A 
ATOM     53  C   UNL A   1      42.055  25.796  28.092  1.00  0.00     0.049 A 
ATOM     54  H   UNL A   1      42.831  27.473  29.052  1.00  0.00     0.167 HD
ATOM     55  C   UNL A   1      44.285  30.979  31.211  1.00  0.00     0.031 A 
ATOM     56  C   UNL A   1      43.048  24.888  28.025  1.00  0.00     0.031 A 
ATOM     57  C   UNL A   1      45.421  30.103  31.127  1.00  0.00     0.049 A 
ATOM     58  C   UNL A   1      44.404  25.233  28.578  1.00  0.00     0.074 A 
ATOM     59  C   UNL A   1      46.711  30.316  31.581  1.00  0.00     0.029 A 
ATOM     60  N   UNL A   1      45.403  28.846  30.545  1.00  0.00    -0.354 N 
ATOM     61  N   UNL A   1      44.788  26.314  29.213  1.00  0.00    -0.248 NA
ATOM     62  C   UNL A   1      45.469  24.236  28.390  1.00  0.00     0.031 C 
ATOM     63  C   UNL A   1      47.485  29.202  31.234  1.00  0.00     0.029 A 
ATOM     64  C   UNL A   1      46.664  28.279  30.607  1.00  0.00     0.049 A 
ATOM     65  H   UNL A   1      44.610  28.419  30.146  1.00  0.00     0.167 HD
ATOM     66  C   UNL A   1      46.135  26.129  29.495  1.00  0.00     0.074 A 
ATOM     67  C   UNL A   1      46.494  24.818  28.997  1.00  0.00     0.031 C 
ATOM     68  C   UNL A   1      47.003  26.977  30.099  1.00  0.00     0.031 A 
BRANCH  55  69
ATOM     69  C   UNL A   1      44.472  32.335  31.827  1.00  0.00    -0.014 A 
ATOM     70  C   UNL A   1      44.301  32.541  33.205  1.00  0.00     0.009 A 
ATOM     71  C   UNL A   1      44.835  33.420  31.015  1.00  0.00     0.009 A 
ATOM     72  C   UNL A   1      44.461  33.816  33.751  1.00  0.00     0.001 A 
ATOM     73  C   UNL A   1      45.015  34.689  31.567  1.00  0.00     0.001 A 
ATOM     74  C   UNL A   1      44.820  34.887  32.932  1.00  0.00     0.000 A 
ENDBRANCH  55  69
BRANCH  56  75
ATOM     75  C   UNL A   1      42.806  23.556  27.408  1.00  0.00    -0.014 A 
ATOM     76  C   UNL A   1      43.080  23.347  26.047  1.00  0.00     0.009 A 
ATOM     77  C   UNL A   1      42.281  22.498  28.164  1.00  0.00     0.009 A 
ATOM     78  C   UNL A   1      42.816  22.110  25.453  1.00  0.00     0.001 A 
ATOM     79  C   UNL A   1      42.043  21.255  27.573  1.00  0.00     0.001 A 
ATOM     80  C   UNL A   1      42.304  21.064  26.218  1.00  0.00     0.000 A 
ENDBRANCH  56  75
BRANCH  68  81
ATOM     81  C   UNL A   1      48.423  26.511  30.254  1.00  0.00    -0.014 A 
ATOM     82  C   UNL A   1      48.837  25.834  31.413  1.00  0.00     0.009 A 
ATOM     83  C   UNL A   1      49.343  26.708  29.214  1.00  0.00     0.009 A 
ATOM     84  C   UNL A   1      50.154  25.388  31.535  1.00  0.00     0.001 A 
ATOM     85  C   UNL A   1      50.653  26.240  29.330  1.00  0.00     0.001 A 
ATOM     86  C   UNL A   1      51.059  25.586  30.492  1.00  0.00     0.000 A 
ENDBRANCH  68  81
ENDBRANCH  42  43
ENDBRANCH  35  37
ENDBRANCH  34  35
ENDBRANCH  33  34
ENDBRANCH  32  33
ENDBRANCH  31  32
ENDBRANCH  30  31
ENDBRANCH   1  30
TORSDOF 22
ENDMDL
