MODEL 1
REMARK VINA RESULT:      -9.0      0.000      0.000
REMARK SMILES C[C@@](NC(=O)CSCc1ccccc1)(C(=O)OCCOCCOCCOC(=O)c1ccc(-c2c3nc(c(-c4ccccc4)c4ccc([nH]4)c(-c4ccccc4)c4nc(c(-c5ccccc5)c5ccc2[nH]5)C=C4)C=C3)cc1)C1CC1
REMARK SMILES IDX 20 1 19 2 18 3 17 4 15 5 16 6 2 7 1 8 3 9 4 10 5 12 6 13
REMARK SMILES IDX 7 14 8 15 9 16 10 17 14 18 11 19 13 20 12 21 77 22 78 23
REMARK SMILES IDX 79 24 21 25 22 26 23 27 24 28 25 29 26 30 27 31 28 32 29 33
REMARK SMILES IDX 30 34 76 35 31 36 75 37 32 38 33 39 34 40 69 41 35 42 74 43
REMARK SMILES IDX 68 44 70 45 36 46 73 47 67 48 66 49 37 51 59 52 44 53 58 54
REMARK SMILES IDX 45 55 48 56 57 57 71 58 46 59 47 60 56 62 72 63 49 64 38 65
REMARK SMILES IDX 39 66 43 67 40 68 42 69 41 70 60 71 61 72 65 73 62 74 64 75
REMARK SMILES IDX 63 76 50 77 51 78 55 79 52 80 54 81 53 82
REMARK H PARENT 3 11 70 50 48 61
REMARK Flexibility Score: inf
ROOT
ATOM      1  O   UNL A   1      38.589  21.316  25.617  1.00  0.00    -0.376 OA
ENDROOT
BRANCH   1   2
ATOM      2  C   UNL A   1      37.292  21.880  25.807  1.00  0.00     0.202 C 
BRANCH   2   3
ATOM      3  C   UNL A   1      36.146  21.342  24.936  1.00  0.00     0.261 C 
BRANCH   3   4
ATOM      4  O   UNL A   1      34.912  22.091  25.067  1.00  0.00    -0.461 OA
BRANCH   4   5
ATOM      5  C   UNL A   1      33.930  21.556  25.835  1.00  0.00     0.331 C 
ATOM      6  O   UNL A   1      34.044  21.384  27.047  1.00  0.00    -0.249 OA
BRANCH   5   7
ATOM      7  C   UNL A   1      32.612  21.154  25.041  1.00  0.00     0.138 C 
ATOM      8  C   UNL A   1      32.238  19.663  24.876  1.00  0.00     0.048 C 
BRANCH   7   9
ATOM      9  N   UNL A   1      31.434  21.789  25.703  1.00  0.00    -0.340 N 
ATOM     10  C   UNL A   1      31.391  22.940  26.444  1.00  0.00     0.230 C 
ATOM     11  H   UNL A   1      30.577  21.320  25.592  1.00  0.00     0.164 HD
ATOM     12  O   UNL A   1      30.635  22.967  27.420  1.00  0.00    -0.274 OA
BRANCH  10  13
ATOM     13  C   UNL A   1      32.142  24.186  26.014  1.00  0.00     0.169 C 
BRANCH  13  14
ATOM     14  S   UNL A   1      31.143  25.695  26.084  1.00  0.00    -0.147 SA
BRANCH  14  15
ATOM     15  C   UNL A   1      31.848  26.717  24.772  1.00  0.00     0.105 C 
BRANCH  15  16
ATOM     16  C   UNL A   1      32.245  28.022  25.395  1.00  0.00    -0.038 A 
ATOM     17  C   UNL A   1      33.074  28.023  26.520  1.00  0.00     0.004 A 
ATOM     18  C   UNL A   1      31.614  29.213  24.992  1.00  0.00     0.004 A 
ATOM     19  C   UNL A   1      33.201  29.179  27.282  1.00  0.00     0.000 A 
ATOM     20  C   UNL A   1      31.738  30.364  25.762  1.00  0.00     0.000 A 
ATOM     21  C   UNL A   1      32.517  30.340  26.917  1.00  0.00     0.000 A 
ENDBRANCH  15  16
ENDBRANCH  14  15
ENDBRANCH  13  14
ENDBRANCH  10  13
ENDBRANCH   7   9
BRANCH   7  22
ATOM     22  C   UNL A   1      32.730  21.861  23.669  1.00  0.00     0.026 C 
ATOM     23  C   UNL A   1      32.081  21.371  22.388  1.00  0.00     0.007 C 
ATOM     24  C   UNL A   1      31.605  22.646  23.031  1.00  0.00     0.007 C 
ENDBRANCH   7  22
ENDBRANCH   5   7
ENDBRANCH   4   5
ENDBRANCH   3   4
ENDBRANCH   2   3
ENDBRANCH   1   2
BRANCH   1  25
ATOM     25  C   UNL A   1      39.689  22.013  26.189  1.00  0.00     0.188 C 
BRANCH  25  26
ATOM     26  C   UNL A   1      40.931  21.194  26.592  1.00  0.00     0.188 C 
BRANCH  26  27
ATOM     27  O   UNL A   1      40.994  19.896  26.046  1.00  0.00    -0.376 OA
BRANCH  27  28
ATOM     28  C   UNL A   1      42.117  19.097  26.387  1.00  0.00     0.202 C 
BRANCH  28  29
ATOM     29  C   UNL A   1      43.277  18.913  25.384  1.00  0.00     0.261 C 
BRANCH  29  30
ATOM     30  O   UNL A   1      44.401  19.803  25.508  1.00  0.00    -0.460 OA
BRANCH  30  31
ATOM     31  C   UNL A   1      44.498  20.824  24.617  1.00  0.00     0.338 C 
ATOM     32  O   UNL A   1      44.539  20.737  23.414  1.00  0.00    -0.246 OA
BRANCH  31  33
ATOM     33  C   UNL A   1      44.240  22.091  25.363  1.00  0.00     0.060 A 
ATOM     34  C   UNL A   1      43.808  23.209  24.631  1.00  0.00     0.016 A 
ATOM     35  C   UNL A   1      44.330  22.163  26.755  1.00  0.00     0.016 A 
ATOM     36  C   UNL A   1      43.489  24.401  25.284  1.00  0.00     0.010 A 
ATOM     37  C   UNL A   1      44.044  23.371  27.408  1.00  0.00     0.010 A 
ATOM     38  C   UNL A   1      43.653  24.506  26.671  1.00  0.00    -0.014 A 
BRANCH  38  39
ATOM     39  C   UNL A   1      43.668  25.858  27.287  1.00  0.00     0.031 A 
ATOM     40  C   UNL A   1      45.009  26.515  27.495  1.00  0.00     0.074 A 
ATOM     41  C   UNL A   1      42.543  26.531  27.586  1.00  0.00     0.049 A 
ATOM     42  N   UNL A   1      45.294  27.693  27.987  1.00  0.00    -0.248 NA
ATOM     43  C   UNL A   1      46.187  25.736  27.075  1.00  0.00     0.031 C 
ATOM     44  C   UNL A   1      41.179  26.047  27.382  1.00  0.00     0.029 A 
ATOM     45  N   UNL A   1      42.378  27.786  28.125  1.00  0.00    -0.354 N 
ATOM     46  C   UNL A   1      46.679  27.798  27.928  1.00  0.00     0.074 A 
ATOM     47  C   UNL A   1      47.178  26.552  27.391  1.00  0.00     0.031 C 
ATOM     48  C   UNL A   1      40.316  26.991  27.800  1.00  0.00     0.029 A 
ATOM     49  C   UNL A   1      41.064  28.133  28.327  1.00  0.00     0.049 A 
ATOM     50  H   UNL A   1      43.131  28.380  28.346  1.00  0.00     0.167 HD
ATOM     51  C   UNL A   1      47.469  28.840  28.276  1.00  0.00     0.031 A 
ATOM     52  C   UNL A   1      40.530  29.236  28.889  1.00  0.00     0.031 A 
ATOM     53  C   UNL A   1      46.988  30.069  28.844  1.00  0.00     0.049 A 
ATOM     54  C   UNL A   1      41.439  30.340  29.373  1.00  0.00     0.074 A 
ATOM     55  C   UNL A   1      47.716  31.172  29.257  1.00  0.00     0.029 A 
ATOM     56  N   UNL A   1      45.655  30.355  29.086  1.00  0.00    -0.354 N 
ATOM     57  N   UNL A   1      42.745  30.431  29.303  1.00  0.00    -0.248 NA
ATOM     58  C   UNL A   1      40.793  31.503  30.002  1.00  0.00     0.031 C 
ATOM     59  C   UNL A   1      46.826  32.103  29.799  1.00  0.00     0.029 A 
ATOM     60  C   UNL A   1      45.539  31.610  29.661  1.00  0.00     0.049 A 
ATOM     61  H   UNL A   1      44.901  29.756  28.880  1.00  0.00     0.167 HD
ATOM     62  C   UNL A   1      43.071  31.669  29.850  1.00  0.00     0.074 A 
ATOM     63  C   UNL A   1      41.826  32.303  30.222  1.00  0.00     0.031 C 
ATOM     64  C   UNL A   1      44.293  32.231  30.028  1.00  0.00     0.031 A 
BRANCH  51  65
ATOM     65  C   UNL A   1      48.950  28.670  28.079  1.00  0.00    -0.014 A 
ATOM     66  C   UNL A   1      49.565  29.017  26.865  1.00  0.00     0.009 A 
ATOM     67  C   UNL A   1      49.741  28.175  29.125  1.00  0.00     0.009 A 
ATOM     68  C   UNL A   1      50.939  28.839  26.693  1.00  0.00     0.001 A 
ATOM     69  C   UNL A   1      51.119  28.026  28.961  1.00  0.00     0.001 A 
ATOM     70  C   UNL A   1      51.715  28.349  27.743  1.00  0.00     0.000 A 
ENDBRANCH  51  65
BRANCH  52  71
ATOM     71  C   UNL A   1      39.056  29.353  29.076  1.00  0.00    -0.014 A 
ATOM     72  C   UNL A   1      38.448  28.997  30.290  1.00  0.00     0.009 A 
ATOM     73  C   UNL A   1      38.240  29.761  28.008  1.00  0.00     0.009 A 
ATOM     74  C   UNL A   1      37.055  29.010  30.417  1.00  0.00     0.001 A 
ATOM     75  C   UNL A   1      36.852  29.806  28.149  1.00  0.00     0.001 A 
ATOM     76  C   UNL A   1      36.259  29.417  29.348  1.00  0.00     0.000 A 
ENDBRANCH  52  71
BRANCH  64  77
ATOM     77  C   UNL A   1      44.339  33.619  30.610  1.00  0.00    -0.014 A 
ATOM     78  C   UNL A   1      44.474  33.834  31.991  1.00  0.00     0.009 A 
ATOM     79  C   UNL A   1      44.275  34.732  29.756  1.00  0.00     0.009 A 
ATOM     80  C   UNL A   1      44.495  35.132  32.506  1.00  0.00     0.001 A 
ATOM     81  C   UNL A   1      44.332  36.028  30.271  1.00  0.00     0.001 A 
ATOM     82  C   UNL A   1      44.427  36.226  31.646  1.00  0.00     0.000 A 
ENDBRANCH  64  77
ENDBRANCH  38  39
ENDBRANCH  31  33
ENDBRANCH  30  31
ENDBRANCH  29  30
ENDBRANCH  28  29
ENDBRANCH  27  28
ENDBRANCH  26  27
ENDBRANCH  25  26
ENDBRANCH   1  25
TORSDOF 23
ENDMDL
MODEL 2
REMARK VINA RESULT:      -9.0      2.013      6.436
REMARK SMILES C[C@@](NC(=O)CSCc1ccccc1)(C(=O)OCCOCCOCCOC(=O)c1ccc(-c2c3nc(c(-c4ccccc4)c4ccc([nH]4)c(-c4ccccc4)c4nc(c(-c5ccccc5)c5ccc2[nH]5)C=C4)C=C3)cc1)C1CC1
REMARK SMILES IDX 20 1 19 2 18 3 17 4 15 5 16 6 2 7 1 8 3 9 4 10 5 12 6 13
REMARK SMILES IDX 7 14 8 15 9 16 10 17 14 18 11 19 13 20 12 21 77 22 78 23
REMARK SMILES IDX 79 24 21 25 22 26 23 27 24 28 25 29 26 30 27 31 28 32 29 33
REMARK SMILES IDX 30 34 76 35 31 36 75 37 32 38 33 39 34 40 69 41 35 42 74 43
REMARK SMILES IDX 68 44 70 45 36 46 73 47 67 48 66 49 37 51 59 52 44 53 58 54
REMARK SMILES IDX 45 55 48 56 57 57 71 58 46 59 47 60 56 62 72 63 49 64 38 65
REMARK SMILES IDX 39 66 43 67 40 68 42 69 41 70 60 71 61 72 65 73 62 74 64 75
REMARK SMILES IDX 63 76 50 77 51 78 55 79 52 80 54 81 53 82
REMARK H PARENT 3 11 70 50 48 61
REMARK Flexibility Score: inf
ROOT
ATOM      1  O   UNL A   1      39.159  21.982  26.200  1.00  0.00    -0.376 OA
ENDROOT
BRANCH   1   2
ATOM      2  C   UNL A   1      38.158  22.993  26.088  1.00  0.00     0.202 C 
BRANCH   2   3
ATOM      3  C   UNL A   1      37.014  22.756  25.090  1.00  0.00     0.261 C 
BRANCH   3   4
ATOM      4  O   UNL A   1      36.018  21.812  25.557  1.00  0.00    -0.461 OA
BRANCH   4   5
ATOM      5  C   UNL A   1      34.811  22.304  25.931  1.00  0.00     0.331 C 
ATOM      6  O   UNL A   1      34.610  22.830  27.025  1.00  0.00    -0.249 OA
BRANCH   5   7
ATOM      7  C   UNL A   1      33.660  22.136  24.846  1.00  0.00     0.138 C 
ATOM      8  C   UNL A   1      32.230  22.631  25.159  1.00  0.00     0.048 C 
BRANCH   7   9
ATOM      9  N   UNL A   1      34.064  22.848  23.598  1.00  0.00    -0.340 N 
ATOM     10  C   UNL A   1      33.942  24.178  23.297  1.00  0.00     0.230 C 
ATOM     11  H   UNL A   1      34.473  22.288  22.900  1.00  0.00     0.164 HD
ATOM     12  O   UNL A   1      33.660  24.481  22.133  1.00  0.00    -0.274 OA
BRANCH  10  13
ATOM     13  C   UNL A   1      34.267  25.253  24.317  1.00  0.00     0.169 C 
BRANCH  13  14
ATOM     14  S   UNL A   1      33.352  26.795  24.062  1.00  0.00    -0.147 SA
BRANCH  14  15
ATOM     15  C   UNL A   1      31.889  26.581  25.099  1.00  0.00     0.105 C 
BRANCH  15  16
ATOM     16  C   UNL A   1      30.698  26.939  24.260  1.00  0.00    -0.038 A 
ATOM     17  C   UNL A   1      30.717  28.116  23.506  1.00  0.00     0.004 A 
ATOM     18  C   UNL A   1      29.497  26.222  24.404  1.00  0.00     0.004 A 
ATOM     19  C   UNL A   1      29.533  28.614  22.975  1.00  0.00     0.000 A 
ATOM     20  C   UNL A   1      28.314  26.729  23.878  1.00  0.00     0.000 A 
ATOM     21  C   UNL A   1      28.331  27.935  23.180  1.00  0.00     0.000 A 
ENDBRANCH  15  16
ENDBRANCH  14  15
ENDBRANCH  13  14
ENDBRANCH  10  13
ENDBRANCH   7   9
BRANCH   7  22
ATOM     22  C   UNL A   1      33.669  20.635  24.471  1.00  0.00     0.026 C 
ATOM     23  C   UNL A   1      32.964  19.546  25.259  1.00  0.00     0.007 C 
ATOM     24  C   UNL A   1      32.479  19.910  23.881  1.00  0.00     0.007 C 
ENDBRANCH   7  22
ENDBRANCH   5   7
ENDBRANCH   4   5
ENDBRANCH   3   4
ENDBRANCH   2   3
ENDBRANCH   1   2
BRANCH   1  25
ATOM     25  C   UNL A   1      40.480  22.410  26.508  1.00  0.00     0.188 C 
BRANCH  25  26
ATOM     26  C   UNL A   1      41.288  21.580  27.524  1.00  0.00     0.188 C 
BRANCH  26  27
ATOM     27  O   UNL A   1      40.899  20.230  27.638  1.00  0.00    -0.376 OA
BRANCH  27  28
ATOM     28  C   UNL A   1      41.835  19.242  27.235  1.00  0.00     0.202 C 
BRANCH  28  29
ATOM     29  C   UNL A   1      42.479  19.304  25.833  1.00  0.00     0.261 C 
BRANCH  29  30
ATOM     30  O   UNL A   1      43.897  19.539  25.771  1.00  0.00    -0.460 OA
BRANCH  30  31
ATOM     31  C   UNL A   1      44.403  20.040  24.613  1.00  0.00     0.338 C 
ATOM     32  O   UNL A   1      44.266  19.586  23.504  1.00  0.00    -0.246 OA
BRANCH  31  33
ATOM     33  C   UNL A   1      44.904  21.415  24.907  1.00  0.00     0.060 A 
ATOM     34  C   UNL A   1      45.210  21.733  26.240  1.00  0.00     0.016 A 
ATOM     35  C   UNL A   1      45.158  22.344  23.895  1.00  0.00     0.016 A 
ATOM     36  C   UNL A   1      45.744  22.982  26.565  1.00  0.00     0.010 A 
ATOM     37  C   UNL A   1      45.660  23.611  24.225  1.00  0.00     0.010 A 
ATOM     38  C   UNL A   1      45.925  23.947  25.567  1.00  0.00    -0.014 A 
BRANCH  38  39
ATOM     39  C   UNL A   1      46.136  25.361  25.972  1.00  0.00     0.031 A 
ATOM     40  C   UNL A   1      44.937  26.132  26.462  1.00  0.00     0.074 A 
ATOM     41  C   UNL A   1      47.352  25.936  25.990  1.00  0.00     0.049 A 
ATOM     42  N   UNL A   1      44.857  27.364  26.894  1.00  0.00    -0.248 NA
ATOM     43  C   UNL A   1      43.657  25.404  26.476  1.00  0.00     0.031 C 
ATOM     44  C   UNL A   1      48.606  25.293  25.604  1.00  0.00     0.029 A 
ATOM     45  N   UNL A   1      47.725  27.207  26.361  1.00  0.00    -0.354 N 
ATOM     46  C   UNL A   1      43.524  27.555  27.238  1.00  0.00     0.074 A 
ATOM     47  C   UNL A   1      42.825  26.328  26.928  1.00  0.00     0.031 C 
ATOM     48  C   UNL A   1      49.610  26.178  25.750  1.00  0.00     0.029 A 
ATOM     49  C   UNL A   1      49.068  27.456  26.211  1.00  0.00     0.049 A 
ATOM     50  H   UNL A   1      47.089  27.877  26.701  1.00  0.00     0.167 HD
ATOM     51  C   UNL A   1      42.930  28.645  27.776  1.00  0.00     0.031 A 
ATOM     52  C   UNL A   1      49.772  28.589  26.405  1.00  0.00     0.031 A 
ATOM     53  C   UNL A   1      43.607  29.881  28.056  1.00  0.00     0.049 A 
ATOM     54  C   UNL A   1      49.066  29.829  26.902  1.00  0.00     0.074 A 
ATOM     55  C   UNL A   1      43.082  31.053  28.574  1.00  0.00     0.029 A 
ATOM     56  N   UNL A   1      44.954  30.109  27.834  1.00  0.00    -0.354 N 
ATOM     57  N   UNL A   1      47.808  29.992  27.231  1.00  0.00    -0.248 NA
ATOM     58  C   UNL A   1      49.888  31.038  27.065  1.00  0.00     0.031 C 
ATOM     59  C   UNL A   1      44.103  32.008  28.613  1.00  0.00     0.029 A 
ATOM     60  C   UNL A   1      45.277  31.409  28.185  1.00  0.00     0.049 A 
ATOM     61  H   UNL A   1      45.589  29.446  27.479  1.00  0.00     0.167 HD
ATOM     62  C   UNL A   1      47.696  31.309  27.668  1.00  0.00     0.074 A 
ATOM     63  C   UNL A   1      49.017  31.891  27.585  1.00  0.00     0.031 C 
ATOM     64  C   UNL A   1      46.597  31.978  28.099  1.00  0.00     0.031 A 
BRANCH  51  65
ATOM     65  C   UNL A   1      41.458  28.550  28.064  1.00  0.00    -0.014 A 
ATOM     66  C   UNL A   1      40.505  28.961  27.118  1.00  0.00     0.009 A 
ATOM     67  C   UNL A   1      41.018  28.026  29.289  1.00  0.00     0.009 A 
ATOM     68  C   UNL A   1      39.142  28.880  27.408  1.00  0.00     0.001 A 
ATOM     69  C   UNL A   1      39.655  27.918  29.563  1.00  0.00     0.001 A 
ATOM     70  C   UNL A   1      38.718  28.353  28.627  1.00  0.00     0.000 A 
ENDBRANCH  51  65
BRANCH  52  71
ATOM     71  C   UNL A   1      51.228  28.639  26.092  1.00  0.00    -0.014 A 
ATOM     72  C   UNL A   1      51.683  28.939  24.799  1.00  0.00     0.009 A 
ATOM     73  C   UNL A   1      52.173  28.318  27.081  1.00  0.00     0.009 A 
ATOM     74  C   UNL A   1      53.046  28.879  24.493  1.00  0.00     0.001 A 
ATOM     75  C   UNL A   1      53.536  28.292  26.782  1.00  0.00     0.001 A 
ATOM     76  C   UNL A   1      53.971  28.558  25.485  1.00  0.00     0.000 A 
ENDBRANCH  52  71
BRANCH  64  77
ATOM     77  C   UNL A   1      46.786  33.399  28.558  1.00  0.00    -0.014 A 
ATOM     78  C   UNL A   1      46.859  33.728  29.921  1.00  0.00     0.009 A 
ATOM     79  C   UNL A   1      46.922  34.424  27.607  1.00  0.00     0.009 A 
ATOM     80  C   UNL A   1      47.015  35.058  30.320  1.00  0.00     0.001 A 
ATOM     81  C   UNL A   1      47.114  35.746  28.009  1.00  0.00     0.001 A 
ATOM     82  C   UNL A   1      47.146  36.064  29.365  1.00  0.00     0.000 A 
ENDBRANCH  64  77
ENDBRANCH  38  39
ENDBRANCH  31  33
ENDBRANCH  30  31
ENDBRANCH  29  30
ENDBRANCH  28  29
ENDBRANCH  27  28
ENDBRANCH  26  27
ENDBRANCH  25  26
ENDBRANCH   1  25
TORSDOF 23
ENDMDL
MODEL 3
REMARK VINA RESULT:      -8.9      1.455      2.153
REMARK SMILES C[C@@](NC(=O)CSCc1ccccc1)(C(=O)OCCOCCOCCOC(=O)c1ccc(-c2c3nc(c(-c4ccccc4)c4ccc([nH]4)c(-c4ccccc4)c4nc(c(-c5ccccc5)c5ccc2[nH]5)C=C4)C=C3)cc1)C1CC1
REMARK SMILES IDX 20 1 19 2 18 3 17 4 15 5 16 6 2 7 1 8 3 9 4 10 5 12 6 13
REMARK SMILES IDX 7 14 8 15 9 16 10 17 14 18 11 19 13 20 12 21 77 22 78 23
REMARK SMILES IDX 79 24 21 25 22 26 23 27 24 28 25 29 26 30 27 31 28 32 29 33
REMARK SMILES IDX 30 34 76 35 31 36 75 37 32 38 33 39 34 40 69 41 35 42 74 43
REMARK SMILES IDX 68 44 70 45 36 46 73 47 67 48 66 49 37 51 59 52 44 53 58 54
REMARK SMILES IDX 45 55 48 56 57 57 71 58 46 59 47 60 56 62 72 63 49 64 38 65
REMARK SMILES IDX 39 66 43 67 40 68 42 69 41 70 60 71 61 72 65 73 62 74 64 75
REMARK SMILES IDX 63 76 50 77 51 78 55 79 52 80 54 81 53 82
REMARK H PARENT 3 11 70 50 48 61
REMARK Flexibility Score: inf
ROOT
ATOM      1  O   UNL A   1      39.052  22.306  26.259  1.00  0.00    -0.376 OA
ENDROOT
BRANCH   1   2
ATOM      2  C   UNL A   1      38.130  23.392  26.179  1.00  0.00     0.202 C 
BRANCH   2   3
ATOM      3  C   UNL A   1      37.022  23.310  25.118  1.00  0.00     0.261 C 
BRANCH   3   4
ATOM      4  O   UNL A   1      36.037  22.280  25.380  1.00  0.00    -0.461 OA
BRANCH   4   5
ATOM      5  C   UNL A   1      34.889  22.649  26.003  1.00  0.00     0.331 C 
ATOM      6  O   UNL A   1      34.832  22.915  27.202  1.00  0.00    -0.249 OA
BRANCH   5   7
ATOM      7  C   UNL A   1      33.610  22.701  25.059  1.00  0.00     0.138 C 
ATOM      8  C   UNL A   1      32.217  22.983  25.667  1.00  0.00     0.048 C 
BRANCH   7   9
ATOM      9  N   UNL A   1      33.815  23.755  24.022  1.00  0.00    -0.340 N 
ATOM     10  C   UNL A   1      33.773  25.116  24.170  1.00  0.00     0.230 C 
ATOM     11  H   UNL A   1      34.005  23.429  23.114  1.00  0.00     0.164 HD
ATOM     12  O   UNL A   1      33.285  25.779  23.249  1.00  0.00    -0.274 OA
BRANCH  10  13
ATOM     13  C   UNL A   1      34.418  25.802  25.359  1.00  0.00     0.169 C 
BRANCH  13  14
ATOM     14  S   UNL A   1      33.473  27.218  25.978  1.00  0.00    -0.147 SA
BRANCH  14  15
ATOM     15  C   UNL A   1      31.893  26.482  26.453  1.00  0.00     0.105 C 
BRANCH  15  16
ATOM     16  C   UNL A   1      30.870  26.959  25.466  1.00  0.00    -0.038 A 
ATOM     17  C   UNL A   1      29.846  26.096  25.064  1.00  0.00     0.004 A 
ATOM     18  C   UNL A   1      31.065  28.175  24.786  1.00  0.00     0.004 A 
ATOM     19  C   UNL A   1      29.084  26.405  23.943  1.00  0.00     0.000 A 
ATOM     20  C   UNL A   1      30.305  28.475  23.661  1.00  0.00     0.000 A 
ATOM     21  C   UNL A   1      29.328  27.580  23.230  1.00  0.00     0.000 A 
ENDBRANCH  15  16
ENDBRANCH  14  15
ENDBRANCH  13  14
ENDBRANCH  10  13
ENDBRANCH   7   9
BRANCH   7  22
ATOM     22  C   UNL A   1      33.625  21.364  24.279  1.00  0.00     0.026 C 
ATOM     23  C   UNL A   1      33.148  20.036  24.837  1.00  0.00     0.007 C 
ATOM     24  C   UNL A   1      32.382  20.702  23.725  1.00  0.00     0.007 C 
ENDBRANCH   7  22
ENDBRANCH   5   7
ENDBRANCH   4   5
ENDBRANCH   3   4
ENDBRANCH   2   3
ENDBRANCH   1   2
BRANCH   1  25
ATOM     25  C   UNL A   1      40.355  22.597  26.748  1.00  0.00     0.188 C 
BRANCH  25  26
ATOM     26  C   UNL A   1      40.980  21.617  27.760  1.00  0.00     0.188 C 
BRANCH  26  27
ATOM     27  O   UNL A   1      40.740  20.253  27.500  1.00  0.00    -0.376 OA
BRANCH  27  28
ATOM     28  C   UNL A   1      41.845  19.458  27.101  1.00  0.00     0.202 C 
BRANCH  28  29
ATOM     29  C   UNL A   1      42.684  19.851  25.865  1.00  0.00     0.261 C 
BRANCH  29  30
ATOM     30  O   UNL A   1      43.835  20.685  26.089  1.00  0.00    -0.460 OA
BRANCH  30  31
ATOM     31  C   UNL A   1      44.228  21.502  25.076  1.00  0.00     0.338 C 
ATOM     32  O   UNL A   1      44.246  21.242  23.898  1.00  0.00    -0.246 OA
BRANCH  31  33
ATOM     33  C   UNL A   1      44.347  22.880  25.639  1.00  0.00     0.060 A 
ATOM     34  C   UNL A   1      44.489  23.012  27.030  1.00  0.00     0.016 A 
ATOM     35  C   UNL A   1      44.411  24.011  24.822  1.00  0.00     0.016 A 
ATOM     36  C   UNL A   1      44.671  24.271  27.605  1.00  0.00     0.010 A 
ATOM     37  C   UNL A   1      44.557  25.280  25.403  1.00  0.00     0.010 A 
ATOM     38  C   UNL A   1      44.655  25.417  26.802  1.00  0.00    -0.014 A 
BRANCH  38  39
ATOM     39  C   UNL A   1      44.478  26.742  27.451  1.00  0.00     0.031 A 
ATOM     40  C   UNL A   1      45.712  27.576  27.683  1.00  0.00     0.074 A 
ATOM     41  C   UNL A   1      43.267  27.242  27.758  1.00  0.00     0.049 A 
ATOM     42  N   UNL A   1      45.826  28.770  28.206  1.00  0.00    -0.248 NA
ATOM     43  C   UNL A   1      46.989  26.981  27.253  1.00  0.00     0.031 C 
ATOM     44  C   UNL A   1      41.986  26.576  27.534  1.00  0.00     0.029 A 
ATOM     45  N   UNL A   1      42.926  28.448  28.326  1.00  0.00    -0.354 N 
ATOM     46  C   UNL A   1      47.182  29.071  28.159  1.00  0.00     0.074 A 
ATOM     47  C   UNL A   1      47.854  27.921  27.595  1.00  0.00     0.031 C 
ATOM     48  C   UNL A   1      40.997  27.379  27.968  1.00  0.00     0.029 A 
ATOM     49  C   UNL A   1      41.575  28.601  28.528  1.00  0.00     0.049 A 
ATOM     50  H   UNL A   1      43.587  29.136  28.567  1.00  0.00     0.167 HD
ATOM     51  C   UNL A   1      47.817  30.205  28.537  1.00  0.00     0.031 A 
ATOM     52  C   UNL A   1      40.889  29.604  29.113  1.00  0.00     0.031 A 
ATOM     53  C   UNL A   1      47.165  31.339  29.131  1.00  0.00     0.049 A 
ATOM     54  C   UNL A   1      41.632  30.813  29.629  1.00  0.00     0.074 A 
ATOM     55  C   UNL A   1      47.730  32.522  29.576  1.00  0.00     0.029 A 
ATOM     56  N   UNL A   1      45.805  31.428  29.371  1.00  0.00    -0.354 N 
ATOM     57  N   UNL A   1      42.913  31.088  29.571  1.00  0.00    -0.248 NA
ATOM     58  C   UNL A   1      40.827  31.857  30.282  1.00  0.00     0.031 C 
ATOM     59  C   UNL A   1      46.716  33.305  30.135  1.00  0.00     0.029 A 
ATOM     60  C   UNL A   1      45.512  32.639  29.976  1.00  0.00     0.049 A 
ATOM     61  H   UNL A   1      45.144  30.735  29.146  1.00  0.00     0.167 HD
ATOM     62  C   UNL A   1      43.059  32.345  30.149  1.00  0.00     0.074 A 
ATOM     63  C   UNL A   1      41.736  32.788  30.528  1.00  0.00     0.031 C 
ATOM     64  C   UNL A   1      44.189  33.069  30.349  1.00  0.00     0.031 A 
BRANCH  51  65
ATOM     65  C   UNL A   1      49.307  30.250  28.346  1.00  0.00    -0.014 A 
ATOM     66  C   UNL A   1      50.182  29.794  29.346  1.00  0.00     0.009 A 
ATOM     67  C   UNL A   1      49.843  30.737  27.144  1.00  0.00     0.009 A 
ATOM     68  C   UNL A   1      51.564  29.858  29.158  1.00  0.00     0.001 A 
ATOM     69  C   UNL A   1      51.223  30.771  26.948  1.00  0.00     0.001 A 
ATOM     70  C   UNL A   1      52.083  30.341  27.957  1.00  0.00     0.000 A 
ENDBRANCH  51  65
BRANCH  52  71
ATOM     71  C   UNL A   1      39.413  29.507  29.292  1.00  0.00    -0.014 A 
ATOM     72  C   UNL A   1      38.530  29.969  28.304  1.00  0.00     0.009 A 
ATOM     73  C   UNL A   1      38.880  29.007  30.492  1.00  0.00     0.009 A 
ATOM     74  C   UNL A   1      37.149  29.969  28.529  1.00  0.00     0.001 A 
ATOM     75  C   UNL A   1      37.500  28.977  30.700  1.00  0.00     0.001 A 
ATOM     76  C   UNL A   1      36.636  29.471  29.725  1.00  0.00     0.000 A 
ENDBRANCH  52  71
BRANCH  64  77
ATOM     77  C   UNL A   1      44.037  34.435  30.965  1.00  0.00    -0.014 A 
ATOM     78  C   UNL A   1      44.046  34.620  32.356  1.00  0.00     0.009 A 
ATOM     79  C   UNL A   1      43.912  35.561  30.134  1.00  0.00     0.009 A 
ATOM     80  C   UNL A   1      43.884  35.896  32.902  1.00  0.00     0.001 A 
ATOM     81  C   UNL A   1      43.785  36.838  30.682  1.00  0.00     0.001 A 
ATOM     82  C   UNL A   1      43.757  37.003  32.065  1.00  0.00     0.000 A 
ENDBRANCH  64  77
ENDBRANCH  38  39
ENDBRANCH  31  33
ENDBRANCH  30  31
ENDBRANCH  29  30
ENDBRANCH  28  29
ENDBRANCH  27  28
ENDBRANCH  26  27
ENDBRANCH  25  26
ENDBRANCH   1  25
TORSDOF 23
ENDMDL
