MODEL 1
REMARK VINA RESULT:      -9.6      0.000      0.000
REMARK SMILES CCCn1cc(Br)cc1C(=O)NC[C@H]1CC[C@@H](C(=O)OCCOCCOCCOC(=O)c2ccc(-c3c4nc(c(-c5ccccc5)c5ccc([nH]5)c(-c5ccccc5)c5nc(c(-c6ccccc6)c6ccc3[nH]6)C=C5)C=C4)cc2)O1
REMARK SMILES IDX 23 1 22 2 21 3 20 4 18 5 19 6 17 7 14 8 15 9 80 10 16 11
REMARK SMILES IDX 13 12 12 13 10 14 11 15 9 17 4 18 5 19 6 20 8 21 7 22 3 23
REMARK SMILES IDX 2 24 1 25 24 26 25 27 26 28 27 29 28 30 29 31 30 32 31 33
REMARK SMILES IDX 32 34 33 35 79 36 34 37 78 38 35 39 36 40 37 41 72 42 38 43
REMARK SMILES IDX 77 44 71 45 73 46 39 47 76 48 70 49 69 50 40 52 62 53 47 54
REMARK SMILES IDX 61 55 48 56 51 57 60 58 74 59 49 60 50 61 59 63 75 64 52 65
REMARK SMILES IDX 41 66 42 67 46 68 43 69 45 70 44 71 63 72 64 73 68 74 65 75
REMARK SMILES IDX 67 76 66 77 53 78 54 79 58 80 55 81 57 82 56 83
REMARK H PARENT 12 16 73 51 51 62
REMARK Flexibility Score: inf
ROOT
ATOM      1  O   UNL A   1      40.593  21.279  26.812  1.00  0.00    -0.376 OA
ENDROOT
BRANCH   1   2
ATOM      2  C   UNL A   1      39.407  21.993  26.479  1.00  0.00     0.202 C 
BRANCH   2   3
ATOM      3  C   UNL A   1      38.403  21.418  25.458  1.00  0.00     0.261 C 
BRANCH   3   4
ATOM      4  O   UNL A   1      37.477  22.354  24.860  1.00  0.00    -0.461 OA
BRANCH   4   5
ATOM      5  C   UNL A   1      36.154  22.102  25.058  1.00  0.00     0.335 C 
ATOM      6  O   UNL A   1      35.529  21.250  24.440  1.00  0.00    -0.249 OA
BRANCH   5   7
ATOM      7  C   UNL A   1      35.536  22.999  26.155  1.00  0.00     0.228 C 
ATOM      8  C   UNL A   1      34.207  24.773  25.375  1.00  0.00     0.138 C 
ATOM      9  C   UNL A   1      33.387  24.064  26.443  1.00  0.00     0.037 C 
ATOM     10  O   UNL A   1      35.550  24.364  25.662  1.00  0.00    -0.361 OA
ATOM     11  C   UNL A   1      34.073  22.713  26.517  1.00  0.00     0.047 C 
BRANCH   8  12
ATOM     12  C   UNL A   1      33.712  24.282  24.006  1.00  0.00     0.148 C 
BRANCH  12  13
ATOM     13  N   UNL A   1      33.912  25.081  22.840  1.00  0.00    -0.348 N 
ATOM     14  C   UNL A   1      33.597  26.408  22.640  1.00  0.00     0.268 C 
ATOM     15  O   UNL A   1      33.918  26.844  21.528  1.00  0.00    -0.268 OA
ATOM     16  H   UNL A   1      34.331  24.623  22.076  1.00  0.00     0.163 HD
BRANCH  14  17
ATOM     17  C   UNL A   1      32.868  27.264  23.596  1.00  0.00     0.108 A 
ATOM     18  N   UNL A   1      31.514  27.505  23.888  1.00  0.00    -0.342 N 
ATOM     19  C   UNL A   1      31.421  28.566  24.762  1.00  0.00     0.102 A 
ATOM     20  C   UNL A   1      32.674  28.865  25.206  1.00  0.00     0.036 A 
ATOM     21  C   UNL A   1      33.574  28.058  24.512  1.00  0.00     0.049 A 
ATOM     22  Br  UNL A   1      33.143  30.158  26.473  1.00  0.00    -0.049 Br
BRANCH  18  23
ATOM     23  C   UNL A   1      30.346  26.840  23.340  1.00  0.00     0.122 C 
BRANCH  23  24
ATOM     24  C   UNL A   1      29.825  25.507  23.892  1.00  0.00     0.018 C 
ATOM     25  C   UNL A   1      30.429  24.248  23.287  1.00  0.00     0.006 C 
ENDBRANCH  23  24
ENDBRANCH  18  23
ENDBRANCH  14  17
ENDBRANCH  12  13
ENDBRANCH   8  12
ENDBRANCH   5   7
ENDBRANCH   4   5
ENDBRANCH   3   4
ENDBRANCH   2   3
ENDBRANCH   1   2
BRANCH   1  26
ATOM     26  C   UNL A   1      40.680  19.909  26.455  1.00  0.00     0.188 C 
BRANCH  26  27
ATOM     27  C   UNL A   1      42.076  19.253  26.335  1.00  0.00     0.188 C 
BRANCH  27  28
ATOM     28  O   UNL A   1      42.749  19.489  25.119  1.00  0.00    -0.376 OA
BRANCH  28  29
ATOM     29  C   UNL A   1      43.988  20.162  25.057  1.00  0.00     0.202 C 
BRANCH  29  30
ATOM     30  C   UNL A   1      44.151  21.629  25.439  1.00  0.00     0.261 C 
BRANCH  30  31
ATOM     31  O   UNL A   1      43.052  22.456  25.125  1.00  0.00    -0.460 OA
BRANCH  31  32
ATOM     32  C   UNL A   1      43.277  23.776  25.235  1.00  0.00     0.338 C 
ATOM     33  O   UNL A   1      44.142  24.434  24.666  1.00  0.00    -0.246 OA
BRANCH  32  34
ATOM     34  C   UNL A   1      42.348  24.306  26.232  1.00  0.00     0.060 A 
ATOM     35  C   UNL A   1      41.387  25.205  25.770  1.00  0.00     0.016 A 
ATOM     36  C   UNL A   1      42.729  24.230  27.580  1.00  0.00     0.016 A 
ATOM     37  C   UNL A   1      41.055  26.250  26.595  1.00  0.00     0.010 A 
ATOM     38  C   UNL A   1      42.436  25.297  28.383  1.00  0.00     0.010 A 
ATOM     39  C   UNL A   1      41.698  26.339  27.832  1.00  0.00    -0.014 A 
BRANCH  39  40
ATOM     40  C   UNL A   1      41.574  27.565  28.576  1.00  0.00     0.031 A 
ATOM     41  C   UNL A   1      42.633  28.530  28.247  1.00  0.00     0.074 A 
ATOM     42  C   UNL A   1      40.532  27.806  29.391  1.00  0.00     0.049 A 
ATOM     43  N   UNL A   1      43.654  28.838  28.972  1.00  0.00    -0.248 NA
ATOM     44  C   UNL A   1      42.676  29.053  26.872  1.00  0.00     0.031 C 
ATOM     45  C   UNL A   1      39.289  27.044  29.545  1.00  0.00     0.029 A 
ATOM     46  N   UNL A   1      40.327  28.885  30.186  1.00  0.00    -0.354 N 
ATOM     47  C   UNL A   1      44.355  29.770  28.222  1.00  0.00     0.074 A 
ATOM     48  C   UNL A   1      43.854  29.673  26.876  1.00  0.00     0.031 C 
ATOM     49  C   UNL A   1      38.377  27.815  30.185  1.00  0.00     0.029 A 
ATOM     50  C   UNL A   1      39.012  29.058  30.592  1.00  0.00     0.049 A 
ATOM     51  H   UNL A   1      41.052  29.494  30.454  1.00  0.00     0.167 HD
ATOM     52  C   UNL A   1      45.051  30.770  28.825  1.00  0.00     0.031 A 
ATOM     53  C   UNL A   1      38.496  30.186  31.140  1.00  0.00     0.031 A 
ATOM     54  C   UNL A   1      45.269  30.501  30.225  1.00  0.00     0.049 A 
ATOM     55  C   UNL A   1      39.631  31.013  31.621  1.00  0.00     0.074 A 
ATOM     56  C   UNL A   1      45.879  29.486  30.936  1.00  0.00     0.029 A 
ATOM     57  N   UNL A   1      44.459  31.157  31.122  1.00  0.00    -0.354 N 
ATOM     58  N   UNL A   1      40.379  30.684  32.634  1.00  0.00    -0.248 NA
ATOM     59  C   UNL A   1      40.229  31.960  30.689  1.00  0.00     0.031 C 
ATOM     60  C   UNL A   1      45.055  29.292  32.084  1.00  0.00     0.029 A 
ATOM     61  C   UNL A   1      44.032  30.240  32.048  1.00  0.00     0.049 A 
ATOM     62  H   UNL A   1      44.226  32.113  31.102  1.00  0.00     0.167 HD
ATOM     63  C   UNL A   1      41.670  31.005  32.240  1.00  0.00     0.074 A 
ATOM     64  C   UNL A   1      41.505  31.878  31.077  1.00  0.00     0.031 C 
ATOM     65  C   UNL A   1      42.744  30.299  32.703  1.00  0.00     0.031 A 
BRANCH  52  66
ATOM     66  C   UNL A   1      45.108  32.166  28.256  1.00  0.00    -0.014 A 
ATOM     67  C   UNL A   1      43.953  32.961  28.322  1.00  0.00     0.009 A 
ATOM     68  C   UNL A   1      46.146  32.626  27.421  1.00  0.00     0.009 A 
ATOM     69  C   UNL A   1      43.819  34.108  27.533  1.00  0.00     0.001 A 
ATOM     70  C   UNL A   1      46.035  33.795  26.668  1.00  0.00     0.001 A 
ATOM     71  C   UNL A   1      44.856  34.522  26.702  1.00  0.00     0.000 A 
ENDBRANCH  52  66
BRANCH  53  72
ATOM     72  C   UNL A   1      37.135  30.750  31.002  1.00  0.00    -0.014 A 
ATOM     73  C   UNL A   1      36.482  31.320  32.108  1.00  0.00     0.009 A 
ATOM     74  C   UNL A   1      36.591  30.990  29.727  1.00  0.00     0.009 A 
ATOM     75  C   UNL A   1      35.356  32.137  31.939  1.00  0.00     0.001 A 
ATOM     76  C   UNL A   1      35.465  31.803  29.558  1.00  0.00     0.001 A 
ATOM     77  C   UNL A   1      34.858  32.391  30.663  1.00  0.00     0.000 A 
ENDBRANCH  53  72
BRANCH  65  78
ATOM     78  C   UNL A   1      42.509  29.322  33.831  1.00  0.00    -0.014 A 
ATOM     79  C   UNL A   1      42.653  29.658  35.190  1.00  0.00     0.009 A 
ATOM     80  C   UNL A   1      42.002  28.054  33.513  1.00  0.00     0.009 A 
ATOM     81  C   UNL A   1      42.342  28.735  36.195  1.00  0.00     0.001 A 
ATOM     82  C   UNL A   1      41.670  27.141  34.515  1.00  0.00     0.001 A 
ATOM     83  C   UNL A   1      41.848  27.477  35.855  1.00  0.00     0.000 A 
ENDBRANCH  65  78
ENDBRANCH  39  40
ENDBRANCH  32  34
ENDBRANCH  31  32
ENDBRANCH  30  31
ENDBRANCH  29  30
ENDBRANCH  28  29
ENDBRANCH  27  28
ENDBRANCH  26  27
ENDBRANCH   1  26
TORSDOF 22
ENDMDL
MODEL 2
REMARK VINA RESULT:      -9.2      3.823      8.958
REMARK SMILES CCCn1cc(Br)cc1C(=O)NC[C@H]1CC[C@@H](C(=O)OCCOCCOCCOC(=O)c2ccc(-c3c4nc(c(-c5ccccc5)c5ccc([nH]5)c(-c5ccccc5)c5nc(c(-c6ccccc6)c6ccc3[nH]6)C=C5)C=C4)cc2)O1
REMARK SMILES IDX 23 1 22 2 21 3 20 4 18 5 19 6 17 7 14 8 15 9 80 10 16 11
REMARK SMILES IDX 13 12 12 13 10 14 11 15 9 17 4 18 5 19 6 20 8 21 7 22 3 23
REMARK SMILES IDX 2 24 1 25 24 26 25 27 26 28 27 29 28 30 29 31 30 32 31 33
REMARK SMILES IDX 32 34 33 35 79 36 34 37 78 38 35 39 36 40 37 41 72 42 38 43
REMARK SMILES IDX 77 44 71 45 73 46 39 47 76 48 70 49 69 50 40 52 62 53 47 54
REMARK SMILES IDX 61 55 48 56 51 57 60 58 74 59 49 60 50 61 59 63 75 64 52 65
REMARK SMILES IDX 41 66 42 67 46 68 43 69 45 70 44 71 63 72 64 73 68 74 65 75
REMARK SMILES IDX 67 76 66 77 53 78 54 79 58 80 55 81 57 82 56 83
REMARK H PARENT 12 16 73 51 51 62
REMARK Flexibility Score: inf
ROOT
ATOM      1  O   UNL A   1      33.316  29.858  27.922  1.00  0.00    -0.376 OA
ENDROOT
BRANCH   1   2
ATOM      2  C   UNL A   1      32.910  28.963  26.892  1.00  0.00     0.202 C 
BRANCH   2   3
ATOM      3  C   UNL A   1      33.616  28.972  25.520  1.00  0.00     0.261 C 
BRANCH   3   4
ATOM      4  O   UNL A   1      32.783  29.217  24.364  1.00  0.00    -0.461 OA
BRANCH   4   5
ATOM      5  C   UNL A   1      32.641  28.180  23.493  1.00  0.00     0.335 C 
ATOM      6  O   UNL A   1      33.576  27.677  22.885  1.00  0.00    -0.249 OA
BRANCH   5   7
ATOM      7  C   UNL A   1      31.175  27.705  23.368  1.00  0.00     0.228 C 
ATOM      8  C   UNL A   1      30.854  25.381  23.503  1.00  0.00     0.138 C 
ATOM      9  C   UNL A   1      29.858  26.006  24.469  1.00  0.00     0.037 C 
ATOM     10  O   UNL A   1      31.181  26.461  22.620  1.00  0.00    -0.361 OA
ATOM     11  C   UNL A   1      30.454  27.384  24.684  1.00  0.00     0.047 C 
BRANCH   8  12
ATOM     12  C   UNL A   1      32.057  24.895  24.326  1.00  0.00     0.148 C 
BRANCH  12  13
ATOM     13  N   UNL A   1      31.857  24.295  25.606  1.00  0.00    -0.348 N 
ATOM     14  C   UNL A   1      32.735  23.537  26.350  1.00  0.00     0.268 C 
ATOM     15  O   UNL A   1      32.290  23.173  27.445  1.00  0.00    -0.268 OA
ATOM     16  H   UNL A   1      30.971  24.441  26.011  1.00  0.00     0.163 HD
BRANCH  14  17
ATOM     17  C   UNL A   1      34.070  23.096  25.902  1.00  0.00     0.108 A 
ATOM     18  N   UNL A   1      34.557  22.062  25.083  1.00  0.00    -0.342 N 
ATOM     19  C   UNL A   1      35.931  22.017  25.178  1.00  0.00     0.102 A 
ATOM     20  C   UNL A   1      36.349  23.124  25.855  1.00  0.00     0.036 A 
ATOM     21  C   UNL A   1      35.215  23.809  26.290  1.00  0.00     0.049 A 
ATOM     22  Br  UNL A   1      38.114  23.632  26.206  1.00  0.00    -0.049 Br
BRANCH  18  23
ATOM     23  C   UNL A   1      33.797  21.108  24.297  1.00  0.00     0.122 C 
BRANCH  23  24
ATOM     24  C   UNL A   1      33.777  19.608  24.621  1.00  0.00     0.018 C 
ATOM     25  C   UNL A   1      32.471  19.060  25.179  1.00  0.00     0.006 C 
ENDBRANCH  23  24
ENDBRANCH  18  23
ENDBRANCH  14  17
ENDBRANCH  12  13
ENDBRANCH   8  12
ENDBRANCH   5   7
ENDBRANCH   4   5
ENDBRANCH   3   4
ENDBRANCH   2   3
ENDBRANCH   1   2
BRANCH   1  26
ATOM     26  C   UNL A   1      34.673  30.271  27.964  1.00  0.00     0.188 C 
BRANCH  26  27
ATOM     27  C   UNL A   1      35.011  31.759  27.713  1.00  0.00     0.188 C 
BRANCH  27  28
ATOM     28  O   UNL A   1      34.441  32.668  28.627  1.00  0.00    -0.376 OA
BRANCH  28  29
ATOM     29  C   UNL A   1      34.366  34.055  28.370  1.00  0.00     0.202 C 
BRANCH  29  30
ATOM     30  C   UNL A   1      33.767  35.045  29.361  1.00  0.00     0.261 C 
BRANCH  30  31
ATOM     31  O   UNL A   1      33.169  34.468  30.501  1.00  0.00    -0.460 OA
BRANCH  31  32
ATOM     32  C   UNL A   1      33.257  35.195  31.627  1.00  0.00     0.338 C 
ATOM     33  O   UNL A   1      32.665  36.237  31.889  1.00  0.00    -0.246 OA
BRANCH  32  34
ATOM     34  C   UNL A   1      34.262  34.569  32.485  1.00  0.00     0.060 A 
ATOM     35  C   UNL A   1      35.310  35.385  32.912  1.00  0.00     0.016 A 
ATOM     36  C   UNL A   1      34.351  33.169  32.468  1.00  0.00     0.016 A 
ATOM     37  C   UNL A   1      36.555  34.815  33.001  1.00  0.00     0.010 A 
ATOM     38  C   UNL A   1      35.598  32.612  32.509  1.00  0.00     0.010 A 
ATOM     39  C   UNL A   1      36.685  33.467  32.661  1.00  0.00    -0.014 A 
BRANCH  39  40
ATOM     40  C   UNL A   1      38.010  32.937  32.479  1.00  0.00     0.031 A 
ATOM     41  C   UNL A   1      38.791  32.942  33.724  1.00  0.00     0.074 A 
ATOM     42  C   UNL A   1      38.416  32.406  31.312  1.00  0.00     0.049 A 
ATOM     43  N   UNL A   1      39.751  33.746  34.034  1.00  0.00    -0.248 NA
ATOM     44  C   UNL A   1      38.314  32.099  34.832  1.00  0.00     0.031 C 
ATOM     45  C   UNL A   1      37.621  32.081  30.123  1.00  0.00     0.029 A 
ATOM     46  N   UNL A   1      39.646  31.931  30.994  1.00  0.00    -0.354 N 
ATOM     47  C   UNL A   1      40.146  33.356  35.305  1.00  0.00     0.074 A 
ATOM     48  C   UNL A   1      39.088  32.530  35.826  1.00  0.00     0.031 C 
ATOM     49  C   UNL A   1      38.337  31.247  29.331  1.00  0.00     0.029 A 
ATOM     50  C   UNL A   1      39.669  31.090  29.891  1.00  0.00     0.049 A 
ATOM     51  H   UNL A   1      40.455  32.165  31.504  1.00  0.00     0.167 HD
ATOM     52  C   UNL A   1      41.442  33.468  35.699  1.00  0.00     0.031 A 
ATOM     53  C   UNL A   1      40.693  30.272  29.543  1.00  0.00     0.031 A 
ATOM     54  C   UNL A   1      42.190  34.345  34.833  1.00  0.00     0.049 A 
ATOM     55  C   UNL A   1      41.907  30.740  30.259  1.00  0.00     0.074 A 
ATOM     56  C   UNL A   1      42.069  35.666  34.447  1.00  0.00     0.029 A 
ATOM     57  N   UNL A   1      43.012  33.754  33.902  1.00  0.00    -0.354 N 
ATOM     58  N   UNL A   1      42.511  31.861  29.988  1.00  0.00    -0.248 NA
ATOM     59  C   UNL A   1      42.169  30.198  31.585  1.00  0.00     0.031 C 
ATOM     60  C   UNL A   1      42.428  35.684  33.067  1.00  0.00     0.029 A 
ATOM     61  C   UNL A   1      42.814  34.393  32.704  1.00  0.00     0.049 A 
ATOM     62  H   UNL A   1      43.630  33.006  34.066  1.00  0.00     0.167 HD
ATOM     63  C   UNL A   1      42.848  32.389  31.226  1.00  0.00     0.074 A 
ATOM     64  C   UNL A   1      42.702  31.277  32.166  1.00  0.00     0.031 C 
ATOM     65  C   UNL A   1      42.920  33.740  31.418  1.00  0.00     0.031 A 
BRANCH  52  66
ATOM     66  C   UNL A   1      42.112  32.429  36.564  1.00  0.00    -0.014 A 
ATOM     67  C   UNL A   1      42.747  32.851  37.742  1.00  0.00     0.009 A 
ATOM     68  C   UNL A   1      42.383  31.114  36.134  1.00  0.00     0.009 A 
ATOM     69  C   UNL A   1      43.662  32.027  38.405  1.00  0.00     0.001 A 
ATOM     70  C   UNL A   1      43.260  30.272  36.818  1.00  0.00     0.001 A 
ATOM     71  C   UNL A   1      43.924  30.742  37.940  1.00  0.00     0.000 A 
ENDBRANCH  52  66
BRANCH  53  72
ATOM     72  C   UNL A   1      40.645  28.942  28.895  1.00  0.00    -0.014 A 
ATOM     73  C   UNL A   1      40.179  27.821  29.599  1.00  0.00     0.009 A 
ATOM     74  C   UNL A   1      40.784  28.827  27.500  1.00  0.00     0.009 A 
ATOM     75  C   UNL A   1      39.820  26.644  28.927  1.00  0.00     0.001 A 
ATOM     76  C   UNL A   1      40.429  27.652  26.829  1.00  0.00     0.001 A 
ATOM     77  C   UNL A   1      39.931  26.566  27.541  1.00  0.00     0.000 A 
ENDBRANCH  53  72
BRANCH  65  78
ATOM     78  C   UNL A   1      42.860  34.628  30.197  1.00  0.00    -0.014 A 
ATOM     79  C   UNL A   1      44.002  35.133  29.549  1.00  0.00     0.009 A 
ATOM     80  C   UNL A   1      41.608  34.858  29.609  1.00  0.00     0.009 A 
ATOM     81  C   UNL A   1      43.887  35.883  28.373  1.00  0.00     0.001 A 
ATOM     82  C   UNL A   1      41.494  35.587  28.424  1.00  0.00     0.001 A 
ATOM     83  C   UNL A   1      42.632  36.107  27.811  1.00  0.00     0.000 A 
ENDBRANCH  65  78
ENDBRANCH  39  40
ENDBRANCH  32  34
ENDBRANCH  31  32
ENDBRANCH  30  31
ENDBRANCH  29  30
ENDBRANCH  28  29
ENDBRANCH  27  28
ENDBRANCH  26  27
ENDBRANCH   1  26
TORSDOF 22
ENDMDL
MODEL 3
REMARK VINA RESULT:      -9.2      3.483      8.684
REMARK SMILES CCCn1cc(Br)cc1C(=O)NC[C@H]1CC[C@@H](C(=O)OCCOCCOCCOC(=O)c2ccc(-c3c4nc(c(-c5ccccc5)c5ccc([nH]5)c(-c5ccccc5)c5nc(c(-c6ccccc6)c6ccc3[nH]6)C=C5)C=C4)cc2)O1
REMARK SMILES IDX 23 1 22 2 21 3 20 4 18 5 19 6 17 7 14 8 15 9 80 10 16 11
REMARK SMILES IDX 13 12 12 13 10 14 11 15 9 17 4 18 5 19 6 20 8 21 7 22 3 23
REMARK SMILES IDX 2 24 1 25 24 26 25 27 26 28 27 29 28 30 29 31 30 32 31 33
REMARK SMILES IDX 32 34 33 35 79 36 34 37 78 38 35 39 36 40 37 41 72 42 38 43
REMARK SMILES IDX 77 44 71 45 73 46 39 47 76 48 70 49 69 50 40 52 62 53 47 54
REMARK SMILES IDX 61 55 48 56 51 57 60 58 74 59 49 60 50 61 59 63 75 64 52 65
REMARK SMILES IDX 41 66 42 67 46 68 43 69 45 70 44 71 63 72 64 73 68 74 65 75
REMARK SMILES IDX 67 76 66 77 53 78 54 79 58 80 55 81 57 82 56 83
REMARK H PARENT 12 16 73 51 51 62
REMARK Flexibility Score: inf
ROOT
ATOM      1  O   UNL A   1      34.314  30.919  27.053  1.00  0.00    -0.376 OA
ENDROOT
BRANCH   1   2
ATOM      2  C   UNL A   1      34.063  29.518  27.087  1.00  0.00     0.202 C 
BRANCH   2   3
ATOM      3  C   UNL A   1      32.773  28.935  26.472  1.00  0.00     0.261 C 
BRANCH   3   4
ATOM      4  O   UNL A   1      32.385  29.443  25.175  1.00  0.00    -0.461 OA
BRANCH   4   5
ATOM      5  C   UNL A   1      32.847  28.753  24.096  1.00  0.00     0.335 C 
ATOM      6  O   UNL A   1      34.021  28.743  23.752  1.00  0.00    -0.249 OA
BRANCH   5   7
ATOM      7  C   UNL A   1      31.727  27.977  23.363  1.00  0.00     0.228 C 
ATOM      8  C   UNL A   1      31.566  25.695  23.901  1.00  0.00     0.138 C 
ATOM      9  C   UNL A   1      30.159  26.263  24.026  1.00  0.00     0.037 C 
ATOM     10  O   UNL A   1      32.236  26.649  23.069  1.00  0.00    -0.361 OA
ATOM     11  C   UNL A   1      30.434  27.749  24.156  1.00  0.00     0.047 C 
BRANCH   8  12
ATOM     12  C   UNL A   1      32.160  25.612  25.316  1.00  0.00     0.148 C 
BRANCH  12  13
ATOM     13  N   UNL A   1      31.615  24.701  26.271  1.00  0.00    -0.348 N 
ATOM     14  C   UNL A   1      32.166  23.540  26.768  1.00  0.00     0.268 C 
ATOM     15  O   UNL A   1      31.469  22.969  27.615  1.00  0.00    -0.268 OA
ATOM     16  H   UNL A   1      30.724  24.934  26.622  1.00  0.00     0.163 HD
BRANCH  14  17
ATOM     17  C   UNL A   1      33.432  22.935  26.311  1.00  0.00     0.108 A 
ATOM     18  N   UNL A   1      33.816  21.678  25.811  1.00  0.00    -0.342 N 
ATOM     19  C   UNL A   1      35.190  21.622  25.730  1.00  0.00     0.102 A 
ATOM     20  C   UNL A   1      35.683  22.873  25.953  1.00  0.00     0.036 A 
ATOM     21  C   UNL A   1      34.610  23.698  26.292  1.00  0.00     0.049 A 
ATOM     22  Br  UNL A   1      37.472  23.409  25.882  1.00  0.00    -0.049 Br
BRANCH  18  23
ATOM     23  C   UNL A   1      32.967  20.548  25.483  1.00  0.00     0.122 C 
BRANCH  23  24
ATOM     24  C   UNL A   1      32.878  19.972  24.064  1.00  0.00     0.018 C 
ATOM     25  C   UNL A   1      32.458  18.513  23.957  1.00  0.00     0.006 C 
ENDBRANCH  23  24
ENDBRANCH  18  23
ENDBRANCH  14  17
ENDBRANCH  12  13
ENDBRANCH   8  12
ENDBRANCH   5   7
ENDBRANCH   4   5
ENDBRANCH   3   4
ENDBRANCH   2   3
ENDBRANCH   1   2
BRANCH   1  26
ATOM     26  C   UNL A   1      33.832  31.718  28.121  1.00  0.00     0.188 C 
BRANCH  26  27
ATOM     27  C   UNL A   1      33.714  33.247  27.919  1.00  0.00     0.188 C 
BRANCH  27  28
ATOM     28  O   UNL A   1      34.709  34.017  28.553  1.00  0.00    -0.376 OA
BRANCH  28  29
ATOM     29  C   UNL A   1      34.599  34.445  29.894  1.00  0.00     0.202 C 
BRANCH  29  30
ATOM     30  C   UNL A   1      35.476  33.893  31.011  1.00  0.00     0.261 C 
BRANCH  30  31
ATOM     31  O   UNL A   1      36.542  33.072  30.587  1.00  0.00    -0.460 OA
BRANCH  31  32
ATOM     32  C   UNL A   1      36.409  31.766  30.869  1.00  0.00     0.338 C 
ATOM     33  O   UNL A   1      35.740  31.262  31.765  1.00  0.00    -0.246 OA
BRANCH  32  34
ATOM     34  C   UNL A   1      37.277  31.021  29.958  1.00  0.00     0.060 A 
ATOM     35  C   UNL A   1      36.953  29.681  29.746  1.00  0.00     0.016 A 
ATOM     36  C   UNL A   1      38.558  31.538  29.713  1.00  0.00     0.016 A 
ATOM     37  C   UNL A   1      37.992  28.796  29.611  1.00  0.00     0.010 A 
ATOM     38  C   UNL A   1      39.595  30.652  29.628  1.00  0.00     0.010 A 
ATOM     39  C   UNL A   1      39.294  29.296  29.695  1.00  0.00    -0.014 A 
BRANCH  39  40
ATOM     40  C   UNL A   1      40.375  28.356  29.838  1.00  0.00     0.031 A 
ATOM     41  C   UNL A   1      40.876  28.285  31.219  1.00  0.00     0.074 A 
ATOM     42  C   UNL A   1      40.782  27.571  28.825  1.00  0.00     0.049 A 
ATOM     43  N   UNL A   1      41.977  28.780  31.671  1.00  0.00    -0.248 NA
ATOM     44  C   UNL A   1      39.952  27.794  32.254  1.00  0.00     0.031 C 
ATOM     45  C   UNL A   1      40.152  27.354  27.519  1.00  0.00     0.029 A 
ATOM     46  N   UNL A   1      41.817  26.695  28.813  1.00  0.00    -0.354 N 
ATOM     47  C   UNL A   1      41.983  28.464  33.021  1.00  0.00     0.074 A 
ATOM     48  C   UNL A   1      40.634  28.091  33.359  1.00  0.00     0.031 C 
ATOM     49  C   UNL A   1      40.676  26.237  26.958  1.00  0.00     0.029 A 
ATOM     50  C   UNL A   1      41.755  25.748  27.801  1.00  0.00     0.049 A 
ATOM     51  H   UNL A   1      42.552  26.730  29.466  1.00  0.00     0.167 HD
ATOM     52  C   UNL A   1      43.148  28.214  33.675  1.00  0.00     0.031 A 
ATOM     53  C   UNL A   1      42.490  24.609  27.738  1.00  0.00     0.031 A 
ATOM     54  C   UNL A   1      44.290  28.686  32.931  1.00  0.00     0.049 A 
ATOM     55  C   UNL A   1      43.641  24.765  28.664  1.00  0.00     0.074 A 
ATOM     56  C   UNL A   1      44.690  29.912  32.438  1.00  0.00     0.029 A 
ATOM     57  N   UNL A   1      45.019  27.745  32.241  1.00  0.00    -0.354 N 
ATOM     58  N   UNL A   1      44.624  25.591  28.452  1.00  0.00    -0.248 NA
ATOM     59  C   UNL A   1      43.463  24.354  30.050  1.00  0.00     0.031 C 
ATOM     60  C   UNL A   1      45.276  29.628  31.169  1.00  0.00     0.029 A 
ATOM     61  C   UNL A   1      45.265  28.245  30.988  1.00  0.00     0.049 A 
ATOM     62  H   UNL A   1      45.310  26.870  32.585  1.00  0.00     0.167 HD
ATOM     63  C   UNL A   1      44.890  26.150  29.694  1.00  0.00     0.074 A 
ATOM     64  C   UNL A   1      44.214  25.279  30.655  1.00  0.00     0.031 C 
ATOM     65  C   UNL A   1      45.376  27.423  29.803  1.00  0.00     0.031 A 
BRANCH  52  66
ATOM     66  C   UNL A   1      43.263  27.145  34.733  1.00  0.00    -0.014 A 
ATOM     67  C   UNL A   1      44.052  27.408  35.864  1.00  0.00     0.009 A 
ATOM     68  C   UNL A   1      42.865  25.807  34.537  1.00  0.00     0.009 A 
ATOM     69  C   UNL A   1      44.480  26.375  36.703  1.00  0.00     0.001 A 
ATOM     70  C   UNL A   1      43.252  24.780  35.398  1.00  0.00     0.001 A 
ATOM     71  C   UNL A   1      44.087  25.062  36.467  1.00  0.00     0.000 A 
ENDBRANCH  52  66
BRANCH  53  72
ATOM     72  C   UNL A   1      42.116  23.288  27.189  1.00  0.00    -0.014 A 
ATOM     73  C   UNL A   1      43.020  22.561  26.397  1.00  0.00     0.009 A 
ATOM     74  C   UNL A   1      40.983  22.611  27.677  1.00  0.00     0.009 A 
ATOM     75  C   UNL A   1      42.822  21.197  26.143  1.00  0.00     0.001 A 
ATOM     76  C   UNL A   1      40.784  21.250  27.421  1.00  0.00     0.001 A 
ATOM     77  C   UNL A   1      41.712  20.539  26.668  1.00  0.00     0.000 A 
ENDBRANCH  53  72
BRANCH  65  78
ATOM     78  C   UNL A   1      45.837  28.110  28.539  1.00  0.00    -0.014 A 
ATOM     79  C   UNL A   1      47.157  28.039  28.055  1.00  0.00     0.009 A 
ATOM     80  C   UNL A   1      44.874  28.747  27.744  1.00  0.00     0.009 A 
ATOM     81  C   UNL A   1      47.507  28.628  26.835  1.00  0.00     0.001 A 
ATOM     82  C   UNL A   1      45.218  29.315  26.516  1.00  0.00     0.001 A 
ATOM     83  C   UNL A   1      46.535  29.263  26.065  1.00  0.00     0.000 A 
ENDBRANCH  65  78
ENDBRANCH  39  40
ENDBRANCH  32  34
ENDBRANCH  31  32
ENDBRANCH  30  31
ENDBRANCH  29  30
ENDBRANCH  28  29
ENDBRANCH  27  28
ENDBRANCH  26  27
ENDBRANCH   1  26
TORSDOF 22
ENDMDL
