MODEL 1
REMARK VINA RESULT:     -10.6      0.000      0.000
REMARK SMILES O=C(OCCOCCOCCOC(=O)c1ccc(-c2c3nc(c(-c4ccccc4)c4ccc([nH]4)c(-c4ccccc4)c4nc(c(-c5ccccc5)c5ccc2[nH]5)C=C4)C=C3)cc1)c1ccc(C#CC#C[C@H]2C[C@@H](O)C2)cc1
REMARK SMILES IDX 7 1 6 2 5 3 4 4 3 5 2 6 1 7 63 8 64 9 77 10 65 11 76 12
REMARK SMILES IDX 66 13 67 14 68 15 69 16 70 17 71 18 75 19 72 20 73 21 74 22
REMARK SMILES IDX 8 24 9 25 10 26 11 27 12 28 13 29 14 30 15 31 16 32 62 33
REMARK SMILES IDX 17 34 61 35 18 36 19 37 20 38 55 39 21 40 60 41 54 42 56 43
REMARK SMILES IDX 22 44 59 45 53 46 52 47 23 49 45 50 30 51 44 52 31 53 34 54
REMARK SMILES IDX 43 55 57 56 32 57 33 58 42 60 58 61 35 62 24 63 25 64 29 65
REMARK SMILES IDX 26 66 28 67 27 68 46 69 47 70 51 71 48 72 50 73 49 74 36 75
REMARK SMILES IDX 37 76 41 77 38 78 40 79 39 80
REMARK H PARENT 74 23 56 48 34 59
REMARK Flexibility Score: inf
ROOT
ATOM      1  C   UNL A   1      44.595  19.112  24.787  1.00  0.00     0.188 C 
ENDROOT
BRANCH   1   2
ATOM      2  O   UNL A   1      43.851  18.208  25.598  1.00  0.00    -0.376 OA
BRANCH   2   3
ATOM      3  C   UNL A   1      42.795  18.732  26.405  1.00  0.00     0.202 C 
BRANCH   3   4
ATOM      4  C   UNL A   1      42.360  20.196  26.249  1.00  0.00     0.261 C 
BRANCH   4   5
ATOM      5  O   UNL A   1      40.980  20.515  26.501  1.00  0.00    -0.460 OA
BRANCH   5   6
ATOM      6  C   UNL A   1      39.840  20.181  25.867  1.00  0.00     0.338 C 
ATOM      7  O   UNL A   1      39.691  19.023  25.481  1.00  0.00    -0.246 OA
BRANCH   6   8
ATOM      8  C   UNL A   1      38.725  21.128  25.637  1.00  0.00     0.060 A 
ATOM      9  C   UNL A   1      37.483  20.792  25.102  1.00  0.00     0.017 A 
ATOM     10  C   UNL A   1      38.901  22.423  26.148  1.00  0.00     0.017 A 
ATOM     11  C   UNL A   1      36.476  21.740  24.969  1.00  0.00     0.018 A 
ATOM     12  C   UNL A   1      37.884  23.374  26.049  1.00  0.00     0.018 A 
ATOM     13  C   UNL A   1      36.686  23.032  25.432  1.00  0.00     0.026 A 
BRANCH  13  14
ATOM     14  C   UNL A   1      35.648  23.981  25.247  1.00  0.00    -0.053 C 
ATOM     15  C   UNL A   1      34.875  24.879  25.100  1.00  0.00    -0.010 C 
BRANCH  15  16
ATOM     16  C   UNL A   1      33.970  26.085  24.944  1.00  0.00    -0.015 C 
ATOM     17  C   UNL A   1      33.269  27.037  24.776  1.00  0.00    -0.085 C 
BRANCH  17  18
ATOM     18  C   UNL A   1      32.490  28.219  24.529  1.00  0.00     0.070 C 
ATOM     19  C   UNL A   1      31.342  28.486  25.530  1.00  0.00     0.048 C 
ATOM     20  C   UNL A   1      33.135  29.526  25.053  1.00  0.00     0.048 C 
ATOM     21  C   UNL A   1      31.709  29.986  25.432  1.00  0.00     0.116 C 
BRANCH  21  22
ATOM     22  O   UNL A   1      31.584  30.762  26.633  1.00  0.00    -0.393 OA
ATOM     23  H   UNL A   1      30.666  30.727  26.947  1.00  0.00     0.210 HD
ENDBRANCH  21  22
ENDBRANCH  17  18
ENDBRANCH  15  16
ENDBRANCH  13  14
ENDBRANCH   6   8
ENDBRANCH   5   6
ENDBRANCH   4   5
ENDBRANCH   3   4
ENDBRANCH   2   3
ENDBRANCH   1   2
BRANCH   1  24
ATOM     24  C   UNL A   1      46.056  19.310  25.192  1.00  0.00     0.188 C 
BRANCH  24  25
ATOM     25  O   UNL A   1      46.687  20.514  24.787  1.00  0.00    -0.376 OA
BRANCH  25  26
ATOM     26  C   UNL A   1      46.062  21.726  25.185  1.00  0.00     0.202 C 
BRANCH  26  27
ATOM     27  C   UNL A   1      45.926  22.877  24.165  1.00  0.00     0.261 C 
BRANCH  27  28
ATOM     28  O   UNL A   1      45.123  24.015  24.547  1.00  0.00    -0.460 OA
BRANCH  28  29
ATOM     29  C   UNL A   1      43.793  23.774  24.647  1.00  0.00     0.338 C 
ATOM     30  O   UNL A   1      43.176  22.844  24.152  1.00  0.00    -0.246 OA
BRANCH  29  31
ATOM     31  C   UNL A   1      43.106  24.790  25.470  1.00  0.00     0.060 A 
ATOM     32  C   UNL A   1      43.667  26.063  25.630  1.00  0.00     0.016 A 
ATOM     33  C   UNL A   1      42.049  24.388  26.288  1.00  0.00     0.016 A 
ATOM     34  C   UNL A   1      43.208  26.908  26.647  1.00  0.00     0.010 A 
ATOM     35  C   UNL A   1      41.577  25.245  27.291  1.00  0.00     0.010 A 
ATOM     36  C   UNL A   1      42.180  26.496  27.510  1.00  0.00    -0.014 A 
BRANCH  36  37
ATOM     37  C   UNL A   1      41.781  27.335  28.675  1.00  0.00     0.031 A 
ATOM     38  C   UNL A   1      42.538  27.247  29.978  1.00  0.00     0.074 A 
ATOM     39  C   UNL A   1      40.736  28.180  28.573  1.00  0.00     0.049 A 
ATOM     40  N   UNL A   1      42.304  27.853  31.118  1.00  0.00    -0.248 NA
ATOM     41  C   UNL A   1      43.710  26.357  30.008  1.00  0.00     0.031 C 
ATOM     42  C   UNL A   1      39.931  28.387  27.370  1.00  0.00     0.029 A 
ATOM     43  N   UNL A   1      40.168  29.015  29.506  1.00  0.00    -0.354 N 
ATOM     44  C   UNL A   1      43.289  27.415  31.997  1.00  0.00     0.074 A 
ATOM     45  C   UNL A   1      44.102  26.463  31.270  1.00  0.00     0.031 C 
ATOM     46  C   UNL A   1      38.977  29.294  27.634  1.00  0.00     0.029 A 
ATOM     47  C   UNL A   1      39.068  29.694  29.036  1.00  0.00     0.049 A 
ATOM     48  H   UNL A   1      40.516  29.119  30.420  1.00  0.00     0.167 HD
ATOM     49  C   UNL A   1      43.505  27.776  33.287  1.00  0.00     0.031 A 
ATOM     50  C   UNL A   1      38.214  30.523  29.668  1.00  0.00     0.031 A 
ATOM     51  C   UNL A   1      42.690  28.712  34.020  1.00  0.00     0.049 A 
ATOM     52  C   UNL A   1      38.429  30.838  31.126  1.00  0.00     0.074 A 
ATOM     53  C   UNL A   1      42.844  29.151  35.325  1.00  0.00     0.029 A 
ATOM     54  N   UNL A   1      41.565  29.348  33.519  1.00  0.00    -0.354 N 
ATOM     55  N   UNL A   1      39.386  30.443  31.930  1.00  0.00    -0.248 NA
ATOM     56  C   UNL A   1      37.444  31.728  31.760  1.00  0.00     0.031 C 
ATOM     57  C   UNL A   1      41.770  29.991  35.637  1.00  0.00     0.029 A 
ATOM     58  C   UNL A   1      40.996  30.145  34.499  1.00  0.00     0.049 A 
ATOM     59  H   UNL A   1      41.222  29.247  32.601  1.00  0.00     0.167 HD
ATOM     60  C   UNL A   1      39.137  31.061  33.150  1.00  0.00     0.074 A 
ATOM     61  C   UNL A   1      37.959  31.883  32.970  1.00  0.00     0.031 C 
ATOM     62  C   UNL A   1      39.822  30.958  34.317  1.00  0.00     0.031 A 
BRANCH  49  63
ATOM     63  C   UNL A   1      44.663  27.140  34.014  1.00  0.00    -0.014 A 
ATOM     64  C   UNL A   1      44.527  25.904  34.667  1.00  0.00     0.009 A 
ATOM     65  C   UNL A   1      45.930  27.746  33.976  1.00  0.00     0.009 A 
ATOM     66  C   UNL A   1      45.627  25.305  35.288  1.00  0.00     0.001 A 
ATOM     67  C   UNL A   1      47.035  27.129  34.568  1.00  0.00     0.001 A 
ATOM     68  C   UNL A   1      46.880  25.913  35.230  1.00  0.00     0.000 A 
ENDBRANCH  49  63
BRANCH  50  69
ATOM     69  C   UNL A   1      37.045  31.094  28.943  1.00  0.00    -0.014 A 
ATOM     70  C   UNL A   1      37.021  32.448  28.568  1.00  0.00     0.009 A 
ATOM     71  C   UNL A   1      35.919  30.300  28.673  1.00  0.00     0.009 A 
ATOM     72  C   UNL A   1      35.877  33.002  27.987  1.00  0.00     0.001 A 
ATOM     73  C   UNL A   1      34.794  30.847  28.052  1.00  0.00     0.001 A 
ATOM     74  C   UNL A   1      34.768  32.201  27.727  1.00  0.00     0.000 A 
ENDBRANCH  50  69
BRANCH  62  75
ATOM     75  C   UNL A   1      39.337  31.789  35.477  1.00  0.00    -0.014 A 
ATOM     76  C   UNL A   1      39.813  33.091  35.704  1.00  0.00     0.009 A 
ATOM     77  C   UNL A   1      38.377  31.259  36.357  1.00  0.00     0.009 A 
ATOM     78  C   UNL A   1      39.383  33.819  36.816  1.00  0.00     0.001 A 
ATOM     79  C   UNL A   1      37.917  32.006  37.443  1.00  0.00     0.001 A 
ATOM     80  C   UNL A   1      38.434  33.278  37.682  1.00  0.00     0.000 A 
ENDBRANCH  62  75
ENDBRANCH  36  37
ENDBRANCH  29  31
ENDBRANCH  28  29
ENDBRANCH  27  28
ENDBRANCH  26  27
ENDBRANCH  25  26
ENDBRANCH  24  25
ENDBRANCH   1  24
TORSDOF 21
ENDMDL
MODEL 2
REMARK VINA RESULT:      -9.7      4.108     11.273
REMARK SMILES O=C(OCCOCCOCCOC(=O)c1ccc(-c2c3nc(c(-c4ccccc4)c4ccc([nH]4)c(-c4ccccc4)c4nc(c(-c5ccccc5)c5ccc2[nH]5)C=C4)C=C3)cc1)c1ccc(C#CC#C[C@H]2C[C@@H](O)C2)cc1
REMARK SMILES IDX 7 1 6 2 5 3 4 4 3 5 2 6 1 7 63 8 64 9 77 10 65 11 76 12
REMARK SMILES IDX 66 13 67 14 68 15 69 16 70 17 71 18 75 19 72 20 73 21 74 22
REMARK SMILES IDX 8 24 9 25 10 26 11 27 12 28 13 29 14 30 15 31 16 32 62 33
REMARK SMILES IDX 17 34 61 35 18 36 19 37 20 38 55 39 21 40 60 41 54 42 56 43
REMARK SMILES IDX 22 44 59 45 53 46 52 47 23 49 45 50 30 51 44 52 31 53 34 54
REMARK SMILES IDX 43 55 57 56 32 57 33 58 42 60 58 61 35 62 24 63 25 64 29 65
REMARK SMILES IDX 26 66 28 67 27 68 46 69 47 70 51 71 48 72 50 73 49 74 36 75
REMARK SMILES IDX 37 76 41 77 38 78 40 79 39 80
REMARK H PARENT 74 23 56 48 34 59
REMARK Flexibility Score: inf
ROOT
ATOM      1  C   UNL A   1      33.262  36.924  31.440  1.00  0.00     0.188 C 
ENDROOT
BRANCH   1   2
ATOM      2  O   UNL A   1      33.063  37.159  30.049  1.00  0.00    -0.376 OA
BRANCH   2   3
ATOM      3  C   UNL A   1      32.947  36.031  29.180  1.00  0.00     0.202 C 
BRANCH   3   4
ATOM      4  C   UNL A   1      34.194  35.222  28.796  1.00  0.00     0.261 C 
BRANCH   4   5
ATOM      5  O   UNL A   1      34.229  33.832  29.161  1.00  0.00    -0.460 OA
BRANCH   5   6
ATOM      6  C   UNL A   1      34.305  32.702  28.430  1.00  0.00     0.338 C 
ATOM      7  O   UNL A   1      33.410  32.455  27.623  1.00  0.00    -0.246 OA
BRANCH   6   8
ATOM      8  C   UNL A   1      35.433  31.747  28.516  1.00  0.00     0.060 A 
ATOM      9  C   UNL A   1      35.415  30.438  28.041  1.00  0.00     0.017 A 
ATOM     10  C   UNL A   1      36.652  32.273  28.971  1.00  0.00     0.017 A 
ATOM     11  C   UNL A   1      36.540  29.627  28.119  1.00  0.00     0.018 A 
ATOM     12  C   UNL A   1      37.798  31.477  29.023  1.00  0.00     0.018 A 
ATOM     13  C   UNL A   1      37.726  30.148  28.622  1.00  0.00     0.026 A 
BRANCH  13  14
ATOM     14  C   UNL A   1      38.844  29.280  28.719  1.00  0.00    -0.053 C 
ATOM     15  C   UNL A   1      39.866  28.666  28.788  1.00  0.00    -0.010 C 
BRANCH  15  16
ATOM     16  C   UNL A   1      41.213  27.974  28.843  1.00  0.00    -0.015 C 
ATOM     17  C   UNL A   1      42.258  27.396  28.857  1.00  0.00    -0.085 C 
BRANCH  17  18
ATOM     18  C   UNL A   1      43.472  26.627  28.879  1.00  0.00     0.070 C 
ATOM     19  C   UNL A   1      43.295  25.093  28.801  1.00  0.00     0.048 C 
ATOM     20  C   UNL A   1      44.185  26.528  27.508  1.00  0.00     0.048 C 
ATOM     21  C   UNL A   1      44.544  25.074  27.888  1.00  0.00     0.116 C 
BRANCH  21  22
ATOM     22  O   UNL A   1      44.548  24.114  26.819  1.00  0.00    -0.393 OA
ATOM     23  H   UNL A   1      45.281  23.491  26.947  1.00  0.00     0.210 HD
ENDBRANCH  21  22
ENDBRANCH  17  18
ENDBRANCH  15  16
ENDBRANCH  13  14
ENDBRANCH   6   8
ENDBRANCH   5   6
ENDBRANCH   4   5
ENDBRANCH   3   4
ENDBRANCH   2   3
ENDBRANCH   1   2
BRANCH   1  24
ATOM     24  C   UNL A   1      32.180  36.093  32.129  1.00  0.00     0.188 C 
BRANCH  24  25
ATOM     25  O   UNL A   1      32.515  34.766  32.500  1.00  0.00    -0.376 OA
BRANCH  25  26
ATOM     26  C   UNL A   1      33.895  34.483  32.680  1.00  0.00     0.202 C 
BRANCH  26  27
ATOM     27  C   UNL A   1      34.319  33.098  33.214  1.00  0.00     0.261 C 
BRANCH  27  28
ATOM     28  O   UNL A   1      35.659  32.650  32.914  1.00  0.00    -0.460 OA
BRANCH  28  29
ATOM     29  C   UNL A   1      36.513  32.640  33.967  1.00  0.00     0.338 C 
ATOM     30  O   UNL A   1      36.359  33.198  35.042  1.00  0.00    -0.246 OA
BRANCH  29  31
ATOM     31  C   UNL A   1      37.720  31.832  33.695  1.00  0.00     0.060 A 
ATOM     32  C   UNL A   1      38.964  32.237  34.194  1.00  0.00     0.016 A 
ATOM     33  C   UNL A   1      37.651  30.826  32.731  1.00  0.00     0.016 A 
ATOM     34  C   UNL A   1      40.140  31.676  33.681  1.00  0.00     0.010 A 
ATOM     35  C   UNL A   1      38.829  30.251  32.235  1.00  0.00     0.010 A 
ATOM     36  C   UNL A   1      40.087  30.700  32.674  1.00  0.00    -0.014 A 
BRANCH  36  37
ATOM     37  C   UNL A   1      41.334  30.198  32.032  1.00  0.00     0.031 A 
ATOM     38  C   UNL A   1      42.025  28.964  32.562  1.00  0.00     0.074 A 
ATOM     39  C   UNL A   1      41.858  30.844  30.971  1.00  0.00     0.049 A 
ATOM     40  N   UNL A   1      43.149  28.409  32.173  1.00  0.00    -0.248 NA
ATOM     41  C   UNL A   1      41.371  28.263  33.679  1.00  0.00     0.031 C 
ATOM     42  C   UNL A   1      41.284  32.030  30.338  1.00  0.00     0.029 A 
ATOM     43  N   UNL A   1      42.998  30.594  30.246  1.00  0.00    -0.354 N 
ATOM     44  C   UNL A   1      43.338  27.305  32.999  1.00  0.00     0.074 A 
ATOM     45  C   UNL A   1      42.234  27.289  33.934  1.00  0.00     0.031 C 
ATOM     46  C   UNL A   1      42.071  32.403  29.317  1.00  0.00     0.029 A 
ATOM     47  C   UNL A   1      43.230  31.516  29.253  1.00  0.00     0.049 A 
ATOM     48  H   UNL A   1      43.591  29.828  30.419  1.00  0.00     0.167 HD
ATOM     49  C   UNL A   1      44.334  26.383  32.977  1.00  0.00     0.031 A 
ATOM     50  C   UNL A   1      44.268  31.650  28.406  1.00  0.00     0.031 A 
ATOM     51  C   UNL A   1      45.445  26.403  32.057  1.00  0.00     0.049 A 
ATOM     52  C   UNL A   1      45.404  30.661  28.463  1.00  0.00     0.074 A 
ATOM     53  C   UNL A   1      46.490  25.500  31.950  1.00  0.00     0.029 A 
ATOM     54  N   UNL A   1      45.660  27.374  31.093  1.00  0.00    -0.354 N 
ATOM     55  N   UNL A   1      45.548  29.604  29.224  1.00  0.00    -0.248 NA
ATOM     56  C   UNL A   1      46.518  30.881  27.528  1.00  0.00     0.031 C 
ATOM     57  C   UNL A   1      47.377  25.968  30.975  1.00  0.00     0.029 A 
ATOM     58  C   UNL A   1      46.839  27.113  30.413  1.00  0.00     0.049 A 
ATOM     59  H   UNL A   1      45.062  28.138  30.917  1.00  0.00     0.167 HD
ATOM     60  C   UNL A   1      46.748  29.017  28.838  1.00  0.00     0.074 A 
ATOM     61  C   UNL A   1      47.274  29.817  27.753  1.00  0.00     0.031 C 
ATOM     62  C   UNL A   1      47.361  27.915  29.337  1.00  0.00     0.031 A 
BRANCH  49  63
ATOM     63  C   UNL A   1      44.292  25.274  33.996  1.00  0.00    -0.014 A 
ATOM     64  C   UNL A   1      43.692  24.037  33.708  1.00  0.00     0.009 A 
ATOM     65  C   UNL A   1      44.933  25.439  35.236  1.00  0.00     0.009 A 
ATOM     66  C   UNL A   1      43.713  23.002  34.648  1.00  0.00     0.001 A 
ATOM     67  C   UNL A   1      44.981  24.392  36.160  1.00  0.00     0.001 A 
ATOM     68  C   UNL A   1      44.364  23.178  35.868  1.00  0.00     0.000 A 
ENDBRANCH  49  63
BRANCH  50  69
ATOM     69  C   UNL A   1      44.315  32.788  27.445  1.00  0.00    -0.014 A 
ATOM     70  C   UNL A   1      44.791  34.048  27.843  1.00  0.00     0.009 A 
ATOM     71  C   UNL A   1      43.826  32.634  26.138  1.00  0.00     0.009 A 
ATOM     72  C   UNL A   1      44.730  35.137  26.970  1.00  0.00     0.001 A 
ATOM     73  C   UNL A   1      43.807  33.714  25.253  1.00  0.00     0.001 A 
ATOM     74  C   UNL A   1      44.241  34.969  25.676  1.00  0.00     0.000 A 
ENDBRANCH  50  69
BRANCH  62  75
ATOM     75  C   UNL A   1      48.650  27.486  28.682  1.00  0.00    -0.014 A 
ATOM     76  C   UNL A   1      49.898  27.944  29.136  1.00  0.00     0.009 A 
ATOM     77  C   UNL A   1      48.612  26.598  27.594  1.00  0.00     0.009 A 
ATOM     78  C   UNL A   1      51.072  27.570  28.479  1.00  0.00     0.001 A 
ATOM     79  C   UNL A   1      49.792  26.190  26.966  1.00  0.00     0.001 A 
ATOM     80  C   UNL A   1      51.018  26.691  27.398  1.00  0.00     0.000 A 
ENDBRANCH  62  75
ENDBRANCH  36  37
ENDBRANCH  29  31
ENDBRANCH  28  29
ENDBRANCH  27  28
ENDBRANCH  26  27
ENDBRANCH  25  26
ENDBRANCH  24  25
ENDBRANCH   1  24
TORSDOF 21
ENDMDL
MODEL 3
REMARK VINA RESULT:      -9.6      4.557     11.021
REMARK SMILES O=C(OCCOCCOCCOC(=O)c1ccc(-c2c3nc(c(-c4ccccc4)c4ccc([nH]4)c(-c4ccccc4)c4nc(c(-c5ccccc5)c5ccc2[nH]5)C=C4)C=C3)cc1)c1ccc(C#CC#C[C@H]2C[C@@H](O)C2)cc1
REMARK SMILES IDX 7 1 6 2 5 3 4 4 3 5 2 6 1 7 63 8 64 9 77 10 65 11 76 12
REMARK SMILES IDX 66 13 67 14 68 15 69 16 70 17 71 18 75 19 72 20 73 21 74 22
REMARK SMILES IDX 8 24 9 25 10 26 11 27 12 28 13 29 14 30 15 31 16 32 62 33
REMARK SMILES IDX 17 34 61 35 18 36 19 37 20 38 55 39 21 40 60 41 54 42 56 43
REMARK SMILES IDX 22 44 59 45 53 46 52 47 23 49 45 50 30 51 44 52 31 53 34 54
REMARK SMILES IDX 43 55 57 56 32 57 33 58 42 60 58 61 35 62 24 63 25 64 29 65
REMARK SMILES IDX 26 66 28 67 27 68 46 69 47 70 51 71 48 72 50 73 49 74 36 75
REMARK SMILES IDX 37 76 41 77 38 78 40 79 39 80
REMARK H PARENT 74 23 56 48 34 59
REMARK Flexibility Score: inf
ROOT
ATOM      1  C   UNL A   1      34.596  32.080  27.914  1.00  0.00     0.188 C 
ENDROOT
BRANCH   1   2
ATOM      2  O   UNL A   1      33.674  31.034  27.620  1.00  0.00    -0.376 OA
BRANCH   2   3
ATOM      3  C   UNL A   1      32.369  31.388  27.159  1.00  0.00     0.202 C 
BRANCH   3   4
ATOM      4  C   UNL A   1      31.678  30.543  26.080  1.00  0.00     0.261 C 
BRANCH   4   5
ATOM      5  O   UNL A   1      32.040  29.154  25.982  1.00  0.00    -0.460 OA
BRANCH   5   6
ATOM      6  C   UNL A   1      31.795  28.093  26.776  1.00  0.00     0.338 C 
ATOM      7  O   UNL A   1      31.376  28.288  27.916  1.00  0.00    -0.246 OA
BRANCH   6   8
ATOM      8  C   UNL A   1      31.967  26.689  26.339  1.00  0.00     0.060 A 
ATOM      9  C   UNL A   1      30.930  25.794  26.086  1.00  0.00     0.017 A 
ATOM     10  C   UNL A   1      33.275  26.301  26.011  1.00  0.00     0.017 A 
ATOM     11  C   UNL A   1      31.185  24.507  25.630  1.00  0.00     0.018 A 
ATOM     12  C   UNL A   1      33.539  25.021  25.521  1.00  0.00     0.018 A 
ATOM     13  C   UNL A   1      32.492  24.121  25.360  1.00  0.00     0.026 A 
BRANCH  13  14
ATOM     14  C   UNL A   1      32.716  22.789  24.929  1.00  0.00    -0.053 C 
ATOM     15  C   UNL A   1      32.781  21.635  24.630  1.00  0.00    -0.010 C 
BRANCH  15  16
ATOM     16  C   UNL A   1      32.787  20.151  24.318  1.00  0.00    -0.015 C 
ATOM     17  C   UNL A   1      32.767  18.975  24.112  1.00  0.00    -0.085 C 
BRANCH  17  18
ATOM     18  C   UNL A   1      32.761  17.548  23.946  1.00  0.00     0.070 C 
ATOM     19  C   UNL A   1      34.120  16.910  23.573  1.00  0.00     0.048 C 
ATOM     20  C   UNL A   1      32.850  16.755  25.274  1.00  0.00     0.048 C 
ATOM     21  C   UNL A   1      33.743  15.744  24.519  1.00  0.00     0.116 C 
BRANCH  21  22
ATOM     22  O   UNL A   1      34.814  15.149  25.268  1.00  0.00    -0.393 OA
ATOM     23  H   UNL A   1      34.571  14.242  25.515  1.00  0.00     0.210 HD
ENDBRANCH  21  22
ENDBRANCH  17  18
ENDBRANCH  15  16
ENDBRANCH  13  14
ENDBRANCH   6   8
ENDBRANCH   5   6
ENDBRANCH   4   5
ENDBRANCH   3   4
ENDBRANCH   2   3
ENDBRANCH   1   2
BRANCH   1  24
ATOM     24  C   UNL A   1      33.980  33.363  28.470  1.00  0.00     0.188 C 
BRANCH  24  25
ATOM     25  O   UNL A   1      34.722  34.072  29.449  1.00  0.00    -0.376 OA
BRANCH  25  26
ATOM     26  C   UNL A   1      34.017  34.478  30.613  1.00  0.00     0.202 C 
BRANCH  26  27
ATOM     27  C   UNL A   1      34.484  33.971  31.994  1.00  0.00     0.261 C 
BRANCH  27  28
ATOM     28  O   UNL A   1      34.723  32.554  32.139  1.00  0.00    -0.460 OA
BRANCH  28  29
ATOM     29  C   UNL A   1      35.810  32.226  32.880  1.00  0.00     0.338 C 
ATOM     30  O   UNL A   1      36.030  32.539  34.039  1.00  0.00    -0.246 OA
BRANCH  29  31
ATOM     31  C   UNL A   1      36.765  31.392  32.123  1.00  0.00     0.060 A 
ATOM     32  C   UNL A   1      37.802  30.727  32.790  1.00  0.00     0.016 A 
ATOM     33  C   UNL A   1      36.783  31.487  30.731  1.00  0.00     0.016 A 
ATOM     34  C   UNL A   1      38.885  30.213  32.066  1.00  0.00     0.010 A 
ATOM     35  C   UNL A   1      37.858  30.952  30.008  1.00  0.00     0.010 A 
ATOM     36  C   UNL A   1      38.940  30.348  30.671  1.00  0.00    -0.014 A 
BRANCH  36  37
ATOM     37  C   UNL A   1      40.149  29.922  29.911  1.00  0.00     0.031 A 
ATOM     38  C   UNL A   1      40.210  28.555  29.270  1.00  0.00     0.074 A 
ATOM     39  C   UNL A   1      41.201  30.755  29.790  1.00  0.00     0.049 A 
ATOM     40  N   UNL A   1      41.197  27.985  28.620  1.00  0.00    -0.248 NA
ATOM     41  C   UNL A   1      39.006  27.716  29.379  1.00  0.00     0.031 C 
ATOM     42  C   UNL A   1      41.271  32.111  30.333  1.00  0.00     0.029 A 
ATOM     43  N   UNL A   1      42.418  30.576  29.177  1.00  0.00    -0.354 N 
ATOM     44  C   UNL A   1      40.737  26.726  28.251  1.00  0.00     0.074 A 
ATOM     45  C   UNL A   1      39.396  26.599  28.781  1.00  0.00     0.031 C 
ATOM     46  C   UNL A   1      42.464  32.643  30.026  1.00  0.00     0.029 A 
ATOM     47  C   UNL A   1      43.264  31.652  29.311  1.00  0.00     0.049 A 
ATOM     48  H   UNL A   1      42.661  29.756  28.689  1.00  0.00     0.167 HD
ATOM     49  C   UNL A   1      41.368  25.764  27.529  1.00  0.00     0.031 A 
ATOM     50  C   UNL A   1      44.545  31.813  28.927  1.00  0.00     0.031 A 
ATOM     51  C   UNL A   1      42.708  25.879  27.012  1.00  0.00     0.049 A 
ATOM     52  C   UNL A   1      45.249  30.694  28.203  1.00  0.00     0.074 A 
ATOM     53  C   UNL A   1      43.421  24.963  26.255  1.00  0.00     0.029 A 
ATOM     54  N   UNL A   1      43.541  26.970  27.201  1.00  0.00    -0.354 N 
ATOM     55  N   UNL A   1      44.787  29.525  27.830  1.00  0.00    -0.248 NA
ATOM     56  C   UNL A   1      46.653  30.927  27.836  1.00  0.00     0.031 C 
ATOM     57  C   UNL A   1      44.710  25.467  26.054  1.00  0.00     0.029 A 
ATOM     58  C   UNL A   1      44.772  26.734  26.608  1.00  0.00     0.049 A 
ATOM     59  H   UNL A   1      43.295  27.791  27.686  1.00  0.00     0.167 HD
ATOM     60  C   UNL A   1      45.831  28.900  27.158  1.00  0.00     0.074 A 
ATOM     61  C   UNL A   1      46.938  29.832  27.145  1.00  0.00     0.031 C 
ATOM     62  C   UNL A   1      45.872  27.663  26.602  1.00  0.00     0.031 A 
BRANCH  49  63
ATOM     63  C   UNL A   1      40.626  24.477  27.268  1.00  0.00    -0.014 A 
ATOM     64  C   UNL A   1      39.443  24.454  26.513  1.00  0.00     0.009 A 
ATOM     65  C   UNL A   1      41.164  23.258  27.715  1.00  0.00     0.009 A 
ATOM     66  C   UNL A   1      38.802  23.243  26.236  1.00  0.00     0.001 A 
ATOM     67  C   UNL A   1      40.540  22.047  27.408  1.00  0.00     0.001 A 
ATOM     68  C   UNL A   1      39.354  22.042  26.676  1.00  0.00     0.000 A 
ENDBRANCH  49  63
BRANCH  50  69
ATOM     69  C   UNL A   1      45.274  33.072  29.246  1.00  0.00    -0.014 A 
ATOM     70  C   UNL A   1      45.450  34.070  28.273  1.00  0.00     0.009 A 
ATOM     71  C   UNL A   1      45.850  33.257  30.513  1.00  0.00     0.009 A 
ATOM     72  C   UNL A   1      46.228  35.198  28.547  1.00  0.00     0.001 A 
ATOM     73  C   UNL A   1      46.590  34.407  30.798  1.00  0.00     0.001 A 
ATOM     74  C   UNL A   1      46.794  35.367  29.809  1.00  0.00     0.000 A 
ENDBRANCH  50  69
BRANCH  62  75
ATOM     75  C   UNL A   1      47.142  27.267  25.894  1.00  0.00    -0.014 A 
ATOM     76  C   UNL A   1      47.346  27.542  24.531  1.00  0.00     0.009 A 
ATOM     77  C   UNL A   1      48.158  26.611  26.609  1.00  0.00     0.009 A 
ATOM     78  C   UNL A   1      48.512  27.118  23.889  1.00  0.00     0.001 A 
ATOM     79  C   UNL A   1      49.342  26.226  25.974  1.00  0.00     0.001 A 
ATOM     80  C   UNL A   1      49.510  26.465  24.612  1.00  0.00     0.000 A 
ENDBRANCH  62  75
ENDBRANCH  36  37
ENDBRANCH  29  31
ENDBRANCH  28  29
ENDBRANCH  27  28
ENDBRANCH  26  27
ENDBRANCH  25  26
ENDBRANCH  24  25
ENDBRANCH   1  24
TORSDOF 21
ENDMDL
