MODEL 1
REMARK VINA RESULT:     -10.0      0.000      0.000
REMARK SMILES O=C(COc1ccccc1/C=C1/SC(=S)N(c2ccc(F)c(Cl)c2)C1=O)OCCOCCOCCOC(=O)c1ccc(-c2c3nc(c(-c4ccccc4)c4ccc([nH]4)c(-c4ccccc4)c4nc(c(-c5ccccc5)c5ccc2[nH]5)C=C4)C=C3)cc1
REMARK SMILES IDX 31 1 30 2 29 3 28 4 27 5 2 6 1 7 3 8 4 9 5 10 6 11 10 12
REMARK SMILES IDX 7 13 9 14 8 15 11 16 12 17 13 18 25 19 14 20 16 21 26 22
REMARK SMILES IDX 15 23 17 24 18 25 24 26 19 27 22 28 20 29 23 30 21 31 32 32
REMARK SMILES IDX 33 33 34 34 35 35 36 36 37 37 38 38 39 39 40 40 86 41 41 42
REMARK SMILES IDX 85 43 42 44 43 45 44 46 79 47 45 48 84 49 78 50 80 51 46 52
REMARK SMILES IDX 83 53 77 54 76 55 47 57 69 58 54 59 68 60 55 61 58 62 67 63
REMARK SMILES IDX 81 64 56 65 57 66 66 68 82 69 59 70 48 71 49 72 53 73 50 74
REMARK SMILES IDX 52 75 51 76 70 77 71 78 75 79 72 80 74 81 73 82 60 83 61 84
REMARK SMILES IDX 65 85 62 86 64 87 63 88
REMARK H PARENT 80 56 58 67
REMARK Flexibility Score: inf
ROOT
ATOM      1  C   UNL A   1      34.056  34.360  28.944  1.00  0.00     0.188 C 
ENDROOT
BRANCH   1   2
ATOM      2  O   UNL A   1      34.017  32.936  28.949  1.00  0.00    -0.376 OA
BRANCH   2   3
ATOM      3  C   UNL A   1      34.003  32.343  27.664  1.00  0.00     0.202 C 
BRANCH   3   4
ATOM      4  C   UNL A   1      34.193  30.833  27.687  1.00  0.00     0.261 C 
BRANCH   4   5
ATOM      5  O   UNL A   1      32.971  30.064  27.578  1.00  0.00    -0.461 OA
BRANCH   5   6
ATOM      6  C   UNL A   1      32.417  29.546  26.456  1.00  0.00     0.344 C 
ATOM      7  O   UNL A   1      32.734  28.425  26.060  1.00  0.00    -0.248 OA
BRANCH   6   8
ATOM      8  C   UNL A   1      31.413  30.378  25.724  1.00  0.00     0.351 C 
BRANCH   8   9
ATOM      9  O   UNL A   1      31.478  30.092  24.339  1.00  0.00    -0.481 OA
BRANCH   9  10
ATOM     10  C   UNL A   1      30.272  30.150  23.709  1.00  0.00     0.127 A 
ATOM     11  C   UNL A   1      29.405  31.096  24.267  1.00  0.00     0.047 A 
ATOM     12  C   UNL A   1      29.863  29.316  22.653  1.00  0.00     0.018 A 
ATOM     13  C   UNL A   1      28.126  31.260  23.755  1.00  0.00     0.004 A 
ATOM     14  C   UNL A   1      28.567  29.507  22.149  1.00  0.00     0.012 A 
ATOM     15  C   UNL A   1      27.709  30.467  22.693  1.00  0.00     0.001 A 
BRANCH  12  16
ATOM     16  C   UNL A   1      30.669  28.304  21.942  1.00  0.00     0.033 C 
ATOM     17  C   UNL A   1      31.049  27.070  22.319  1.00  0.00     0.081 C 
ATOM     18  S   UNL A   1      32.023  26.069  21.302  1.00  0.00    -0.054 SA
ATOM     19  C   UNL A   1      30.831  26.389  23.625  1.00  0.00     0.270 C 
ATOM     20  C   UNL A   1      32.319  24.880  22.568  1.00  0.00     0.152 C 
ATOM     21  N   UNL A   1      31.641  25.248  23.724  1.00  0.00    -0.261 N 
ATOM     22  O   UNL A   1      30.091  26.849  24.487  1.00  0.00    -0.268 OA
ATOM     23  S   UNL A   1      33.191  23.489  22.237  1.00  0.00    -0.051 S 
BRANCH  21  24
ATOM     24  C   UNL A   1      31.807  24.613  25.003  1.00  0.00     0.052 A 
ATOM     25  C   UNL A   1      33.091  24.328  25.498  1.00  0.00     0.030 A 
ATOM     26  C   UNL A   1      30.698  24.103  25.706  1.00  0.00     0.050 A 
ATOM     27  C   UNL A   1      33.268  23.534  26.635  1.00  0.00     0.043 A 
ATOM     28  C   UNL A   1      30.877  23.289  26.830  1.00  0.00     0.078 A 
ATOM     29  C   UNL A   1      32.161  23.006  27.285  1.00  0.00     0.141 A 
ATOM     30  Cl  UNL A   1      29.504  22.581  27.590  1.00  0.00    -0.081 Cl
ATOM     31  F   UNL A   1      32.355  22.195  28.336  1.00  0.00    -0.205 F 
ENDBRANCH  21  24
ENDBRANCH  12  16
ENDBRANCH   9  10
ENDBRANCH   8   9
ENDBRANCH   6   8
ENDBRANCH   5   6
ENDBRANCH   4   5
ENDBRANCH   3   4
ENDBRANCH   2   3
ENDBRANCH   1   2
BRANCH   1  32
ATOM     32  C   UNL A   1      34.020  34.941  30.371  1.00  0.00     0.188 C 
BRANCH  32  33
ATOM     33  O   UNL A   1      34.305  33.951  31.358  1.00  0.00    -0.376 OA
BRANCH  33  34
ATOM     34  C   UNL A   1      35.526  34.160  32.061  1.00  0.00     0.202 C 
BRANCH  34  35
ATOM     35  C   UNL A   1      36.756  33.475  31.445  1.00  0.00     0.261 C 
BRANCH  35  36
ATOM     36  O   UNL A   1      36.502  32.299  30.647  1.00  0.00    -0.460 OA
BRANCH  36  37
ATOM     37  C   UNL A   1      36.660  31.073  31.203  1.00  0.00     0.338 C 
ATOM     38  O   UNL A   1      35.855  30.466  31.871  1.00  0.00    -0.246 OA
BRANCH  37  39
ATOM     39  C   UNL A   1      37.916  30.482  30.648  1.00  0.00     0.060 A 
ATOM     40  C   UNL A   1      38.785  29.811  31.521  1.00  0.00     0.016 A 
ATOM     41  C   UNL A   1      38.188  30.487  29.274  1.00  0.00     0.016 A 
ATOM     42  C   UNL A   1      39.942  29.189  31.030  1.00  0.00     0.010 A 
ATOM     43  C   UNL A   1      39.346  29.868  28.783  1.00  0.00     0.010 A 
ATOM     44  C   UNL A   1      40.252  29.247  29.664  1.00  0.00    -0.014 A 
BRANCH  44  45
ATOM     45  C   UNL A   1      41.623  28.904  29.197  1.00  0.00     0.031 A 
ATOM     46  C   UNL A   1      41.866  27.489  28.732  1.00  0.00     0.074 A 
ATOM     47  C   UNL A   1      42.633  29.794  29.153  1.00  0.00     0.049 A 
ATOM     48  N   UNL A   1      42.959  26.938  28.271  1.00  0.00    -0.248 NA
ATOM     49  C   UNL A   1      40.712  26.575  28.799  1.00  0.00     0.031 C 
ATOM     50  C   UNL A   1      42.552  31.200  29.542  1.00  0.00     0.029 A 
ATOM     51  N   UNL A   1      43.940  29.631  28.757  1.00  0.00    -0.354 N 
ATOM     52  C   UNL A   1      42.622  25.621  27.984  1.00  0.00     0.074 A 
ATOM     53  C   UNL A   1      41.239  25.442  28.362  1.00  0.00     0.031 C 
ATOM     54  C   UNL A   1      43.761  31.770  29.369  1.00  0.00     0.029 A 
ATOM     55  C   UNL A   1      44.705  30.767  28.876  1.00  0.00     0.049 A 
ATOM     56  H   UNL A   1      44.297  28.777  28.420  1.00  0.00     0.167 HD
ATOM     57  C   UNL A   1      43.383  24.644  27.439  1.00  0.00     0.031 A 
ATOM     58  C   UNL A   1      46.015  30.971  28.623  1.00  0.00     0.031 A 
ATOM     59  C   UNL A   1      44.765  24.789  27.080  1.00  0.00     0.049 A 
ATOM     60  C   UNL A   1      46.865  29.839  28.096  1.00  0.00     0.074 A 
ATOM     61  C   UNL A   1      45.613  23.847  26.523  1.00  0.00     0.029 A 
ATOM     62  N   UNL A   1      45.506  25.944  27.253  1.00  0.00    -0.354 N 
ATOM     63  N   UNL A   1      46.520  28.613  27.788  1.00  0.00    -0.248 NA
ATOM     64  C   UNL A   1      48.292  30.130  27.871  1.00  0.00     0.031 C 
ATOM     65  C   UNL A   1      46.883  24.420  26.403  1.00  0.00     0.029 A 
ATOM     66  C   UNL A   1      46.809  25.735  26.834  1.00  0.00     0.049 A 
ATOM     67  H   UNL A   1      45.158  26.790  27.618  1.00  0.00     0.167 HD
ATOM     68  C   UNL A   1      47.673  28.001  27.307  1.00  0.00     0.074 A 
ATOM     69  C   UNL A   1      48.724  28.994  27.345  1.00  0.00     0.031 C 
ATOM     70  C   UNL A   1      47.846  26.729  26.872  1.00  0.00     0.031 A 
BRANCH  57  71
ATOM     71  C   UNL A   1      42.725  23.313  27.213  1.00  0.00    -0.014 A 
ATOM     72  C   UNL A   1      42.144  22.996  25.976  1.00  0.00     0.009 A 
ATOM     73  C   UNL A   1      42.710  22.358  28.240  1.00  0.00     0.009 A 
ATOM     74  C   UNL A   1      41.535  21.757  25.780  1.00  0.00     0.001 A 
ATOM     75  C   UNL A   1      42.124  21.109  28.032  1.00  0.00     0.001 A 
ATOM     76  C   UNL A   1      41.531  20.812  26.806  1.00  0.00     0.000 A 
ENDBRANCH  57  71
BRANCH  58  77
ATOM     77  C   UNL A   1      46.641  32.299  28.876  1.00  0.00    -0.014 A 
ATOM     78  C   UNL A   1      46.880  33.194  27.822  1.00  0.00     0.009 A 
ATOM     79  C   UNL A   1      47.080  32.640  30.165  1.00  0.00     0.009 A 
ATOM     80  C   UNL A   1      47.578  34.384  28.045  1.00  0.00     0.001 A 
ATOM     81  C   UNL A   1      47.751  33.844  30.391  1.00  0.00     0.001 A 
ATOM     82  C   UNL A   1      48.011  34.709  29.329  1.00  0.00     0.000 A 
ENDBRANCH  58  77
BRANCH  70  83
ATOM     83  C   UNL A   1      49.210  26.345  26.366  1.00  0.00    -0.014 A 
ATOM     84  C   UNL A   1      49.626  26.669  25.065  1.00  0.00     0.009 A 
ATOM     85  C   UNL A   1      50.107  25.682  27.220  1.00  0.00     0.009 A 
ATOM     86  C   UNL A   1      50.899  26.306  24.618  1.00  0.00     0.001 A 
ATOM     87  C   UNL A   1      51.389  25.347  26.780  1.00  0.00     0.001 A 
ATOM     88  C   UNL A   1      51.780  25.649  25.478  1.00  0.00     0.000 A 
ENDBRANCH  70  83
ENDBRANCH  44  45
ENDBRANCH  37  39
ENDBRANCH  36  37
ENDBRANCH  35  36
ENDBRANCH  34  35
ENDBRANCH  33  34
ENDBRANCH  32  33
ENDBRANCH   1  32
TORSDOF 21
ENDMDL
MODEL 2
REMARK VINA RESULT:      -9.6      4.316      8.927
REMARK SMILES O=C(COc1ccccc1/C=C1/SC(=S)N(c2ccc(F)c(Cl)c2)C1=O)OCCOCCOCCOC(=O)c1ccc(-c2c3nc(c(-c4ccccc4)c4ccc([nH]4)c(-c4ccccc4)c4nc(c(-c5ccccc5)c5ccc2[nH]5)C=C4)C=C3)cc1
REMARK SMILES IDX 31 1 30 2 29 3 28 4 27 5 2 6 1 7 3 8 4 9 5 10 6 11 10 12
REMARK SMILES IDX 7 13 9 14 8 15 11 16 12 17 13 18 25 19 14 20 16 21 26 22
REMARK SMILES IDX 15 23 17 24 18 25 24 26 19 27 22 28 20 29 23 30 21 31 32 32
REMARK SMILES IDX 33 33 34 34 35 35 36 36 37 37 38 38 39 39 40 40 86 41 41 42
REMARK SMILES IDX 85 43 42 44 43 45 44 46 79 47 45 48 84 49 78 50 80 51 46 52
REMARK SMILES IDX 83 53 77 54 76 55 47 57 69 58 54 59 68 60 55 61 58 62 67 63
REMARK SMILES IDX 81 64 56 65 57 66 66 68 82 69 59 70 48 71 49 72 53 73 50 74
REMARK SMILES IDX 52 75 51 76 70 77 71 78 75 79 72 80 74 81 73 82 60 83 61 84
REMARK SMILES IDX 65 85 62 86 64 87 63 88
REMARK H PARENT 80 56 58 67
REMARK Flexibility Score: inf
ROOT
ATOM      1  C   UNL A   1      37.062  21.327  25.106  1.00  0.00     0.188 C 
ENDROOT
BRANCH   1   2
ATOM      2  O   UNL A   1      35.786  20.736  25.337  1.00  0.00    -0.376 OA
BRANCH   2   3
ATOM      3  C   UNL A   1      34.686  21.565  25.013  1.00  0.00     0.202 C 
BRANCH   3   4
ATOM      4  C   UNL A   1      33.917  22.061  26.229  1.00  0.00     0.261 C 
BRANCH   4   5
ATOM      5  O   UNL A   1      34.186  23.435  26.600  1.00  0.00    -0.461 OA
BRANCH   5   6
ATOM      6  C   UNL A   1      33.824  24.557  25.935  1.00  0.00     0.344 C 
ATOM      7  O   UNL A   1      34.608  25.112  25.166  1.00  0.00    -0.248 OA
BRANCH   6   8
ATOM      8  C   UNL A   1      32.446  25.092  26.165  1.00  0.00     0.351 C 
BRANCH   8   9
ATOM      9  O   UNL A   1      32.527  26.380  26.746  1.00  0.00    -0.481 OA
BRANCH   9  10
ATOM     10  C   UNL A   1      32.290  27.394  25.868  1.00  0.00     0.127 A 
ATOM     11  C   UNL A   1      31.049  27.291  25.230  1.00  0.00     0.047 A 
ATOM     12  C   UNL A   1      33.197  28.419  25.542  1.00  0.00     0.018 A 
ATOM     13  C   UNL A   1      30.667  28.233  24.286  1.00  0.00     0.004 A 
ATOM     14  C   UNL A   1      32.784  29.363  24.589  1.00  0.00     0.012 A 
ATOM     15  C   UNL A   1      31.535  29.271  23.968  1.00  0.00     0.001 A 
BRANCH  12  16
ATOM     16  C   UNL A   1      34.518  28.677  26.148  1.00  0.00     0.033 C 
ATOM     17  C   UNL A   1      34.886  29.556  27.096  1.00  0.00     0.081 C 
ATOM     18  S   UNL A   1      36.524  29.683  27.633  1.00  0.00    -0.054 SA
ATOM     19  C   UNL A   1      34.063  30.605  27.761  1.00  0.00     0.270 C 
ATOM     20  C   UNL A   1      36.228  31.160  28.545  1.00  0.00     0.152 C 
ATOM     21  N   UNL A   1      34.885  31.506  28.454  1.00  0.00    -0.261 N 
ATOM     22  O   UNL A   1      32.847  30.667  27.623  1.00  0.00    -0.268 OA
ATOM     23  S   UNL A   1      37.450  31.855  29.455  1.00  0.00    -0.051 S 
BRANCH  21  24
ATOM     24  C   UNL A   1      34.329  32.749  28.917  1.00  0.00     0.052 A 
ATOM     25  C   UNL A   1      33.863  33.708  28.002  1.00  0.00     0.030 A 
ATOM     26  C   UNL A   1      34.402  33.110  30.277  1.00  0.00     0.050 A 
ATOM     27  C   UNL A   1      33.512  34.995  28.420  1.00  0.00     0.043 A 
ATOM     28  C   UNL A   1      34.072  34.406  30.690  1.00  0.00     0.078 A 
ATOM     29  C   UNL A   1      33.633  35.342  29.759  1.00  0.00     0.141 A 
ATOM     30  Cl  UNL A   1      34.292  34.851  32.339  1.00  0.00    -0.081 Cl
ATOM     31  F   UNL A   1      33.352  36.600  30.127  1.00  0.00    -0.205 F 
ENDBRANCH  21  24
ENDBRANCH  12  16
ENDBRANCH   9  10
ENDBRANCH   8   9
ENDBRANCH   6   8
ENDBRANCH   5   6
ENDBRANCH   4   5
ENDBRANCH   3   4
ENDBRANCH   2   3
ENDBRANCH   1   2
BRANCH   1  32
ATOM     32  C   UNL A   1      36.951  22.644  24.315  1.00  0.00     0.188 C 
BRANCH  32  33
ATOM     33  O   UNL A   1      37.686  23.700  24.930  1.00  0.00    -0.376 OA
BRANCH  33  34
ATOM     34  C   UNL A   1      37.988  23.482  26.306  1.00  0.00     0.202 C 
BRANCH  34  35
ATOM     35  C   UNL A   1      39.231  24.222  26.824  1.00  0.00     0.261 C 
BRANCH  35  36
ATOM     36  O   UNL A   1      40.479  23.919  26.163  1.00  0.00    -0.460 OA
BRANCH  36  37
ATOM     37  C   UNL A   1      41.563  23.593  26.908  1.00  0.00     0.338 C 
ATOM     38  O   UNL A   1      41.834  22.506  27.365  1.00  0.00    -0.246 OA
BRANCH  37  39
ATOM     39  C   UNL A   1      42.504  24.754  26.871  1.00  0.00     0.060 A 
ATOM     40  C   UNL A   1      42.932  25.231  25.624  1.00  0.00     0.016 A 
ATOM     41  C   UNL A   1      42.877  25.438  28.035  1.00  0.00     0.016 A 
ATOM     42  C   UNL A   1      43.764  26.356  25.542  1.00  0.00     0.010 A 
ATOM     43  C   UNL A   1      43.712  26.561  27.955  1.00  0.00     0.010 A 
ATOM     44  C   UNL A   1      44.193  27.005  26.709  1.00  0.00    -0.014 A 
BRANCH  44  45
ATOM     45  C   UNL A   1      45.333  27.961  26.653  1.00  0.00     0.031 A 
ATOM     46  C   UNL A   1      45.012  29.432  26.741  1.00  0.00     0.074 A 
ATOM     47  C   UNL A   1      46.618  27.572  26.549  1.00  0.00     0.049 A 
ATOM     48  N   UNL A   1      45.817  30.464  26.725  1.00  0.00    -0.248 NA
ATOM     49  C   UNL A   1      43.586  29.782  26.863  1.00  0.00     0.031 C 
ATOM     50  C   UNL A   1      47.092  26.191  26.480  1.00  0.00     0.029 A 
ATOM     51  N   UNL A   1      47.768  28.324  26.481  1.00  0.00    -0.354 N 
ATOM     52  C   UNL A   1      44.997  31.579  26.847  1.00  0.00     0.074 A 
ATOM     53  C   UNL A   1      43.633  31.104  26.891  1.00  0.00     0.031 C 
ATOM     54  C   UNL A   1      48.435  26.197  26.373  1.00  0.00     0.029 A 
ATOM     55  C   UNL A   1      48.915  27.578  26.349  1.00  0.00     0.049 A 
ATOM     56  H   UNL A   1      47.770  29.308  26.522  1.00  0.00     0.167 HD
ATOM     57  C   UNL A   1      45.339  32.886  26.932  1.00  0.00     0.031 A 
ATOM     58  C   UNL A   1      50.201  27.966  26.216  1.00  0.00     0.031 A 
ATOM     59  C   UNL A   1      46.683  33.385  26.864  1.00  0.00     0.049 A 
ATOM     60  C   UNL A   1      50.550  29.436  26.227  1.00  0.00     0.074 A 
ATOM     61  C   UNL A   1      47.119  34.697  26.941  1.00  0.00     0.029 A 
ATOM     62  N   UNL A   1      47.807  32.597  26.693  1.00  0.00    -0.354 N 
ATOM     63  N   UNL A   1      49.767  30.475  26.388  1.00  0.00    -0.248 NA
ATOM     64  C   UNL A   1      51.970  29.783  26.049  1.00  0.00     0.031 C 
ATOM     65  C   UNL A   1      48.506  34.706  26.767  1.00  0.00     0.029 A 
ATOM     66  C   UNL A   1      48.937  33.395  26.639  1.00  0.00     0.049 A 
ATOM     67  H   UNL A   1      47.804  31.615  26.622  1.00  0.00     0.167 HD
ATOM     68  C   UNL A   1      50.601  31.588  26.362  1.00  0.00     0.074 A 
ATOM     69  C   UNL A   1      51.951  31.100  26.188  1.00  0.00     0.031 C 
ATOM     70  C   UNL A   1      50.276  32.900  26.470  1.00  0.00     0.031 A 
BRANCH  57  71
ATOM     71  C   UNL A   1      44.220  33.874  27.094  1.00  0.00    -0.014 A 
ATOM     72  C   UNL A   1      43.714  34.190  28.364  1.00  0.00     0.009 A 
ATOM     73  C   UNL A   1      43.686  34.516  25.966  1.00  0.00     0.009 A 
ATOM     74  C   UNL A   1      42.674  35.110  28.499  1.00  0.00     0.001 A 
ATOM     75  C   UNL A   1      42.664  35.455  26.107  1.00  0.00     0.001 A 
ATOM     76  C   UNL A   1      42.155  35.746  27.372  1.00  0.00     0.000 A 
ENDBRANCH  57  71
BRANCH  58  77
ATOM     77  C   UNL A   1      51.285  26.960  26.038  1.00  0.00    -0.014 A 
ATOM     78  C   UNL A   1      51.617  26.479  24.762  1.00  0.00     0.009 A 
ATOM     79  C   UNL A   1      51.935  26.415  27.156  1.00  0.00     0.009 A 
ATOM     80  C   UNL A   1      52.549  25.447  24.612  1.00  0.00     0.001 A 
ATOM     81  C   UNL A   1      52.887  25.404  27.001  1.00  0.00     0.001 A 
ATOM     82  C   UNL A   1      53.184  24.912  25.731  1.00  0.00     0.000 A 
ENDBRANCH  58  77
BRANCH  70  83
ATOM     83  C   UNL A   1      51.400  33.901  26.444  1.00  0.00    -0.014 A 
ATOM     84  C   UNL A   1      51.753  34.573  25.264  1.00  0.00     0.009 A 
ATOM     85  C   UNL A   1      52.089  34.203  27.630  1.00  0.00     0.009 A 
ATOM     86  C   UNL A   1      52.798  35.501  25.265  1.00  0.00     0.001 A 
ATOM     87  C   UNL A   1      53.112  35.152  27.634  1.00  0.00     0.001 A 
ATOM     88  C   UNL A   1      53.473  35.792  26.450  1.00  0.00     0.000 A 
ENDBRANCH  70  83
ENDBRANCH  44  45
ENDBRANCH  37  39
ENDBRANCH  36  37
ENDBRANCH  35  36
ENDBRANCH  34  35
ENDBRANCH  33  34
ENDBRANCH  32  33
ENDBRANCH   1  32
TORSDOF 21
ENDMDL
MODEL 3
REMARK VINA RESULT:      -9.6      4.323      8.415
REMARK SMILES O=C(COc1ccccc1/C=C1/SC(=S)N(c2ccc(F)c(Cl)c2)C1=O)OCCOCCOCCOC(=O)c1ccc(-c2c3nc(c(-c4ccccc4)c4ccc([nH]4)c(-c4ccccc4)c4nc(c(-c5ccccc5)c5ccc2[nH]5)C=C4)C=C3)cc1
REMARK SMILES IDX 31 1 30 2 29 3 28 4 27 5 2 6 1 7 3 8 4 9 5 10 6 11 10 12
REMARK SMILES IDX 7 13 9 14 8 15 11 16 12 17 13 18 25 19 14 20 16 21 26 22
REMARK SMILES IDX 15 23 17 24 18 25 24 26 19 27 22 28 20 29 23 30 21 31 32 32
REMARK SMILES IDX 33 33 34 34 35 35 36 36 37 37 38 38 39 39 40 40 86 41 41 42
REMARK SMILES IDX 85 43 42 44 43 45 44 46 79 47 45 48 84 49 78 50 80 51 46 52
REMARK SMILES IDX 83 53 77 54 76 55 47 57 69 58 54 59 68 60 55 61 58 62 67 63
REMARK SMILES IDX 81 64 56 65 57 66 66 68 82 69 59 70 48 71 49 72 53 73 50 74
REMARK SMILES IDX 52 75 51 76 70 77 71 78 75 79 72 80 74 81 73 82 60 83 61 84
REMARK SMILES IDX 65 85 62 86 64 87 63 88
REMARK H PARENT 80 56 58 67
REMARK Flexibility Score: inf
ROOT
ATOM      1  C   UNL A   1      37.007  21.196  25.053  1.00  0.00     0.188 C 
ENDROOT
BRANCH   1   2
ATOM      2  O   UNL A   1      35.711  20.639  25.259  1.00  0.00    -0.376 OA
BRANCH   2   3
ATOM      3  C   UNL A   1      34.641  21.486  24.884  1.00  0.00     0.202 C 
BRANCH   3   4
ATOM      4  C   UNL A   1      33.849  22.027  26.066  1.00  0.00     0.261 C 
BRANCH   4   5
ATOM      5  O   UNL A   1      34.211  23.367  26.478  1.00  0.00    -0.461 OA
BRANCH   5   6
ATOM      6  C   UNL A   1      33.854  24.537  25.896  1.00  0.00     0.344 C 
ATOM      7  O   UNL A   1      34.645  25.148  25.179  1.00  0.00    -0.248 OA
BRANCH   6   8
ATOM      8  C   UNL A   1      32.473  25.051  26.151  1.00  0.00     0.351 C 
BRANCH   8   9
ATOM      9  O   UNL A   1      32.546  26.334  26.746  1.00  0.00    -0.481 OA
BRANCH   9  10
ATOM     10  C   UNL A   1      32.270  27.353  25.886  1.00  0.00     0.127 A 
ATOM     11  C   UNL A   1      31.007  27.246  25.292  1.00  0.00     0.047 A 
ATOM     12  C   UNL A   1      33.156  28.389  25.537  1.00  0.00     0.018 A 
ATOM     13  C   UNL A   1      30.585  28.193  24.371  1.00  0.00     0.004 A 
ATOM     14  C   UNL A   1      32.703  29.338  24.609  1.00  0.00     0.012 A 
ATOM     15  C   UNL A   1      31.433  29.242  24.032  1.00  0.00     0.001 A 
BRANCH  12  16
ATOM     16  C   UNL A   1      34.496  28.652  26.099  1.00  0.00     0.033 C 
ATOM     17  C   UNL A   1      34.891  29.524  27.043  1.00  0.00     0.081 C 
ATOM     18  S   UNL A   1      36.545  29.659  27.522  1.00  0.00    -0.054 SA
ATOM     19  C   UNL A   1      34.083  30.558  27.749  1.00  0.00     0.270 C 
ATOM     20  C   UNL A   1      36.270  31.124  28.461  1.00  0.00     0.152 C 
ATOM     21  N   UNL A   1      34.921  31.458  28.422  1.00  0.00    -0.261 N 
ATOM     22  O   UNL A   1      32.862  30.610  27.655  1.00  0.00    -0.268 OA
ATOM     23  S   UNL A   1      37.518  31.819  29.334  1.00  0.00    -0.051 S 
BRANCH  21  24
ATOM     24  C   UNL A   1      34.372  32.691  28.919  1.00  0.00     0.052 A 
ATOM     25  C   UNL A   1      33.876  33.661  28.032  1.00  0.00     0.030 A 
ATOM     26  C   UNL A   1      34.480  33.032  30.281  1.00  0.00     0.050 A 
ATOM     27  C   UNL A   1      33.530  34.940  28.478  1.00  0.00     0.043 A 
ATOM     28  C   UNL A   1      34.155  34.320  30.723  1.00  0.00     0.078 A 
ATOM     29  C   UNL A   1      33.686  35.267  29.819  1.00  0.00     0.141 A 
ATOM     30  Cl  UNL A   1      34.416  34.740  32.373  1.00  0.00    -0.081 Cl
ATOM     31  F   UNL A   1      33.407  36.518  30.214  1.00  0.00    -0.205 F 
ENDBRANCH  21  24
ENDBRANCH  12  16
ENDBRANCH   9  10
ENDBRANCH   8   9
ENDBRANCH   6   8
ENDBRANCH   5   6
ENDBRANCH   4   5
ENDBRANCH   3   4
ENDBRANCH   2   3
ENDBRANCH   1   2
BRANCH   1  32
ATOM     32  C   UNL A   1      36.943  22.532  24.289  1.00  0.00     0.188 C 
BRANCH  32  33
ATOM     33  O   UNL A   1      37.582  23.588  25.005  1.00  0.00    -0.376 OA
BRANCH  33  34
ATOM     34  C   UNL A   1      38.271  23.168  26.180  1.00  0.00     0.202 C 
BRANCH  34  35
ATOM     35  C   UNL A   1      39.132  24.249  26.851  1.00  0.00     0.261 C 
BRANCH  35  36
ATOM     36  O   UNL A   1      40.465  24.426  26.323  1.00  0.00    -0.460 OA
BRANCH  36  37
ATOM     37  C   UNL A   1      41.521  23.924  27.009  1.00  0.00     0.338 C 
ATOM     38  O   UNL A   1      41.633  22.809  27.462  1.00  0.00    -0.246 OA
BRANCH  37  39
ATOM     39  C   UNL A   1      42.640  24.911  26.903  1.00  0.00     0.060 A 
ATOM     40  C   UNL A   1      43.201  25.419  28.084  1.00  0.00     0.016 A 
ATOM     41  C   UNL A   1      43.207  25.252  25.668  1.00  0.00     0.016 A 
ATOM     42  C   UNL A   1      44.293  26.297  28.030  1.00  0.00     0.010 A 
ATOM     43  C   UNL A   1      44.295  26.133  25.613  1.00  0.00     0.010 A 
ATOM     44  C   UNL A   1      44.822  26.692  26.793  1.00  0.00    -0.014 A 
BRANCH  44  45
ATOM     45  C   UNL A   1      45.729  27.870  26.714  1.00  0.00     0.031 A 
ATOM     46  C   UNL A   1      47.208  27.602  26.588  1.00  0.00     0.074 A 
ATOM     47  C   UNL A   1      45.290  29.143  26.729  1.00  0.00     0.049 A 
ATOM     48  N   UNL A   1      48.205  28.445  26.494  1.00  0.00    -0.248 NA
ATOM     49  C   UNL A   1      47.614  26.185  26.569  1.00  0.00     0.031 C 
ATOM     50  C   UNL A   1      43.894  29.566  26.819  1.00  0.00     0.029 A 
ATOM     51  N   UNL A   1      45.994  30.323  26.670  1.00  0.00    -0.354 N 
ATOM     52  C   UNL A   1      49.348  27.662  26.391  1.00  0.00     0.074 A 
ATOM     53  C   UNL A   1      48.931  26.282  26.480  1.00  0.00     0.031 C 
ATOM     54  C   UNL A   1      43.845  30.912  26.815  1.00  0.00     0.029 A 
ATOM     55  C   UNL A   1      45.205  31.447  26.740  1.00  0.00     0.049 A 
ATOM     56  H   UNL A   1      46.974  30.361  26.587  1.00  0.00     0.167 HD
ATOM     57  C   UNL A   1      50.634  28.048  26.222  1.00  0.00     0.031 A 
ATOM     58  C   UNL A   1      45.542  32.754  26.750  1.00  0.00     0.031 A 
ATOM     59  C   UNL A   1      51.077  29.411  26.158  1.00  0.00     0.049 A 
ATOM     60  C   UNL A   1      46.994  33.158  26.647  1.00  0.00     0.074 A 
ATOM     61  C   UNL A   1      52.365  29.891  25.989  1.00  0.00     0.029 A 
ATOM     62  N   UNL A   1      50.249  30.514  26.270  1.00  0.00    -0.354 N 
ATOM     63  N   UNL A   1      48.059  32.407  26.506  1.00  0.00    -0.248 NA
ATOM     64  C   UNL A   1      47.287  34.601  26.693  1.00  0.00     0.031 C 
ATOM     65  C   UNL A   1      52.321  31.287  26.048  1.00  0.00     0.029 A 
ATOM     66  C   UNL A   1      50.999  31.675  26.197  1.00  0.00     0.049 A 
ATOM     67  H   UNL A   1      49.272  30.478  26.384  1.00  0.00     0.167 HD
ATOM     68  C   UNL A   1      49.135  33.283  26.415  1.00  0.00     0.074 A 
ATOM     69  C   UNL A   1      48.597  34.623  26.499  1.00  0.00     0.031 C 
ATOM     70  C   UNL A   1      50.454  33.003  26.277  1.00  0.00     0.031 A 
BRANCH  57  71
ATOM     71  C   UNL A   1      51.663  26.959  26.110  1.00  0.00    -0.014 A 
ATOM     72  C   UNL A   1      52.391  26.537  27.232  1.00  0.00     0.009 A 
ATOM     73  C   UNL A   1      51.885  26.332  24.875  1.00  0.00     0.009 A 
ATOM     74  C   UNL A   1      53.344  25.525  27.114  1.00  0.00     0.001 A 
ATOM     75  C   UNL A   1      52.820  25.302  24.766  1.00  0.00     0.001 A 
ATOM     76  C   UNL A   1      53.553  24.904  25.883  1.00  0.00     0.000 A 
ENDBRANCH  57  71
BRANCH  58  77
ATOM     77  C   UNL A   1      44.498  33.808  26.882  1.00  0.00    -0.014 A 
ATOM     78  C   UNL A   1      44.041  34.214  28.146  1.00  0.00     0.009 A 
ATOM     79  C   UNL A   1      43.895  34.354  25.739  1.00  0.00     0.009 A 
ATOM     80  C   UNL A   1      42.977  35.113  28.262  1.00  0.00     0.001 A 
ATOM     81  C   UNL A   1      42.850  35.275  25.857  1.00  0.00     0.001 A 
ATOM     82  C   UNL A   1      42.384  35.643  27.118  1.00  0.00     0.000 A 
ENDBRANCH  58  77
BRANCH  70  83
ATOM     83  C   UNL A   1      51.406  34.163  26.167  1.00  0.00    -0.014 A 
ATOM     84  C   UNL A   1      52.296  34.480  27.205  1.00  0.00     0.009 A 
ATOM     85  C   UNL A   1      51.438  34.927  24.990  1.00  0.00     0.009 A 
ATOM     86  C   UNL A   1      53.173  35.560  27.080  1.00  0.00     0.001 A 
ATOM     87  C   UNL A   1      52.335  35.987  24.855  1.00  0.00     0.001 A 
ATOM     88  C   UNL A   1      53.194  36.310  25.903  1.00  0.00     0.000 A 
ENDBRANCH  70  83
ENDBRANCH  44  45
ENDBRANCH  37  39
ENDBRANCH  36  37
ENDBRANCH  35  36
ENDBRANCH  34  35
ENDBRANCH  33  34
ENDBRANCH  32  33
ENDBRANCH   1  32
TORSDOF 21
ENDMDL
