MODEL 1
REMARK VINA RESULT:      -9.3      0.000      0.000
REMARK SMILES O=C(OCCOCCOCCOC(=O)[C@@H]1CC[C@H](CNC(=O)c2cccn2C2CC2)O1)c1ccc(-c2c3nc(c(-c4ccccc4)c4ccc([nH]4)c(-c4ccccc4)c4nc(c(-c5ccccc5)c5ccc2[nH]5)C=C4)C=C3)cc1
REMARK SMILES IDX 8 1 7 2 6 3 5 4 4 5 3 6 2 7 1 8 32 9 33 10 79 11 34 12 78 13
REMARK SMILES IDX 35 14 36 15 37 16 72 17 38 18 77 19 71 20 73 21 39 22 76 23
REMARK SMILES IDX 70 24 69 25 40 27 62 28 47 29 61 30 48 31 51 32 60 33 74 34
REMARK SMILES IDX 49 35 50 36 59 38 75 39 52 40 41 41 42 42 46 43 43 44 45 45
REMARK SMILES IDX 44 46 63 47 64 48 68 49 65 50 67 51 66 52 53 53 54 54 58 55
REMARK SMILES IDX 55 56 57 57 56 58 9 59 10 60 11 61 12 62 13 63 14 64 15 65
REMARK SMILES IDX 16 66 31 67 17 68 18 69 19 70 20 71 21 72 22 74 23 75 24 76
REMARK SMILES IDX 27 77 25 78 26 79 28 80 29 81 30 82
REMARK H PARENT 73 26 51 37 20 73
REMARK Flexibility Score: inf
ROOT
ATOM      1  C   UNL A   1      34.588  33.242  28.056  1.00  0.00     0.188 C 
ENDROOT
BRANCH   1   2
ATOM      2  C   UNL A   1      33.343  34.150  28.013  1.00  0.00     0.188 C 
BRANCH   2   3
ATOM      3  O   UNL A   1      32.803  34.458  29.287  1.00  0.00    -0.376 OA
BRANCH   3   4
ATOM      4  C   UNL A   1      33.572  35.364  30.061  1.00  0.00     0.202 C 
BRANCH   4   5
ATOM      5  C   UNL A   1      33.751  34.979  31.538  1.00  0.00     0.261 C 
BRANCH   5   6
ATOM      6  O   UNL A   1      34.063  33.590  31.802  1.00  0.00    -0.460 OA
BRANCH   6   7
ATOM      7  C   UNL A   1      34.925  32.949  32.613  1.00  0.00     0.338 C 
ATOM      8  O   UNL A   1      34.769  33.049  33.830  1.00  0.00    -0.246 OA
BRANCH   7   9
ATOM      9  C   UNL A   1      36.131  32.212  32.136  1.00  0.00     0.060 A 
ATOM     10  C   UNL A   1      36.985  31.464  32.940  1.00  0.00     0.016 A 
ATOM     11  C   UNL A   1      36.429  32.305  30.758  1.00  0.00     0.016 A 
ATOM     12  C   UNL A   1      38.061  30.770  32.396  1.00  0.00     0.010 A 
ATOM     13  C   UNL A   1      37.554  31.680  30.215  1.00  0.00     0.010 A 
ATOM     14  C   UNL A   1      38.375  30.914  31.044  1.00  0.00    -0.014 A 
BRANCH  14  15
ATOM     15  C   UNL A   1      39.693  30.404  30.610  1.00  0.00     0.031 A 
ATOM     16  C   UNL A   1      40.832  31.394  30.621  1.00  0.00     0.074 A 
ATOM     17  C   UNL A   1      39.684  29.128  30.134  1.00  0.00     0.049 A 
ATOM     18  N   UNL A   1      41.907  31.410  29.892  1.00  0.00    -0.248 NA
ATOM     19  C   UNL A   1      40.746  32.559  31.529  1.00  0.00     0.031 C 
ATOM     20  C   UNL A   1      38.487  28.271  30.158  1.00  0.00     0.029 A 
ATOM     21  N   UNL A   1      40.615  28.310  29.532  1.00  0.00    -0.354 N 
ATOM     22  C   UNL A   1      42.688  32.488  30.334  1.00  0.00     0.074 A 
ATOM     23  C   UNL A   1      41.882  33.212  31.280  1.00  0.00     0.031 C 
ATOM     24  C   UNL A   1      38.736  27.096  29.561  1.00  0.00     0.029 A 
ATOM     25  C   UNL A   1      40.111  27.063  29.106  1.00  0.00     0.049 A 
ATOM     26  H   UNL A   1      41.556  28.573  29.410  1.00  0.00     0.167 HD
ATOM     27  C   UNL A   1      43.996  32.675  29.998  1.00  0.00     0.031 A 
ATOM     28  C   UNL A   1      40.722  26.063  28.407  1.00  0.00     0.031 A 
ATOM     29  C   UNL A   1      44.470  31.723  29.046  1.00  0.00     0.049 A 
ATOM     30  C   UNL A   1      42.134  26.448  28.198  1.00  0.00     0.074 A 
ATOM     31  C   UNL A   1      44.343  31.546  27.690  1.00  0.00     0.029 A 
ATOM     32  N   UNL A   1      45.121  30.620  29.542  1.00  0.00    -0.354 N 
ATOM     33  N   UNL A   1      43.035  26.513  29.132  1.00  0.00    -0.248 NA
ATOM     34  C   UNL A   1      42.584  26.857  26.863  1.00  0.00     0.031 C 
ATOM     35  C   UNL A   1      44.602  30.167  27.463  1.00  0.00     0.029 A 
ATOM     36  C   UNL A   1      44.824  29.567  28.702  1.00  0.00     0.049 A 
ATOM     37  H   UNL A   1      45.691  30.587  30.344  1.00  0.00     0.167 HD
ATOM     38  C   UNL A   1      44.018  27.302  28.578  1.00  0.00     0.074 A 
ATOM     39  C   UNL A   1      43.821  27.258  27.148  1.00  0.00     0.031 C 
ATOM     40  C   UNL A   1      44.605  28.277  29.320  1.00  0.00     0.031 A 
BRANCH  27  41
ATOM     41  C   UNL A   1      44.998  33.586  30.652  1.00  0.00    -0.014 A 
ATOM     42  C   UNL A   1      45.455  34.707  29.925  1.00  0.00     0.009 A 
ATOM     43  C   UNL A   1      45.694  33.256  31.823  1.00  0.00     0.009 A 
ATOM     44  C   UNL A   1      46.576  35.439  30.327  1.00  0.00     0.001 A 
ATOM     45  C   UNL A   1      46.796  34.010  32.248  1.00  0.00     0.001 A 
ATOM     46  C   UNL A   1      47.249  35.088  31.490  1.00  0.00     0.000 A 
ENDBRANCH  27  41
BRANCH  28  47
ATOM     47  C   UNL A   1      40.247  24.767  27.804  1.00  0.00    -0.014 A 
ATOM     48  C   UNL A   1      39.058  24.597  27.083  1.00  0.00     0.009 A 
ATOM     49  C   UNL A   1      41.054  23.610  27.921  1.00  0.00     0.009 A 
ATOM     50  C   UNL A   1      38.724  23.379  26.467  1.00  0.00     0.001 A 
ATOM     51  C   UNL A   1      40.740  22.399  27.292  1.00  0.00     0.001 A 
ATOM     52  C   UNL A   1      39.574  22.286  26.554  1.00  0.00     0.000 A 
ENDBRANCH  28  47
BRANCH  40  53
ATOM     53  C   UNL A   1      44.445  28.090  30.818  1.00  0.00    -0.014 A 
ATOM     54  C   UNL A   1      43.404  28.702  31.523  1.00  0.00     0.009 A 
ATOM     55  C   UNL A   1      45.406  27.383  31.563  1.00  0.00     0.009 A 
ATOM     56  C   UNL A   1      43.334  28.606  32.921  1.00  0.00     0.001 A 
ATOM     57  C   UNL A   1      45.335  27.269  32.952  1.00  0.00     0.001 A 
ATOM     58  C   UNL A   1      44.296  27.889  33.633  1.00  0.00     0.000 A 
ENDBRANCH  40  53
ENDBRANCH  14  15
ENDBRANCH   7   9
ENDBRANCH   6   7
ENDBRANCH   5   6
ENDBRANCH   4   5
ENDBRANCH   3   4
ENDBRANCH   2   3
ENDBRANCH   1   2
BRANCH   1  59
ATOM     59  O   UNL A   1      34.552  31.995  27.368  1.00  0.00    -0.376 OA
BRANCH  59  60
ATOM     60  C   UNL A   1      33.602  31.009  27.774  1.00  0.00     0.202 C 
BRANCH  60  61
ATOM     61  C   UNL A   1      32.561  30.583  26.737  1.00  0.00     0.261 C 
BRANCH  61  62
ATOM     62  O   UNL A   1      33.018  29.455  25.971  1.00  0.00    -0.461 OA
BRANCH  62  63
ATOM     63  C   UNL A   1      32.079  28.497  25.738  1.00  0.00     0.335 C 
ATOM     64  O   UNL A   1      31.803  27.602  26.516  1.00  0.00    -0.249 OA
BRANCH  63  65
ATOM     65  C   UNL A   1      31.346  28.762  24.406  1.00  0.00     0.228 C 
ATOM     66  C   UNL A   1      30.415  27.596  24.061  1.00  0.00     0.047 C 
ATOM     67  O   UNL A   1      32.263  28.890  23.307  1.00  0.00    -0.361 OA
ATOM     68  C   UNL A   1      30.822  27.184  22.660  1.00  0.00     0.037 C 
ATOM     69  C   UNL A   1      32.261  27.657  22.562  1.00  0.00     0.138 C 
BRANCH  69  70
ATOM     70  C   UNL A   1      33.273  26.686  23.190  1.00  0.00     0.148 C 
BRANCH  70  71
ATOM     71  N   UNL A   1      33.618  25.555  22.345  1.00  0.00    -0.348 N 
ATOM     72  C   UNL A   1      33.266  24.252  22.502  1.00  0.00     0.268 C 
ATOM     73  H   UNL A   1      34.178  25.757  21.561  1.00  0.00     0.163 HD
ATOM     74  O   UNL A   1      33.554  23.472  21.561  1.00  0.00    -0.268 OA
BRANCH  72  75
ATOM     75  C   UNL A   1      32.563  23.822  23.673  1.00  0.00     0.107 A 
ATOM     76  C   UNL A   1      31.176  23.703  23.818  1.00  0.00     0.033 A 
ATOM     77  N   UNL A   1      33.102  23.349  24.855  1.00  0.00    -0.340 N 
ATOM     78  C   UNL A   1      30.894  23.174  25.095  1.00  0.00     0.020 A 
ATOM     79  C   UNL A   1      32.104  22.939  25.702  1.00  0.00     0.086 A 
BRANCH  77  80
ATOM     80  C   UNL A   1      34.483  23.332  25.308  1.00  0.00     0.087 C 
ATOM     81  C   UNL A   1      35.116  22.362  26.281  1.00  0.00     0.027 C 
ATOM     82  C   UNL A   1      35.447  22.260  24.832  1.00  0.00     0.027 C 
ENDBRANCH  77  80
ENDBRANCH  72  75
ENDBRANCH  70  71
ENDBRANCH  69  70
ENDBRANCH  63  65
ENDBRANCH  62  63
ENDBRANCH  61  62
ENDBRANCH  60  61
ENDBRANCH  59  60
ENDBRANCH   1  59
TORSDOF 21
ENDMDL
MODEL 2
REMARK VINA RESULT:      -9.3      3.149      8.606
REMARK SMILES O=C(OCCOCCOCCOC(=O)[C@@H]1CC[C@H](CNC(=O)c2cccn2C2CC2)O1)c1ccc(-c2c3nc(c(-c4ccccc4)c4ccc([nH]4)c(-c4ccccc4)c4nc(c(-c5ccccc5)c5ccc2[nH]5)C=C4)C=C3)cc1
REMARK SMILES IDX 8 1 7 2 6 3 5 4 4 5 3 6 2 7 1 8 32 9 33 10 79 11 34 12 78 13
REMARK SMILES IDX 35 14 36 15 37 16 72 17 38 18 77 19 71 20 73 21 39 22 76 23
REMARK SMILES IDX 70 24 69 25 40 27 62 28 47 29 61 30 48 31 51 32 60 33 74 34
REMARK SMILES IDX 49 35 50 36 59 38 75 39 52 40 41 41 42 42 46 43 43 44 45 45
REMARK SMILES IDX 44 46 63 47 64 48 68 49 65 50 67 51 66 52 53 53 54 54 58 55
REMARK SMILES IDX 55 56 57 57 56 58 9 59 10 60 11 61 12 62 13 63 14 64 15 65
REMARK SMILES IDX 16 66 31 67 17 68 18 69 19 70 20 71 21 72 22 74 23 75 24 76
REMARK SMILES IDX 27 77 25 78 26 79 28 80 29 81 30 82
REMARK H PARENT 73 26 51 37 20 73
REMARK Flexibility Score: inf
ROOT
ATOM      1  C   UNL A   1      39.225  20.487  25.784  1.00  0.00     0.188 C 
ENDROOT
BRANCH   1   2
ATOM      2  C   UNL A   1      40.558  20.510  26.557  1.00  0.00     0.188 C 
BRANCH   2   3
ATOM      3  O   UNL A   1      40.501  21.196  27.796  1.00  0.00    -0.376 OA
BRANCH   3   4
ATOM      4  C   UNL A   1      41.476  22.214  27.963  1.00  0.00     0.202 C 
BRANCH   4   5
ATOM      5  C   UNL A   1      41.729  23.089  26.725  1.00  0.00     0.261 C 
BRANCH   5   6
ATOM      6  O   UNL A   1      40.754  24.128  26.468  1.00  0.00    -0.460 OA
BRANCH   6   7
ATOM      7  C   UNL A   1      40.819  25.441  26.183  1.00  0.00     0.338 C 
ATOM      8  O   UNL A   1      41.260  25.781  25.085  1.00  0.00    -0.246 OA
BRANCH   7   9
ATOM      9  C   UNL A   1      40.498  26.524  27.157  1.00  0.00     0.060 A 
ATOM     10  C   UNL A   1      40.845  27.864  27.012  1.00  0.00     0.016 A 
ATOM     11  C   UNL A   1      39.802  26.143  28.326  1.00  0.00     0.016 A 
ATOM     12  C   UNL A   1      40.460  28.813  27.952  1.00  0.00     0.010 A 
ATOM     13  C   UNL A   1      39.482  27.075  29.317  1.00  0.00     0.010 A 
ATOM     14  C   UNL A   1      39.819  28.415  29.127  1.00  0.00    -0.014 A 
BRANCH  14  15
ATOM     15  C   UNL A   1      39.721  29.423  30.204  1.00  0.00     0.031 A 
ATOM     16  C   UNL A   1      40.559  29.174  31.434  1.00  0.00     0.074 A 
ATOM     17  C   UNL A   1      38.785  30.389  29.998  1.00  0.00     0.049 A 
ATOM     18  N   UNL A   1      40.348  29.557  32.658  1.00  0.00    -0.248 NA
ATOM     19  C   UNL A   1      41.773  28.339  31.304  1.00  0.00     0.031 C 
ATOM     20  C   UNL A   1      38.010  30.505  28.751  1.00  0.00     0.029 A 
ATOM     21  N   UNL A   1      38.276  31.425  30.752  1.00  0.00    -0.354 N 
ATOM     22  C   UNL A   1      41.451  29.141  33.415  1.00  0.00     0.074 A 
ATOM     23  C   UNL A   1      42.252  28.318  32.549  1.00  0.00     0.031 C 
ATOM     24  C   UNL A   1      37.109  31.494  28.845  1.00  0.00     0.029 A 
ATOM     25  C   UNL A   1      37.213  32.126  30.144  1.00  0.00     0.049 A 
ATOM     26  H   UNL A   1      38.625  31.657  31.643  1.00  0.00     0.167 HD
ATOM     27  C   UNL A   1      41.724  29.580  34.677  1.00  0.00     0.031 A 
ATOM     28  C   UNL A   1      36.432  33.131  30.634  1.00  0.00     0.031 A 
ATOM     29  C   UNL A   1      40.702  30.423  35.208  1.00  0.00     0.049 A 
ATOM     30  C   UNL A   1      36.931  33.483  31.981  1.00  0.00     0.074 A 
ATOM     31  C   UNL A   1      39.455  30.232  35.747  1.00  0.00     0.029 A 
ATOM     32  N   UNL A   1      40.886  31.779  35.077  1.00  0.00    -0.354 N 
ATOM     33  N   UNL A   1      38.062  34.076  32.225  1.00  0.00    -0.248 NA
ATOM     34  C   UNL A   1      36.156  33.097  33.165  1.00  0.00     0.031 C 
ATOM     35  C   UNL A   1      38.778  31.472  35.587  1.00  0.00     0.029 A 
ATOM     36  C   UNL A   1      39.637  32.338  34.912  1.00  0.00     0.049 A 
ATOM     37  H   UNL A   1      41.745  32.258  35.097  1.00  0.00     0.167 HD
ATOM     38  C   UNL A   1      38.289  33.801  33.556  1.00  0.00     0.074 A 
ATOM     39  C   UNL A   1      37.010  33.448  34.125  1.00  0.00     0.031 C 
ATOM     40  C   UNL A   1      39.528  33.434  33.971  1.00  0.00     0.031 A 
BRANCH  27  41
ATOM     41  C   UNL A   1      43.014  29.458  35.441  1.00  0.00    -0.014 A 
ATOM     42  C   UNL A   1      44.168  30.069  34.907  1.00  0.00     0.009 A 
ATOM     43  C   UNL A   1      43.197  28.567  36.509  1.00  0.00     0.009 A 
ATOM     44  C   UNL A   1      45.448  29.776  35.388  1.00  0.00     0.001 A 
ATOM     45  C   UNL A   1      44.476  28.299  37.017  1.00  0.00     0.001 A 
ATOM     46  C   UNL A   1      45.601  28.887  36.443  1.00  0.00     0.000 A 
ENDBRANCH  27  41
BRANCH  28  47
ATOM     47  C   UNL A   1      35.213  33.854  30.123  1.00  0.00    -0.014 A 
ATOM     48  C   UNL A   1      34.347  34.631  30.903  1.00  0.00     0.009 A 
ATOM     49  C   UNL A   1      34.899  33.797  28.745  1.00  0.00     0.009 A 
ATOM     50  C   UNL A   1      33.281  35.354  30.342  1.00  0.00     0.001 A 
ATOM     51  C   UNL A   1      33.852  34.531  28.173  1.00  0.00     0.001 A 
ATOM     52  C   UNL A   1      33.045  35.321  28.975  1.00  0.00     0.000 A 
ENDBRANCH  28  47
BRANCH  40  53
ATOM     53  C   UNL A   1      40.638  33.813  33.008  1.00  0.00    -0.014 A 
ATOM     54  C   UNL A   1      41.436  34.943  33.221  1.00  0.00     0.009 A 
ATOM     55  C   UNL A   1      40.827  33.103  31.809  1.00  0.00     0.009 A 
ATOM     56  C   UNL A   1      42.384  35.339  32.266  1.00  0.00     0.001 A 
ATOM     57  C   UNL A   1      41.779  33.481  30.862  1.00  0.00     0.001 A 
ATOM     58  C   UNL A   1      42.557  34.608  31.090  1.00  0.00     0.000 A 
ENDBRANCH  40  53
ENDBRANCH  14  15
ENDBRANCH   7   9
ENDBRANCH   6   7
ENDBRANCH   5   6
ENDBRANCH   4   5
ENDBRANCH   3   4
ENDBRANCH   2   3
ENDBRANCH   1   2
BRANCH   1  59
ATOM     59  O   UNL A   1      38.439  21.675  25.735  1.00  0.00    -0.376 OA
BRANCH  59  60
ATOM     60  C   UNL A   1      37.273  21.699  24.910  1.00  0.00     0.202 C 
BRANCH  60  61
ATOM     61  C   UNL A   1      36.067  20.890  25.393  1.00  0.00     0.261 C 
BRANCH  61  62
ATOM     62  O   UNL A   1      34.832  21.507  24.993  1.00  0.00    -0.461 OA
BRANCH  62  63
ATOM     63  C   UNL A   1      33.757  21.209  25.775  1.00  0.00     0.335 C 
ATOM     64  O   UNL A   1      33.789  21.155  26.991  1.00  0.00    -0.249 OA
BRANCH  63  65
ATOM     65  C   UNL A   1      32.484  21.054  24.918  1.00  0.00     0.228 C 
ATOM     66  C   UNL A   1      32.772  21.403  23.455  1.00  0.00     0.047 C 
ATOM     67  O   UNL A   1      31.438  21.940  25.349  1.00  0.00    -0.361 OA
ATOM     68  C   UNL A   1      31.737  22.453  23.102  1.00  0.00     0.037 C 
ATOM     69  C   UNL A   1      31.385  23.061  24.447  1.00  0.00     0.138 C 
BRANCH  69  70
ATOM     70  C   UNL A   1      32.379  24.135  24.916  1.00  0.00     0.148 C 
BRANCH  70  71
ATOM     71  N   UNL A   1      31.891  24.965  26.004  1.00  0.00    -0.348 N 
ATOM     72  C   UNL A   1      31.836  26.322  26.065  1.00  0.00     0.268 C 
ATOM     73  H   UNL A   1      31.560  24.486  26.797  1.00  0.00     0.163 HD
ATOM     74  O   UNL A   1      31.231  26.818  27.048  1.00  0.00    -0.268 OA
BRANCH  72  75
ATOM     75  C   UNL A   1      32.407  27.123  25.025  1.00  0.00     0.107 A 
ATOM     76  C   UNL A   1      33.648  27.771  25.057  1.00  0.00     0.033 A 
ATOM     77  N   UNL A   1      31.906  27.342  23.756  1.00  0.00    -0.340 N 
ATOM     78  C   UNL A   1      33.873  28.388  23.809  1.00  0.00     0.020 A 
ATOM     79  C   UNL A   1      32.793  28.083  23.016  1.00  0.00     0.086 A 
BRANCH  77  80
ATOM     80  C   UNL A   1      30.612  26.996  23.193  1.00  0.00     0.087 C 
ATOM     81  C   UNL A   1      29.352  26.629  23.947  1.00  0.00     0.027 C 
ATOM     82  C   UNL A   1      29.440  27.957  23.279  1.00  0.00     0.027 C 
ENDBRANCH  77  80
ENDBRANCH  72  75
ENDBRANCH  70  71
ENDBRANCH  69  70
ENDBRANCH  63  65
ENDBRANCH  62  63
ENDBRANCH  61  62
ENDBRANCH  60  61
ENDBRANCH  59  60
ENDBRANCH   1  59
TORSDOF 21
ENDMDL
MODEL 3
REMARK VINA RESULT:      -9.2      2.854      7.759
REMARK SMILES O=C(OCCOCCOCCOC(=O)[C@@H]1CC[C@H](CNC(=O)c2cccn2C2CC2)O1)c1ccc(-c2c3nc(c(-c4ccccc4)c4ccc([nH]4)c(-c4ccccc4)c4nc(c(-c5ccccc5)c5ccc2[nH]5)C=C4)C=C3)cc1
REMARK SMILES IDX 8 1 7 2 6 3 5 4 4 5 3 6 2 7 1 8 32 9 33 10 79 11 34 12 78 13
REMARK SMILES IDX 35 14 36 15 37 16 72 17 38 18 77 19 71 20 73 21 39 22 76 23
REMARK SMILES IDX 70 24 69 25 40 27 62 28 47 29 61 30 48 31 51 32 60 33 74 34
REMARK SMILES IDX 49 35 50 36 59 38 75 39 52 40 41 41 42 42 46 43 43 44 45 45
REMARK SMILES IDX 44 46 63 47 64 48 68 49 65 50 67 51 66 52 53 53 54 54 58 55
REMARK SMILES IDX 55 56 57 57 56 58 9 59 10 60 11 61 12 62 13 63 14 64 15 65
REMARK SMILES IDX 16 66 31 67 17 68 18 69 19 70 20 71 21 72 22 74 23 75 24 76
REMARK SMILES IDX 27 77 25 78 26 79 28 80 29 81 30 82
REMARK H PARENT 73 26 51 37 20 73
REMARK Flexibility Score: inf
ROOT
ATOM      1  C   UNL A   1      37.610  22.843  25.733  1.00  0.00     0.188 C 
ENDROOT
BRANCH   1   2
ATOM      2  C   UNL A   1      38.995  23.027  26.384  1.00  0.00     0.188 C 
BRANCH   2   3
ATOM      3  O   UNL A   1      39.547  21.837  26.925  1.00  0.00    -0.376 OA
BRANCH   3   4
ATOM      4  C   UNL A   1      39.846  20.829  25.973  1.00  0.00     0.202 C 
BRANCH   4   5
ATOM      5  C   UNL A   1      41.253  20.222  26.081  1.00  0.00     0.261 C 
BRANCH   5   6
ATOM      6  O   UNL A   1      42.330  21.151  26.349  1.00  0.00    -0.460 OA
BRANCH   6   7
ATOM      7  C   UNL A   1      42.647  22.387  25.920  1.00  0.00     0.338 C 
ATOM      8  O   UNL A   1      43.069  22.518  24.771  1.00  0.00    -0.246 OA
BRANCH   7   9
ATOM      9  C   UNL A   1      42.628  23.602  26.786  1.00  0.00     0.060 A 
ATOM     10  C   UNL A   1      42.238  23.630  28.121  1.00  0.00     0.016 A 
ATOM     11  C   UNL A   1      43.023  24.817  26.185  1.00  0.00     0.016 A 
ATOM     12  C   UNL A   1      42.299  24.804  28.864  1.00  0.00     0.010 A 
ATOM     13  C   UNL A   1      43.009  26.018  26.899  1.00  0.00     0.010 A 
ATOM     14  C   UNL A   1      42.639  26.007  28.244  1.00  0.00    -0.014 A 
BRANCH  14  15
ATOM     15  C   UNL A   1      42.385  27.245  29.012  1.00  0.00     0.031 A 
ATOM     16  C   UNL A   1      43.339  27.540  30.143  1.00  0.00     0.074 A 
ATOM     17  C   UNL A   1      41.241  27.901  28.676  1.00  0.00     0.049 A 
ATOM     18  N   UNL A   1      43.129  28.214  31.234  1.00  0.00    -0.248 NA
ATOM     19  C   UNL A   1      44.701  26.965  30.086  1.00  0.00     0.031 C 
ATOM     20  C   UNL A   1      40.378  27.489  27.556  1.00  0.00     0.029 A 
ATOM     21  N   UNL A   1      40.560  28.988  29.181  1.00  0.00    -0.354 N 
ATOM     22  C   UNL A   1      44.348  28.268  31.925  1.00  0.00     0.074 A 
ATOM     23  C   UNL A   1      45.255  27.406  31.218  1.00  0.00     0.031 C 
ATOM     24  C   UNL A   1      39.282  28.260  27.495  1.00  0.00     0.029 A 
ATOM     25  C   UNL A   1      39.326  29.253  28.550  1.00  0.00     0.049 A 
ATOM     26  H   UNL A   1      40.906  29.536  29.923  1.00  0.00     0.167 HD
ATOM     27  C   UNL A   1      44.597  29.102  32.974  1.00  0.00     0.031 A 
ATOM     28  C   UNL A   1      38.371  30.179  28.847  1.00  0.00     0.031 A 
ATOM     29  C   UNL A   1      43.448  29.841  33.386  1.00  0.00     0.049 A 
ATOM     30  C   UNL A   1      38.866  31.002  29.971  1.00  0.00     0.074 A 
ATOM     31  C   UNL A   1      42.316  29.571  34.115  1.00  0.00     0.029 A 
ATOM     32  N   UNL A   1      43.306  31.107  32.870  1.00  0.00    -0.354 N 
ATOM     33  N   UNL A   1      39.844  31.855  29.897  1.00  0.00    -0.248 NA
ATOM     34  C   UNL A   1      38.281  30.832  31.306  1.00  0.00     0.031 C 
ATOM     35  C   UNL A   1      41.364  30.547  33.714  1.00  0.00     0.029 A 
ATOM     36  C   UNL A   1      41.954  31.332  32.724  1.00  0.00     0.049 A 
ATOM     37  H   UNL A   1      44.032  31.733  32.648  1.00  0.00     0.167 HD
ATOM     38  C   UNL A   1      40.218  32.033  31.211  1.00  0.00     0.074 A 
ATOM     39  C   UNL A   1      39.095  31.612  32.016  1.00  0.00     0.031 C 
ATOM     40  C   UNL A   1      41.533  32.059  31.544  1.00  0.00     0.031 A 
BRANCH  27  41
ATOM     41  C   UNL A   1      45.929  29.470  33.568  1.00  0.00    -0.014 A 
ATOM     42  C   UNL A   1      46.228  29.017  34.871  1.00  0.00     0.009 A 
ATOM     43  C   UNL A   1      46.779  30.439  33.017  1.00  0.00     0.009 A 
ATOM     44  C   UNL A   1      47.300  29.534  35.604  1.00  0.00     0.001 A 
ATOM     45  C   UNL A   1      47.876  30.934  33.736  1.00  0.00     0.001 A 
ATOM     46  C   UNL A   1      48.123  30.497  35.035  1.00  0.00     0.000 A 
ENDBRANCH  27  41
BRANCH  28  47
ATOM     47  C   UNL A   1      36.987  30.461  28.323  1.00  0.00    -0.014 A 
ATOM     48  C   UNL A   1      36.091  29.496  27.845  1.00  0.00     0.009 A 
ATOM     49  C   UNL A   1      36.499  31.789  28.329  1.00  0.00     0.009 A 
ATOM     50  C   UNL A   1      34.779  29.819  27.458  1.00  0.00     0.001 A 
ATOM     51  C   UNL A   1      35.186  32.117  27.967  1.00  0.00     0.001 A 
ATOM     52  C   UNL A   1      34.319  31.126  27.539  1.00  0.00     0.000 A 
ENDBRANCH  28  47
BRANCH  40  53
ATOM     53  C   UNL A   1      42.458  32.354  30.378  1.00  0.00    -0.014 A 
ATOM     54  C   UNL A   1      42.707  33.665  29.957  1.00  0.00     0.009 A 
ATOM     55  C   UNL A   1      43.009  31.311  29.613  1.00  0.00     0.009 A 
ATOM     56  C   UNL A   1      43.478  33.914  28.812  1.00  0.00     0.001 A 
ATOM     57  C   UNL A   1      43.791  31.551  28.482  1.00  0.00     0.001 A 
ATOM     58  C   UNL A   1      44.021  32.859  28.077  1.00  0.00     0.000 A 
ENDBRANCH  40  53
ENDBRANCH  14  15
ENDBRANCH   7   9
ENDBRANCH   6   7
ENDBRANCH   5   6
ENDBRANCH   4   5
ENDBRANCH   3   4
ENDBRANCH   2   3
ENDBRANCH   1   2
BRANCH   1  59
ATOM     59  O   UNL A   1      36.685  23.925  25.771  1.00  0.00    -0.376 OA
BRANCH  59  60
ATOM     60  C   UNL A   1      35.291  23.638  25.885  1.00  0.00     0.202 C 
BRANCH  60  61
ATOM     61  C   UNL A   1      34.880  22.602  26.933  1.00  0.00     0.261 C 
BRANCH  61  62
ATOM     62  O   UNL A   1      33.791  21.789  26.465  1.00  0.00    -0.461 OA
BRANCH  62  63
ATOM     63  C   UNL A   1      32.549  22.301  26.690  1.00  0.00     0.335 C 
ATOM     64  O   UNL A   1      32.262  23.011  27.637  1.00  0.00    -0.249 OA
BRANCH  63  65
ATOM     65  C   UNL A   1      31.592  21.946  25.533  1.00  0.00     0.228 C 
ATOM     66  C   UNL A   1      32.381  21.636  24.257  1.00  0.00     0.047 C 
ATOM     67  O   UNL A   1      30.712  23.035  25.214  1.00  0.00    -0.361 OA
ATOM     68  C   UNL A   1      31.784  22.554  23.208  1.00  0.00     0.037 C 
ATOM     69  C   UNL A   1      31.203  23.691  24.029  1.00  0.00     0.138 C 
BRANCH  69  70
ATOM     70  C   UNL A   1      32.239  24.751  24.432  1.00  0.00     0.148 C 
BRANCH  70  71
ATOM     71  N   UNL A   1      31.907  25.479  25.646  1.00  0.00    -0.348 N 
ATOM     72  C   UNL A   1      31.170  26.613  25.770  1.00  0.00     0.268 C 
ATOM     73  H   UNL A   1      32.261  25.103  26.484  1.00  0.00     0.163 HD
ATOM     74  O   UNL A   1      30.886  26.977  26.938  1.00  0.00    -0.268 OA
BRANCH  72  75
ATOM     75  C   UNL A   1      30.713  27.317  24.610  1.00  0.00     0.107 A 
ATOM     76  C   UNL A   1      29.491  27.138  23.951  1.00  0.00     0.033 A 
ATOM     77  N   UNL A   1      31.332  28.371  23.964  1.00  0.00    -0.340 N 
ATOM     78  C   UNL A   1      29.395  28.078  22.904  1.00  0.00     0.020 A 
ATOM     79  C   UNL A   1      30.534  28.845  22.953  1.00  0.00     0.086 A 
BRANCH  77  80
ATOM     80  C   UNL A   1      32.663  28.925  24.149  1.00  0.00     0.087 C 
ATOM     81  C   UNL A   1      33.966  28.164  24.256  1.00  0.00     0.027 C 
ATOM     82  C   UNL A   1      33.671  28.931  23.014  1.00  0.00     0.027 C 
ENDBRANCH  77  80
ENDBRANCH  72  75
ENDBRANCH  70  71
ENDBRANCH  69  70
ENDBRANCH  63  65
ENDBRANCH  62  63
ENDBRANCH  61  62
ENDBRANCH  60  61
ENDBRANCH  59  60
ENDBRANCH   1  59
TORSDOF 21
ENDMDL
