MODEL 1
REMARK VINA RESULT:     -10.4      0.000      0.000
REMARK SMILES O=C(OCCOCCOCCOC(=O)c1ccccc1C(=O)OC[C@@H]1C[C@H]2CC[C@@H]1C2)c1ccc(-c2c3nc(c(-c4ccccc4)c4ccc([nH]4)c(-c4ccccc4)c4nc(c(-c5ccccc5)c5ccc2[nH]5)C=C4)C=C3)cc1
REMARK SMILES IDX 8 1 7 2 6 3 5 4 4 5 3 6 2 7 1 8 32 9 33 10 79 11 34 12 78 13
REMARK SMILES IDX 35 14 36 15 37 16 72 17 38 18 77 19 71 20 73 21 39 22 76 23
REMARK SMILES IDX 70 24 69 25 40 27 62 28 47 29 61 30 48 31 51 32 60 33 74 34
REMARK SMILES IDX 49 35 50 36 59 38 75 39 52 40 41 41 42 42 46 43 43 44 45 45
REMARK SMILES IDX 44 46 63 47 64 48 68 49 65 50 67 51 66 52 53 53 54 54 58 55
REMARK SMILES IDX 55 56 57 57 56 58 9 59 10 60 11 61 12 62 13 63 14 64 15 65
REMARK SMILES IDX 16 66 20 67 17 68 19 69 18 70 21 71 22 72 23 73 24 74 25 75
REMARK SMILES IDX 26 76 30 77 27 78 29 79 31 80 28 81
REMARK H PARENT 73 26 51 37
REMARK Flexibility Score: inf
ROOT
ATOM      1  C   UNL A   1      34.138  32.881  28.569  1.00  0.00     0.188 C 
ENDROOT
BRANCH   1   2
ATOM      2  C   UNL A   1      35.069  34.007  28.116  1.00  0.00     0.188 C 
BRANCH   2   3
ATOM      3  O   UNL A   1      34.431  35.291  28.089  1.00  0.00    -0.376 OA
BRANCH   3   4
ATOM      4  C   UNL A   1      33.177  35.322  28.782  1.00  0.00     0.202 C 
BRANCH   4   5
ATOM      5  C   UNL A   1      32.863  36.641  29.505  1.00  0.00     0.261 C 
BRANCH   5   6
ATOM      6  O   UNL A   1      32.155  36.452  30.739  1.00  0.00    -0.460 OA
BRANCH   6   7
ATOM      7  C   UNL A   1      32.661  36.174  31.966  1.00  0.00     0.338 C 
ATOM      8  O   UNL A   1      32.234  36.812  32.928  1.00  0.00    -0.246 OA
BRANCH   7   9
ATOM      9  C   UNL A   1      33.702  35.132  32.235  1.00  0.00     0.060 A 
ATOM     10  C   UNL A   1      33.520  33.962  32.976  1.00  0.00     0.016 A 
ATOM     11  C   UNL A   1      34.961  35.339  31.643  1.00  0.00     0.016 A 
ATOM     12  C   UNL A   1      34.569  33.082  33.222  1.00  0.00     0.010 A 
ATOM     13  C   UNL A   1      36.010  34.442  31.850  1.00  0.00     0.010 A 
ATOM     14  C   UNL A   1      35.824  33.333  32.684  1.00  0.00    -0.014 A 
BRANCH  14  15
ATOM     15  C   UNL A   1      36.979  32.546  33.150  1.00  0.00     0.031 A 
ATOM     16  C   UNL A   1      37.584  32.909  34.466  1.00  0.00     0.074 A 
ATOM     17  C   UNL A   1      37.423  31.485  32.459  1.00  0.00     0.049 A 
ATOM     18  N   UNL A   1      38.673  32.460  35.027  1.00  0.00    -0.248 NA
ATOM     19  C   UNL A   1      36.848  33.901  35.268  1.00  0.00     0.031 C 
ATOM     20  C   UNL A   1      36.787  30.938  31.265  1.00  0.00     0.029 A 
ATOM     21  N   UNL A   1      38.512  30.679  32.662  1.00  0.00    -0.354 N 
ATOM     22  C   UNL A   1      38.765  33.130  36.237  1.00  0.00     0.074 A 
ATOM     23  C   UNL A   1      37.635  34.028  36.322  1.00  0.00     0.031 C 
ATOM     24  C   UNL A   1      37.520  29.907  30.819  1.00  0.00     0.029 A 
ATOM     25  C   UNL A   1      38.710  29.781  31.644  1.00  0.00     0.049 A 
ATOM     26  H   UNL A   1      39.091  30.737  33.456  1.00  0.00     0.167 HD
ATOM     27  C   UNL A   1      39.720  33.006  37.186  1.00  0.00     0.031 A 
ATOM     28  C   UNL A   1      39.763  28.992  31.367  1.00  0.00     0.031 A 
ATOM     29  C   UNL A   1      40.847  32.127  37.052  1.00  0.00     0.049 A 
ATOM     30  C   UNL A   1      40.901  28.983  32.340  1.00  0.00     0.074 A 
ATOM     31  C   UNL A   1      41.908  31.941  37.916  1.00  0.00     0.029 A 
ATOM     32  N   UNL A   1      41.058  31.289  35.964  1.00  0.00    -0.354 N 
ATOM     33  N   UNL A   1      41.021  29.659  33.458  1.00  0.00    -0.248 NA
ATOM     34  C   UNL A   1      42.034  28.104  32.035  1.00  0.00     0.031 C 
ATOM     35  C   UNL A   1      42.793  31.034  37.320  1.00  0.00     0.029 A 
ATOM     36  C   UNL A   1      42.249  30.606  36.117  1.00  0.00     0.049 A 
ATOM     37  H   UNL A   1      40.448  31.195  35.197  1.00  0.00     0.167 HD
ATOM     38  C   UNL A   1      42.224  29.259  34.016  1.00  0.00     0.074 A 
ATOM     39  C   UNL A   1      42.802  28.288  33.103  1.00  0.00     0.031 C 
ATOM     40  C   UNL A   1      42.789  29.645  35.185  1.00  0.00     0.031 A 
BRANCH  27  41
ATOM     41  C   UNL A   1      39.607  33.922  38.370  1.00  0.00    -0.014 A 
ATOM     42  C   UNL A   1      38.998  33.511  39.568  1.00  0.00     0.009 A 
ATOM     43  C   UNL A   1      40.040  35.251  38.250  1.00  0.00     0.009 A 
ATOM     44  C   UNL A   1      38.772  34.431  40.596  1.00  0.00     0.001 A 
ATOM     45  C   UNL A   1      39.840  36.159  39.291  1.00  0.00     0.001 A 
ATOM     46  C   UNL A   1      39.190  35.753  40.455  1.00  0.00     0.000 A 
ENDBRANCH  27  41
BRANCH  28  47
ATOM     47  C   UNL A   1      39.794  28.229  30.091  1.00  0.00    -0.014 A 
ATOM     48  C   UNL A   1      39.292  26.924  30.008  1.00  0.00     0.009 A 
ATOM     49  C   UNL A   1      40.278  28.843  28.920  1.00  0.00     0.009 A 
ATOM     50  C   UNL A   1      39.279  26.248  28.782  1.00  0.00     0.001 A 
ATOM     51  C   UNL A   1      40.242  28.174  27.694  1.00  0.00     0.001 A 
ATOM     52  C   UNL A   1      39.747  26.875  27.628  1.00  0.00     0.000 A 
ENDBRANCH  28  47
BRANCH  40  53
ATOM     53  C   UNL A   1      44.075  28.978  35.571  1.00  0.00    -0.014 A 
ATOM     54  C   UNL A   1      45.315  29.539  35.239  1.00  0.00     0.009 A 
ATOM     55  C   UNL A   1      44.031  27.815  36.354  1.00  0.00     0.009 A 
ATOM     56  C   UNL A   1      46.494  28.937  35.680  1.00  0.00     0.001 A 
ATOM     57  C   UNL A   1      45.210  27.230  36.815  1.00  0.00     0.001 A 
ATOM     58  C   UNL A   1      46.440  27.791  36.474  1.00  0.00     0.000 A 
ENDBRANCH  40  53
ENDBRANCH  14  15
ENDBRANCH   7   9
ENDBRANCH   6   7
ENDBRANCH   5   6
ENDBRANCH   4   5
ENDBRANCH   3   4
ENDBRANCH   2   3
ENDBRANCH   1   2
BRANCH   1  59
ATOM     59  O   UNL A   1      33.450  32.176  27.540  1.00  0.00    -0.376 OA
BRANCH  59  60
ATOM     60  C   UNL A   1      33.617  30.765  27.496  1.00  0.00     0.202 C 
BRANCH  60  61
ATOM     61  C   UNL A   1      32.529  29.943  26.796  1.00  0.00     0.261 C 
BRANCH  61  62
ATOM     62  O   UNL A   1      32.991  28.769  26.105  1.00  0.00    -0.460 OA
BRANCH  62  63
ATOM     63  C   UNL A   1      32.363  27.630  26.469  1.00  0.00     0.339 C 
ATOM     64  O   UNL A   1      31.648  27.448  27.454  1.00  0.00    -0.246 OA
BRANCH  63  65
ATOM     65  C   UNL A   1      32.680  26.521  25.563  1.00  0.00     0.074 A 
ATOM     66  C   UNL A   1      33.893  25.838  25.748  1.00  0.00     0.016 A 
ATOM     67  C   UNL A   1      31.938  26.338  24.393  1.00  0.00     0.074 A 
ATOM     68  C   UNL A   1      34.386  25.007  24.740  1.00  0.00     0.001 A 
ATOM     69  C   UNL A   1      32.495  25.579  23.354  1.00  0.00     0.016 A 
ATOM     70  C   UNL A   1      33.708  24.908  23.526  1.00  0.00     0.001 A 
BRANCH  67  71
ATOM     71  C   UNL A   1      30.563  26.849  24.192  1.00  0.00     0.339 C 
ATOM     72  O   UNL A   1      29.563  26.278  24.636  1.00  0.00    -0.246 OA
BRANCH  71  73
ATOM     73  O   UNL A   1      30.556  28.031  23.531  1.00  0.00    -0.462 OA
BRANCH  73  74
ATOM     74  C   UNL A   1      29.329  28.422  22.914  1.00  0.00     0.237 C 
BRANCH  74  75
ATOM     75  C   UNL A   1      29.370  29.909  22.568  1.00  0.00     0.030 C 
ATOM     76  C   UNL A   1      29.620  30.839  23.777  1.00  0.00     0.011 C 
ATOM     77  C   UNL A   1      28.020  30.414  22.019  1.00  0.00    -0.004 C 
ATOM     78  C   UNL A   1      28.475  31.858  23.648  1.00  0.00    -0.010 C 
ATOM     79  C   UNL A   1      28.303  31.709  21.244  1.00  0.00     0.004 C 
ATOM     80  C   UNL A   1      27.313  30.944  23.265  1.00  0.00     0.007 C 
ATOM     81  C   UNL A   1      28.670  32.692  22.366  1.00  0.00     0.004 C 
ENDBRANCH  74  75
ENDBRANCH  73  74
ENDBRANCH  71  73
ENDBRANCH  67  71
ENDBRANCH  63  65
ENDBRANCH  62  63
ENDBRANCH  61  62
ENDBRANCH  60  61
ENDBRANCH  59  60
ENDBRANCH   1  59
TORSDOF 21
ENDMDL
MODEL 2
REMARK VINA RESULT:     -10.1      3.708      9.104
REMARK SMILES O=C(OCCOCCOCCOC(=O)c1ccccc1C(=O)OC[C@@H]1C[C@H]2CC[C@@H]1C2)c1ccc(-c2c3nc(c(-c4ccccc4)c4ccc([nH]4)c(-c4ccccc4)c4nc(c(-c5ccccc5)c5ccc2[nH]5)C=C4)C=C3)cc1
REMARK SMILES IDX 8 1 7 2 6 3 5 4 4 5 3 6 2 7 1 8 32 9 33 10 79 11 34 12 78 13
REMARK SMILES IDX 35 14 36 15 37 16 72 17 38 18 77 19 71 20 73 21 39 22 76 23
REMARK SMILES IDX 70 24 69 25 40 27 62 28 47 29 61 30 48 31 51 32 60 33 74 34
REMARK SMILES IDX 49 35 50 36 59 38 75 39 52 40 41 41 42 42 46 43 43 44 45 45
REMARK SMILES IDX 44 46 63 47 64 48 68 49 65 50 67 51 66 52 53 53 54 54 58 55
REMARK SMILES IDX 55 56 57 57 56 58 9 59 10 60 11 61 12 62 13 63 14 64 15 65
REMARK SMILES IDX 16 66 20 67 17 68 19 69 18 70 21 71 22 72 23 73 24 74 25 75
REMARK SMILES IDX 26 76 30 77 27 78 29 79 31 80 28 81
REMARK H PARENT 73 26 51 37
REMARK Flexibility Score: inf
ROOT
ATOM      1  C   UNL A   1      40.602  22.340  27.368  1.00  0.00     0.188 C 
ENDROOT
BRANCH   1   2
ATOM      2  C   UNL A   1      40.781  21.088  26.508  1.00  0.00     0.188 C 
BRANCH   2   3
ATOM      3  O   UNL A   1      42.022  21.067  25.791  1.00  0.00    -0.376 OA
BRANCH   3   4
ATOM      4  C   UNL A   1      42.883  22.168  26.106  1.00  0.00     0.202 C 
BRANCH   4   5
ATOM      5  C   UNL A   1      43.520  22.867  24.895  1.00  0.00     0.261 C 
BRANCH   5   6
ATOM      6  O   UNL A   1      43.120  24.238  24.761  1.00  0.00    -0.460 OA
BRANCH   6   7
ATOM      7  C   UNL A   1      43.714  25.343  25.275  1.00  0.00     0.338 C 
ATOM      8  O   UNL A   1      44.834  25.645  24.864  1.00  0.00    -0.246 OA
BRANCH   7   9
ATOM      9  C   UNL A   1      43.094  26.232  26.309  1.00  0.00     0.060 A 
ATOM     10  C   UNL A   1      43.434  27.563  26.559  1.00  0.00     0.016 A 
ATOM     11  C   UNL A   1      42.041  25.677  27.059  1.00  0.00     0.016 A 
ATOM     12  C   UNL A   1      42.841  28.290  27.585  1.00  0.00     0.010 A 
ATOM     13  C   UNL A   1      41.410  26.410  28.066  1.00  0.00     0.010 A 
ATOM     14  C   UNL A   1      41.847  27.707  28.360  1.00  0.00    -0.014 A 
BRANCH  14  15
ATOM     15  C   UNL A   1      41.405  28.383  29.593  1.00  0.00     0.031 A 
ATOM     16  C   UNL A   1      40.206  29.269  29.510  1.00  0.00     0.074 A 
ATOM     17  C   UNL A   1      42.005  28.147  30.770  1.00  0.00     0.049 A 
ATOM     18  N   UNL A   1      39.705  30.067  30.412  1.00  0.00    -0.248 NA
ATOM     19  C   UNL A   1      39.459  29.235  28.241  1.00  0.00     0.031 C 
ATOM     20  C   UNL A   1      43.059  27.162  30.989  1.00  0.00     0.029 A 
ATOM     21  N   UNL A   1      41.815  28.720  32.000  1.00  0.00    -0.354 N 
ATOM     22  C   UNL A   1      38.597  30.647  29.813  1.00  0.00     0.074 A 
ATOM     23  C   UNL A   1      38.509  30.126  28.468  1.00  0.00     0.031 C 
ATOM     24  C   UNL A   1      43.449  27.226  32.271  1.00  0.00     0.029 A 
ATOM     25  C   UNL A   1      42.735  28.306  32.930  1.00  0.00     0.049 A 
ATOM     26  H   UNL A   1      41.094  29.360  32.196  1.00  0.00     0.167 HD
ATOM     27  C   UNL A   1      37.737  31.544  30.346  1.00  0.00     0.031 A 
ATOM     28  C   UNL A   1      43.017  28.787  34.153  1.00  0.00     0.031 A 
ATOM     29  C   UNL A   1      37.875  32.066  31.676  1.00  0.00     0.049 A 
ATOM     30  C   UNL A   1      42.165  29.902  34.677  1.00  0.00     0.074 A 
ATOM     31  C   UNL A   1      37.102  33.012  32.320  1.00  0.00     0.029 A 
ATOM     32  N   UNL A   1      38.871  31.682  32.566  1.00  0.00    -0.354 N 
ATOM     33  N   UNL A   1      41.152  30.495  34.092  1.00  0.00    -0.248 NA
ATOM     34  C   UNL A   1      42.473  30.404  36.020  1.00  0.00     0.031 C 
ATOM     35  C   UNL A   1      37.670  33.244  33.579  1.00  0.00     0.029 A 
ATOM     36  C   UNL A   1      38.755  32.395  33.743  1.00  0.00     0.049 A 
ATOM     37  H   UNL A   1      39.559  31.001  32.383  1.00  0.00     0.167 HD
ATOM     38  C   UNL A   1      40.670  31.415  35.009  1.00  0.00     0.074 A 
ATOM     39  C   UNL A   1      41.514  31.307  36.186  1.00  0.00     0.031 C 
ATOM     40  C   UNL A   1      39.615  32.257  34.894  1.00  0.00     0.031 A 
BRANCH  27  41
ATOM     41  C   UNL A   1      36.665  32.064  29.433  1.00  0.00    -0.014 A 
ATOM     42  C   UNL A   1      36.822  33.260  28.712  1.00  0.00     0.009 A 
ATOM     43  C   UNL A   1      35.438  31.388  29.365  1.00  0.00     0.009 A 
ATOM     44  C   UNL A   1      35.751  33.796  27.992  1.00  0.00     0.001 A 
ATOM     45  C   UNL A   1      34.380  31.911  28.620  1.00  0.00     0.001 A 
ATOM     46  C   UNL A   1      34.531  33.123  27.950  1.00  0.00     0.000 A 
ENDBRANCH  27  41
BRANCH  28  47
ATOM     47  C   UNL A   1      44.191  28.259  34.898  1.00  0.00    -0.014 A 
ATOM     48  C   UNL A   1      44.077  27.156  35.754  1.00  0.00     0.009 A 
ATOM     49  C   UNL A   1      45.462  28.830  34.698  1.00  0.00     0.009 A 
ATOM     50  C   UNL A   1      45.207  26.641  36.398  1.00  0.00     0.001 A 
ATOM     51  C   UNL A   1      46.592  28.299  35.324  1.00  0.00     0.001 A 
ATOM     52  C   UNL A   1      46.463  27.207  36.178  1.00  0.00     0.000 A 
ENDBRANCH  28  47
BRANCH  40  53
ATOM     53  C   UNL A   1      39.280  33.094  36.092  1.00  0.00    -0.014 A 
ATOM     54  C   UNL A   1      38.446  32.610  37.108  1.00  0.00     0.009 A 
ATOM     55  C   UNL A   1      39.886  34.352  36.236  1.00  0.00     0.009 A 
ATOM     56  C   UNL A   1      38.215  33.381  38.248  1.00  0.00     0.001 A 
ATOM     57  C   UNL A   1      39.674  35.108  37.387  1.00  0.00     0.001 A 
ATOM     58  C   UNL A   1      38.837  34.623  38.391  1.00  0.00     0.000 A 
ENDBRANCH  40  53
ENDBRANCH  14  15
ENDBRANCH   7   9
ENDBRANCH   6   7
ENDBRANCH   5   6
ENDBRANCH   4   5
ENDBRANCH   3   4
ENDBRANCH   2   3
ENDBRANCH   1   2
BRANCH   1  59
ATOM     59  O   UNL A   1      39.484  23.167  27.057  1.00  0.00    -0.376 OA
BRANCH  59  60
ATOM     60  C   UNL A   1      38.530  22.651  26.138  1.00  0.00     0.202 C 
BRANCH  60  61
ATOM     61  C   UNL A   1      37.289  23.503  25.850  1.00  0.00     0.261 C 
BRANCH  61  62
ATOM     62  O   UNL A   1      36.064  22.771  25.679  1.00  0.00    -0.460 OA
BRANCH  62  63
ATOM     63  C   UNL A   1      35.823  22.384  24.407  1.00  0.00     0.339 C 
ATOM     64  O   UNL A   1      36.584  22.458  23.443  1.00  0.00    -0.246 OA
BRANCH  63  65
ATOM     65  C   UNL A   1      34.451  21.894  24.237  1.00  0.00     0.074 A 
ATOM     66  C   UNL A   1      34.149  20.599  24.687  1.00  0.00     0.016 A 
ATOM     67  C   UNL A   1      33.559  22.580  23.410  1.00  0.00     0.074 A 
ATOM     68  C   UNL A   1      32.973  19.972  24.269  1.00  0.00     0.001 A 
ATOM     69  C   UNL A   1      32.434  21.902  22.922  1.00  0.00     0.016 A 
ATOM     70  C   UNL A   1      32.134  20.608  23.354  1.00  0.00     0.001 A 
BRANCH  67  71
ATOM     71  C   UNL A   1      33.690  24.011  23.052  1.00  0.00     0.339 C 
ATOM     72  O   UNL A   1      33.804  24.403  21.887  1.00  0.00    -0.246 OA
BRANCH  71  73
ATOM     73  O   UNL A   1      33.603  24.814  24.138  1.00  0.00    -0.462 OA
BRANCH  73  74
ATOM     74  C   UNL A   1      33.299  26.190  23.906  1.00  0.00     0.237 C 
BRANCH  74  75
ATOM     75  C   UNL A   1      33.378  26.969  25.217  1.00  0.00     0.030 C 
ATOM     76  C   UNL A   1      32.347  26.531  26.283  1.00  0.00     0.011 C 
ATOM     77  C   UNL A   1      33.056  28.465  25.023  1.00  0.00    -0.004 C 
ATOM     78  C   UNL A   1      31.700  27.869  26.682  1.00  0.00    -0.010 C 
ATOM     79  C   UNL A   1      33.651  29.216  26.223  1.00  0.00     0.004 C 
ATOM     80  C   UNL A   1      31.560  28.542  25.318  1.00  0.00     0.007 C 
ATOM     81  C   UNL A   1      32.746  28.760  27.378  1.00  0.00     0.004 C 
ENDBRANCH  74  75
ENDBRANCH  73  74
ENDBRANCH  71  73
ENDBRANCH  67  71
ENDBRANCH  63  65
ENDBRANCH  62  63
ENDBRANCH  61  62
ENDBRANCH  60  61
ENDBRANCH  59  60
ENDBRANCH   1  59
TORSDOF 21
ENDMDL
MODEL 3
REMARK VINA RESULT:     -10.0      5.704     10.184
REMARK SMILES O=C(OCCOCCOCCOC(=O)c1ccccc1C(=O)OC[C@@H]1C[C@H]2CC[C@@H]1C2)c1ccc(-c2c3nc(c(-c4ccccc4)c4ccc([nH]4)c(-c4ccccc4)c4nc(c(-c5ccccc5)c5ccc2[nH]5)C=C4)C=C3)cc1
REMARK SMILES IDX 8 1 7 2 6 3 5 4 4 5 3 6 2 7 1 8 32 9 33 10 79 11 34 12 78 13
REMARK SMILES IDX 35 14 36 15 37 16 72 17 38 18 77 19 71 20 73 21 39 22 76 23
REMARK SMILES IDX 70 24 69 25 40 27 62 28 47 29 61 30 48 31 51 32 60 33 74 34
REMARK SMILES IDX 49 35 50 36 59 38 75 39 52 40 41 41 42 42 46 43 43 44 45 45
REMARK SMILES IDX 44 46 63 47 64 48 68 49 65 50 67 51 66 52 53 53 54 54 58 55
REMARK SMILES IDX 55 56 57 57 56 58 9 59 10 60 11 61 12 62 13 63 14 64 15 65
REMARK SMILES IDX 16 66 20 67 17 68 19 69 18 70 21 71 22 72 23 73 24 74 25 75
REMARK SMILES IDX 26 76 30 77 27 78 29 79 31 80 28 81
REMARK H PARENT 73 26 51 37
REMARK Flexibility Score: inf
ROOT
ATOM      1  C   UNL A   1      35.924  22.057  24.210  1.00  0.00     0.188 C 
ENDROOT
BRANCH   1   2
ATOM      2  C   UNL A   1      37.314  22.130  24.844  1.00  0.00     0.188 C 
BRANCH   2   3
ATOM      3  O   UNL A   1      37.891  20.840  25.088  1.00  0.00    -0.376 OA
BRANCH   3   4
ATOM      4  C   UNL A   1      39.192  20.899  25.684  1.00  0.00     0.202 C 
BRANCH   4   5
ATOM      5  C   UNL A   1      39.846  19.536  25.962  1.00  0.00     0.261 C 
BRANCH   5   6
ATOM      6  O   UNL A   1      41.178  19.433  25.441  1.00  0.00    -0.460 OA
BRANCH   6   7
ATOM      7  C   UNL A   1      42.321  19.971  25.936  1.00  0.00     0.338 C 
ATOM      8  O   UNL A   1      43.321  19.256  25.993  1.00  0.00    -0.246 OA
BRANCH   7   9
ATOM      9  C   UNL A   1      42.452  21.385  26.411  1.00  0.00     0.060 A 
ATOM     10  C   UNL A   1      42.663  22.506  25.604  1.00  0.00     0.016 A 
ATOM     11  C   UNL A   1      42.303  21.595  27.793  1.00  0.00     0.016 A 
ATOM     12  C   UNL A   1      42.834  23.775  26.147  1.00  0.00     0.010 A 
ATOM     13  C   UNL A   1      42.433  22.872  28.346  1.00  0.00     0.010 A 
ATOM     14  C   UNL A   1      42.747  23.958  27.521  1.00  0.00    -0.014 A 
BRANCH  14  15
ATOM     15  C   UNL A   1      43.175  25.241  28.105  1.00  0.00     0.031 A 
ATOM     16  C   UNL A   1      42.119  26.244  28.434  1.00  0.00     0.074 A 
ATOM     17  C   UNL A   1      44.461  25.472  28.412  1.00  0.00     0.049 A 
ATOM     18  N   UNL A   1      42.247  27.480  28.829  1.00  0.00    -0.248 NA
ATOM     19  C   UNL A   1      40.725  25.781  28.320  1.00  0.00     0.031 C 
ATOM     20  C   UNL A   1      45.536  24.492  28.304  1.00  0.00     0.029 A 
ATOM     21  N   UNL A   1      45.079  26.604  28.875  1.00  0.00    -0.354 N 
ATOM     22  C   UNL A   1      40.953  27.951  28.989  1.00  0.00     0.074 A 
ATOM     23  C   UNL A   1      40.054  26.876  28.632  1.00  0.00     0.031 C 
ATOM     24  C   UNL A   1      46.690  25.077  28.656  1.00  0.00     0.029 A 
ATOM     25  C   UNL A   1      46.445  26.483  28.928  1.00  0.00     0.049 A 
ATOM     26  H   UNL A   1      44.594  27.417  29.143  1.00  0.00     0.167 HD
ATOM     27  C   UNL A   1      40.558  29.179  29.391  1.00  0.00     0.031 A 
ATOM     28  C   UNL A   1      47.398  27.414  29.109  1.00  0.00     0.031 A 
ATOM     29  C   UNL A   1      41.480  30.234  29.705  1.00  0.00     0.049 A 
ATOM     30  C   UNL A   1      46.955  28.818  29.389  1.00  0.00     0.074 A 
ATOM     31  C   UNL A   1      41.212  31.536  30.079  1.00  0.00     0.029 A 
ATOM     32  N   UNL A   1      42.862  30.099  29.669  1.00  0.00    -0.354 N 
ATOM     33  N   UNL A   1      45.733  29.282  29.485  1.00  0.00    -0.248 NA
ATOM     34  C   UNL A   1      48.006  29.818  29.603  1.00  0.00     0.031 C 
ATOM     35  C   UNL A   1      42.435  32.206  30.210  1.00  0.00     0.029 A 
ATOM     36  C   UNL A   1      43.464  31.302  29.982  1.00  0.00     0.049 A 
ATOM     37  H   UNL A   1      43.343  29.267  29.452  1.00  0.00     0.167 HD
ATOM     38  C   UNL A   1      45.860  30.622  29.810  1.00  0.00     0.074 A 
ATOM     39  C   UNL A   1      47.284  30.897  29.884  1.00  0.00     0.031 C 
ATOM     40  C   UNL A   1      44.887  31.536  30.046  1.00  0.00     0.031 A 
BRANCH  27  41
ATOM     41  C   UNL A   1      39.079  29.436  29.398  1.00  0.00    -0.014 A 
ATOM     42  C   UNL A   1      38.295  29.213  30.543  1.00  0.00     0.009 A 
ATOM     43  C   UNL A   1      38.447  29.824  28.208  1.00  0.00     0.009 A 
ATOM     44  C   UNL A   1      36.902  29.314  30.475  1.00  0.00     0.001 A 
ATOM     45  C   UNL A   1      37.058  29.954  28.152  1.00  0.00     0.001 A 
ATOM     46  C   UNL A   1      36.286  29.681  29.279  1.00  0.00     0.000 A 
ENDBRANCH  27  41
BRANCH  28  47
ATOM     47  C   UNL A   1      48.829  27.042  28.951  1.00  0.00    -0.014 A 
ATOM     48  C   UNL A   1      49.660  26.848  30.061  1.00  0.00     0.009 A 
ATOM     49  C   UNL A   1      49.354  26.814  27.665  1.00  0.00     0.009 A 
ATOM     50  C   UNL A   1      50.988  26.441  29.889  1.00  0.00     0.001 A 
ATOM     51  C   UNL A   1      50.674  26.385  27.497  1.00  0.00     0.001 A 
ATOM     52  C   UNL A   1      51.490  26.203  28.610  1.00  0.00     0.000 A 
ENDBRANCH  28  47
BRANCH  40  53
ATOM     53  C   UNL A   1      45.329  32.908  30.457  1.00  0.00    -0.014 A 
ATOM     54  C   UNL A   1      45.499  33.931  29.516  1.00  0.00     0.009 A 
ATOM     55  C   UNL A   1      45.491  33.191  31.822  1.00  0.00     0.009 A 
ATOM     56  C   UNL A   1      45.836  35.218  29.937  1.00  0.00     0.001 A 
ATOM     57  C   UNL A   1      45.801  34.483  32.241  1.00  0.00     0.001 A 
ATOM     58  C   UNL A   1      45.976  35.495  31.298  1.00  0.00     0.000 A 
ENDBRANCH  40  53
ENDBRANCH  14  15
ENDBRANCH   7   9
ENDBRANCH   6   7
ENDBRANCH   5   6
ENDBRANCH   4   5
ENDBRANCH   3   4
ENDBRANCH   2   3
ENDBRANCH   1   2
BRANCH   1  59
ATOM     59  O   UNL A   1      34.829  21.872  25.103  1.00  0.00    -0.376 OA
BRANCH  59  60
ATOM     60  C   UNL A   1      33.522  21.900  24.544  1.00  0.00     0.202 C 
BRANCH  60  61
ATOM     61  C   UNL A   1      32.477  22.787  25.229  1.00  0.00     0.261 C 
BRANCH  61  62
ATOM     62  O   UNL A   1      32.350  24.116  24.694  1.00  0.00    -0.460 OA
BRANCH  62  63
ATOM     63  C   UNL A   1      31.444  24.227  23.697  1.00  0.00     0.339 C 
ATOM     64  O   UNL A   1      31.070  23.348  22.922  1.00  0.00    -0.246 OA
BRANCH  63  65
ATOM     65  C   UNL A   1      30.955  25.602  23.557  1.00  0.00     0.074 A 
ATOM     66  C   UNL A   1      29.707  25.922  24.115  1.00  0.00     0.016 A 
ATOM     67  C   UNL A   1      31.574  26.479  22.663  1.00  0.00     0.074 A 
ATOM     68  C   UNL A   1      29.058  27.101  23.741  1.00  0.00     0.001 A 
ATOM     69  C   UNL A   1      30.866  27.607  22.224  1.00  0.00     0.016 A 
ATOM     70  C   UNL A   1      29.619  27.925  22.765  1.00  0.00     0.001 A 
BRANCH  67  71
ATOM     71  C   UNL A   1      32.967  26.329  22.181  1.00  0.00     0.339 C 
ATOM     72  O   UNL A   1      33.245  25.926  21.048  1.00  0.00    -0.246 OA
BRANCH  71  73
ATOM     73  O   UNL A   1      33.867  26.746  23.102  1.00  0.00    -0.462 OA
BRANCH  73  74
ATOM     74  C   UNL A   1      33.884  28.140  23.409  1.00  0.00     0.237 C 
BRANCH  74  75
ATOM     75  C   UNL A   1      33.950  28.340  24.922  1.00  0.00     0.030 C 
ATOM     76  C   UNL A   1      33.523  27.106  25.748  1.00  0.00     0.011 C 
ATOM     77  C   UNL A   1      32.975  29.433  25.405  1.00  0.00    -0.004 C 
ATOM     78  C   UNL A   1      32.486  27.703  26.716  1.00  0.00    -0.010 C 
ATOM     79  C   UNL A   1      33.471  29.907  26.778  1.00  0.00     0.004 C 
ATOM     80  C   UNL A   1      31.724  28.641  25.782  1.00  0.00     0.007 C 
ATOM     81  C   UNL A   1      33.183  28.691  27.672  1.00  0.00     0.004 C 
ENDBRANCH  74  75
ENDBRANCH  73  74
ENDBRANCH  71  73
ENDBRANCH  67  71
ENDBRANCH  63  65
ENDBRANCH  62  63
ENDBRANCH  61  62
ENDBRANCH  60  61
ENDBRANCH  59  60
ENDBRANCH   1  59
TORSDOF 21
ENDMDL
