MODEL 1
REMARK VINA RESULT:     -12.0      0.000      0.000
REMARK SMILES C[C@]1(C(=O)OCCOCCOCCOC(=O)c2ccc(-c3c4nc(c(-c5ccccc5)c5ccc([nH]5)c(-c5ccccc5)c5nc(c(-c6ccccc6)c6ccc3[nH]6)C=C5)C=C4)cc2)[NH2+]C2(C(=O)c3ccccc3C2=O)[C@@H]2C(=O)N(c3ccccc3)C(=O)[C@H]21
REMARK SMILES IDX 10 1 9 2 8 3 7 4 6 5 5 6 3 7 4 8 2 9 1 10 65 11 89 12 66 13
REMARK SMILES IDX 77 16 87 17 67 18 75 19 78 20 80 21 88 22 68 23 69 24 74 25
REMARK SMILES IDX 76 26 79 27 70 28 73 29 71 30 72 31 81 32 82 33 86 34 83 35
REMARK SMILES IDX 85 36 84 37 11 38 12 39 13 40 14 41 15 42 16 43 17 44 18 45
REMARK SMILES IDX 64 46 19 47 63 48 20 49 21 50 22 51 57 52 23 53 62 54 56 55
REMARK SMILES IDX 58 56 24 57 61 58 55 59 54 60 25 62 47 63 32 64 46 65 33 66
REMARK SMILES IDX 36 67 45 68 59 69 34 70 35 71 44 73 60 74 37 75 26 76 27 77
REMARK SMILES IDX 31 78 28 79 30 80 29 81 48 82 49 83 53 84 50 85 52 86 51 87
REMARK SMILES IDX 38 88 39 89 43 90 40 91 42 92 41 93
REMARK H PARENT 65 14 65 15 58 61 36 72
REMARK Flexibility Score: inf
ROOT
ATOM      1  C   UNL A   1      42.308  19.463  26.279  1.00  0.00     0.188 C 
ENDROOT
BRANCH   1   2
ATOM      2  C   UNL A   1      41.392  20.368  27.115  1.00  0.00     0.188 C 
BRANCH   2   3
ATOM      3  O   UNL A   1      40.028  20.502  26.782  1.00  0.00    -0.376 OA
BRANCH   3   4
ATOM      4  C   UNL A   1      39.625  21.418  25.779  1.00  0.00     0.202 C 
BRANCH   4   5
ATOM      5  C   UNL A   1      38.167  21.583  25.324  1.00  0.00     0.261 C 
BRANCH   5   6
ATOM      6  O   UNL A   1      37.742  22.911  24.975  1.00  0.00    -0.459 OA
BRANCH   6   7
ATOM      7  C   UNL A   1      36.515  23.011  24.395  1.00  0.00     0.368 C 
ATOM      8  O   UNL A   1      36.270  22.584  23.272  1.00  0.00    -0.245 OA
BRANCH   7   9
ATOM      9  C   UNL A   1      35.450  23.755  25.262  1.00  0.00     0.205 C 
ATOM     10  C   UNL A   1      36.159  24.216  26.538  1.00  0.00     0.093 C 
ATOM     11  N   UNL A   1      34.775  24.966  24.619  1.00  0.00    -0.313 N 
ATOM     12  C   UNL A   1      34.264  22.866  25.488  1.00  0.00     0.172 C 
ATOM     13  C   UNL A   1      33.387  24.557  24.148  1.00  0.00     0.237 C 
ATOM     14  H   UNL A   1      35.328  25.285  23.823  1.00  0.00     0.348 HD
ATOM     15  H   UNL A   1      34.702  25.724  25.297  1.00  0.00     0.348 HD
ATOM     16  C   UNL A   1      33.510  23.077  24.185  1.00  0.00     0.177 C 
ATOM     17  C   UNL A   1      34.311  21.382  25.555  1.00  0.00     0.244 C 
ATOM     18  C   UNL A   1      32.320  25.206  25.031  1.00  0.00     0.232 C 
ATOM     19  C   UNL A   1      33.084  25.143  22.767  1.00  0.00     0.232 C 
ATOM     20  C   UNL A   1      32.494  22.004  24.271  1.00  0.00     0.245 C 
ATOM     21  N   UNL A   1      33.186  20.948  24.860  1.00  0.00    -0.250 N 
ATOM     22  O   UNL A   1      35.157  20.752  26.162  1.00  0.00    -0.273 OA
ATOM     23  O   UNL A   1      32.166  25.056  26.232  1.00  0.00    -0.286 OA
ATOM     24  C   UNL A   1      31.565  26.163  24.225  1.00  0.00     0.036 A 
ATOM     25  C   UNL A   1      32.025  26.146  22.915  1.00  0.00     0.036 A 
ATOM     26  O   UNL A   1      33.564  24.832  21.690  1.00  0.00    -0.286 OA
ATOM     27  O   UNL A   1      31.378  22.059  23.785  1.00  0.00    -0.273 OA
ATOM     28  C   UNL A   1      30.556  27.019  24.635  1.00  0.00     0.013 A 
ATOM     29  C   UNL A   1      31.491  26.989  21.954  1.00  0.00     0.013 A 
ATOM     30  C   UNL A   1      30.003  27.872  23.676  1.00  0.00     0.001 A 
ATOM     31  C   UNL A   1      30.468  27.859  22.347  1.00  0.00     0.001 A 
BRANCH  21  32
ATOM     32  C   UNL A   1      32.943  19.580  24.622  1.00  0.00     0.052 A 
ATOM     33  C   UNL A   1      32.839  18.681  25.692  1.00  0.00     0.027 A 
ATOM     34  C   UNL A   1      32.975  19.082  23.314  1.00  0.00     0.027 A 
ATOM     35  C   UNL A   1      32.787  17.307  25.463  1.00  0.00     0.002 A 
ATOM     36  C   UNL A   1      32.964  17.704  23.089  1.00  0.00     0.002 A 
ATOM     37  C   UNL A   1      32.870  16.818  24.162  1.00  0.00     0.000 A 
ENDBRANCH  21  32
ENDBRANCH   7   9
ENDBRANCH   6   7
ENDBRANCH   5   6
ENDBRANCH   4   5
ENDBRANCH   3   4
ENDBRANCH   2   3
ENDBRANCH   1   2
BRANCH   1  38
ATOM     38  O   UNL A   1      42.974  19.964  25.150  1.00  0.00    -0.376 OA
BRANCH  38  39
ATOM     39  C   UNL A   1      44.385  20.035  25.126  1.00  0.00     0.202 C 
BRANCH  39  40
ATOM     40  C   UNL A   1      45.193  21.334  25.305  1.00  0.00     0.261 C 
BRANCH  40  41
ATOM     41  O   UNL A   1      44.617  22.373  26.107  1.00  0.00    -0.460 OA
BRANCH  41  42
ATOM     42  C   UNL A   1      43.884  23.306  25.445  1.00  0.00     0.338 C 
ATOM     43  O   UNL A   1      43.512  23.271  24.280  1.00  0.00    -0.246 OA
BRANCH  42  44
ATOM     44  C   UNL A   1      43.377  24.273  26.442  1.00  0.00     0.060 A 
ATOM     45  C   UNL A   1      42.323  23.922  27.283  1.00  0.00     0.016 A 
ATOM     46  C   UNL A   1      43.913  25.571  26.478  1.00  0.00     0.016 A 
ATOM     47  C   UNL A   1      41.802  24.874  28.163  1.00  0.00     0.010 A 
ATOM     48  C   UNL A   1      43.370  26.530  27.335  1.00  0.00     0.010 A 
ATOM     49  C   UNL A   1      42.318  26.184  28.195  1.00  0.00    -0.014 A 
BRANCH  49  50
ATOM     50  C   UNL A   1      41.864  27.128  29.243  1.00  0.00     0.031 A 
ATOM     51  C   UNL A   1      40.652  27.992  29.072  1.00  0.00     0.074 A 
ATOM     52  C   UNL A   1      42.577  27.185  30.384  1.00  0.00     0.049 A 
ATOM     53  N   UNL A   1      40.090  28.789  29.947  1.00  0.00    -0.248 NA
ATOM     54  C   UNL A   1      39.984  27.965  27.763  1.00  0.00     0.031 C 
ATOM     55  C   UNL A   1      43.777  26.393  30.655  1.00  0.00     0.029 A 
ATOM     56  N   UNL A   1      42.392  27.920  31.527  1.00  0.00    -0.354 N 
ATOM     57  C   UNL A   1      38.987  29.339  29.307  1.00  0.00     0.074 A 
ATOM     58  C   UNL A   1      38.987  28.822  27.954  1.00  0.00     0.031 C 
ATOM     59  C   UNL A   1      44.203  26.661  31.898  1.00  0.00     0.029 A 
ATOM     60  C   UNL A   1      43.330  27.666  32.498  1.00  0.00     0.049 A 
ATOM     61  H   UNL A   1      41.658  28.565  31.642  1.00  0.00     0.167 HD
ATOM     62  C   UNL A   1      38.055  30.181  29.817  1.00  0.00     0.031 A 
ATOM     63  C   UNL A   1      43.477  28.178  33.735  1.00  0.00     0.031 A 
ATOM     64  C   UNL A   1      38.080  30.708  31.160  1.00  0.00     0.049 A 
ATOM     65  C   UNL A   1      42.470  29.169  34.247  1.00  0.00     0.074 A 
ATOM     66  C   UNL A   1      37.152  31.534  31.772  1.00  0.00     0.029 A 
ATOM     67  N   UNL A   1      39.083  30.481  32.090  1.00  0.00    -0.354 N 
ATOM     68  N   UNL A   1      41.384  29.612  33.663  1.00  0.00    -0.248 NA
ATOM     69  C   UNL A   1      42.699  29.723  35.589  1.00  0.00     0.031 C 
ATOM     70  C   UNL A   1      37.635  31.876  33.035  1.00  0.00     0.029 A 
ATOM     71  C   UNL A   1      38.821  31.193  33.250  1.00  0.00     0.049 A 
ATOM     72  H   UNL A   1      39.866  29.901  31.947  1.00  0.00     0.167 HD
ATOM     73  C   UNL A   1      40.790  30.480  34.570  1.00  0.00     0.074 A 
ATOM     74  C   UNL A   1      41.626  30.486  35.753  1.00  0.00     0.031 C 
ATOM     75  C   UNL A   1      39.655  31.205  34.427  1.00  0.00     0.031 A 
BRANCH  62  76
ATOM     76  C   UNL A   1      36.905  30.599  28.937  1.00  0.00    -0.014 A 
ATOM     77  C   UNL A   1      36.754  31.947  28.572  1.00  0.00     0.009 A 
ATOM     78  C   UNL A   1      35.895  29.688  28.592  1.00  0.00     0.009 A 
ATOM     79  C   UNL A   1      35.607  32.380  27.904  1.00  0.00     0.001 A 
ATOM     80  C   UNL A   1      34.762  30.118  27.895  1.00  0.00     0.001 A 
ATOM     81  C   UNL A   1      34.613  31.464  27.563  1.00  0.00     0.000 A 
ENDBRANCH  62  76
BRANCH  63  82
ATOM     82  C   UNL A   1      44.616  27.722  34.575  1.00  0.00    -0.014 A 
ATOM     83  C   UNL A   1      45.799  28.478  34.643  1.00  0.00     0.009 A 
ATOM     84  C   UNL A   1      44.558  26.496  35.254  1.00  0.00     0.009 A 
ATOM     85  C   UNL A   1      46.910  28.001  35.342  1.00  0.00     0.001 A 
ATOM     86  C   UNL A   1      45.659  26.038  35.984  1.00  0.00     0.001 A 
ATOM     87  C   UNL A   1      46.836  26.784  36.015  1.00  0.00     0.000 A 
ENDBRANCH  63  82
BRANCH  75  88
ATOM     88  C   UNL A   1      39.222  32.088  35.568  1.00  0.00    -0.014 A 
ATOM     89  C   UNL A   1      38.308  31.604  36.520  1.00  0.00     0.009 A 
ATOM     90  C   UNL A   1      39.605  33.437  35.623  1.00  0.00     0.009 A 
ATOM     91  C   UNL A   1      37.761  32.458  37.479  1.00  0.00     0.001 A 
ATOM     92  C   UNL A   1      39.083  34.280  36.607  1.00  0.00     0.001 A 
ATOM     93  C   UNL A   1      38.149  33.796  37.523  1.00  0.00     0.000 A 
ENDBRANCH  75  88
ENDBRANCH  49  50
ENDBRANCH  42  44
ENDBRANCH  41  42
ENDBRANCH  40  41
ENDBRANCH  39  40
ENDBRANCH  38  39
ENDBRANCH   1  38
TORSDOF 18
ENDMDL
MODEL 2
REMARK VINA RESULT:     -10.9      4.993      8.943
REMARK SMILES C[C@]1(C(=O)OCCOCCOCCOC(=O)c2ccc(-c3c4nc(c(-c5ccccc5)c5ccc([nH]5)c(-c5ccccc5)c5nc(c(-c6ccccc6)c6ccc3[nH]6)C=C5)C=C4)cc2)[NH2+]C2(C(=O)c3ccccc3C2=O)[C@@H]2C(=O)N(c3ccccc3)C(=O)[C@H]21
REMARK SMILES IDX 10 1 9 2 8 3 7 4 6 5 5 6 3 7 4 8 2 9 1 10 65 11 89 12 66 13
REMARK SMILES IDX 77 16 87 17 67 18 75 19 78 20 80 21 88 22 68 23 69 24 74 25
REMARK SMILES IDX 76 26 79 27 70 28 73 29 71 30 72 31 81 32 82 33 86 34 83 35
REMARK SMILES IDX 85 36 84 37 11 38 12 39 13 40 14 41 15 42 16 43 17 44 18 45
REMARK SMILES IDX 64 46 19 47 63 48 20 49 21 50 22 51 57 52 23 53 62 54 56 55
REMARK SMILES IDX 58 56 24 57 61 58 55 59 54 60 25 62 47 63 32 64 46 65 33 66
REMARK SMILES IDX 36 67 45 68 59 69 34 70 35 71 44 73 60 74 37 75 26 76 27 77
REMARK SMILES IDX 31 78 28 79 30 80 29 81 48 82 49 83 53 84 50 85 52 86 51 87
REMARK SMILES IDX 38 88 39 89 43 90 40 91 42 92 41 93
REMARK H PARENT 65 14 65 15 58 61 36 72
REMARK Flexibility Score: inf
ROOT
ATOM      1  C   UNL A   1      42.682  19.261  26.097  1.00  0.00     0.188 C 
ENDROOT
BRANCH   1   2
ATOM      2  C   UNL A   1      43.752  18.869  25.068  1.00  0.00     0.188 C 
BRANCH   2   3
ATOM      3  O   UNL A   1      45.104  19.204  25.285  1.00  0.00    -0.376 OA
BRANCH   3   4
ATOM      4  C   UNL A   1      45.640  20.396  24.737  1.00  0.00     0.202 C 
BRANCH   4   5
ATOM      5  C   UNL A   1      45.987  21.631  25.582  1.00  0.00     0.261 C 
BRANCH   5   6
ATOM      6  O   UNL A   1      45.005  22.679  25.636  1.00  0.00    -0.459 OA
BRANCH   6   7
ATOM      7  C   UNL A   1      45.314  23.745  26.422  1.00  0.00     0.368 C 
ATOM      8  O   UNL A   1      46.004  23.654  27.431  1.00  0.00    -0.245 OA
BRANCH   7   9
ATOM      9  C   UNL A   1      44.679  25.094  25.958  1.00  0.00     0.205 C 
ATOM     10  C   UNL A   1      43.597  24.746  24.931  1.00  0.00     0.093 C 
ATOM     11  N   UNL A   1      44.049  25.961  27.048  1.00  0.00    -0.313 N 
ATOM     12  C   UNL A   1      45.748  26.017  25.455  1.00  0.00     0.172 C 
ATOM     13  C   UNL A   1      45.008  27.095  27.382  1.00  0.00     0.237 C 
ATOM     14  H   UNL A   1      43.880  25.397  27.880  1.00  0.00     0.348 HD
ATOM     15  H   UNL A   1      43.162  26.343  26.720  1.00  0.00     0.348 HD
ATOM     16  C   UNL A   1      46.261  26.585  26.769  1.00  0.00     0.177 C 
ATOM     17  C   UNL A   1      47.018  25.582  24.817  1.00  0.00     0.244 C 
ATOM     18  C   UNL A   1      44.451  28.423  26.866  1.00  0.00     0.232 C 
ATOM     19  C   UNL A   1      45.077  27.324  28.893  1.00  0.00     0.232 C 
ATOM     20  C   UNL A   1      47.490  27.273  26.317  1.00  0.00     0.245 C 
ATOM     21  N   UNL A   1      47.997  26.423  25.336  1.00  0.00    -0.250 N 
ATOM     22  O   UNL A   1      47.095  24.703  23.978  1.00  0.00    -0.273 OA
ATOM     23  O   UNL A   1      44.203  28.718  25.708  1.00  0.00    -0.286 OA
ATOM     24  C   UNL A   1      44.129  29.272  28.011  1.00  0.00     0.036 A 
ATOM     25  C   UNL A   1      44.468  28.624  29.191  1.00  0.00     0.036 A 
ATOM     26  O   UNL A   1      45.587  26.614  29.744  1.00  0.00    -0.286 OA
ATOM     27  O   UNL A   1      47.962  28.272  26.834  1.00  0.00    -0.273 OA
ATOM     28  C   UNL A   1      43.540  30.526  28.007  1.00  0.00     0.013 A 
ATOM     29  C   UNL A   1      44.233  29.207  30.425  1.00  0.00     0.013 A 
ATOM     30  C   UNL A   1      43.302  31.131  29.244  1.00  0.00     0.001 A 
ATOM     31  C   UNL A   1      43.643  30.476  30.443  1.00  0.00     0.001 A 
BRANCH  21  32
ATOM     32  C   UNL A   1      49.363  26.248  25.036  1.00  0.00     0.052 A 
ATOM     33  C   UNL A   1      50.206  25.575  25.930  1.00  0.00     0.027 A 
ATOM     34  C   UNL A   1      49.922  26.893  23.925  1.00  0.00     0.027 A 
ATOM     35  C   UNL A   1      51.585  25.561  25.732  1.00  0.00     0.002 A 
ATOM     36  C   UNL A   1      51.308  26.912  23.752  1.00  0.00     0.002 A 
ATOM     37  C   UNL A   1      52.137  26.247  24.654  1.00  0.00     0.000 A 
ENDBRANCH  21  32
ENDBRANCH   7   9
ENDBRANCH   6   7
ENDBRANCH   5   6
ENDBRANCH   4   5
ENDBRANCH   3   4
ENDBRANCH   2   3
ENDBRANCH   1   2
BRANCH   1  38
ATOM     38  O   UNL A   1      42.658  20.550  26.651  1.00  0.00    -0.376 OA
BRANCH  38  39
ATOM     39  C   UNL A   1      41.772  21.528  26.146  1.00  0.00     0.202 C 
BRANCH  39  40
ATOM     40  C   UNL A   1      40.854  22.404  27.021  1.00  0.00     0.261 C 
BRANCH  40  41
ATOM     41  O   UNL A   1      41.161  23.800  27.121  1.00  0.00    -0.460 OA
BRANCH  41  42
ATOM     42  C   UNL A   1      40.177  24.660  26.750  1.00  0.00     0.338 C 
ATOM     43  O   UNL A   1      39.342  24.501  25.870  1.00  0.00    -0.246 OA
BRANCH  42  44
ATOM     44  C   UNL A   1      40.110  25.734  27.764  1.00  0.00     0.060 A 
ATOM     45  C   UNL A   1      39.161  25.674  28.784  1.00  0.00     0.016 A 
ATOM     46  C   UNL A   1      40.954  26.850  27.644  1.00  0.00     0.016 A 
ATOM     47  C   UNL A   1      39.056  26.736  29.685  1.00  0.00     0.010 A 
ATOM     48  C   UNL A   1      40.825  27.925  28.527  1.00  0.00     0.010 A 
ATOM     49  C   UNL A   1      39.883  27.868  29.564  1.00  0.00    -0.014 A 
BRANCH  49  50
ATOM     50  C   UNL A   1      39.869  28.907  30.621  1.00  0.00     0.031 A 
ATOM     51  C   UNL A   1      38.961  30.097  30.561  1.00  0.00     0.074 A 
ATOM     52  C   UNL A   1      40.703  28.746  31.666  1.00  0.00     0.049 A 
ATOM     53  N   UNL A   1      38.779  31.028  31.465  1.00  0.00    -0.248 NA
ATOM     54  C   UNL A   1      38.159  30.272  29.343  1.00  0.00     0.031 C 
ATOM     55  C   UNL A   1      41.633  27.628  31.823  1.00  0.00     0.029 A 
ATOM     56  N   UNL A   1      40.891  29.504  32.794  1.00  0.00    -0.354 N 
ATOM     57  C   UNL A   1      37.821  31.886  30.940  1.00  0.00     0.074 A 
ATOM     58  C   UNL A   1      37.497  31.392  29.618  1.00  0.00     0.031 C 
ATOM     59  C   UNL A   1      42.272  27.755  32.996  1.00  0.00     0.029 A 
ATOM     60  C   UNL A   1      41.823  28.978  33.655  1.00  0.00     0.049 A 
ATOM     61  H   UNL A   1      40.405  30.342  32.970  1.00  0.00     0.167 HD
ATOM     62  C   UNL A   1      37.257  32.972  31.524  1.00  0.00     0.031 A 
ATOM     63  C   UNL A   1      42.271  29.423  34.845  1.00  0.00     0.031 A 
ATOM     64  C   UNL A   1      37.607  33.468  32.833  1.00  0.00     0.049 A 
ATOM     65  C   UNL A   1      41.681  30.673  35.434  1.00  0.00     0.074 A 
ATOM     66  C   UNL A   1      37.054  34.536  33.518  1.00  0.00     0.029 A 
ATOM     67  N   UNL A   1      38.603  32.948  33.645  1.00  0.00    -0.354 N 
ATOM     68  N   UNL A   1      40.713  31.424  34.966  1.00  0.00    -0.248 NA
ATOM     69  C   UNL A   1      42.231  31.133  36.717  1.00  0.00     0.031 C 
ATOM     70  C   UNL A   1      37.771  34.718  34.700  1.00  0.00     0.029 A 
ATOM     71  C   UNL A   1      38.714  33.707  34.800  1.00  0.00     0.049 A 
ATOM     72  H   UNL A   1      39.152  32.158  33.433  1.00  0.00     0.167 HD
ATOM     73  C   UNL A   1      40.526  32.432  35.903  1.00  0.00     0.074 A 
ATOM     74  C   UNL A   1      41.466  32.186  36.978  1.00  0.00     0.031 C 
ATOM     75  C   UNL A   1      39.653  33.467  35.868  1.00  0.00     0.031 A 
BRANCH  62  76
ATOM     76  C   UNL A   1      36.186  33.717  30.771  1.00  0.00    -0.014 A 
ATOM     77  C   UNL A   1      34.931  33.933  31.366  1.00  0.00     0.009 A 
ATOM     78  C   UNL A   1      36.366  34.076  29.426  1.00  0.00     0.009 A 
ATOM     79  C   UNL A   1      33.874  34.466  30.625  1.00  0.00     0.001 A 
ATOM     80  C   UNL A   1      35.316  34.639  28.697  1.00  0.00     0.001 A 
ATOM     81  C   UNL A   1      34.069  34.822  29.291  1.00  0.00     0.000 A 
ENDBRANCH  62  76
BRANCH  63  82
ATOM     82  C   UNL A   1      43.315  28.644  35.562  1.00  0.00    -0.014 A 
ATOM     83  C   UNL A   1      44.678  28.932  35.368  1.00  0.00     0.009 A 
ATOM     84  C   UNL A   1      42.964  27.563  36.384  1.00  0.00     0.009 A 
ATOM     85  C   UNL A   1      45.664  28.135  35.952  1.00  0.00     0.001 A 
ATOM     86  C   UNL A   1      43.953  26.790  36.997  1.00  0.00     0.001 A 
ATOM     87  C   UNL A   1      45.300  27.067  36.770  1.00  0.00     0.000 A 
ENDBRANCH  63  82
BRANCH  75  88
ATOM     88  C   UNL A   1      39.652  34.441  37.017  1.00  0.00    -0.014 A 
ATOM     89  C   UNL A   1      38.866  34.182  38.153  1.00  0.00     0.009 A 
ATOM     90  C   UNL A   1      40.312  35.675  36.919  1.00  0.00     0.009 A 
ATOM     91  C   UNL A   1      38.713  35.150  39.148  1.00  0.00     0.001 A 
ATOM     92  C   UNL A   1      40.185  36.628  37.934  1.00  0.00     0.001 A 
ATOM     93  C   UNL A   1      39.373  36.371  39.038  1.00  0.00     0.000 A 
ENDBRANCH  75  88
ENDBRANCH  49  50
ENDBRANCH  42  44
ENDBRANCH  41  42
ENDBRANCH  40  41
ENDBRANCH  39  40
ENDBRANCH  38  39
ENDBRANCH   1  38
TORSDOF 18
ENDMDL
MODEL 3
REMARK VINA RESULT:     -10.8      4.251     10.004
REMARK SMILES C[C@]1(C(=O)OCCOCCOCCOC(=O)c2ccc(-c3c4nc(c(-c5ccccc5)c5ccc([nH]5)c(-c5ccccc5)c5nc(c(-c6ccccc6)c6ccc3[nH]6)C=C5)C=C4)cc2)[NH2+]C2(C(=O)c3ccccc3C2=O)[C@@H]2C(=O)N(c3ccccc3)C(=O)[C@H]21
REMARK SMILES IDX 10 1 9 2 8 3 7 4 6 5 5 6 3 7 4 8 2 9 1 10 65 11 89 12 66 13
REMARK SMILES IDX 77 16 87 17 67 18 75 19 78 20 80 21 88 22 68 23 69 24 74 25
REMARK SMILES IDX 76 26 79 27 70 28 73 29 71 30 72 31 81 32 82 33 86 34 83 35
REMARK SMILES IDX 85 36 84 37 11 38 12 39 13 40 14 41 15 42 16 43 17 44 18 45
REMARK SMILES IDX 64 46 19 47 63 48 20 49 21 50 22 51 57 52 23 53 62 54 56 55
REMARK SMILES IDX 58 56 24 57 61 58 55 59 54 60 25 62 47 63 32 64 46 65 33 66
REMARK SMILES IDX 36 67 45 68 59 69 34 70 35 71 44 73 60 74 37 75 26 76 27 77
REMARK SMILES IDX 31 78 28 79 30 80 29 81 48 82 49 83 53 84 50 85 52 86 51 87
REMARK SMILES IDX 38 88 39 89 43 90 40 91 42 92 41 93
REMARK H PARENT 65 14 65 15 58 61 36 72
REMARK Flexibility Score: inf
ROOT
ATOM      1  C   UNL A   1      33.434  34.858  28.855  1.00  0.00     0.188 C 
ENDROOT
BRANCH   1   2
ATOM      2  C   UNL A   1      33.291  33.555  28.055  1.00  0.00     0.188 C 
BRANCH   2   3
ATOM      3  O   UNL A   1      34.385  32.674  27.929  1.00  0.00    -0.376 OA
BRANCH   3   4
ATOM      4  C   UNL A   1      34.193  31.367  27.416  1.00  0.00     0.202 C 
BRANCH   4   5
ATOM      5  C   UNL A   1      32.969  30.502  27.749  1.00  0.00     0.261 C 
BRANCH   5   6
ATOM      6  O   UNL A   1      32.422  29.710  26.682  1.00  0.00    -0.459 OA
BRANCH   6   7
ATOM      7  C   UNL A   1      32.365  28.369  26.903  1.00  0.00     0.368 C 
ATOM      8  O   UNL A   1      31.718  27.869  27.816  1.00  0.00    -0.245 OA
BRANCH   7   9
ATOM      9  C   UNL A   1      33.230  27.516  25.921  1.00  0.00     0.205 C 
ATOM     10  C   UNL A   1      34.653  28.078  25.978  1.00  0.00     0.093 C 
ATOM     11  N   UNL A   1      33.292  26.014  26.199  1.00  0.00    -0.313 N 
ATOM     12  C   UNL A   1      32.607  27.519  24.557  1.00  0.00     0.172 C 
ATOM     13  C   UNL A   1      32.366  25.300  25.225  1.00  0.00     0.237 C 
ATOM     14  H   UNL A   1      32.993  25.829  27.156  1.00  0.00     0.348 HD
ATOM     15  H   UNL A   1      34.247  25.677  26.079  1.00  0.00     0.348 HD
ATOM     16  C   UNL A   1      31.549  26.441  24.736  1.00  0.00     0.177 C 
ATOM     17  C   UNL A   1      31.793  28.628  23.994  1.00  0.00     0.244 C 
ATOM     18  C   UNL A   1      33.186  24.519  24.196  1.00  0.00     0.232 C 
ATOM     19  C   UNL A   1      31.574  24.198  25.932  1.00  0.00     0.232 C 
ATOM     20  C   UNL A   1      30.748  26.626  23.506  1.00  0.00     0.245 C 
ATOM     21  N   UNL A   1      30.739  28.008  23.328  1.00  0.00    -0.250 N 
ATOM     22  O   UNL A   1      32.085  29.805  24.088  1.00  0.00    -0.273 OA
ATOM     23  O   UNL A   1      33.991  24.971  23.399  1.00  0.00    -0.286 OA
ATOM     24  C   UNL A   1      32.953  23.091  24.400  1.00  0.00     0.036 A 
ATOM     25  C   UNL A   1      32.037  22.902  25.425  1.00  0.00     0.036 A 
ATOM     26  O   UNL A   1      30.668  24.316  26.739  1.00  0.00    -0.286 OA
ATOM     27  O   UNL A   1      30.147  25.740  22.924  1.00  0.00    -0.273 OA
ATOM     28  C   UNL A   1      33.543  22.025  23.741  1.00  0.00     0.013 A 
ATOM     29  C   UNL A   1      31.668  21.631  25.836  1.00  0.00     0.013 A 
ATOM     30  C   UNL A   1      33.178  20.736  24.139  1.00  0.00     0.001 A 
ATOM     31  C   UNL A   1      32.249  20.541  25.179  1.00  0.00     0.001 A 
BRANCH  21  32
ATOM     32  C   UNL A   1      29.692  28.749  22.745  1.00  0.00     0.052 A 
ATOM     33  C   UNL A   1      29.970  29.771  21.828  1.00  0.00     0.027 A 
ATOM     34  C   UNL A   1      28.380  28.586  23.207  1.00  0.00     0.027 A 
ATOM     35  C   UNL A   1      28.962  30.628  21.392  1.00  0.00     0.002 A 
ATOM     36  C   UNL A   1      27.379  29.472  22.800  1.00  0.00     0.002 A 
ATOM     37  C   UNL A   1      27.671  30.490  21.893  1.00  0.00     0.000 A 
ENDBRANCH  21  32
ENDBRANCH   7   9
ENDBRANCH   6   7
ENDBRANCH   5   6
ENDBRANCH   4   5
ENDBRANCH   3   4
ENDBRANCH   2   3
ENDBRANCH   1   2
BRANCH   1  38
ATOM     38  O   UNL A   1      33.123  34.898  30.222  1.00  0.00    -0.376 OA
BRANCH  38  39
ATOM     39  C   UNL A   1      34.091  34.535  31.186  1.00  0.00     0.202 C 
BRANCH  39  40
ATOM     40  C   UNL A   1      35.510  34.041  30.850  1.00  0.00     0.261 C 
BRANCH  40  41
ATOM     41  O   UNL A   1      36.243  33.367  31.881  1.00  0.00    -0.460 OA
BRANCH  41  42
ATOM     42  C   UNL A   1      36.170  32.010  31.883  1.00  0.00     0.338 C 
ATOM     43  O   UNL A   1      35.185  31.318  32.106  1.00  0.00    -0.246 OA
BRANCH  42  44
ATOM     44  C   UNL A   1      37.430  31.489  31.312  1.00  0.00     0.060 A 
ATOM     45  C   UNL A   1      38.454  31.059  32.154  1.00  0.00     0.016 A 
ATOM     46  C   UNL A   1      37.616  31.507  29.919  1.00  0.00     0.016 A 
ATOM     47  C   UNL A   1      39.668  30.646  31.601  1.00  0.00     0.010 A 
ATOM     48  C   UNL A   1      38.842  31.125  29.371  1.00  0.00     0.010 A 
ATOM     49  C   UNL A   1      39.873  30.678  30.209  1.00  0.00    -0.014 A 
BRANCH  49  50
ATOM     50  C   UNL A   1      41.104  30.085  29.632  1.00  0.00     0.031 A 
ATOM     51  C   UNL A   1      41.163  28.663  29.163  1.00  0.00     0.074 A 
ATOM     52  C   UNL A   1      42.187  30.876  29.525  1.00  0.00     0.049 A 
ATOM     53  N   UNL A   1      42.145  28.048  28.551  1.00  0.00    -0.248 NA
ATOM     54  C   UNL A   1      39.984  27.822  29.410  1.00  0.00     0.031 C 
ATOM     55  C   UNL A   1      42.243  32.274  29.955  1.00  0.00     0.029 A 
ATOM     56  N   UNL A   1      43.436  30.631  29.013  1.00  0.00    -0.354 N 
ATOM     57  C   UNL A   1      41.696  26.757  28.312  1.00  0.00     0.074 A 
ATOM     58  C   UNL A   1      40.371  26.661  28.890  1.00  0.00     0.031 C 
ATOM     59  C   UNL A   1      43.451  32.773  29.659  1.00  0.00     0.029 A 
ATOM     60  C   UNL A   1      44.267  31.725  29.052  1.00  0.00     0.049 A 
ATOM     61  H   UNL A   1      43.710  29.758  28.651  1.00  0.00     0.167 HD
ATOM     62  C   UNL A   1      42.330  25.756  27.654  1.00  0.00     0.031 A 
ATOM     63  C   UNL A   1      45.542  31.876  28.647  1.00  0.00     0.031 A 
ATOM     64  C   UNL A   1      43.660  25.856  27.104  1.00  0.00     0.049 A 
ATOM     65  C   UNL A   1      46.247  30.724  27.988  1.00  0.00     0.074 A 
ATOM     66  C   UNL A   1      44.361  24.904  26.384  1.00  0.00     0.029 A 
ATOM     67  N   UNL A   1      44.494  26.956  27.225  1.00  0.00    -0.354 N 
ATOM     68  N   UNL A   1      45.779  29.536  27.690  1.00  0.00    -0.248 NA
ATOM     69  C   UNL A   1      47.649  30.932  27.598  1.00  0.00     0.031 C 
ATOM     70  C   UNL A   1      45.646  25.392  26.146  1.00  0.00     0.029 A 
ATOM     71  C   UNL A   1      45.721  26.686  26.637  1.00  0.00     0.049 A 
ATOM     72  H   UNL A   1      44.253  27.805  27.663  1.00  0.00     0.167 HD
ATOM     73  C   UNL A   1      46.819  28.863  27.062  1.00  0.00     0.074 A 
ATOM     74  C   UNL A   1      47.938  29.781  27.003  1.00  0.00     0.031 C 
ATOM     75  C   UNL A   1      46.838  27.596  26.583  1.00  0.00     0.031 A 
BRANCH  62  76
ATOM     76  C   UNL A   1      41.607  24.447  27.469  1.00  0.00    -0.014 A 
ATOM     77  C   UNL A   1      40.446  24.392  26.679  1.00  0.00     0.009 A 
ATOM     78  C   UNL A   1      41.989  23.304  28.189  1.00  0.00     0.009 A 
ATOM     79  C   UNL A   1      39.669  23.232  26.635  1.00  0.00     0.001 A 
ATOM     80  C   UNL A   1      41.227  22.135  28.117  1.00  0.00     0.001 A 
ATOM     81  C   UNL A   1      40.062  22.103  27.352  1.00  0.00     0.000 A 
ENDBRANCH  62  76
BRANCH  63  82
ATOM     82  C   UNL A   1      46.209  33.192  28.833  1.00  0.00    -0.014 A 
ATOM     83  C   UNL A   1      46.934  33.464  30.006  1.00  0.00     0.009 A 
ATOM     84  C   UNL A   1      46.065  34.208  27.876  1.00  0.00     0.009 A 
ATOM     85  C   UNL A   1      47.469  34.734  30.233  1.00  0.00     0.001 A 
ATOM     86  C   UNL A   1      46.634  35.466  28.090  1.00  0.00     0.001 A 
ATOM     87  C   UNL A   1      47.322  35.732  29.272  1.00  0.00     0.000 A 
ENDBRANCH  63  82
BRANCH  75  88
ATOM     88  C   UNL A   1      48.106  27.091  25.946  1.00  0.00    -0.014 A 
ATOM     89  C   UNL A   1      49.071  26.437  26.731  1.00  0.00     0.009 A 
ATOM     90  C   UNL A   1      48.409  27.385  24.608  1.00  0.00     0.009 A 
ATOM     91  C   UNL A   1      50.323  26.119  26.201  1.00  0.00     0.001 A 
ATOM     92  C   UNL A   1      49.650  27.034  24.070  1.00  0.00     0.001 A 
ATOM     93  C   UNL A   1      50.612  26.417  24.871  1.00  0.00     0.000 A 
ENDBRANCH  75  88
ENDBRANCH  49  50
ENDBRANCH  42  44
ENDBRANCH  41  42
ENDBRANCH  40  41
ENDBRANCH  39  40
ENDBRANCH  38  39
ENDBRANCH   1  38
TORSDOF 18
ENDMDL
