MODEL 1
REMARK VINA RESULT:     -11.9      0.000      0.000
REMARK SMILES Cc1ccc(-c2ncc(C(=O)OCCOCCOCCOC(=O)c3ccc(-c4c5nc(c(-c6ccccc6)c6ccc([nH]6)c(-c6ccccc6)c6nc(c(-c7ccccc7)c7ccc4[nH]7)C=C6)C=C5)cc3)c(Nc3ccccc3)n2)cc1
REMARK SMILES IDX 16 1 15 2 14 3 13 4 12 5 10 6 11 7 9 8 6 9 7 10 80 11 8 12
REMARK SMILES IDX 72 13 5 14 1 15 2 16 3 17 82 18 4 19 81 20 73 21 74 23 75 24
REMARK SMILES IDX 79 25 76 26 78 27 77 28 17 29 18 30 19 31 20 32 21 33 22 34
REMARK SMILES IDX 23 35 24 36 25 37 71 38 26 39 70 40 27 41 28 42 29 43 64 44
REMARK SMILES IDX 30 45 69 46 63 47 65 48 31 49 68 50 62 51 61 52 32 54 54 55
REMARK SMILES IDX 39 56 53 57 40 58 43 59 52 60 66 61 41 62 42 63 51 65 67 66
REMARK SMILES IDX 44 67 33 68 34 69 38 70 35 71 37 72 36 73 55 74 56 75 60 76
REMARK SMILES IDX 57 77 59 78 58 79 45 80 46 81 50 82 47 83 49 84 48 85
REMARK H PARENT 73 22 65 53 43 64
REMARK Flexibility Score: inf
ROOT
ATOM      1  C   UNL A   1      33.721  32.035  27.951  1.00  0.00     0.188 C 
ENDROOT
BRANCH   1   2
ATOM      2  O   UNL A   1      33.659  30.821  27.184  1.00  0.00    -0.376 OA
BRANCH   2   3
ATOM      3  C   UNL A   1      32.572  29.893  27.194  1.00  0.00     0.202 C 
BRANCH   3   4
ATOM      4  C   UNL A   1      32.593  28.216  27.002  1.00  0.00     0.261 C 
BRANCH   4   5
ATOM      5  O   UNL A   1      31.383  26.913  27.181  1.00  0.00    -0.460 OA
BRANCH   5   6
ATOM      6  C   UNL A   1      30.968  25.622  26.640  1.00  0.00     0.343 C 
ATOM      7  O   UNL A   1      29.843  25.152  26.462  1.00  0.00    -0.246 OA
BRANCH   6   8
ATOM      8  C   UNL A   1      31.876  24.599  26.149  1.00  0.00     0.121 A 
ATOM      9  C   UNL A   1      32.742  22.218  25.274  1.00  0.00     0.161 A 
ATOM     10  N   UNL A   1      32.428  22.318  26.580  1.00  0.00    -0.236 NA
ATOM     11  N   UNL A   1      32.674  23.200  24.369  1.00  0.00    -0.210 NA
ATOM     12  C   UNL A   1      32.011  23.524  26.991  1.00  0.00     0.133 A 
ATOM     13  C   UNL A   1      32.139  24.364  24.765  1.00  0.00     0.149 A 
BRANCH   9  14
ATOM     14  C   UNL A   1      33.089  20.907  24.760  1.00  0.00     0.019 A 
ATOM     15  C   UNL A   1      34.037  16.933  23.414  1.00  0.00     0.044 C 
ATOM     16  C   UNL A   1      33.735  18.333  23.849  1.00  0.00    -0.051 A 
ATOM     17  C   UNL A   1      32.555  18.955  23.422  1.00  0.00     0.004 A 
ATOM     18  C   UNL A   1      34.617  19.028  24.683  1.00  0.00     0.004 A 
ATOM     19  C   UNL A   1      32.233  20.231  23.878  1.00  0.00     0.012 A 
ATOM     20  C   UNL A   1      34.302  20.309  25.125  1.00  0.00     0.012 A 
ENDBRANCH   9  14
BRANCH  13  21
ATOM     21  N   UNL A   1      31.781  25.242  23.700  1.00  0.00    -0.339 N 
ATOM     22  H   UNL A   1      31.104  24.911  23.067  1.00  0.00     0.168 HD
BRANCH  21  23
ATOM     23  C   UNL A   1      32.300  26.549  23.454  1.00  0.00     0.040 A 
ATOM     24  C   UNL A   1      31.493  27.531  22.861  1.00  0.00     0.026 A 
ATOM     25  C   UNL A   1      33.608  26.925  23.809  1.00  0.00     0.026 A 
ATOM     26  C   UNL A   1      31.983  28.817  22.568  1.00  0.00     0.002 A 
ATOM     27  C   UNL A   1      34.093  28.225  23.547  1.00  0.00     0.002 A 
ATOM     28  C   UNL A   1      33.287  29.165  22.911  1.00  0.00     0.000 A 
ENDBRANCH  21  23
ENDBRANCH  13  21
ENDBRANCH   6   8
ENDBRANCH   5   6
ENDBRANCH   4   5
ENDBRANCH   3   4
ENDBRANCH   2   3
ENDBRANCH   1   2
BRANCH   1  29
ATOM     29  C   UNL A   1      32.846  33.238  27.629  1.00  0.00     0.188 C 
BRANCH  29  30
ATOM     30  O   UNL A   1      32.590  33.949  28.820  1.00  0.00    -0.376 OA
BRANCH  30  31
ATOM     31  C   UNL A   1      33.020  35.292  28.844  1.00  0.00     0.202 C 
BRANCH  31  32
ATOM     32  C   UNL A   1      33.198  35.789  30.284  1.00  0.00     0.261 C 
BRANCH  32  33
ATOM     33  O   UNL A   1      33.409  34.672  31.185  1.00  0.00    -0.460 OA
BRANCH  33  34
ATOM     34  C   UNL A   1      34.690  34.489  31.692  1.00  0.00     0.338 C 
ATOM     35  O   UNL A   1      35.244  35.233  32.435  1.00  0.00    -0.246 OA
BRANCH  34  36
ATOM     36  C   UNL A   1      35.359  33.347  30.946  1.00  0.00     0.060 A 
ATOM     37  C   UNL A   1      35.568  32.050  31.449  1.00  0.00     0.016 A 
ATOM     38  C   UNL A   1      36.187  33.721  29.955  1.00  0.00     0.016 A 
ATOM     39  C   UNL A   1      36.757  31.256  31.105  1.00  0.00     0.010 A 
ATOM     40  C   UNL A   1      37.430  33.105  30.011  1.00  0.00     0.010 A 
ATOM     41  C   UNL A   1      37.853  31.795  30.424  1.00  0.00    -0.014 A 
BRANCH  41  42
ATOM     42  C   UNL A   1      39.435  31.072  30.275  1.00  0.00     0.031 A 
ATOM     43  C   UNL A   1      40.098  29.712  29.356  1.00  0.00     0.074 A 
ATOM     44  C   UNL A   1      40.396  31.562  31.092  1.00  0.00     0.049 A 
ATOM     45  N   UNL A   1      40.942  28.817  29.848  1.00  0.00    -0.248 NA
ATOM     46  C   UNL A   1      39.733  29.174  27.976  1.00  0.00     0.031 C 
ATOM     47  C   UNL A   1      41.830  31.289  31.046  1.00  0.00     0.029 A 
ATOM     48  N   UNL A   1      40.249  32.402  32.193  1.00  0.00    -0.354 N 
ATOM     49  C   UNL A   1      41.210  27.835  28.867  1.00  0.00     0.074 A 
ATOM     50  C   UNL A   1      40.291  27.999  27.826  1.00  0.00     0.031 C 
ATOM     51  C   UNL A   1      42.391  31.721  32.186  1.00  0.00     0.029 A 
ATOM     52  C   UNL A   1      41.322  32.168  33.058  1.00  0.00     0.049 A 
ATOM     53  H   UNL A   1      39.519  33.046  32.337  1.00  0.00     0.167 HD
ATOM     54  C   UNL A   1      42.311  27.041  28.795  1.00  0.00     0.031 A 
ATOM     55  C   UNL A   1      41.108  31.761  34.338  1.00  0.00     0.031 A 
ATOM     56  C   UNL A   1      43.159  27.322  29.911  1.00  0.00     0.049 A 
ATOM     57  C   UNL A   1      41.698  30.398  34.618  1.00  0.00     0.074 A 
ATOM     58  C   UNL A   1      44.170  28.246  30.086  1.00  0.00     0.029 A 
ATOM     59  N   UNL A   1      42.701  26.961  31.158  1.00  0.00    -0.354 N 
ATOM     60  N   UNL A   1      42.142  29.591  33.692  1.00  0.00    -0.248 NA
ATOM     61  C   UNL A   1      41.837  29.826  35.954  1.00  0.00     0.031 C 
ATOM     62  C   UNL A   1      44.268  28.496  31.478  1.00  0.00     0.029 A 
ATOM     63  C   UNL A   1      43.365  27.675  32.129  1.00  0.00     0.049 A 
ATOM     64  H   UNL A   1      42.002  26.289  31.330  1.00  0.00     0.167 HD
ATOM     65  C   UNL A   1      42.585  28.429  34.261  1.00  0.00     0.074 A 
ATOM     66  C   UNL A   1      42.388  28.629  35.683  1.00  0.00     0.031 C 
ATOM     67  C   UNL A   1      43.065  27.391  33.517  1.00  0.00     0.031 A 
BRANCH  54  68
ATOM     68  C   UNL A   1      42.724  26.370  27.487  1.00  0.00    -0.014 A 
ATOM     69  C   UNL A   1      42.362  25.034  27.262  1.00  0.00     0.009 A 
ATOM     70  C   UNL A   1      43.569  26.947  26.509  1.00  0.00     0.009 A 
ATOM     71  C   UNL A   1      42.918  24.279  26.214  1.00  0.00     0.001 A 
ATOM     72  C   UNL A   1      44.188  26.180  25.507  1.00  0.00     0.001 A 
ATOM     73  C   UNL A   1      43.870  24.837  25.368  1.00  0.00     0.000 A 
ENDBRANCH  54  68
BRANCH  55  74
ATOM     74  C   UNL A   1      39.896  32.376  34.957  1.00  0.00    -0.014 A 
ATOM     75  C   UNL A   1      39.948  33.761  35.238  1.00  0.00     0.009 A 
ATOM     76  C   UNL A   1      38.636  31.767  34.905  1.00  0.00     0.009 A 
ATOM     77  C   UNL A   1      38.784  34.534  35.326  1.00  0.00     0.001 A 
ATOM     78  C   UNL A   1      37.471  32.545  35.022  1.00  0.00     0.001 A 
ATOM     79  C   UNL A   1      37.543  33.928  35.186  1.00  0.00     0.000 A 
ENDBRANCH  55  74
BRANCH  67  80
ATOM     80  C   UNL A   1      43.314  25.980  33.993  1.00  0.00    -0.014 A 
ATOM     81  C   UNL A   1      42.455  25.281  34.844  1.00  0.00     0.009 A 
ATOM     82  C   UNL A   1      44.375  25.242  33.411  1.00  0.00     0.009 A 
ATOM     83  C   UNL A   1      42.665  23.924  35.127  1.00  0.00     0.001 A 
ATOM     84  C   UNL A   1      44.548  23.877  33.637  1.00  0.00     0.001 A 
ATOM     85  C   UNL A   1      43.698  23.220  34.511  1.00  0.00     0.000 A 
ENDBRANCH  67  80
ENDBRANCH  41  42
ENDBRANCH  34  36
ENDBRANCH  33  34
ENDBRANCH  32  33
ENDBRANCH  31  32
ENDBRANCH  30  31
ENDBRANCH  29  30
ENDBRANCH   1  29
TORSDOF 20
ENDMDL
MODEL 2
REMARK VINA RESULT:     -11.4      5.143     10.735
REMARK SMILES Cc1ccc(-c2ncc(C(=O)OCCOCCOCCOC(=O)c3ccc(-c4c5nc(c(-c6ccccc6)c6ccc([nH]6)c(-c6ccccc6)c6nc(c(-c7ccccc7)c7ccc4[nH]7)C=C6)C=C5)cc3)c(Nc3ccccc3)n2)cc1
REMARK SMILES IDX 16 1 15 2 14 3 13 4 12 5 10 6 11 7 9 8 6 9 7 10 80 11 8 12
REMARK SMILES IDX 72 13 5 14 1 15 2 16 3 17 82 18 4 19 81 20 73 21 74 23 75 24
REMARK SMILES IDX 79 25 76 26 78 27 77 28 17 29 18 30 19 31 20 32 21 33 22 34
REMARK SMILES IDX 23 35 24 36 25 37 71 38 26 39 70 40 27 41 28 42 29 43 64 44
REMARK SMILES IDX 30 45 69 46 63 47 65 48 31 49 68 50 62 51 61 52 32 54 54 55
REMARK SMILES IDX 39 56 53 57 40 58 43 59 52 60 66 61 41 62 42 63 51 65 67 66
REMARK SMILES IDX 44 67 33 68 34 69 38 70 35 71 37 72 36 73 55 74 56 75 60 76
REMARK SMILES IDX 57 77 59 78 58 79 45 80 46 81 50 82 47 83 49 84 48 85
REMARK H PARENT 73 22 65 53 43 64
REMARK Flexibility Score: inf
ROOT
ATOM      1  C   UNL A   1      33.552  34.379  33.150  1.00  0.00     0.188 C 
ENDROOT
BRANCH   1   2
ATOM      2  O   UNL A   1      32.823  35.238  32.259  1.00  0.00    -0.376 OA
BRANCH   2   3
ATOM      3  C   UNL A   1      33.242  35.613  30.944  1.00  0.00     0.202 C 
BRANCH   3   4
ATOM      4  C   UNL A   1      34.348  34.858  29.916  1.00  0.00     0.261 C 
BRANCH   4   5
ATOM      5  O   UNL A   1      34.220  33.707  28.556  1.00  0.00    -0.460 OA
BRANCH   5   6
ATOM      6  C   UNL A   1      34.354  32.298  28.201  1.00  0.00     0.343 C 
ATOM      7  O   UNL A   1      33.619  31.564  27.537  1.00  0.00    -0.246 OA
BRANCH   6   8
ATOM      8  C   UNL A   1      35.478  31.454  28.570  1.00  0.00     0.121 A 
ATOM      9  C   UNL A   1      37.574  29.803  28.308  1.00  0.00     0.161 A 
ATOM     10  N   UNL A   1      36.352  29.289  28.074  1.00  0.00    -0.236 NA
ATOM     11  N   UNL A   1      37.845  31.061  28.672  1.00  0.00    -0.210 NA
ATOM     12  C   UNL A   1      35.322  30.136  28.226  1.00  0.00     0.133 A 
ATOM     13  C   UNL A   1      36.820  31.926  28.700  1.00  0.00     0.149 A 
BRANCH   9  14
ATOM     14  C   UNL A   1      38.724  28.959  28.048  1.00  0.00     0.019 A 
ATOM     15  C   UNL A   1      42.014  26.341  27.139  1.00  0.00     0.044 C 
ATOM     16  C   UNL A   1      40.893  27.269  27.492  1.00  0.00    -0.051 A 
ATOM     17  C   UNL A   1      40.765  28.492  26.822  1.00  0.00     0.004 A 
ATOM     18  C   UNL A   1      39.967  26.924  28.481  1.00  0.00     0.004 A 
ATOM     19  C   UNL A   1      39.686  29.329  27.096  1.00  0.00     0.012 A 
ATOM     20  C   UNL A   1      38.898  27.769  28.765  1.00  0.00     0.012 A 
ENDBRANCH   9  14
BRANCH  13  21
ATOM     21  N   UNL A   1      37.207  33.297  28.757  1.00  0.00    -0.339 N 
ATOM     22  H   UNL A   1      36.638  33.935  28.268  1.00  0.00     0.168 HD
BRANCH  21  23
ATOM     23  C   UNL A   1      38.330  33.844  29.448  1.00  0.00     0.040 A 
ATOM     24  C   UNL A   1      38.387  33.803  30.850  1.00  0.00     0.026 A 
ATOM     25  C   UNL A   1      39.427  34.415  28.780  1.00  0.00     0.026 A 
ATOM     26  C   UNL A   1      39.460  34.368  31.565  1.00  0.00     0.002 A 
ATOM     27  C   UNL A   1      40.521  34.952  29.493  1.00  0.00     0.002 A 
ATOM     28  C   UNL A   1      40.529  34.944  30.885  1.00  0.00     0.000 A 
ENDBRANCH  21  23
ENDBRANCH  13  21
ENDBRANCH   6   8
ENDBRANCH   5   6
ENDBRANCH   4   5
ENDBRANCH   3   4
ENDBRANCH   2   3
ENDBRANCH   1   2
BRANCH   1  29
ATOM     29  C   UNL A   1      34.829  34.833  33.843  1.00  0.00     0.188 C 
BRANCH  29  30
ATOM     30  O   UNL A   1      35.648  33.707  34.075  1.00  0.00    -0.376 OA
BRANCH  30  31
ATOM     31  C   UNL A   1      36.942  33.974  34.567  1.00  0.00     0.202 C 
BRANCH  31  32
ATOM     32  C   UNL A   1      37.420  32.855  35.499  1.00  0.00     0.261 C 
BRANCH  32  33
ATOM     33  O   UNL A   1      38.000  31.768  34.733  1.00  0.00    -0.460 OA
BRANCH  33  34
ATOM     34  C   UNL A   1      38.834  30.882  35.406  1.00  0.00     0.338 C 
ATOM     35  O   UNL A   1      38.507  30.198  36.321  1.00  0.00    -0.246 OA
BRANCH  34  36
ATOM     36  C   UNL A   1      40.269  31.122  34.968  1.00  0.00     0.060 A 
ATOM     37  C   UNL A   1      41.289  31.668  35.768  1.00  0.00     0.016 A 
ATOM     38  C   UNL A   1      40.447  31.245  33.642  1.00  0.00     0.016 A 
ATOM     39  C   UNL A   1      42.341  32.534  35.215  1.00  0.00     0.010 A 
ATOM     40  C   UNL A   1      41.193  32.361  33.286  1.00  0.00     0.010 A 
ATOM     41  C   UNL A   1      42.295  33.038  33.911  1.00  0.00    -0.014 A 
BRANCH  41  42
ATOM     42  C   UNL A   1      43.274  34.333  33.269  1.00  0.00     0.031 A 
ATOM     43  C   UNL A   1      43.330  36.086  33.511  1.00  0.00     0.074 A 
ATOM     44  C   UNL A   1      44.147  33.995  32.292  1.00  0.00     0.049 A 
ATOM     45  N   UNL A   1      43.468  36.972  32.535  1.00  0.00    -0.248 NA
ATOM     46  C   UNL A   1      43.051  36.927  34.752  1.00  0.00     0.031 C 
ATOM     47  C   UNL A   1      45.211  34.819  31.722  1.00  0.00     0.029 A 
ATOM     48  N   UNL A   1      44.215  32.809  31.566  1.00  0.00    -0.354 N 
ATOM     49  C   UNL A   1      43.402  38.278  33.074  1.00  0.00     0.074 A 
ATOM     50  C   UNL A   1      42.947  38.181  34.393  1.00  0.00     0.031 C 
ATOM     51  C   UNL A   1      45.651  34.239  30.595  1.00  0.00     0.029 A 
ATOM     52  C   UNL A   1      44.801  33.095  30.330  1.00  0.00     0.049 A 
ATOM     53  H   UNL A   1      43.906  31.925  31.870  1.00  0.00     0.167 HD
ATOM     54  C   UNL A   1      43.928  39.407  32.528  1.00  0.00     0.031 A 
ATOM     55  C   UNL A   1      44.138  32.839  29.170  1.00  0.00     0.031 A 
ATOM     56  C   UNL A   1      44.535  39.077  31.277  1.00  0.00     0.049 A 
ATOM     57  C   UNL A   1      43.872  34.092  28.368  1.00  0.00     0.074 A 
ATOM     58  C   UNL A   1      45.810  38.654  30.958  1.00  0.00     0.029 A 
ATOM     59  N   UNL A   1      43.699  38.699  30.250  1.00  0.00    -0.354 N 
ATOM     60  N   UNL A   1      44.029  35.303  28.832  1.00  0.00    -0.248 NA
ATOM     61  C   UNL A   1      43.405  34.094  26.984  1.00  0.00     0.031 C 
ATOM     62  C   UNL A   1      45.718  37.939  29.738  1.00  0.00     0.029 A 
ATOM     63  C   UNL A   1      44.406  37.995  29.302  1.00  0.00     0.049 A 
ATOM     64  H   UNL A   1      42.737  38.903  30.201  1.00  0.00     0.167 HD
ATOM     65  C   UNL A   1      43.680  36.217  27.876  1.00  0.00     0.074 A 
ATOM     66  C   UNL A   1      43.311  35.411  26.729  1.00  0.00     0.031 C 
ATOM     67  C   UNL A   1      43.710  37.560  28.108  1.00  0.00     0.031 A 
BRANCH  54  68
ATOM     68  C   UNL A   1      44.212  40.643  33.378  1.00  0.00    -0.014 A 
ATOM     69  C   UNL A   1      43.312  41.718  33.340  1.00  0.00     0.009 A 
ATOM     70  C   UNL A   1      45.395  40.862  34.123  1.00  0.00     0.009 A 
ATOM     71  C   UNL A   1      43.632  42.974  33.884  1.00  0.00     0.001 A 
ATOM     72  C   UNL A   1      45.754  42.135  34.601  1.00  0.00     0.001 A 
ATOM     73  C   UNL A   1      44.873  43.197  34.469  1.00  0.00     0.000 A 
ENDBRANCH  54  68
BRANCH  55  74
ATOM     74  C   UNL A   1      43.309  31.598  29.226  1.00  0.00    -0.014 A 
ATOM     75  C   UNL A   1      43.998  30.362  29.213  1.00  0.00     0.009 A 
ATOM     76  C   UNL A   1      41.982  31.601  29.672  1.00  0.00     0.009 A 
ATOM     77  C   UNL A   1      43.430  29.202  29.754  1.00  0.00     0.001 A 
ATOM     78  C   UNL A   1      41.408  30.426  30.188  1.00  0.00     0.001 A 
ATOM     79  C   UNL A   1      42.143  29.243  30.271  1.00  0.00     0.000 A 
ENDBRANCH  55  74
BRANCH  67  80
ATOM     80  C   UNL A   1      43.094  38.638  27.249  1.00  0.00    -0.014 A 
ATOM     81  C   UNL A   1      41.718  38.802  27.073  1.00  0.00     0.009 A 
ATOM     82  C   UNL A   1      43.930  39.661  26.734  1.00  0.00     0.009 A 
ATOM     83  C   UNL A   1      41.206  39.913  26.387  1.00  0.00     0.001 A 
ATOM     84  C   UNL A   1      43.420  40.799  26.111  1.00  0.00     0.001 A 
ATOM     85  C   UNL A   1      42.054  40.917  25.923  1.00  0.00     0.000 A 
ENDBRANCH  67  80
ENDBRANCH  41  42
ENDBRANCH  34  36
ENDBRANCH  33  34
ENDBRANCH  32  33
ENDBRANCH  31  32
ENDBRANCH  30  31
ENDBRANCH  29  30
ENDBRANCH   1  29
TORSDOF 20
ENDMDL
MODEL 3
REMARK VINA RESULT:     -11.2      1.945      3.297
REMARK SMILES Cc1ccc(-c2ncc(C(=O)OCCOCCOCCOC(=O)c3ccc(-c4c5nc(c(-c6ccccc6)c6ccc([nH]6)c(-c6ccccc6)c6nc(c(-c7ccccc7)c7ccc4[nH]7)C=C6)C=C5)cc3)c(Nc3ccccc3)n2)cc1
REMARK SMILES IDX 16 1 15 2 14 3 13 4 12 5 10 6 11 7 9 8 6 9 7 10 80 11 8 12
REMARK SMILES IDX 72 13 5 14 1 15 2 16 3 17 82 18 4 19 81 20 73 21 74 23 75 24
REMARK SMILES IDX 79 25 76 26 78 27 77 28 17 29 18 30 19 31 20 32 21 33 22 34
REMARK SMILES IDX 23 35 24 36 25 37 71 38 26 39 70 40 27 41 28 42 29 43 64 44
REMARK SMILES IDX 30 45 69 46 63 47 65 48 31 49 68 50 62 51 61 52 32 54 54 55
REMARK SMILES IDX 39 56 53 57 40 58 43 59 52 60 66 61 41 62 42 63 51 65 67 66
REMARK SMILES IDX 44 67 33 68 34 69 38 70 35 71 37 72 36 73 55 74 56 75 60 76
REMARK SMILES IDX 57 77 59 78 58 79 45 80 46 81 50 82 47 83 49 84 48 85
REMARK H PARENT 73 22 65 53 43 64
REMARK Flexibility Score: inf
ROOT
ATOM      1  C   UNL A   1      34.568  31.217  27.814  1.00  0.00     0.188 C 
ENDROOT
BRANCH   1   2
ATOM      2  O   UNL A   1      34.147  29.851  27.958  1.00  0.00    -0.376 OA
BRANCH   2   3
ATOM      3  C   UNL A   1      33.066  29.240  27.249  1.00  0.00     0.202 C 
BRANCH   3   4
ATOM      4  C   UNL A   1      33.018  27.764  26.432  1.00  0.00     0.261 C 
BRANCH   4   5
ATOM      5  O   UNL A   1      33.639  27.170  24.866  1.00  0.00    -0.460 OA
BRANCH   5   6
ATOM      6  C   UNL A   1      33.682  26.000  23.994  1.00  0.00     0.343 C 
ATOM      7  O   UNL A   1      33.885  25.910  22.781  1.00  0.00    -0.246 OA
BRANCH   6   8
ATOM      8  C   UNL A   1      33.512  24.627  24.440  1.00  0.00     0.121 A 
ATOM      9  C   UNL A   1      33.414  21.950  24.353  1.00  0.00     0.161 A 
ATOM     10  N   UNL A   1      32.420  22.624  23.742  1.00  0.00    -0.236 NA
ATOM     11  N   UNL A   1      34.444  22.490  25.012  1.00  0.00    -0.210 NA
ATOM     12  C   UNL A   1      32.489  23.962  23.815  1.00  0.00     0.133 A 
ATOM     13  C   UNL A   1      34.568  23.825  24.970  1.00  0.00     0.149 A 
BRANCH   9  14
ATOM     14  C   UNL A   1      33.443  20.508  24.205  1.00  0.00     0.019 A 
ATOM     15  C   UNL A   1      33.623  16.256  23.579  1.00  0.00     0.044 C 
ATOM     16  C   UNL A   1      33.531  17.729  23.833  1.00  0.00    -0.051 A 
ATOM     17  C   UNL A   1      34.524  18.369  24.584  1.00  0.00     0.004 A 
ATOM     18  C   UNL A   1      32.464  18.475  23.322  1.00  0.00     0.004 A 
ATOM     19  C   UNL A   1      34.482  19.749  24.765  1.00  0.00     0.012 A 
ATOM     20  C   UNL A   1      32.415  19.851  23.518  1.00  0.00     0.012 A 
ENDBRANCH   9  14
BRANCH  13  21
ATOM     21  N   UNL A   1      35.841  24.313  25.387  1.00  0.00    -0.339 N 
ATOM     22  H   UNL A   1      35.920  25.287  25.509  1.00  0.00     0.168 HD
BRANCH  21  23
ATOM     23  C   UNL A   1      37.013  23.541  25.646  1.00  0.00     0.040 A 
ATOM     24  C   UNL A   1      37.137  22.245  25.122  1.00  0.00     0.026 A 
ATOM     25  C   UNL A   1      38.095  24.032  26.399  1.00  0.00     0.026 A 
ATOM     26  C   UNL A   1      38.261  21.441  25.390  1.00  0.00     0.002 A 
ATOM     27  C   UNL A   1      39.238  23.241  26.642  1.00  0.00     0.002 A 
ATOM     28  C   UNL A   1      39.314  21.940  26.152  1.00  0.00     0.000 A 
ENDBRANCH  21  23
ENDBRANCH  13  21
ENDBRANCH   6   8
ENDBRANCH   5   6
ENDBRANCH   4   5
ENDBRANCH   3   4
ENDBRANCH   2   3
ENDBRANCH   1   2
BRANCH   1  29
ATOM     29  C   UNL A   1      33.573  32.351  27.611  1.00  0.00     0.188 C 
BRANCH  29  30
ATOM     30  O   UNL A   1      33.417  33.045  28.829  1.00  0.00    -0.376 OA
BRANCH  30  31
ATOM     31  C   UNL A   1      34.409  34.001  29.129  1.00  0.00     0.202 C 
BRANCH  31  32
ATOM     32  C   UNL A   1      34.803  33.943  30.609  1.00  0.00     0.261 C 
BRANCH  32  33
ATOM     33  O   UNL A   1      34.677  32.589  31.116  1.00  0.00    -0.460 OA
BRANCH  33  34
ATOM     34  C   UNL A   1      35.776  32.044  31.770  1.00  0.00     0.338 C 
ATOM     35  O   UNL A   1      36.218  32.431  32.803  1.00  0.00    -0.246 OA
BRANCH  34  36
ATOM     36  C   UNL A   1      36.472  31.067  30.837  1.00  0.00     0.060 A 
ATOM     37  C   UNL A   1      36.673  29.697  31.086  1.00  0.00     0.016 A 
ATOM     38  C   UNL A   1      37.327  31.626  29.963  1.00  0.00     0.016 A 
ATOM     39  C   UNL A   1      37.875  28.984  30.630  1.00  0.00     0.010 A 
ATOM     40  C   UNL A   1      38.571  31.008  29.936  1.00  0.00     0.010 A 
ATOM     41  C   UNL A   1      38.988  29.644  30.100  1.00  0.00    -0.014 A 
BRANCH  41  42
ATOM     42  C   UNL A   1      40.576  28.962  29.861  1.00  0.00     0.031 A 
ATOM     43  C   UNL A   1      41.207  27.553  28.993  1.00  0.00     0.074 A 
ATOM     44  C   UNL A   1      41.587  29.547  30.543  1.00  0.00     0.049 A 
ATOM     45  N   UNL A   1      42.126  26.728  29.473  1.00  0.00    -0.248 NA
ATOM     46  C   UNL A   1      40.740  26.892  27.700  1.00  0.00     0.031 C 
ATOM     47  C   UNL A   1      43.022  29.317  30.385  1.00  0.00     0.029 A 
ATOM     48  N   UNL A   1      41.509  30.469  31.584  1.00  0.00    -0.354 N 
ATOM     49  C   UNL A   1      42.343  25.678  28.551  1.00  0.00     0.074 A 
ATOM     50  C   UNL A   1      41.327  25.728  27.591  1.00  0.00     0.031 C 
ATOM     51  C   UNL A   1      43.666  29.858  31.430  1.00  0.00     0.029 A 
ATOM     52  C   UNL A   1      42.664  30.341  32.360  1.00  0.00     0.049 A 
ATOM     53  H   UNL A   1      40.770  31.099  31.745  1.00  0.00     0.167 HD
ATOM     54  C   UNL A   1      43.464  24.916  28.440  1.00  0.00     0.031 A 
ATOM     55  C   UNL A   1      42.582  30.033  33.683  1.00  0.00     0.031 A 
ATOM     56  C   UNL A   1      44.397  25.315  29.446  1.00  0.00     0.049 A 
ATOM     57  C   UNL A   1      43.249  28.717  34.013  1.00  0.00     0.074 A 
ATOM     58  C   UNL A   1      45.383  26.282  29.453  1.00  0.00     0.029 A 
ATOM     59  N   UNL A   1      44.068  25.042  30.755  1.00  0.00    -0.354 N 
ATOM     60  N   UNL A   1      43.638  27.851  33.115  1.00  0.00    -0.248 NA
ATOM     61  C   UNL A   1      43.530  28.261  35.371  1.00  0.00     0.031 C 
ATOM     62  C   UNL A   1      45.597  26.648  30.806  1.00  0.00     0.029 A 
ATOM     63  C   UNL A   1      44.789  25.854  31.600  1.00  0.00     0.049 A 
ATOM     64  H   UNL A   1      43.415  24.365  31.044  1.00  0.00     0.167 HD
ATOM     65  C   UNL A   1      44.176  26.754  33.731  1.00  0.00     0.074 A 
ATOM     66  C   UNL A   1      44.101  27.064  35.144  1.00  0.00     0.031 C 
ATOM     67  C   UNL A   1      44.627  25.675  33.029  1.00  0.00     0.031 A 
BRANCH  54  68
ATOM     68  C   UNL A   1      43.782  24.155  27.155  1.00  0.00    -0.014 A 
ATOM     69  C   UNL A   1      44.211  24.869  26.027  1.00  0.00     0.009 A 
ATOM     70  C   UNL A   1      43.557  22.772  26.953  1.00  0.00     0.009 A 
ATOM     71  C   UNL A   1      44.273  24.280  24.753  1.00  0.00     0.001 A 
ATOM     72  C   UNL A   1      43.541  22.195  25.671  1.00  0.00     0.001 A 
ATOM     73  C   UNL A   1      43.889  22.957  24.565  1.00  0.00     0.000 A 
ENDBRANCH  54  68
BRANCH  55  74
ATOM     74  C   UNL A   1      41.408  30.658  34.362  1.00  0.00    -0.014 A 
ATOM     75  C   UNL A   1      41.353  32.071  34.385  1.00  0.00     0.009 A 
ATOM     76  C   UNL A   1      40.224  29.953  34.611  1.00  0.00     0.009 A 
ATOM     77  C   UNL A   1      40.138  32.754  34.512  1.00  0.00     0.001 A 
ATOM     78  C   UNL A   1      39.010  30.647  34.766  1.00  0.00     0.001 A 
ATOM     79  C   UNL A   1      38.959  32.038  34.672  1.00  0.00     0.000 A 
ENDBRANCH  55  74
BRANCH  67  80
ATOM     80  C   UNL A   1      44.974  24.317  33.589  1.00  0.00    -0.014 A 
ATOM     81  C   UNL A   1      46.268  23.925  33.936  1.00  0.00     0.009 A 
ATOM     82  C   UNL A   1      43.921  23.445  33.964  1.00  0.00     0.009 A 
ATOM     83  C   UNL A   1      46.502  22.707  34.591  1.00  0.00     0.001 A 
ATOM     84  C   UNL A   1      44.144  22.266  34.675  1.00  0.00     0.001 A 
ATOM     85  C   UNL A   1      45.442  21.889  34.975  1.00  0.00     0.000 A 
ENDBRANCH  67  80
ENDBRANCH  41  42
ENDBRANCH  34  36
ENDBRANCH  33  34
ENDBRANCH  32  33
ENDBRANCH  31  32
ENDBRANCH  30  31
ENDBRANCH  29  30
ENDBRANCH   1  29
TORSDOF 20
ENDMDL
