MODEL 1
REMARK VINA RESULT:     -10.1      0.000      0.000
REMARK SMILES COc1ccccc1[C@@H]1CN(C(=O)Cc2csc(C)n2)C[C@H]1C(=O)OCCOCCOCCOC(=O)c1ccc(-c2c3nc(c(-c4ccccc4)c4ccc([nH]4)c(-c4ccccc4)c4nc(c(-c5ccccc5)c5ccc2[nH]5)C=C4)C=C3)cc1
REMARK SMILES IDX 29 1 28 2 27 3 26 4 25 5 23 6 24 7 22 8 9 9 10 10 11 11
REMARK SMILES IDX 21 12 8 13 3 14 4 15 5 16 7 17 6 18 2 19 1 20 12 21 13 22
REMARK SMILES IDX 14 23 15 24 16 25 20 26 17 27 18 28 19 29 30 30 31 31 32 32
REMARK SMILES IDX 33 33 34 34 35 35 36 36 37 37 38 38 84 39 39 40 83 41 40 42
REMARK SMILES IDX 41 43 42 44 77 45 43 46 82 47 76 48 78 49 44 50 81 51 75 52
REMARK SMILES IDX 74 53 45 55 67 56 52 57 66 58 53 59 56 60 65 61 79 62 54 63
REMARK SMILES IDX 55 64 64 66 80 67 57 68 46 69 47 70 51 71 48 72 50 73 49 74
REMARK SMILES IDX 68 75 69 76 73 77 70 78 72 79 71 80 58 81 59 82 63 83 60 84
REMARK SMILES IDX 62 85 61 86
REMARK H PARENT 78 54 56 65
REMARK Flexibility Score: inf
ROOT
ATOM      1  C   UNL A   1      39.897  21.862  26.466  1.00  0.00     0.188 C 
ENDROOT
BRANCH   1   2
ATOM      2  O   UNL A   1      38.770  22.190  25.663  1.00  0.00    -0.376 OA
BRANCH   2   3
ATOM      3  C   UNL A   1      37.969  23.310  26.005  1.00  0.00     0.202 C 
BRANCH   3   4
ATOM      4  C   UNL A   1      36.452  23.138  25.874  1.00  0.00     0.261 C 
BRANCH   4   5
ATOM      5  O   UNL A   1      35.841  23.866  24.786  1.00  0.00    -0.463 OA
BRANCH   5   6
ATOM      6  C   UNL A   1      35.520  23.129  23.693  1.00  0.00     0.311 C 
ATOM      7  O   UNL A   1      36.283  22.928  22.752  1.00  0.00    -0.252 OA
BRANCH   6   8
ATOM      8  C   UNL A   1      34.089  22.635  23.639  1.00  0.00     0.128 C 
ATOM      9  C   UNL A   1      33.507  21.637  24.671  1.00  0.00     0.058 C 
ATOM     10  C   UNL A   1      32.050  22.097  24.838  1.00  0.00     0.129 C 
ATOM     11  N   UNL A   1      32.046  23.506  24.514  1.00  0.00    -0.341 N 
ATOM     12  C   UNL A   1      33.206  23.877  23.736  1.00  0.00     0.135 C 
BRANCH   9  13
ATOM     13  C   UNL A   1      33.467  20.144  24.339  1.00  0.00    -0.000 A 
ATOM     14  C   UNL A   1      34.476  19.234  24.714  1.00  0.00     0.122 A 
ATOM     15  C   UNL A   1      34.464  17.908  24.265  1.00  0.00     0.047 A 
ATOM     16  C   UNL A   1      33.440  17.460  23.432  1.00  0.00     0.004 A 
ATOM     17  C   UNL A   1      32.455  19.670  23.479  1.00  0.00     0.008 A 
ATOM     18  C   UNL A   1      32.436  18.341  23.039  1.00  0.00     0.001 A 
BRANCH  14  19
ATOM     19  O   UNL A   1      35.574  19.702  25.386  1.00  0.00    -0.496 OA
ATOM     20  C   UNL A   1      36.779  19.586  24.632  1.00  0.00     0.278 C 
ENDBRANCH  14  19
ENDBRANCH   9  13
BRANCH  11  21
ATOM     21  C   UNL A   1      31.004  24.387  24.702  1.00  0.00     0.228 C 
ATOM     22  O   UNL A   1      30.524  24.586  25.821  1.00  0.00    -0.274 OA
BRANCH  21  23
ATOM     23  C   UNL A   1      30.472  25.126  23.485  1.00  0.00     0.157 C 
BRANCH  23  24
ATOM     24  C   UNL A   1      30.623  26.605  23.638  1.00  0.00     0.061 A 
ATOM     25  C   UNL A   1      31.726  27.281  24.126  1.00  0.00     0.091 A 
ATOM     26  N   UNL A   1      29.579  27.425  23.228  1.00  0.00    -0.246 NA
ATOM     27  S   UNL A   1      31.468  28.970  24.049  1.00  0.00    -0.127 S 
ATOM     28  C   UNL A   1      29.905  28.690  23.391  1.00  0.00     0.090 A 
ATOM     29  C   UNL A   1      29.027  29.840  23.049  1.00  0.00     0.079 C 
ENDBRANCH  23  24
ENDBRANCH  21  23
ENDBRANCH  11  21
ENDBRANCH   6   8
ENDBRANCH   5   6
ENDBRANCH   4   5
ENDBRANCH   3   4
ENDBRANCH   2   3
ENDBRANCH   1   2
BRANCH   1  30
ATOM     30  C   UNL A   1      40.496  20.452  26.404  1.00  0.00     0.188 C 
BRANCH  30  31
ATOM     31  O   UNL A   1      41.324  20.116  27.506  1.00  0.00    -0.376 OA
BRANCH  31  32
ATOM     32  C   UNL A   1      42.311  19.133  27.227  1.00  0.00     0.202 C 
BRANCH  32  33
ATOM     33  C   UNL A   1      42.704  19.181  25.749  1.00  0.00     0.261 C 
BRANCH  33  34
ATOM     34  O   UNL A   1      44.123  19.053  25.531  1.00  0.00    -0.460 OA
BRANCH  34  35
ATOM     35  C   UNL A   1      44.592  19.594  24.390  1.00  0.00     0.338 C 
ATOM     36  O   UNL A   1      44.606  19.084  23.275  1.00  0.00    -0.246 OA
BRANCH  35  37
ATOM     37  C   UNL A   1      44.977  20.987  24.655  1.00  0.00     0.060 A 
ATOM     38  C   UNL A   1      45.575  21.304  25.877  1.00  0.00     0.016 A 
ATOM     39  C   UNL A   1      44.672  21.989  23.739  1.00  0.00     0.016 A 
ATOM     40  C   UNL A   1      45.811  22.630  26.226  1.00  0.00     0.010 A 
ATOM     41  C   UNL A   1      44.929  23.322  24.079  1.00  0.00     0.010 A 
ATOM     42  C   UNL A   1      45.463  23.652  25.339  1.00  0.00    -0.014 A 
BRANCH  42  43
ATOM     43  C   UNL A   1      45.520  25.067  25.780  1.00  0.00     0.031 A 
ATOM     44  C   UNL A   1      46.827  25.803  25.686  1.00  0.00     0.074 A 
ATOM     45  C   UNL A   1      44.424  25.705  26.227  1.00  0.00     0.049 A 
ATOM     46  N   UNL A   1      47.158  26.972  26.171  1.00  0.00    -0.248 NA
ATOM     47  C   UNL A   1      47.905  25.129  24.942  1.00  0.00     0.031 C 
ATOM     48  C   UNL A   1      43.072  25.148  26.273  1.00  0.00     0.029 A 
ATOM     49  N   UNL A   1      44.283  26.974  26.732  1.00  0.00    -0.354 N 
ATOM     50  C   UNL A   1      48.493  27.152  25.835  1.00  0.00     0.074 A 
ATOM     51  C   UNL A   1      48.910  25.976  25.102  1.00  0.00     0.031 C 
ATOM     52  C   UNL A   1      42.238  26.070  26.784  1.00  0.00     0.029 A 
ATOM     53  C   UNL A   1      43.009  27.252  27.162  1.00  0.00     0.049 A 
ATOM     54  H   UNL A   1      45.024  27.620  26.784  1.00  0.00     0.167 HD
ATOM     55  C   UNL A   1      49.302  28.199  26.120  1.00  0.00     0.031 A 
ATOM     56  C   UNL A   1      42.529  28.319  27.828  1.00  0.00     0.031 A 
ATOM     57  C   UNL A   1      48.882  29.374  26.834  1.00  0.00     0.049 A 
ATOM     58  C   UNL A   1      43.465  29.432  28.216  1.00  0.00     0.074 A 
ATOM     59  C   UNL A   1      49.631  30.484  27.185  1.00  0.00     0.029 A 
ATOM     60  N   UNL A   1      47.595  29.594  27.299  1.00  0.00    -0.354 N 
ATOM     61  N   UNL A   1      44.742  29.568  27.952  1.00  0.00    -0.248 NA
ATOM     62  C   UNL A   1      42.894  30.532  29.007  1.00  0.00     0.031 C 
ATOM     63  C   UNL A   1      48.804  31.359  27.901  1.00  0.00     0.029 A 
ATOM     64  C   UNL A   1      47.531  30.814  27.949  1.00  0.00     0.049 A 
ATOM     65  H   UNL A   1      46.839  28.974  27.184  1.00  0.00     0.167 HD
ATOM     66  C   UNL A   1      45.122  30.774  28.529  1.00  0.00     0.074 A 
ATOM     67  C   UNL A   1      43.937  31.338  29.141  1.00  0.00     0.031 C 
ATOM     68  C   UNL A   1      46.344  31.360  28.553  1.00  0.00     0.031 A 
BRANCH  55  69
ATOM     69  C   UNL A   1      50.741  28.089  25.708  1.00  0.00    -0.014 A 
ATOM     70  C   UNL A   1      51.746  27.749  26.626  1.00  0.00     0.009 A 
ATOM     71  C   UNL A   1      51.090  28.314  24.366  1.00  0.00     0.009 A 
ATOM     72  C   UNL A   1      53.078  27.668  26.214  1.00  0.00     0.001 A 
ATOM     73  C   UNL A   1      52.419  28.209  23.954  1.00  0.00     0.001 A 
ATOM     74  C   UNL A   1      53.413  27.895  24.879  1.00  0.00     0.000 A 
ENDBRANCH  55  69
BRANCH  56  75
ATOM     75  C   UNL A   1      41.100  28.362  28.236  1.00  0.00    -0.014 A 
ATOM     76  C   UNL A   1      40.675  27.742  29.420  1.00  0.00     0.009 A 
ATOM     77  C   UNL A   1      40.151  29.009  27.429  1.00  0.00     0.009 A 
ATOM     78  C   UNL A   1      39.324  27.754  29.777  1.00  0.00     0.001 A 
ATOM     79  C   UNL A   1      38.806  29.044  27.803  1.00  0.00     0.001 A 
ATOM     80  C   UNL A   1      38.393  28.409  28.972  1.00  0.00     0.000 A 
ENDBRANCH  56  75
BRANCH  68  81
ATOM     81  C   UNL A   1      46.453  32.696  29.230  1.00  0.00    -0.014 A 
ATOM     82  C   UNL A   1      46.214  33.888  28.531  1.00  0.00     0.009 A 
ATOM     83  C   UNL A   1      46.760  32.757  30.599  1.00  0.00     0.009 A 
ATOM     84  C   UNL A   1      46.309  35.119  29.183  1.00  0.00     0.001 A 
ATOM     85  C   UNL A   1      46.830  33.987  31.254  1.00  0.00     0.001 A 
ATOM     86  C   UNL A   1      46.613  35.167  30.544  1.00  0.00     0.000 A 
ENDBRANCH  68  81
ENDBRANCH  42  43
ENDBRANCH  35  37
ENDBRANCH  34  35
ENDBRANCH  33  34
ENDBRANCH  32  33
ENDBRANCH  31  32
ENDBRANCH  30  31
ENDBRANCH   1  30
TORSDOF 22
ENDMDL
MODEL 2
REMARK VINA RESULT:     -10.0      4.309      6.307
REMARK SMILES COc1ccccc1[C@@H]1CN(C(=O)Cc2csc(C)n2)C[C@H]1C(=O)OCCOCCOCCOC(=O)c1ccc(-c2c3nc(c(-c4ccccc4)c4ccc([nH]4)c(-c4ccccc4)c4nc(c(-c5ccccc5)c5ccc2[nH]5)C=C4)C=C3)cc1
REMARK SMILES IDX 29 1 28 2 27 3 26 4 25 5 23 6 24 7 22 8 9 9 10 10 11 11
REMARK SMILES IDX 21 12 8 13 3 14 4 15 5 16 7 17 6 18 2 19 1 20 12 21 13 22
REMARK SMILES IDX 14 23 15 24 16 25 20 26 17 27 18 28 19 29 30 30 31 31 32 32
REMARK SMILES IDX 33 33 34 34 35 35 36 36 37 37 38 38 84 39 39 40 83 41 40 42
REMARK SMILES IDX 41 43 42 44 77 45 43 46 82 47 76 48 78 49 44 50 81 51 75 52
REMARK SMILES IDX 74 53 45 55 67 56 52 57 66 58 53 59 56 60 65 61 79 62 54 63
REMARK SMILES IDX 55 64 64 66 80 67 57 68 46 69 47 70 51 71 48 72 50 73 49 74
REMARK SMILES IDX 68 75 69 76 73 77 70 78 72 79 71 80 58 81 59 82 63 83 60 84
REMARK SMILES IDX 62 85 61 86
REMARK H PARENT 78 54 56 65
REMARK Flexibility Score: inf
ROOT
ATOM      1  C   UNL A   1      38.714  20.745  25.334  1.00  0.00     0.188 C 
ENDROOT
BRANCH   1   2
ATOM      2  O   UNL A   1      37.486  20.257  24.809  1.00  0.00    -0.376 OA
BRANCH   2   3
ATOM      3  C   UNL A   1      36.282  20.960  25.076  1.00  0.00     0.202 C 
BRANCH   3   4
ATOM      4  C   UNL A   1      36.399  22.476  25.267  1.00  0.00     0.261 C 
BRANCH   4   5
ATOM      5  O   UNL A   1      35.752  22.999  26.450  1.00  0.00    -0.463 OA
BRANCH   5   6
ATOM      6  C   UNL A   1      34.511  22.515  26.703  1.00  0.00     0.311 C 
ATOM      7  O   UNL A   1      34.258  21.702  27.588  1.00  0.00    -0.252 OA
BRANCH   6   8
ATOM      8  C   UNL A   1      33.429  22.963  25.741  1.00  0.00     0.128 C 
ATOM      9  C   UNL A   1      32.134  22.150  25.498  1.00  0.00     0.058 C 
ATOM     10  C   UNL A   1      31.062  23.231  25.285  1.00  0.00     0.129 C 
ATOM     11  N   UNL A   1      31.538  24.397  25.993  1.00  0.00    -0.341 N 
ATOM     12  C   UNL A   1      32.961  24.331  26.235  1.00  0.00     0.135 C 
BRANCH   9  13
ATOM     13  C   UNL A   1      32.052  21.199  24.303  1.00  0.00    -0.000 A 
ATOM     14  C   UNL A   1      32.296  19.814  24.389  1.00  0.00     0.122 A 
ATOM     15  C   UNL A   1      32.349  19.011  23.243  1.00  0.00     0.047 A 
ATOM     16  C   UNL A   1      32.155  19.575  21.983  1.00  0.00     0.004 A 
ATOM     17  C   UNL A   1      31.880  21.746  23.015  1.00  0.00     0.008 A 
ATOM     18  C   UNL A   1      31.920  20.942  21.869  1.00  0.00     0.001 A 
BRANCH  14  19
ATOM     19  O   UNL A   1      32.659  19.278  25.597  1.00  0.00    -0.496 OA
ATOM     20  C   UNL A   1      33.282  18.001  25.476  1.00  0.00     0.278 C 
ENDBRANCH  14  19
ENDBRANCH   9  13
BRANCH  11  21
ATOM     21  C   UNL A   1      30.827  25.551  26.242  1.00  0.00     0.228 C 
ATOM     22  O   UNL A   1      29.604  25.532  26.396  1.00  0.00    -0.274 OA
BRANCH  21  23
ATOM     23  C   UNL A   1      31.603  26.854  26.341  1.00  0.00     0.157 C 
BRANCH  23  24
ATOM     24  C   UNL A   1      31.779  27.487  24.999  1.00  0.00     0.061 A 
ATOM     25  C   UNL A   1      30.799  28.083  24.228  1.00  0.00     0.091 A 
ATOM     26  N   UNL A   1      33.053  27.529  24.447  1.00  0.00    -0.246 NA
ATOM     27  S   UNL A   1      31.482  28.731  22.800  1.00  0.00    -0.127 S 
ATOM     28  C   UNL A   1      33.026  28.161  23.292  1.00  0.00     0.090 A 
ATOM     29  C   UNL A   1      34.214  28.398  22.430  1.00  0.00     0.079 C 
ENDBRANCH  23  24
ENDBRANCH  21  23
ENDBRANCH  11  21
ENDBRANCH   6   8
ENDBRANCH   5   6
ENDBRANCH   4   5
ENDBRANCH   3   4
ENDBRANCH   2   3
ENDBRANCH   1   2
BRANCH   1  30
ATOM     30  C   UNL A   1      39.737  19.766  25.923  1.00  0.00     0.188 C 
BRANCH  30  31
ATOM     31  O   UNL A   1      40.784  20.380  26.656  1.00  0.00    -0.376 OA
BRANCH  31  32
ATOM     32  C   UNL A   1      42.072  19.821  26.434  1.00  0.00     0.202 C 
BRANCH  32  33
ATOM     33  C   UNL A   1      42.987  20.852  25.768  1.00  0.00     0.261 C 
BRANCH  33  34
ATOM     34  O   UNL A   1      42.323  22.094  25.465  1.00  0.00    -0.460 OA
BRANCH  34  35
ATOM     35  C   UNL A   1      43.129  23.145  25.217  1.00  0.00     0.338 C 
ATOM     36  O   UNL A   1      43.783  23.358  24.202  1.00  0.00    -0.246 OA
BRANCH  35  37
ATOM     37  C   UNL A   1      43.006  24.102  26.324  1.00  0.00     0.060 A 
ATOM     38  C   UNL A   1      42.289  23.732  27.465  1.00  0.00     0.016 A 
ATOM     39  C   UNL A   1      43.521  25.389  26.204  1.00  0.00     0.016 A 
ATOM     40  C   UNL A   1      42.019  24.662  28.464  1.00  0.00     0.010 A 
ATOM     41  C   UNL A   1      43.271  26.320  27.219  1.00  0.00     0.010 A 
ATOM     42  C   UNL A   1      42.485  25.972  28.335  1.00  0.00    -0.014 A 
BRANCH  42  43
ATOM     43  C   UNL A   1      42.033  27.016  29.286  1.00  0.00     0.031 A 
ATOM     44  C   UNL A   1      42.836  27.254  30.534  1.00  0.00     0.074 A 
ATOM     45  C   UNL A   1      40.948  27.768  29.036  1.00  0.00     0.049 A 
ATOM     46  N   UNL A   1      42.543  27.977  31.584  1.00  0.00    -0.248 NA
ATOM     47  C   UNL A   1      44.148  26.587  30.606  1.00  0.00     0.031 C 
ATOM     48  C   UNL A   1      40.137  27.718  27.819  1.00  0.00     0.029 A 
ATOM     49  N   UNL A   1      40.339  28.727  29.807  1.00  0.00    -0.354 N 
ATOM     50  C   UNL A   1      43.608  27.814  32.461  1.00  0.00     0.074 A 
ATOM     51  C   UNL A   1      44.555  26.928  31.819  1.00  0.00     0.031 C 
ATOM     52  C   UNL A   1      39.133  28.606  27.928  1.00  0.00     0.029 A 
ATOM     53  C   UNL A   1      39.193  29.234  29.246  1.00  0.00     0.049 A 
ATOM     54  H   UNL A   1      40.689  29.022  30.679  1.00  0.00     0.167 HD
ATOM     55  C   UNL A   1      43.776  28.346  33.693  1.00  0.00     0.031 A 
ATOM     56  C   UNL A   1      38.270  30.071  29.755  1.00  0.00     0.031 A 
ATOM     57  C   UNL A   1      42.842  29.240  34.323  1.00  0.00     0.049 A 
ATOM     58  C   UNL A   1      38.430  30.581  31.162  1.00  0.00     0.074 A 
ATOM     59  C   UNL A   1      42.917  29.823  35.576  1.00  0.00     0.029 A 
ATOM     60  N   UNL A   1      41.667  29.686  33.741  1.00  0.00    -0.354 N 
ATOM     61  N   UNL A   1      39.407  30.371  32.011  1.00  0.00    -0.248 NA
ATOM     62  C   UNL A   1      37.351  31.431  31.685  1.00  0.00     0.031 C 
ATOM     63  C   UNL A   1      41.762  30.591  35.769  1.00  0.00     0.029 A 
ATOM     64  C   UNL A   1      40.997  30.524  34.615  1.00  0.00     0.049 A 
ATOM     65  H   UNL A   1      41.355  29.443  32.839  1.00  0.00     0.167 HD
ATOM     66  C   UNL A   1      39.069  31.076  33.160  1.00  0.00     0.074 A 
ATOM     67  C   UNL A   1      37.806  31.733  32.893  1.00  0.00     0.031 C 
ATOM     68  C   UNL A   1      39.741  31.169  34.333  1.00  0.00     0.031 A 
BRANCH  55  69
ATOM     69  C   UNL A   1      44.993  27.925  34.464  1.00  0.00    -0.014 A 
ATOM     70  C   UNL A   1      46.189  28.658  34.412  1.00  0.00     0.009 A 
ATOM     71  C   UNL A   1      44.932  26.777  35.271  1.00  0.00     0.009 A 
ATOM     72  C   UNL A   1      47.308  28.231  35.130  1.00  0.00     0.001 A 
ATOM     73  C   UNL A   1      46.045  26.367  36.005  1.00  0.00     0.001 A 
ATOM     74  C   UNL A   1      47.235  27.089  35.928  1.00  0.00     0.000 A 
ENDBRANCH  55  69
BRANCH  56  75
ATOM     75  C   UNL A   1      37.070  30.433  28.957  1.00  0.00    -0.014 A 
ATOM     76  C   UNL A   1      36.789  31.774  28.655  1.00  0.00     0.009 A 
ATOM     77  C   UNL A   1      36.188  29.437  28.508  1.00  0.00     0.009 A 
ATOM     78  C   UNL A   1      35.639  32.109  27.936  1.00  0.00     0.001 A 
ATOM     79  C   UNL A   1      35.055  29.773  27.766  1.00  0.00     0.001 A 
ATOM     80  C   UNL A   1      34.776  31.109  27.487  1.00  0.00     0.000 A 
ENDBRANCH  56  75
BRANCH  68  81
ATOM     81  C   UNL A   1      39.144  32.039  35.401  1.00  0.00    -0.014 A 
ATOM     82  C   UNL A   1      38.299  31.506  36.385  1.00  0.00     0.009 A 
ATOM     83  C   UNL A   1      39.466  33.405  35.444  1.00  0.00     0.009 A 
ATOM     84  C   UNL A   1      37.763  32.331  37.376  1.00  0.00     0.001 A 
ATOM     85  C   UNL A   1      38.949  34.222  36.451  1.00  0.00     0.001 A 
ATOM     86  C   UNL A   1      38.092  33.687  37.411  1.00  0.00     0.000 A 
ENDBRANCH  68  81
ENDBRANCH  42  43
ENDBRANCH  35  37
ENDBRANCH  34  35
ENDBRANCH  33  34
ENDBRANCH  32  33
ENDBRANCH  31  32
ENDBRANCH  30  31
ENDBRANCH   1  30
TORSDOF 22
ENDMDL
MODEL 3
REMARK VINA RESULT:      -9.7      4.771      8.201
REMARK SMILES COc1ccccc1[C@@H]1CN(C(=O)Cc2csc(C)n2)C[C@H]1C(=O)OCCOCCOCCOC(=O)c1ccc(-c2c3nc(c(-c4ccccc4)c4ccc([nH]4)c(-c4ccccc4)c4nc(c(-c5ccccc5)c5ccc2[nH]5)C=C4)C=C3)cc1
REMARK SMILES IDX 29 1 28 2 27 3 26 4 25 5 23 6 24 7 22 8 9 9 10 10 11 11
REMARK SMILES IDX 21 12 8 13 3 14 4 15 5 16 7 17 6 18 2 19 1 20 12 21 13 22
REMARK SMILES IDX 14 23 15 24 16 25 20 26 17 27 18 28 19 29 30 30 31 31 32 32
REMARK SMILES IDX 33 33 34 34 35 35 36 36 37 37 38 38 84 39 39 40 83 41 40 42
REMARK SMILES IDX 41 43 42 44 77 45 43 46 82 47 76 48 78 49 44 50 81 51 75 52
REMARK SMILES IDX 74 53 45 55 67 56 52 57 66 58 53 59 56 60 65 61 79 62 54 63
REMARK SMILES IDX 55 64 64 66 80 67 57 68 46 69 47 70 51 71 48 72 50 73 49 74
REMARK SMILES IDX 68 75 69 76 73 77 70 78 72 79 71 80 58 81 59 82 63 83 60 84
REMARK SMILES IDX 62 85 61 86
REMARK H PARENT 78 54 56 65
REMARK Flexibility Score: inf
ROOT
ATOM      1  C   UNL A   1      40.056  22.254  26.218  1.00  0.00     0.188 C 
ENDROOT
BRANCH   1   2
ATOM      2  O   UNL A   1      38.665  21.984  26.342  1.00  0.00    -0.376 OA
BRANCH   2   3
ATOM      3  C   UNL A   1      37.787  22.329  25.282  1.00  0.00     0.202 C 
BRANCH   3   4
ATOM      4  C   UNL A   1      36.734  21.287  24.894  1.00  0.00     0.261 C 
BRANCH   4   5
ATOM      5  O   UNL A   1      35.702  21.057  25.881  1.00  0.00    -0.463 OA
BRANCH   5   6
ATOM      6  C   UNL A   1      34.880  22.108  26.127  1.00  0.00     0.311 C 
ATOM      7  O   UNL A   1      34.762  22.645  27.225  1.00  0.00    -0.252 OA
BRANCH   6   8
ATOM      8  C   UNL A   1      34.005  22.534  24.966  1.00  0.00     0.128 C 
ATOM      9  C   UNL A   1      32.566  22.000  24.760  1.00  0.00     0.058 C 
ATOM     10  C   UNL A   1      31.811  23.207  24.180  1.00  0.00     0.129 C 
ATOM     11  N   UNL A   1      32.516  24.374  24.658  1.00  0.00    -0.341 N 
ATOM     12  C   UNL A   1      33.861  24.051  25.077  1.00  0.00     0.135 C 
BRANCH   9  13
ATOM     13  C   UNL A   1      32.325  20.825  23.809  1.00  0.00    -0.000 A 
ATOM     14  C   UNL A   1      32.477  19.475  24.184  1.00  0.00     0.122 A 
ATOM     15  C   UNL A   1      32.384  18.443  23.240  1.00  0.00     0.047 A 
ATOM     16  C   UNL A   1      32.133  18.739  21.901  1.00  0.00     0.004 A 
ATOM     17  C   UNL A   1      32.093  21.097  22.446  1.00  0.00     0.008 A 
ATOM     18  C   UNL A   1      31.989  20.065  21.504  1.00  0.00     0.001 A 
BRANCH  14  19
ATOM     19  O   UNL A   1      32.893  19.182  25.455  1.00  0.00    -0.496 OA
ATOM     20  C   UNL A   1      32.808  17.792  25.763  1.00  0.00     0.278 C 
ENDBRANCH  14  19
ENDBRANCH   9  13
BRANCH  11  21
ATOM     21  C   UNL A   1      32.100  25.683  24.551  1.00  0.00     0.228 C 
ATOM     22  O   UNL A   1      32.220  26.312  23.497  1.00  0.00    -0.274 OA
BRANCH  21  23
ATOM     23  C   UNL A   1      31.465  26.327  25.773  1.00  0.00     0.157 C 
BRANCH  23  24
ATOM     24  C   UNL A   1      32.151  27.605  26.133  1.00  0.00     0.061 A 
ATOM     25  C   UNL A   1      31.564  28.849  26.279  1.00  0.00     0.091 A 
ATOM     26  N   UNL A   1      33.516  27.577  26.388  1.00  0.00    -0.246 NA
ATOM     27  S   UNL A   1      32.731  30.000  26.767  1.00  0.00    -0.127 S 
ATOM     28  C   UNL A   1      33.936  28.776  26.735  1.00  0.00     0.090 A 
ATOM     29  C   UNL A   1      35.342  29.110  27.085  1.00  0.00     0.079 C 
ENDBRANCH  23  24
ENDBRANCH  21  23
ENDBRANCH  11  21
ENDBRANCH   6   8
ENDBRANCH   5   6
ENDBRANCH   4   5
ENDBRANCH   3   4
ENDBRANCH   2   3
ENDBRANCH   1   2
BRANCH   1  30
ATOM     30  C   UNL A   1      41.081  21.207  26.668  1.00  0.00     0.188 C 
BRANCH  30  31
ATOM     31  O   UNL A   1      42.378  21.723  26.917  1.00  0.00    -0.376 OA
BRANCH  31  32
ATOM     32  C   UNL A   1      43.317  21.497  25.874  1.00  0.00     0.202 C 
BRANCH  32  33
ATOM     33  C   UNL A   1      43.999  22.811  25.483  1.00  0.00     0.261 C 
BRANCH  33  34
ATOM     34  O   UNL A   1      43.125  23.954  25.562  1.00  0.00    -0.460 OA
BRANCH  34  35
ATOM     35  C   UNL A   1      43.734  25.153  25.629  1.00  0.00     0.338 C 
ATOM     36  O   UNL A   1      44.643  25.569  24.918  1.00  0.00    -0.246 OA
BRANCH  35  37
ATOM     37  C   UNL A   1      43.038  25.977  26.627  1.00  0.00     0.060 A 
ATOM     38  C   UNL A   1      43.414  27.314  26.784  1.00  0.00     0.016 A 
ATOM     39  C   UNL A   1      42.079  25.413  27.463  1.00  0.00     0.016 A 
ATOM     40  C   UNL A   1      42.888  28.079  27.820  1.00  0.00     0.010 A 
ATOM     41  C   UNL A   1      41.532  26.188  28.491  1.00  0.00     0.010 A 
ATOM     42  C   UNL A   1      41.963  27.512  28.700  1.00  0.00    -0.014 A 
BRANCH  42  43
ATOM     43  C   UNL A   1      41.555  28.249  29.920  1.00  0.00     0.031 A 
ATOM     44  C   UNL A   1      40.347  29.142  29.856  1.00  0.00     0.074 A 
ATOM     45  C   UNL A   1      42.219  28.105  31.080  1.00  0.00     0.049 A 
ATOM     46  N   UNL A   1      39.911  30.011  30.731  1.00  0.00    -0.248 NA
ATOM     47  C   UNL A   1      39.521  29.040  28.641  1.00  0.00     0.031 C 
ATOM     48  C   UNL A   1      43.340  27.195  31.314  1.00  0.00     0.029 A 
ATOM     49  N   UNL A   1      42.041  28.736  32.286  1.00  0.00    -0.354 N 
ATOM     50  C   UNL A   1      38.790  30.593  30.154  1.00  0.00     0.074 A 
ATOM     51  C   UNL A   1      38.610  29.977  28.857  1.00  0.00     0.031 C 
ATOM     52  C   UNL A   1      43.752  27.330  32.586  1.00  0.00     0.029 A 
ATOM     53  C   UNL A   1      42.970  28.381  33.232  1.00  0.00     0.049 A 
ATOM     54  H   UNL A   1      41.317  29.382  32.456  1.00  0.00     0.167 HD
ATOM     55  C   UNL A   1      37.988  31.562  30.655  1.00  0.00     0.031 A 
ATOM     56  C   UNL A   1      43.197  28.881  34.461  1.00  0.00     0.031 A 
ATOM     57  C   UNL A   1      38.158  32.162  31.951  1.00  0.00     0.049 A 
ATOM     58  C   UNL A   1      42.351  30.019  34.964  1.00  0.00     0.074 A 
ATOM     59  C   UNL A   1      37.405  33.160  32.544  1.00  0.00     0.029 A 
ATOM     60  N   UNL A   1      39.145  31.810  32.856  1.00  0.00    -0.354 N 
ATOM     61  N   UNL A   1      41.333  30.610  34.387  1.00  0.00    -0.248 NA
ATOM     62  C   UNL A   1      42.697  30.568  36.283  1.00  0.00     0.031 C 
ATOM     63  C   UNL A   1      37.966  33.443  33.796  1.00  0.00     0.029 A 
ATOM     64  C   UNL A   1      39.034  32.584  33.998  1.00  0.00     0.049 A 
ATOM     65  H   UNL A   1      39.825  31.114  32.710  1.00  0.00     0.167 HD
ATOM     66  C   UNL A   1      40.907  31.588  35.279  1.00  0.00     0.074 A 
ATOM     67  C   UNL A   1      41.766  31.498  36.441  1.00  0.00     0.031 C 
ATOM     68  C   UNL A   1      39.897  32.482  35.146  1.00  0.00     0.031 A 
BRANCH  55  69
ATOM     69  C   UNL A   1      36.889  32.072  29.769  1.00  0.00    -0.014 A 
ATOM     70  C   UNL A   1      35.575  31.592  29.875  1.00  0.00     0.009 A 
ATOM     71  C   UNL A   1      37.178  33.066  28.820  1.00  0.00     0.009 A 
ATOM     72  C   UNL A   1      34.578  32.076  29.025  1.00  0.00     0.001 A 
ATOM     73  C   UNL A   1      36.174  33.565  27.990  1.00  0.00     0.001 A 
ATOM     74  C   UNL A   1      34.877  33.064  28.087  1.00  0.00     0.000 A 
ENDBRANCH  55  69
BRANCH  56  75
ATOM     75  C   UNL A   1      44.317  28.355  35.284  1.00  0.00    -0.014 A 
ATOM     76  C   UNL A   1      44.166  27.176  36.029  1.00  0.00     0.009 A 
ATOM     77  C   UNL A   1      45.539  29.044  35.343  1.00  0.00     0.009 A 
ATOM     78  C   UNL A   1      45.211  26.709  36.830  1.00  0.00     0.001 A 
ATOM     79  C   UNL A   1      46.591  28.559  36.123  1.00  0.00     0.001 A 
ATOM     80  C   UNL A   1      46.424  27.397  36.872  1.00  0.00     0.000 A 
ENDBRANCH  56  75
BRANCH  68  81
ATOM     81  C   UNL A   1      39.644  33.409  36.299  1.00  0.00    -0.014 A 
ATOM     82  C   UNL A   1      38.751  33.066  37.325  1.00  0.00     0.009 A 
ATOM     83  C   UNL A   1      40.339  34.626  36.378  1.00  0.00     0.009 A 
ATOM     84  C   UNL A   1      38.538  33.938  38.395  1.00  0.00     0.001 A 
ATOM     85  C   UNL A   1      40.143  35.484  37.460  1.00  0.00     0.001 A 
ATOM     86  C   UNL A   1      39.237  35.144  38.464  1.00  0.00     0.000 A 
ENDBRANCH  68  81
ENDBRANCH  42  43
ENDBRANCH  35  37
ENDBRANCH  34  35
ENDBRANCH  33  34
ENDBRANCH  32  33
ENDBRANCH  31  32
ENDBRANCH  30  31
ENDBRANCH   1  30
TORSDOF 22
ENDMDL
