MODEL 1
REMARK VINA RESULT:      -9.3      0.000      0.000
REMARK SMILES CC(=O)NCCc1ccc(OCC(=O)OCCOCCOCCOC(=O)c2ccc(-c3c4nc(c(-c5ccccc5)c5ccc([nH]5)c(-c5ccccc5)c5nc(c(-c6ccccc6)c6ccc3[nH]6)C=C5)C=C4)cc2)cc1
REMARK SMILES IDX 18 1 17 2 16 3 15 4 13 5 14 6 12 7 11 8 10 9 7 10 8 11 76 12
REMARK SMILES IDX 9 13 75 14 6 15 5 16 4 17 1 18 2 19 3 20 19 22 20 23 21 24
REMARK SMILES IDX 22 25 23 26 24 27 25 28 26 29 27 30 28 31 74 32 29 33 73 34
REMARK SMILES IDX 30 35 31 36 32 37 67 38 33 39 72 40 66 41 68 42 34 43 71 44
REMARK SMILES IDX 65 45 64 46 35 48 57 49 42 50 56 51 43 52 46 53 55 54 69 55
REMARK SMILES IDX 44 56 45 57 54 59 70 60 47 61 36 62 37 63 41 64 38 65 40 66
REMARK SMILES IDX 39 67 58 68 59 69 63 70 60 71 62 72 61 73 48 74 49 75 53 76
REMARK SMILES IDX 50 77 52 78 51 79
REMARK H PARENT 4 21 68 47 46 58
REMARK Flexibility Score: inf
ROOT
ATOM      1  O   UNL A   1      34.352  25.183  24.096  1.00  0.00    -0.376 OA
ENDROOT
BRANCH   1   2
ATOM      2  C   UNL A   1      33.907  26.516  23.843  1.00  0.00     0.202 C 
BRANCH   2   3
ATOM      3  C   UNL A   1      33.448  27.261  25.098  1.00  0.00     0.261 C 
BRANCH   3   4
ATOM      4  O   UNL A   1      32.011  27.224  25.180  1.00  0.00    -0.461 OA
BRANCH   4   5
ATOM      5  C   UNL A   1      31.480  26.738  26.334  1.00  0.00     0.344 C 
ATOM      6  O   UNL A   1      31.056  27.429  27.253  1.00  0.00    -0.248 OA
BRANCH   5   7
ATOM      7  C   UNL A   1      31.322  25.218  26.277  1.00  0.00     0.351 C 
BRANCH   7   8
ATOM      8  O   UNL A   1      30.909  24.740  25.003  1.00  0.00    -0.482 OA
BRANCH   8   9
ATOM      9  C   UNL A   1      31.302  23.496  24.599  1.00  0.00     0.120 A 
ATOM     10  C   UNL A   1      32.253  20.863  24.104  1.00  0.00    -0.046 A 
ATOM     11  C   UNL A   1      31.805  21.252  25.377  1.00  0.00     0.007 A 
ATOM     12  C   UNL A   1      32.142  21.797  23.068  1.00  0.00     0.007 A 
ATOM     13  C   UNL A   1      31.331  22.545  25.618  1.00  0.00     0.047 A 
ATOM     14  C   UNL A   1      31.670  23.103  23.313  1.00  0.00     0.047 A 
BRANCH  10  15
ATOM     15  C   UNL A   1      32.780  19.446  23.960  1.00  0.00     0.057 C 
BRANCH  15  16
ATOM     16  C   UNL A   1      33.610  18.806  25.082  1.00  0.00     0.120 C 
BRANCH  16  17
ATOM     17  N   UNL A   1      33.323  17.394  25.270  1.00  0.00    -0.356 N 
ATOM     18  C   UNL A   1      34.238  16.589  23.119  1.00  0.00     0.114 C 
ATOM     19  C   UNL A   1      33.578  16.340  24.442  1.00  0.00     0.216 C 
ATOM     20  O   UNL A   1      33.280  15.199  24.793  1.00  0.00    -0.275 OA
ATOM     21  H   UNL A   1      32.882  17.165  26.119  1.00  0.00     0.163 HD
ENDBRANCH  16  17
ENDBRANCH  15  16
ENDBRANCH  10  15
ENDBRANCH   8   9
ENDBRANCH   7   8
ENDBRANCH   5   7
ENDBRANCH   4   5
ENDBRANCH   3   4
ENDBRANCH   2   3
ENDBRANCH   1   2
BRANCH   1  22
ATOM     22  C   UNL A   1      34.709  24.862  25.442  1.00  0.00     0.188 C 
BRANCH  22  23
ATOM     23  C   UNL A   1      34.959  23.381  25.754  1.00  0.00     0.188 C 
BRANCH  23  24
ATOM     24  O   UNL A   1      35.982  22.837  24.922  1.00  0.00    -0.376 OA
BRANCH  24  25
ATOM     25  C   UNL A   1      35.888  21.426  24.743  1.00  0.00     0.202 C 
BRANCH  25  26
ATOM     26  C   UNL A   1      37.249  20.763  24.974  1.00  0.00     0.261 C 
BRANCH  26  27
ATOM     27  O   UNL A   1      38.334  21.704  25.091  1.00  0.00    -0.460 OA
BRANCH  27  28
ATOM     28  C   UNL A   1      39.247  21.388  26.031  1.00  0.00     0.338 C 
ATOM     29  O   UNL A   1      39.768  20.301  26.217  1.00  0.00    -0.246 OA
BRANCH  28  30
ATOM     30  C   UNL A   1      39.643  22.596  26.768  1.00  0.00     0.060 A 
ATOM     31  C   UNL A   1      39.109  23.824  26.368  1.00  0.00     0.016 A 
ATOM     32  C   UNL A   1      40.697  22.542  27.677  1.00  0.00     0.016 A 
ATOM     33  C   UNL A   1      39.695  25.014  26.799  1.00  0.00     0.010 A 
ATOM     34  C   UNL A   1      41.274  23.734  28.120  1.00  0.00     0.010 A 
ATOM     35  C   UNL A   1      40.809  24.974  27.648  1.00  0.00    -0.014 A 
BRANCH  35  36
ATOM     36  C   UNL A   1      41.547  26.207  28.006  1.00  0.00     0.031 A 
ATOM     37  C   UNL A   1      40.911  27.237  28.895  1.00  0.00     0.074 A 
ATOM     38  C   UNL A   1      42.773  26.429  27.506  1.00  0.00     0.049 A 
ATOM     39  N   UNL A   1      41.238  28.488  29.090  1.00  0.00    -0.248 NA
ATOM     40  C   UNL A   1      39.751  26.790  29.673  1.00  0.00     0.031 C 
ATOM     41  C   UNL A   1      43.544  25.486  26.702  1.00  0.00     0.029 A 
ATOM     42  N   UNL A   1      43.568  27.543  27.590  1.00  0.00    -0.354 N 
ATOM     43  C   UNL A   1      40.277  28.996  29.957  1.00  0.00     0.074 A 
ATOM     44  C   UNL A   1      39.381  27.908  30.283  1.00  0.00     0.031 C 
ATOM     45  C   UNL A   1      44.698  26.068  26.343  1.00  0.00     0.029 A 
ATOM     46  C   UNL A   1      44.711  27.443  26.838  1.00  0.00     0.049 A 
ATOM     47  H   UNL A   1      43.344  28.332  28.134  1.00  0.00     0.167 HD
ATOM     48  C   UNL A   1      40.141  30.263  30.415  1.00  0.00     0.031 A 
ATOM     49  C   UNL A   1      45.632  28.373  26.532  1.00  0.00     0.031 A 
ATOM     50  C   UNL A   1      41.051  31.333  30.105  1.00  0.00     0.049 A 
ATOM     51  C   UNL A   1      45.467  29.776  27.037  1.00  0.00     0.074 A 
ATOM     52  C   UNL A   1      40.992  32.663  30.488  1.00  0.00     0.029 A 
ATOM     53  N   UNL A   1      42.203  31.184  29.351  1.00  0.00    -0.354 N 
ATOM     54  N   UNL A   1      44.496  30.285  27.756  1.00  0.00    -0.248 NA
ATOM     55  C   UNL A   1      46.519  30.736  26.675  1.00  0.00     0.031 C 
ATOM     56  C   UNL A   1      42.105  33.321  29.951  1.00  0.00     0.029 A 
ATOM     57  C   UNL A   1      42.873  32.391  29.266  1.00  0.00     0.049 A 
ATOM     58  H   UNL A   1      42.502  30.342  28.935  1.00  0.00     0.167 HD
ATOM     59  C   UNL A   1      44.819  31.623  27.935  1.00  0.00     0.074 A 
ATOM     60  C   UNL A   1      46.085  31.842  27.264  1.00  0.00     0.031 C 
ATOM     61  C   UNL A   1      44.126  32.587  28.589  1.00  0.00     0.031 A 
BRANCH  48  62
ATOM     62  C   UNL A   1      38.930  30.576  31.245  1.00  0.00    -0.014 A 
ATOM     63  C   UNL A   1      38.891  30.311  32.623  1.00  0.00     0.009 A 
ATOM     64  C   UNL A   1      37.818  31.183  30.639  1.00  0.00     0.009 A 
ATOM     65  C   UNL A   1      37.752  30.626  33.369  1.00  0.00     0.001 A 
ATOM     66  C   UNL A   1      36.690  31.516  31.391  1.00  0.00     0.001 A 
ATOM     67  C   UNL A   1      36.655  31.231  32.754  1.00  0.00     0.000 A 
ENDBRANCH  48  62
BRANCH  49  68
ATOM     68  C   UNL A   1      46.759  28.000  25.647  1.00  0.00    -0.014 A 
ATOM     69  C   UNL A   1      48.011  27.680  26.189  1.00  0.00     0.009 A 
ATOM     70  C   UNL A   1      46.567  27.898  24.260  1.00  0.00     0.009 A 
ATOM     71  C   UNL A   1      49.052  27.265  25.357  1.00  0.00     0.001 A 
ATOM     72  C   UNL A   1      47.602  27.462  23.434  1.00  0.00     0.001 A 
ATOM     73  C   UNL A   1      48.845  27.147  23.982  1.00  0.00     0.000 A 
ENDBRANCH  49  68
BRANCH  61  74
ATOM     74  C   UNL A   1      44.739  33.955  28.630  1.00  0.00    -0.014 A 
ATOM     75  C   UNL A   1      44.455  34.903  27.636  1.00  0.00     0.009 A 
ATOM     76  C   UNL A   1      45.584  34.306  29.693  1.00  0.00     0.009 A 
ATOM     77  C   UNL A   1      45.031  36.173  27.693  1.00  0.00     0.001 A 
ATOM     78  C   UNL A   1      46.145  35.583  29.755  1.00  0.00     0.001 A 
ATOM     79  C   UNL A   1      45.874  36.512  28.751  1.00  0.00     0.000 A 
ENDBRANCH  61  74
ENDBRANCH  35  36
ENDBRANCH  28  30
ENDBRANCH  27  28
ENDBRANCH  26  27
ENDBRANCH  25  26
ENDBRANCH  24  25
ENDBRANCH  23  24
ENDBRANCH  22  23
ENDBRANCH   1  22
TORSDOF 22
ENDMDL
MODEL 2
REMARK VINA RESULT:      -9.1      3.886      9.149
REMARK SMILES CC(=O)NCCc1ccc(OCC(=O)OCCOCCOCCOC(=O)c2ccc(-c3c4nc(c(-c5ccccc5)c5ccc([nH]5)c(-c5ccccc5)c5nc(c(-c6ccccc6)c6ccc3[nH]6)C=C5)C=C4)cc2)cc1
REMARK SMILES IDX 18 1 17 2 16 3 15 4 13 5 14 6 12 7 11 8 10 9 7 10 8 11 76 12
REMARK SMILES IDX 9 13 75 14 6 15 5 16 4 17 1 18 2 19 3 20 19 22 20 23 21 24
REMARK SMILES IDX 22 25 23 26 24 27 25 28 26 29 27 30 28 31 74 32 29 33 73 34
REMARK SMILES IDX 30 35 31 36 32 37 67 38 33 39 72 40 66 41 68 42 34 43 71 44
REMARK SMILES IDX 65 45 64 46 35 48 57 49 42 50 56 51 43 52 46 53 55 54 69 55
REMARK SMILES IDX 44 56 45 57 54 59 70 60 47 61 36 62 37 63 41 64 38 65 40 66
REMARK SMILES IDX 39 67 58 68 59 69 63 70 60 71 62 72 61 73 48 74 49 75 53 76
REMARK SMILES IDX 50 77 52 78 51 79
REMARK H PARENT 4 21 68 47 46 58
REMARK Flexibility Score: inf
ROOT
ATOM      1  O   UNL A   1      33.693  26.367  23.210  1.00  0.00    -0.376 OA
ENDROOT
BRANCH   1   2
ATOM      2  C   UNL A   1      33.178  25.630  22.102  1.00  0.00     0.202 C 
BRANCH   2   3
ATOM      3  C   UNL A   1      32.592  24.269  22.486  1.00  0.00     0.261 C 
BRANCH   3   4
ATOM      4  O   UNL A   1      33.639  23.281  22.496  1.00  0.00    -0.461 OA
BRANCH   4   5
ATOM      5  C   UNL A   1      33.925  22.710  23.696  1.00  0.00     0.344 C 
ATOM      6  O   UNL A   1      33.302  21.778  24.193  1.00  0.00    -0.248 OA
BRANCH   5   7
ATOM      7  C   UNL A   1      35.226  23.263  24.280  1.00  0.00     0.351 C 
BRANCH   7   8
ATOM      8  O   UNL A   1      36.313  22.349  24.207  1.00  0.00    -0.482 OA
BRANCH   8   9
ATOM      9  C   UNL A   1      37.386  22.522  25.035  1.00  0.00     0.120 A 
ATOM     10  C   UNL A   1      39.584  22.519  26.836  1.00  0.00    -0.046 A 
ATOM     11  C   UNL A   1      39.259  21.383  26.077  1.00  0.00     0.007 A 
ATOM     12  C   UNL A   1      38.833  23.679  26.617  1.00  0.00     0.007 A 
ATOM     13  C   UNL A   1      38.181  21.388  25.186  1.00  0.00     0.047 A 
ATOM     14  C   UNL A   1      37.742  23.681  25.723  1.00  0.00     0.047 A 
BRANCH  10  15
ATOM     15  C   UNL A   1      40.752  22.396  27.800  1.00  0.00     0.057 C 
BRANCH  15  16
ATOM     16  C   UNL A   1      41.923  21.453  27.487  1.00  0.00     0.120 C 
BRANCH  16  17
ATOM     17  N   UNL A   1      43.175  22.155  27.259  1.00  0.00    -0.356 N 
ATOM     18  C   UNL A   1      43.532  22.941  29.575  1.00  0.00     0.114 C 
ATOM     19  C   UNL A   1      43.959  22.839  28.141  1.00  0.00     0.216 C 
ATOM     20  O   UNL A   1      45.011  23.351  27.759  1.00  0.00    -0.275 OA
ATOM     21  H   UNL A   1      43.506  22.131  26.332  1.00  0.00     0.163 HD
ENDBRANCH  16  17
ENDBRANCH  15  16
ENDBRANCH  10  15
ENDBRANCH   8   9
ENDBRANCH   7   8
ENDBRANCH   5   7
ENDBRANCH   4   5
ENDBRANCH   3   4
ENDBRANCH   2   3
ENDBRANCH   1   2
BRANCH   1  22
ATOM     22  C   UNL A   1      33.820  27.781  23.048  1.00  0.00     0.188 C 
BRANCH  22  23
ATOM     23  C   UNL A   1      33.036  28.661  24.029  1.00  0.00     0.188 C 
BRANCH  23  24
ATOM     24  O   UNL A   1      31.922  27.962  24.582  1.00  0.00    -0.376 OA
BRANCH  24  25
ATOM     25  C   UNL A   1      31.377  28.579  25.746  1.00  0.00     0.202 C 
BRANCH  25  26
ATOM     26  C   UNL A   1      31.950  29.988  25.926  1.00  0.00     0.261 C 
BRANCH  26  27
ATOM     27  O   UNL A   1      32.534  30.209  27.223  1.00  0.00    -0.460 OA
BRANCH  27  28
ATOM     28  C   UNL A   1      33.206  31.372  27.342  1.00  0.00     0.338 C 
ATOM     29  O   UNL A   1      32.740  32.499  27.321  1.00  0.00    -0.246 OA
BRANCH  28  30
ATOM     30  C   UNL A   1      34.623  31.103  27.624  1.00  0.00     0.060 A 
ATOM     31  C   UNL A   1      35.023  29.778  27.818  1.00  0.00     0.016 A 
ATOM     32  C   UNL A   1      35.486  32.155  27.922  1.00  0.00     0.016 A 
ATOM     33  C   UNL A   1      36.255  29.499  28.410  1.00  0.00     0.010 A 
ATOM     34  C   UNL A   1      36.726  31.876  28.500  1.00  0.00     0.010 A 
ATOM     35  C   UNL A   1      37.097  30.552  28.792  1.00  0.00    -0.014 A 
BRANCH  35  36
ATOM     36  C   UNL A   1      38.342  30.301  29.555  1.00  0.00     0.031 A 
ATOM     37  C   UNL A   1      39.454  29.497  28.944  1.00  0.00     0.074 A 
ATOM     38  C   UNL A   1      38.467  30.758  30.810  1.00  0.00     0.049 A 
ATOM     39  N   UNL A   1      40.476  28.917  29.516  1.00  0.00    -0.248 NA
ATOM     40  C   UNL A   1      39.407  29.334  27.487  1.00  0.00     0.031 C 
ATOM     41  C   UNL A   1      37.508  31.617  31.499  1.00  0.00     0.029 A 
ATOM     42  N   UNL A   1      39.454  30.531  31.734  1.00  0.00    -0.354 N 
ATOM     43  C   UNL A   1      41.151  28.256  28.495  1.00  0.00     0.074 A 
ATOM     44  C   UNL A   1      40.448  28.544  27.264  1.00  0.00     0.031 C 
ATOM     45  C   UNL A   1      37.942  31.830  32.751  1.00  0.00     0.029 A 
ATOM     46  C   UNL A   1      39.170  31.067  32.964  1.00  0.00     0.049 A 
ATOM     47  H   UNL A   1      40.281  30.035  31.537  1.00  0.00     0.167 HD
ATOM     48  C   UNL A   1      42.243  27.459  28.586  1.00  0.00     0.031 A 
ATOM     49  C   UNL A   1      39.795  30.910  34.144  1.00  0.00     0.031 A 
ATOM     50  C   UNL A   1      42.950  27.198  29.811  1.00  0.00     0.049 A 
ATOM     51  C   UNL A   1      40.998  30.018  34.236  1.00  0.00     0.074 A 
ATOM     52  C   UNL A   1      44.048  26.381  30.024  1.00  0.00     0.029 A 
ATOM     53  N   UNL A   1      42.636  27.774  31.031  1.00  0.00    -0.354 N 
ATOM     54  N   UNL A   1      41.564  29.300  33.296  1.00  0.00    -0.248 NA
ATOM     55  C   UNL A   1      41.638  29.905  35.553  1.00  0.00     0.031 C 
ATOM     56  C   UNL A   1      44.388  26.453  31.379  1.00  0.00     0.029 A 
ATOM     57  C   UNL A   1      43.524  27.343  31.999  1.00  0.00     0.049 A 
ATOM     58  H   UNL A   1      41.889  28.397  31.187  1.00  0.00     0.167 HD
ATOM     59  C   UNL A   1      42.628  28.650  33.907  1.00  0.00     0.074 A 
ATOM     60  C   UNL A   1      42.639  29.075  35.293  1.00  0.00     0.031 C 
ATOM     61  C   UNL A   1      43.513  27.773  33.372  1.00  0.00     0.031 A 
BRANCH  48  62
ATOM     62  C   UNL A   1      42.698  26.760  27.337  1.00  0.00    -0.014 A 
ATOM     63  C   UNL A   1      43.897  27.103  26.696  1.00  0.00     0.009 A 
ATOM     64  C   UNL A   1      41.924  25.710  26.816  1.00  0.00     0.009 A 
ATOM     65  C   UNL A   1      44.298  26.424  25.541  1.00  0.00     0.001 A 
ATOM     66  C   UNL A   1      42.337  25.020  25.675  1.00  0.00     0.001 A 
ATOM     67  C   UNL A   1      43.521  25.381  25.035  1.00  0.00     0.000 A 
ENDBRANCH  48  62
BRANCH  49  68
ATOM     68  C   UNL A   1      39.239  31.579  35.343  1.00  0.00    -0.014 A 
ATOM     69  C   UNL A   1      39.568  32.910  35.630  1.00  0.00     0.009 A 
ATOM     70  C   UNL A   1      38.324  30.905  36.168  1.00  0.00     0.009 A 
ATOM     71  C   UNL A   1      38.989  33.556  36.725  1.00  0.00     0.001 A 
ATOM     72  C   UNL A   1      37.731  31.560  37.248  1.00  0.00     0.001 A 
ATOM     73  C   UNL A   1      38.065  32.885  37.526  1.00  0.00     0.000 A 
ENDBRANCH  49  68
BRANCH  61  74
ATOM     74  C   UNL A   1      44.577  27.240  34.282  1.00  0.00    -0.014 A 
ATOM     75  C   UNL A   1      44.398  26.034  34.974  1.00  0.00     0.009 A 
ATOM     76  C   UNL A   1      45.785  27.940  34.424  1.00  0.00     0.009 A 
ATOM     77  C   UNL A   1      45.401  25.550  35.814  1.00  0.00     0.001 A 
ATOM     78  C   UNL A   1      46.793  27.445  35.253  1.00  0.00     0.001 A 
ATOM     79  C   UNL A   1      46.597  26.255  35.953  1.00  0.00     0.000 A 
ENDBRANCH  61  74
ENDBRANCH  35  36
ENDBRANCH  28  30
ENDBRANCH  27  28
ENDBRANCH  26  27
ENDBRANCH  25  26
ENDBRANCH  24  25
ENDBRANCH  23  24
ENDBRANCH  22  23
ENDBRANCH   1  22
TORSDOF 22
ENDMDL
MODEL 3
REMARK VINA RESULT:      -8.9      4.254      8.140
REMARK SMILES CC(=O)NCCc1ccc(OCC(=O)OCCOCCOCCOC(=O)c2ccc(-c3c4nc(c(-c5ccccc5)c5ccc([nH]5)c(-c5ccccc5)c5nc(c(-c6ccccc6)c6ccc3[nH]6)C=C5)C=C4)cc2)cc1
REMARK SMILES IDX 18 1 17 2 16 3 15 4 13 5 14 6 12 7 11 8 10 9 7 10 8 11 76 12
REMARK SMILES IDX 9 13 75 14 6 15 5 16 4 17 1 18 2 19 3 20 19 22 20 23 21 24
REMARK SMILES IDX 22 25 23 26 24 27 25 28 26 29 27 30 28 31 74 32 29 33 73 34
REMARK SMILES IDX 30 35 31 36 32 37 67 38 33 39 72 40 66 41 68 42 34 43 71 44
REMARK SMILES IDX 65 45 64 46 35 48 57 49 42 50 56 51 43 52 46 53 55 54 69 55
REMARK SMILES IDX 44 56 45 57 54 59 70 60 47 61 36 62 37 63 41 64 38 65 40 66
REMARK SMILES IDX 39 67 58 68 59 69 63 70 60 71 62 72 61 73 48 74 49 75 53 76
REMARK SMILES IDX 50 77 52 78 51 79
REMARK H PARENT 4 21 68 47 46 58
REMARK Flexibility Score: inf
ROOT
ATOM      1  O   UNL A   1      38.719  22.683  26.022  1.00  0.00    -0.376 OA
ENDROOT
BRANCH   1   2
ATOM      2  C   UNL A   1      37.431  22.346  25.510  1.00  0.00     0.202 C 
BRANCH   2   3
ATOM      3  C   UNL A   1      36.598  23.559  25.089  1.00  0.00     0.261 C 
BRANCH   3   4
ATOM      4  O   UNL A   1      35.213  23.179  24.985  1.00  0.00    -0.461 OA
BRANCH   4   5
ATOM      5  C   UNL A   1      34.695  23.105  23.730  1.00  0.00     0.344 C 
ATOM      6  O   UNL A   1      35.324  23.316  22.700  1.00  0.00    -0.248 OA
BRANCH   5   7
ATOM      7  C   UNL A   1      33.265  22.562  23.751  1.00  0.00     0.351 C 
BRANCH   7   8
ATOM      8  O   UNL A   1      32.402  23.206  22.822  1.00  0.00    -0.482 OA
BRANCH   8   9
ATOM      9  C   UNL A   1      31.904  24.442  23.121  1.00  0.00     0.120 A 
ATOM     10  C   UNL A   1      31.139  27.149  23.527  1.00  0.00    -0.046 A 
ATOM     11  C   UNL A   1      31.726  26.728  22.322  1.00  0.00     0.007 A 
ATOM     12  C   UNL A   1      30.873  26.172  24.492  1.00  0.00     0.007 A 
ATOM     13  C   UNL A   1      32.096  25.394  22.121  1.00  0.00     0.047 A 
ATOM     14  C   UNL A   1      31.252  24.828  24.291  1.00  0.00     0.047 A 
BRANCH  10  15
ATOM     15  C   UNL A   1      30.808  28.626  23.655  1.00  0.00     0.057 C 
BRANCH  15  16
ATOM     16  C   UNL A   1      30.135  29.377  22.496  1.00  0.00     0.120 C 
BRANCH  16  17
ATOM     17  N   UNL A   1      29.159  30.357  22.941  1.00  0.00    -0.356 N 
ATOM     18  C   UNL A   1      27.210  28.841  23.058  1.00  0.00     0.114 C 
ATOM     19  C   UNL A   1      27.833  30.195  23.220  1.00  0.00     0.216 C 
ATOM     20  O   UNL A   1      27.168  31.152  23.614  1.00  0.00    -0.275 OA
ATOM     21  H   UNL A   1      29.506  31.270  23.060  1.00  0.00     0.163 HD
ENDBRANCH  16  17
ENDBRANCH  15  16
ENDBRANCH  10  15
ENDBRANCH   8   9
ENDBRANCH   7   8
ENDBRANCH   5   7
ENDBRANCH   4   5
ENDBRANCH   3   4
ENDBRANCH   2   3
ENDBRANCH   1   2
BRANCH   1  22
ATOM     22  C   UNL A   1      39.685  21.632  26.097  1.00  0.00     0.188 C 
BRANCH  22  23
ATOM     23  C   UNL A   1      40.416  21.461  27.434  1.00  0.00     0.188 C 
BRANCH  23  24
ATOM     24  O   UNL A   1      41.491  20.529  27.326  1.00  0.00    -0.376 OA
BRANCH  24  25
ATOM     25  C   UNL A   1      41.904  20.281  25.984  1.00  0.00     0.202 C 
BRANCH  25  26
ATOM     26  C   UNL A   1      43.245  20.965  25.700  1.00  0.00     0.261 C 
BRANCH  26  27
ATOM     27  O   UNL A   1      43.110  22.322  25.235  1.00  0.00    -0.460 OA
BRANCH  27  28
ATOM     28  C   UNL A   1      43.950  23.198  25.821  1.00  0.00     0.338 C 
ATOM     29  O   UNL A   1      45.167  23.221  25.741  1.00  0.00    -0.246 OA
BRANCH  28  30
ATOM     30  C   UNL A   1      43.180  24.242  26.512  1.00  0.00     0.060 A 
ATOM     31  C   UNL A   1      43.359  25.571  26.120  1.00  0.00     0.016 A 
ATOM     32  C   UNL A   1      42.477  23.933  27.675  1.00  0.00     0.016 A 
ATOM     33  C   UNL A   1      42.922  26.608  26.945  1.00  0.00     0.010 A 
ATOM     34  C   UNL A   1      42.027  24.971  28.494  1.00  0.00     0.010 A 
ATOM     35  C   UNL A   1      42.289  26.311  28.159  1.00  0.00    -0.014 A 
BRANCH  35  36
ATOM     36  C   UNL A   1      41.947  27.379  29.127  1.00  0.00     0.031 A 
ATOM     37  C   UNL A   1      42.762  27.556  30.376  1.00  0.00     0.074 A 
ATOM     38  C   UNL A   1      40.883  28.168  28.913  1.00  0.00     0.049 A 
ATOM     39  N   UNL A   1      42.476  28.205  31.475  1.00  0.00    -0.248 NA
ATOM     40  C   UNL A   1      44.083  26.917  30.381  1.00  0.00     0.031 C 
ATOM     41  C   UNL A   1      40.054  28.165  27.711  1.00  0.00     0.029 A 
ATOM     42  N   UNL A   1      40.310  29.111  29.726  1.00  0.00    -0.354 N 
ATOM     43  C   UNL A   1      43.552  27.988  32.329  1.00  0.00     0.074 A 
ATOM     44  C   UNL A   1      44.513  27.185  31.606  1.00  0.00     0.031 C 
ATOM     45  C   UNL A   1      39.059  29.051  27.872  1.00  0.00     0.029 A 
ATOM     46  C   UNL A   1      39.148  29.629  29.212  1.00  0.00     0.049 A 
ATOM     47  H   UNL A   1      40.691  29.390  30.589  1.00  0.00     0.167 HD
ATOM     48  C   UNL A   1      43.706  28.400  33.610  1.00  0.00     0.031 A 
ATOM     49  C   UNL A   1      38.228  30.427  29.779  1.00  0.00     0.031 A 
ATOM     50  C   UNL A   1      42.755  29.219  34.313  1.00  0.00     0.049 A 
ATOM     51  C   UNL A   1      38.404  30.871  31.201  1.00  0.00     0.074 A 
ATOM     52  C   UNL A   1      42.795  29.668  35.622  1.00  0.00     0.029 A 
ATOM     53  N   UNL A   1      41.599  29.732  33.748  1.00  0.00    -0.354 N 
ATOM     54  N   UNL A   1      39.360  30.568  32.046  1.00  0.00    -0.248 NA
ATOM     55  C   UNL A   1      37.367  31.754  31.751  1.00  0.00     0.031 C 
ATOM     56  C   UNL A   1      41.651  30.442  35.852  1.00  0.00     0.029 A 
ATOM     57  C   UNL A   1      40.922  30.503  34.675  1.00  0.00     0.049 A 
ATOM     58  H   UNL A   1      41.302  29.570  32.823  1.00  0.00     0.167 HD
ATOM     59  C   UNL A   1      39.041  31.224  33.228  1.00  0.00     0.074 A 
ATOM     60  C   UNL A   1      37.814  31.956  32.983  1.00  0.00     0.031 C 
ATOM     61  C   UNL A   1      39.701  31.216  34.412  1.00  0.00     0.031 A 
BRANCH  48  62
ATOM     62  C   UNL A   1      44.917  27.916  34.354  1.00  0.00    -0.014 A 
ATOM     63  C   UNL A   1      44.873  26.777  35.173  1.00  0.00     0.009 A 
ATOM     64  C   UNL A   1      46.136  28.597  34.202  1.00  0.00     0.009 A 
ATOM     65  C   UNL A   1      46.022  26.346  35.843  1.00  0.00     0.001 A 
ATOM     66  C   UNL A   1      47.286  28.152  34.856  1.00  0.00     0.001 A 
ATOM     67  C   UNL A   1      47.227  27.031  35.680  1.00  0.00     0.000 A 
ENDBRANCH  48  62
BRANCH  49  68
ATOM     68  C   UNL A   1      37.026  30.801  28.999  1.00  0.00    -0.014 A 
ATOM     69  C   UNL A   1      36.017  29.859  28.754  1.00  0.00     0.009 A 
ATOM     70  C   UNL A   1      36.854  32.121  28.552  1.00  0.00     0.009 A 
ATOM     71  C   UNL A   1      34.856  30.234  28.076  1.00  0.00     0.001 A 
ATOM     72  C   UNL A   1      35.683  32.497  27.894  1.00  0.00     0.001 A 
ATOM     73  C   UNL A   1      34.686  31.553  27.655  1.00  0.00     0.000 A 
ENDBRANCH  49  68
BRANCH  61  74
ATOM     74  C   UNL A   1      39.120  32.043  35.519  1.00  0.00    -0.014 A 
ATOM     75  C   UNL A   1      38.242  31.480  36.457  1.00  0.00     0.009 A 
ATOM     76  C   UNL A   1      39.481  33.393  35.641  1.00  0.00     0.009 A 
ATOM     77  C   UNL A   1      37.714  32.263  37.484  1.00  0.00     0.001 A 
ATOM     78  C   UNL A   1      38.963  34.170  36.678  1.00  0.00     0.001 A 
ATOM     79  C   UNL A   1      38.075  33.606  37.595  1.00  0.00     0.000 A 
ENDBRANCH  61  74
ENDBRANCH  35  36
ENDBRANCH  28  30
ENDBRANCH  27  28
ENDBRANCH  26  27
ENDBRANCH  25  26
ENDBRANCH  24  25
ENDBRANCH  23  24
ENDBRANCH  22  23
ENDBRANCH   1  22
TORSDOF 22
ENDMDL
