MODEL 1
REMARK VINA RESULT:     -10.0      0.000      0.000
REMARK SMILES CCOc1ccc(-n2ncc(C(=O)OCCOCCOCCOC(=O)c3ccc(-c4c5nc(c(-c6ccccc6)c6ccc([nH]6)c(-c6ccccc6)c6nc(c(-c7ccccc7)c7ccc4[nH]7)C=C6)C=C5)cc3)c2C)nn1
REMARK SMILES IDX 18 1 17 2 16 3 15 4 14 5 12 6 13 7 11 8 8 9 9 10 74 11 10 12
REMARK SMILES IDX 75 13 7 14 4 15 5 16 77 17 6 18 76 19 3 20 2 21 1 22 19 23
REMARK SMILES IDX 20 24 21 25 22 26 23 27 24 28 25 29 26 30 27 31 73 32 28 33
REMARK SMILES IDX 72 34 29 35 30 36 31 37 66 38 32 39 71 40 65 41 67 42 33 43
REMARK SMILES IDX 70 44 64 45 63 46 34 48 56 49 41 50 55 51 42 52 45 53 54 54
REMARK SMILES IDX 68 55 43 56 44 57 53 59 69 60 46 61 35 62 36 63 40 64 37 65
REMARK SMILES IDX 39 66 38 67 57 68 58 69 62 70 59 71 61 72 60 73 47 74 48 75
REMARK SMILES IDX 52 76 49 77 51 78 50 79
REMARK H PARENT 67 47 45 58
REMARK Flexibility Score: inf
ROOT
ATOM      1  C   UNL A   1      39.617  21.773  26.464  1.00  0.00     0.188 C 
ENDROOT
BRANCH   1   2
ATOM      2  O   UNL A   1      39.023  22.871  25.815  1.00  0.00    -0.376 OA
BRANCH   2   3
ATOM      3  C   UNL A   1      37.670  23.212  26.071  1.00  0.00     0.202 C 
BRANCH   3   4
ATOM      4  C   UNL A   1      36.449  22.280  25.892  1.00  0.00     0.261 C 
BRANCH   4   5
ATOM      5  O   UNL A   1      35.807  22.233  24.618  1.00  0.00    -0.460 OA
BRANCH   5   6
ATOM      6  C   UNL A   1      34.532  21.742  24.612  1.00  0.00     0.341 C 
ATOM      7  O   UNL A   1      34.246  20.563  24.626  1.00  0.00    -0.246 OA
BRANCH   6   8
ATOM      8  C   UNL A   1      33.548  22.804  24.732  1.00  0.00     0.101 A 
ATOM      9  N   UNL A   1      32.169  24.487  24.275  1.00  0.00    -0.217 N 
ATOM     10  N   UNL A   1      32.143  24.350  25.632  1.00  0.00    -0.174 NA
ATOM     11  C   UNL A   1      32.971  23.516  23.687  1.00  0.00     0.058 A 
ATOM     12  C   UNL A   1      32.919  23.298  25.885  1.00  0.00     0.151 A 
ATOM     13  C   UNL A   1      33.151  23.352  22.216  1.00  0.00     0.068 C 
BRANCH   9  14
ATOM     14  C   UNL A   1      31.481  25.565  23.646  1.00  0.00     0.176 A 
ATOM     15  C   UNL A   1      30.244  27.741  22.624  1.00  0.00     0.233 A 
ATOM     16  C   UNL A   1      29.529  26.933  23.485  1.00  0.00     0.074 A 
ATOM     17  N   UNL A   1      31.511  27.472  22.253  1.00  0.00    -0.110 NA
ATOM     18  C   UNL A   1      30.158  25.810  24.003  1.00  0.00     0.057 A 
ATOM     19  N   UNL A   1      32.143  26.379  22.788  1.00  0.00    -0.127 NA
BRANCH  15  20
ATOM     20  O   UNL A   1      29.619  28.831  22.075  1.00  0.00    -0.477 OA
BRANCH  20  21
ATOM     21  C   UNL A   1      29.081  29.676  23.097  1.00  0.00     0.228 C 
ATOM     22  C   UNL A   1      27.573  29.797  22.937  1.00  0.00     0.049 C 
ENDBRANCH  20  21
ENDBRANCH  15  20
ENDBRANCH   9  14
ENDBRANCH   6   8
ENDBRANCH   5   6
ENDBRANCH   4   5
ENDBRANCH   3   4
ENDBRANCH   2   3
ENDBRANCH   1   2
BRANCH   1  23
ATOM     23  C   UNL A   1      39.422  20.414  25.760  1.00  0.00     0.188 C 
BRANCH  23  24
ATOM     24  O   UNL A   1      40.413  19.401  25.814  1.00  0.00    -0.376 OA
BRANCH  24  25
ATOM     25  C   UNL A   1      41.663  19.570  26.467  1.00  0.00     0.202 C 
BRANCH  25  26
ATOM     26  C   UNL A   1      42.991  19.057  25.912  1.00  0.00     0.261 C 
BRANCH  26  27
ATOM     27  O   UNL A   1      43.348  19.584  24.651  1.00  0.00    -0.460 OA
BRANCH  27  28
ATOM     28  C   UNL A   1      44.678  19.728  24.484  1.00  0.00     0.338 C 
ATOM     29  O   UNL A   1      45.521  18.848  24.452  1.00  0.00    -0.246 OA
BRANCH  28  30
ATOM     30  C   UNL A   1      44.992  21.158  24.409  1.00  0.00     0.060 A 
ATOM     31  C   UNL A   1      46.123  21.571  25.113  1.00  0.00     0.016 A 
ATOM     32  C   UNL A   1      44.018  22.059  23.952  1.00  0.00     0.016 A 
ATOM     33  C   UNL A   1      46.127  22.844  25.623  1.00  0.00     0.010 A 
ATOM     34  C   UNL A   1      44.016  23.327  24.473  1.00  0.00     0.010 A 
ATOM     35  C   UNL A   1      45.007  23.648  25.397  1.00  0.00    -0.014 A 
BRANCH  35  36
ATOM     36  C   UNL A   1      44.835  24.783  26.272  1.00  0.00     0.031 A 
ATOM     37  C   UNL A   1      45.955  25.732  26.297  1.00  0.00     0.074 A 
ATOM     38  C   UNL A   1      43.700  24.959  26.970  1.00  0.00     0.049 A 
ATOM     39  N   UNL A   1      46.743  25.997  27.282  1.00  0.00    -0.248 NA
ATOM     40  C   UNL A   1      46.300  26.391  25.032  1.00  0.00     0.031 C 
ATOM     41  C   UNL A   1      42.417  24.267  26.804  1.00  0.00     0.029 A 
ATOM     42  N   UNL A   1      43.430  25.902  27.909  1.00  0.00    -0.354 N 
ATOM     43  C   UNL A   1      47.596  26.986  26.814  1.00  0.00     0.074 A 
ATOM     44  C   UNL A   1      47.382  27.079  25.391  1.00  0.00     0.031 C 
ATOM     45  C   UNL A   1      41.455  24.974  27.439  1.00  0.00     0.029 A 
ATOM     46  C   UNL A   1      42.079  26.077  28.154  1.00  0.00     0.049 A 
ATOM     47  H   UNL A   1      44.130  26.416  28.372  1.00  0.00     0.167 HD
ATOM     48  C   UNL A   1      48.252  27.824  27.659  1.00  0.00     0.031 A 
ATOM     49  C   UNL A   1      41.519  27.116  28.815  1.00  0.00     0.031 A 
ATOM     50  C   UNL A   1      48.276  27.333  29.010  1.00  0.00     0.049 A 
ATOM     51  C   UNL A   1      42.580  27.773  29.615  1.00  0.00     0.074 A 
ATOM     52  C   UNL A   1      48.779  26.205  29.627  1.00  0.00     0.029 A 
ATOM     53  N   UNL A   1      47.397  27.896  29.904  1.00  0.00    -0.354 N 
ATOM     54  N   UNL A   1      43.148  27.228  30.653  1.00  0.00    -0.248 NA
ATOM     55  C   UNL A   1      43.315  28.880  29.019  1.00  0.00     0.031 C 
ATOM     56  C   UNL A   1      47.851  25.903  30.666  1.00  0.00     0.029 A 
ATOM     57  C   UNL A   1      46.849  26.876  30.637  1.00  0.00     0.049 A 
ATOM     58  H   UNL A   1      47.199  28.856  30.001  1.00  0.00     0.167 HD
ATOM     59  C   UNL A   1      44.476  27.628  30.588  1.00  0.00     0.074 A 
ATOM     60  C   UNL A   1      44.491  28.734  29.635  1.00  0.00     0.031 C 
ATOM     61  C   UNL A   1      45.476  26.846  31.091  1.00  0.00     0.031 A 
BRANCH  48  62
ATOM     62  C   UNL A   1      48.518  29.265  27.321  1.00  0.00    -0.014 A 
ATOM     63  C   UNL A   1      49.839  29.738  27.374  1.00  0.00     0.009 A 
ATOM     64  C   UNL A   1      47.497  30.230  27.222  1.00  0.00     0.009 A 
ATOM     65  C   UNL A   1      50.115  31.110  27.385  1.00  0.00     0.001 A 
ATOM     66  C   UNL A   1      47.772  31.598  27.184  1.00  0.00     0.001 A 
ATOM     67  C   UNL A   1      49.081  32.038  27.294  1.00  0.00     0.000 A 
ENDBRANCH  48  62
BRANCH  49  68
ATOM     68  C   UNL A   1      40.209  27.743  28.545  1.00  0.00    -0.014 A 
ATOM     69  C   UNL A   1      39.208  27.771  29.525  1.00  0.00     0.009 A 
ATOM     70  C   UNL A   1      40.022  28.532  27.394  1.00  0.00     0.009 A 
ATOM     71  C   UNL A   1      38.073  28.578  29.368  1.00  0.00     0.001 A 
ATOM     72  C   UNL A   1      38.888  29.332  27.233  1.00  0.00     0.001 A 
ATOM     73  C   UNL A   1      37.918  29.365  28.227  1.00  0.00     0.000 A 
ENDBRANCH  49  68
BRANCH  61  74
ATOM     74  C   UNL A   1      45.087  25.664  31.943  1.00  0.00    -0.014 A 
ATOM     75  C   UNL A   1      44.545  24.487  31.396  1.00  0.00     0.009 A 
ATOM     76  C   UNL A   1      45.440  25.667  33.301  1.00  0.00     0.009 A 
ATOM     77  C   UNL A   1      44.343  23.356  32.192  1.00  0.00     0.001 A 
ATOM     78  C   UNL A   1      45.257  24.529  34.090  1.00  0.00     0.001 A 
ATOM     79  C   UNL A   1      44.706  23.375  33.536  1.00  0.00     0.000 A 
ENDBRANCH  61  74
ENDBRANCH  35  36
ENDBRANCH  28  30
ENDBRANCH  27  28
ENDBRANCH  26  27
ENDBRANCH  25  26
ENDBRANCH  24  25
ENDBRANCH  23  24
ENDBRANCH   1  23
TORSDOF 20
ENDMDL
MODEL 2
REMARK VINA RESULT:      -9.8      3.267      8.445
REMARK SMILES CCOc1ccc(-n2ncc(C(=O)OCCOCCOCCOC(=O)c3ccc(-c4c5nc(c(-c6ccccc6)c6ccc([nH]6)c(-c6ccccc6)c6nc(c(-c7ccccc7)c7ccc4[nH]7)C=C6)C=C5)cc3)c2C)nn1
REMARK SMILES IDX 18 1 17 2 16 3 15 4 14 5 12 6 13 7 11 8 8 9 9 10 74 11 10 12
REMARK SMILES IDX 75 13 7 14 4 15 5 16 77 17 6 18 76 19 3 20 2 21 1 22 19 23
REMARK SMILES IDX 20 24 21 25 22 26 23 27 24 28 25 29 26 30 27 31 73 32 28 33
REMARK SMILES IDX 72 34 29 35 30 36 31 37 66 38 32 39 71 40 65 41 67 42 33 43
REMARK SMILES IDX 70 44 64 45 63 46 34 48 56 49 41 50 55 51 42 52 45 53 54 54
REMARK SMILES IDX 68 55 43 56 44 57 53 59 69 60 46 61 35 62 36 63 40 64 37 65
REMARK SMILES IDX 39 66 38 67 57 68 58 69 62 70 59 71 61 72 60 73 47 74 48 75
REMARK SMILES IDX 52 76 49 77 51 78 50 79
REMARK H PARENT 67 47 45 58
REMARK Flexibility Score: inf
ROOT
ATOM      1  C   UNL A   1      33.438  30.270  27.302  1.00  0.00     0.188 C 
ENDROOT
BRANCH   1   2
ATOM      2  O   UNL A   1      32.843  30.080  26.041  1.00  0.00    -0.376 OA
BRANCH   2   3
ATOM      3  C   UNL A   1      33.453  29.237  25.078  1.00  0.00     0.202 C 
BRANCH   3   4
ATOM      4  C   UNL A   1      32.797  28.719  23.776  1.00  0.00     0.261 C 
BRANCH   4   5
ATOM      5  O   UNL A   1      31.552  28.026  23.868  1.00  0.00    -0.460 OA
BRANCH   5   6
ATOM      6  C   UNL A   1      31.108  27.444  22.715  1.00  0.00     0.341 C 
ATOM      7  O   UNL A   1      30.337  27.961  21.933  1.00  0.00    -0.246 OA
BRANCH   6   8
ATOM      8  C   UNL A   1      31.782  26.183  22.457  1.00  0.00     0.101 A 
ATOM      9  N   UNL A   1      32.517  24.091  22.627  1.00  0.00    -0.217 N 
ATOM     10  N   UNL A   1      33.187  24.631  21.567  1.00  0.00    -0.174 NA
ATOM     11  C   UNL A   1      31.603  24.994  23.157  1.00  0.00     0.058 A 
ATOM     12  C   UNL A   1      32.688  25.859  21.436  1.00  0.00     0.151 A 
ATOM     13  C   UNL A   1      30.668  24.686  24.276  1.00  0.00     0.068 C 
BRANCH   9  14
ATOM     14  C   UNL A   1      32.840  22.784  23.093  1.00  0.00     0.176 A 
ATOM     15  C   UNL A   1      33.291  20.330  24.133  1.00  0.00     0.233 A 
ATOM     16  C   UNL A   1      33.995  21.395  24.657  1.00  0.00     0.074 A 
ATOM     17  N   UNL A   1      32.420  20.460  23.112  1.00  0.00    -0.110 NA
ATOM     18  C   UNL A   1      33.773  22.654  24.118  1.00  0.00     0.057 A 
ATOM     19  N   UNL A   1      32.179  21.708  22.600  1.00  0.00    -0.127 NA
BRANCH  15  20
ATOM     20  O   UNL A   1      33.532  19.074  24.630  1.00  0.00    -0.477 OA
BRANCH  20  21
ATOM     21  C   UNL A   1      32.613  18.126  24.079  1.00  0.00     0.228 C 
ATOM     22  C   UNL A   1      33.370  16.996  23.398  1.00  0.00     0.049 C 
ENDBRANCH  20  21
ENDBRANCH  15  20
ENDBRANCH   9  14
ENDBRANCH   6   8
ENDBRANCH   5   6
ENDBRANCH   4   5
ENDBRANCH   3   4
ENDBRANCH   2   3
ENDBRANCH   1   2
BRANCH   1  23
ATOM     23  C   UNL A   1      33.598  31.742  27.734  1.00  0.00     0.188 C 
BRANCH  23  24
ATOM     24  O   UNL A   1      34.826  32.433  27.576  1.00  0.00    -0.376 OA
BRANCH  24  25
ATOM     25  C   UNL A   1      36.042  32.002  28.170  1.00  0.00     0.202 C 
BRANCH  25  26
ATOM     26  C   UNL A   1      37.153  32.950  28.621  1.00  0.00     0.261 C 
BRANCH  26  27
ATOM     27  O   UNL A   1      37.761  32.605  29.849  1.00  0.00    -0.460 OA
BRANCH  27  28
ATOM     28  C   UNL A   1      38.989  33.135  30.009  1.00  0.00     0.338 C 
ATOM     29  O   UNL A   1      39.385  34.221  29.623  1.00  0.00    -0.246 OA
BRANCH  28  30
ATOM     30  C   UNL A   1      39.842  32.155  30.688  1.00  0.00     0.060 A 
ATOM     31  C   UNL A   1      41.162  32.083  30.242  1.00  0.00     0.016 A 
ATOM     32  C   UNL A   1      39.255  31.148  31.469  1.00  0.00     0.016 A 
ATOM     33  C   UNL A   1      41.796  30.869  30.319  1.00  0.00     0.010 A 
ATOM     34  C   UNL A   1      39.885  29.931  31.534  1.00  0.00     0.010 A 
ATOM     35  C   UNL A   1      41.087  29.788  30.848  1.00  0.00    -0.014 A 
BRANCH  35  36
ATOM     36  C   UNL A   1      41.584  28.470  30.533  1.00  0.00     0.031 A 
ATOM     37  C   UNL A   1      42.434  27.857  31.560  1.00  0.00     0.074 A 
ATOM     38  C   UNL A   1      41.238  27.849  29.391  1.00  0.00     0.049 A 
ATOM     39  N   UNL A   1      43.688  27.569  31.479  1.00  0.00    -0.248 NA
ATOM     40  C   UNL A   1      41.831  27.633  32.880  1.00  0.00     0.031 C 
ATOM     41  C   UNL A   1      40.177  28.214  28.446  1.00  0.00     0.029 A 
ATOM     42  N   UNL A   1      41.703  26.670  28.903  1.00  0.00    -0.354 N 
ATOM     43  C   UNL A   1      44.008  26.972  32.689  1.00  0.00     0.074 A 
ATOM     44  C   UNL A   1      42.878  27.174  33.563  1.00  0.00     0.031 C 
ATOM     45  C   UNL A   1      39.926  27.155  27.644  1.00  0.00     0.029 A 
ATOM     46  C   UNL A   1      40.891  26.107  27.935  1.00  0.00     0.049 A 
ATOM     47  H   UNL A   1      42.540  26.254  29.211  1.00  0.00     0.167 HD
ATOM     48  C   UNL A   1      45.080  26.147  32.819  1.00  0.00     0.031 A 
ATOM     49  C   UNL A   1      40.957  24.832  27.486  1.00  0.00     0.031 A 
ATOM     50  C   UNL A   1      46.014  26.286  31.735  1.00  0.00     0.049 A 
ATOM     51  C   UNL A   1      42.290  24.290  27.842  1.00  0.00     0.074 A 
ATOM     52  C   UNL A   1      46.782  27.321  31.237  1.00  0.00     0.029 A 
ATOM     53  N   UNL A   1      45.998  25.321  30.757  1.00  0.00    -0.354 N 
ATOM     54  N   UNL A   1      43.404  24.693  27.301  1.00  0.00    -0.248 NA
ATOM     55  C   UNL A   1      42.438  23.583  29.107  1.00  0.00     0.031 C 
ATOM     56  C   UNL A   1      46.812  27.118  29.828  1.00  0.00     0.029 A 
ATOM     57  C   UNL A   1      46.081  25.961  29.548  1.00  0.00     0.049 A 
ATOM     58  H   UNL A   1      45.938  24.349  30.899  1.00  0.00     0.167 HD
ATOM     59  C   UNL A   1      44.334  24.669  28.332  1.00  0.00     0.074 A 
ATOM     60  C   UNL A   1      43.713  23.867  29.382  1.00  0.00     0.031 C 
ATOM     61  C   UNL A   1      45.392  25.533  28.350  1.00  0.00     0.031 A 
BRANCH  48  62
ATOM     62  C   UNL A   1      45.071  24.946  33.723  1.00  0.00    -0.014 A 
ATOM     63  C   UNL A   1      46.281  24.280  33.974  1.00  0.00     0.009 A 
ATOM     64  C   UNL A   1      43.887  24.289  34.113  1.00  0.00     0.009 A 
ATOM     65  C   UNL A   1      46.297  22.997  34.534  1.00  0.00     0.001 A 
ATOM     66  C   UNL A   1      43.902  23.031  34.715  1.00  0.00     0.001 A 
ATOM     67  C   UNL A   1      45.108  22.373  34.901  1.00  0.00     0.000 A 
ENDBRANCH  48  62
BRANCH  49  68
ATOM     68  C   UNL A   1      39.830  23.979  27.055  1.00  0.00    -0.014 A 
ATOM     69  C   UNL A   1      38.567  24.528  26.799  1.00  0.00     0.009 A 
ATOM     70  C   UNL A   1      40.057  22.646  26.663  1.00  0.00     0.009 A 
ATOM     71  C   UNL A   1      37.576  23.778  26.152  1.00  0.00     0.001 A 
ATOM     72  C   UNL A   1      39.068  21.894  26.023  1.00  0.00     0.001 A 
ATOM     73  C   UNL A   1      37.830  22.465  25.756  1.00  0.00     0.000 A 
ENDBRANCH  49  68
BRANCH  61  74
ATOM     74  C   UNL A   1      45.670  26.336  27.104  1.00  0.00    -0.014 A 
ATOM     75  C   UNL A   1      45.285  27.683  26.975  1.00  0.00     0.009 A 
ATOM     76  C   UNL A   1      46.493  25.780  26.114  1.00  0.00     0.009 A 
ATOM     77  C   UNL A   1      45.696  28.441  25.875  1.00  0.00     0.001 A 
ATOM     78  C   UNL A   1      46.919  26.544  25.026  1.00  0.00     0.001 A 
ATOM     79  C   UNL A   1      46.518  27.874  24.905  1.00  0.00     0.000 A 
ENDBRANCH  61  74
ENDBRANCH  35  36
ENDBRANCH  28  30
ENDBRANCH  27  28
ENDBRANCH  26  27
ENDBRANCH  25  26
ENDBRANCH  24  25
ENDBRANCH  23  24
ENDBRANCH   1  23
TORSDOF 20
ENDMDL
MODEL 3
REMARK VINA RESULT:      -9.6      4.164      6.444
REMARK SMILES CCOc1ccc(-n2ncc(C(=O)OCCOCCOCCOC(=O)c3ccc(-c4c5nc(c(-c6ccccc6)c6ccc([nH]6)c(-c6ccccc6)c6nc(c(-c7ccccc7)c7ccc4[nH]7)C=C6)C=C5)cc3)c2C)nn1
REMARK SMILES IDX 18 1 17 2 16 3 15 4 14 5 12 6 13 7 11 8 8 9 9 10 74 11 10 12
REMARK SMILES IDX 75 13 7 14 4 15 5 16 77 17 6 18 76 19 3 20 2 21 1 22 19 23
REMARK SMILES IDX 20 24 21 25 22 26 23 27 24 28 25 29 26 30 27 31 73 32 28 33
REMARK SMILES IDX 72 34 29 35 30 36 31 37 66 38 32 39 71 40 65 41 67 42 33 43
REMARK SMILES IDX 70 44 64 45 63 46 34 48 56 49 41 50 55 51 42 52 45 53 54 54
REMARK SMILES IDX 68 55 43 56 44 57 53 59 69 60 46 61 35 62 36 63 40 64 37 65
REMARK SMILES IDX 39 66 38 67 57 68 58 69 62 70 59 71 61 72 60 73 47 74 48 75
REMARK SMILES IDX 52 76 49 77 51 78 50 79
REMARK H PARENT 67 47 45 58
REMARK Flexibility Score: inf
ROOT
ATOM      1  C   UNL A   1      39.633  25.336  27.338  1.00  0.00     0.188 C 
ENDROOT
BRANCH   1   2
ATOM      2  O   UNL A   1      38.551  24.437  27.320  1.00  0.00    -0.376 OA
BRANCH   2   3
ATOM      3  C   UNL A   1      38.170  23.795  26.115  1.00  0.00     0.202 C 
BRANCH   3   4
ATOM      4  C   UNL A   1      36.764  23.830  25.471  1.00  0.00     0.261 C 
BRANCH   4   5
ATOM      5  O   UNL A   1      35.643  23.422  26.255  1.00  0.00    -0.460 OA
BRANCH   5   6
ATOM      6  C   UNL A   1      34.579  22.924  25.559  1.00  0.00     0.341 C 
ATOM      7  O   UNL A   1      34.475  21.775  25.184  1.00  0.00    -0.246 OA
BRANCH   6   8
ATOM      8  C   UNL A   1      33.510  23.902  25.442  1.00  0.00     0.101 A 
ATOM      9  N   UNL A   1      32.198  25.541  24.710  1.00  0.00    -0.217 N 
ATOM     10  N   UNL A   1      31.745  25.240  25.961  1.00  0.00    -0.174 NA
ATOM     11  C   UNL A   1      33.239  24.699  24.336  1.00  0.00     0.058 A 
ATOM     12  C   UNL A   1      32.495  24.214  26.359  1.00  0.00     0.151 A 
ATOM     13  C   UNL A   1      33.904  24.725  23.002  1.00  0.00     0.068 C 
BRANCH   9  14
ATOM     14  C   UNL A   1      31.651  26.643  23.991  1.00  0.00     0.176 A 
ATOM     15  C   UNL A   1      30.785  28.713  22.484  1.00  0.00     0.233 A 
ATOM     16  C   UNL A   1      31.657  28.985  23.518  1.00  0.00     0.074 A 
ATOM     17  N   UNL A   1      30.329  27.473  22.219  1.00  0.00    -0.110 NA
ATOM     18  C   UNL A   1      32.095  27.925  24.300  1.00  0.00     0.057 A 
ATOM     19  N   UNL A   1      30.784  26.422  22.973  1.00  0.00    -0.127 NA
BRANCH  15  20
ATOM     20  O   UNL A   1      30.313  29.758  21.730  1.00  0.00    -0.477 OA
BRANCH  20  21
ATOM     21  C   UNL A   1      29.019  30.166  22.184  1.00  0.00     0.228 C 
ATOM     22  C   UNL A   1      28.584  31.431  21.459  1.00  0.00     0.049 C 
ENDBRANCH  20  21
ENDBRANCH  15  20
ENDBRANCH   9  14
ENDBRANCH   6   8
ENDBRANCH   5   6
ENDBRANCH   4   5
ENDBRANCH   3   4
ENDBRANCH   2   3
ENDBRANCH   1   2
BRANCH   1  23
ATOM     23  C   UNL A   1      40.558  25.272  26.106  1.00  0.00     0.188 C 
BRANCH  23  24
ATOM     24  O   UNL A   1      41.772  24.539  26.125  1.00  0.00    -0.376 OA
BRANCH  24  25
ATOM     25  C   UNL A   1      41.922  23.301  26.804  1.00  0.00     0.202 C 
BRANCH  25  26
ATOM     26  C   UNL A   1      42.561  23.157  28.185  1.00  0.00     0.261 C 
BRANCH  26  27
ATOM     27  O   UNL A   1      42.404  24.279  29.028  1.00  0.00    -0.460 OA
BRANCH  27  28
ATOM     28  C   UNL A   1      43.539  24.645  29.655  1.00  0.00     0.338 C 
ATOM     29  O   UNL A   1      44.309  23.930  30.273  1.00  0.00    -0.246 OA
BRANCH  28  30
ATOM     30  C   UNL A   1      43.695  26.098  29.541  1.00  0.00     0.060 A 
ATOM     31  C   UNL A   1      43.682  26.809  30.741  1.00  0.00     0.016 A 
ATOM     32  C   UNL A   1      43.512  26.719  28.296  1.00  0.00     0.016 A 
ATOM     33  C   UNL A   1      43.186  28.087  30.721  1.00  0.00     0.010 A 
ATOM     34  C   UNL A   1      43.004  27.993  28.278  1.00  0.00     0.010 A 
ATOM     35  C   UNL A   1      42.736  28.600  29.502  1.00  0.00    -0.014 A 
BRANCH  35  36
ATOM     36  C   UNL A   1      41.845  29.734  29.564  1.00  0.00     0.031 A 
ATOM     37  C   UNL A   1      42.492  31.047  29.459  1.00  0.00     0.074 A 
ATOM     38  C   UNL A   1      40.515  29.570  29.663  1.00  0.00     0.049 A 
ATOM     39  N   UNL A   1      42.568  31.964  30.363  1.00  0.00    -0.248 NA
ATOM     40  C   UNL A   1      43.236  31.329  28.226  1.00  0.00     0.031 C 
ATOM     41  C   UNL A   1      39.735  28.342  29.471  1.00  0.00     0.029 A 
ATOM     42  N   UNL A   1      39.563  30.522  29.842  1.00  0.00    -0.354 N 
ATOM     43  C   UNL A   1      43.236  33.020  29.759  1.00  0.00     0.074 A 
ATOM     44  C   UNL A   1      43.754  32.522  28.509  1.00  0.00     0.031 C 
ATOM     45  C   UNL A   1      38.435  28.672  29.305  1.00  0.00     0.029 A 
ATOM     46  C   UNL A   1      38.286  30.104  29.512  1.00  0.00     0.049 A 
ATOM     47  H   UNL A   1      39.763  31.427  30.174  1.00  0.00     0.167 HD
ATOM     48  C   UNL A   1      43.118  34.294  30.215  1.00  0.00     0.031 A 
ATOM     49  C   UNL A   1      37.211  30.905  29.327  1.00  0.00     0.031 A 
ATOM     50  C   UNL A   1      42.588  34.353  31.550  1.00  0.00     0.049 A 
ATOM     51  C   UNL A   1      37.497  32.210  29.971  1.00  0.00     0.074 A 
ATOM     52  C   UNL A   1      42.993  33.876  32.781  1.00  0.00     0.029 A 
ATOM     53  N   UNL A   1      41.263  34.691  31.691  1.00  0.00    -0.354 N 
ATOM     54  N   UNL A   1      37.585  32.378  31.259  1.00  0.00    -0.248 NA
ATOM     55  C   UNL A   1      38.100  33.264  29.167  1.00  0.00     0.031 C 
ATOM     56  C   UNL A   1      41.790  33.534  33.463  1.00  0.00     0.029 A 
ATOM     57  C   UNL A   1      40.720  33.842  32.620  1.00  0.00     0.049 A 
ATOM     58  H   UNL A   1      40.792  35.412  31.214  1.00  0.00     0.167 HD
ATOM     59  C   UNL A   1      38.598  33.314  31.431  1.00  0.00     0.074 A 
ATOM     60  C   UNL A   1      38.791  33.906  30.111  1.00  0.00     0.031 C 
ATOM     61  C   UNL A   1      39.374  33.316  32.555  1.00  0.00     0.031 A 
BRANCH  48  62
ATOM     62  C   UNL A   1      43.116  35.484  29.296  1.00  0.00    -0.014 A 
ATOM     63  C   UNL A   1      44.201  36.374  29.340  1.00  0.00     0.009 A 
ATOM     64  C   UNL A   1      41.971  35.907  28.592  1.00  0.00     0.009 A 
ATOM     65  C   UNL A   1      44.118  37.644  28.757  1.00  0.00     0.001 A 
ATOM     66  C   UNL A   1      41.904  37.153  27.968  1.00  0.00     0.001 A 
ATOM     67  C   UNL A   1      42.969  38.033  28.075  1.00  0.00     0.000 A 
ENDBRANCH  48  62
BRANCH  49  68
ATOM     68  C   UNL A   1      36.104  30.705  28.369  1.00  0.00    -0.014 A 
ATOM     69  C   UNL A   1      35.987  29.514  27.640  1.00  0.00     0.009 A 
ATOM     70  C   UNL A   1      35.015  31.599  28.344  1.00  0.00     0.009 A 
ATOM     71  C   UNL A   1      34.815  29.219  26.932  1.00  0.00     0.001 A 
ATOM     72  C   UNL A   1      33.848  31.309  27.633  1.00  0.00     0.001 A 
ATOM     73  C   UNL A   1      33.743  30.111  26.936  1.00  0.00     0.000 A 
ENDBRANCH  49  68
BRANCH  61  74
ATOM     74  C   UNL A   1      38.945  32.451  33.712  1.00  0.00    -0.014 A 
ATOM     75  C   UNL A   1      39.221  31.072  33.764  1.00  0.00     0.009 A 
ATOM     76  C   UNL A   1      38.412  33.067  34.854  1.00  0.00     0.009 A 
ATOM     77  C   UNL A   1      38.950  30.332  34.918  1.00  0.00     0.001 A 
ATOM     78  C   UNL A   1      38.161  32.331  36.013  1.00  0.00     0.001 A 
ATOM     79  C   UNL A   1      38.427  30.962  36.045  1.00  0.00     0.000 A 
ENDBRANCH  61  74
ENDBRANCH  35  36
ENDBRANCH  28  30
ENDBRANCH  27  28
ENDBRANCH  26  27
ENDBRANCH  25  26
ENDBRANCH  24  25
ENDBRANCH  23  24
ENDBRANCH   1  23
TORSDOF 20
ENDMDL
