MODEL 1
REMARK VINA RESULT:      -9.9      0.000      0.000
REMARK SMILES C[N@H+]1[C@H]2CC[C@@H]1c1sc(=O)n(CCCC(=O)OCCOCCOCCOC(=O)c3ccc(-c4c5nc(c(-c6ccccc6)c6ccc([nH]6)c(-c6ccccc6)c6nc(c(-c7ccccc7)c7ccc4[nH]7)C=C6)C=C5)cc3)c1C2
REMARK SMILES IDX 21 1 20 2 19 3 18 4 17 5 15 6 16 7 14 8 13 9 12 10 11 11
REMARK SMILES IDX 1 12 2 13 3 14 6 15 4 17 78 18 5 19 7 20 77 21 8 22 9 23
REMARK SMILES IDX 10 24 22 25 23 26 24 27 25 28 26 29 27 30 28 31 29 32 30 33
REMARK SMILES IDX 76 34 31 35 75 36 32 37 33 38 34 39 69 40 35 41 74 42 68 43
REMARK SMILES IDX 70 44 36 45 73 46 67 47 66 48 37 50 59 51 44 52 58 53 45 54
REMARK SMILES IDX 48 55 57 56 71 57 46 58 47 59 56 61 72 62 49 63 38 64 39 65
REMARK SMILES IDX 43 66 40 67 42 68 41 69 60 70 61 71 65 72 62 73 64 74 63 75
REMARK SMILES IDX 50 76 51 77 55 78 52 79 54 80 53 81
REMARK H PARENT 2 16 70 49 48 60
REMARK Flexibility Score: inf
ROOT
ATOM      1  C   UNL A   1      34.698  29.945  27.521  1.00  0.00     0.188 C 
ENDROOT
BRANCH   1   2
ATOM      2  O   UNL A   1      33.972  29.044  26.715  1.00  0.00    -0.376 OA
BRANCH   2   3
ATOM      3  C   UNL A   1      33.129  29.592  25.711  1.00  0.00     0.202 C 
BRANCH   3   4
ATOM      4  C   UNL A   1      31.685  29.082  25.512  1.00  0.00     0.261 C 
BRANCH   4   5
ATOM      5  O   UNL A   1      31.567  27.709  25.092  1.00  0.00    -0.463 OA
BRANCH   5   6
ATOM      6  C   UNL A   1      31.407  26.770  26.053  1.00  0.00     0.305 C 
ATOM      7  O   UNL A   1      31.024  27.016  27.194  1.00  0.00    -0.252 OA
BRANCH   6   8
ATOM      8  C   UNL A   1      31.599  25.331  25.584  1.00  0.00     0.124 C 
BRANCH   8   9
ATOM      9  C   UNL A   1      31.231  24.081  26.396  1.00  0.00     0.034 C 
BRANCH   9  10
ATOM     10  C   UNL A   1      32.328  23.190  26.964  1.00  0.00     0.127 C 
BRANCH  10  11
ATOM     11  N   UNL A   1      33.010  22.393  25.970  1.00  0.00    -0.302 N 
ATOM     12  C   UNL A   1      38.314  21.391  25.886  1.00  0.00     0.333 C 
ATOM     13  N   UNL A   1      36.945  21.860  25.801  1.00  0.00    -0.328 N 
ATOM     14  C   UNL A   1      36.773  23.328  25.846  1.00  0.00     0.190 C 
ATOM     15  C   UNL A   1      36.269  21.497  24.526  1.00  0.00     0.227 C 
ATOM     16  H   UNL A   1      36.543  21.406  26.621  1.00  0.00     0.348 HD
ATOM     17  C   UNL A   1      37.138  23.757  24.423  1.00  0.00     0.072 C 
ATOM     18  C   UNL A   1      35.271  23.614  26.196  1.00  0.00     0.120 C 
ATOM     19  C   UNL A   1      36.642  22.614  23.538  1.00  0.00     0.077 C 
ATOM     20  C   UNL A   1      34.806  21.601  24.822  1.00  0.00     0.087 A 
ATOM     21  C   UNL A   1      34.337  22.567  25.626  1.00  0.00     0.047 A 
ATOM     22  S   UNL A   1      33.612  20.435  24.401  1.00  0.00    -0.073 S 
ATOM     23  C   UNL A   1      32.433  21.240  25.443  1.00  0.00     0.307 A 
ATOM     24  O   UNL A   1      31.314  20.788  25.640  1.00  0.00    -0.257 OA
ENDBRANCH  10  11
ENDBRANCH   9  10
ENDBRANCH   8   9
ENDBRANCH   6   8
ENDBRANCH   5   6
ENDBRANCH   4   5
ENDBRANCH   3   4
ENDBRANCH   2   3
ENDBRANCH   1   2
BRANCH   1  25
ATOM     25  C   UNL A   1      34.197  31.388  27.692  1.00  0.00     0.188 C 
BRANCH  25  26
ATOM     26  O   UNL A   1      35.074  32.490  27.685  1.00  0.00    -0.376 OA
BRANCH  26  27
ATOM     27  C   UNL A   1      34.764  33.857  27.918  1.00  0.00     0.202 C 
BRANCH  27  28
ATOM     28  C   UNL A   1      33.837  34.428  28.992  1.00  0.00     0.261 C 
BRANCH  28  29
ATOM     29  O   UNL A   1      34.498  34.854  30.149  1.00  0.00    -0.460 OA
BRANCH  29  30
ATOM     30  C   UNL A   1      33.705  34.914  31.235  1.00  0.00     0.338 C 
ATOM     31  O   UNL A   1      32.547  35.279  31.305  1.00  0.00    -0.246 OA
BRANCH  30  32
ATOM     32  C   UNL A   1      34.491  34.352  32.344  1.00  0.00     0.060 A 
ATOM     33  C   UNL A   1      35.460  35.186  32.890  1.00  0.00     0.016 A 
ATOM     34  C   UNL A   1      34.455  32.968  32.563  1.00  0.00     0.016 A 
ATOM     35  C   UNL A   1      36.646  34.592  33.205  1.00  0.00     0.010 A 
ATOM     36  C   UNL A   1      35.636  32.373  32.863  1.00  0.00     0.010 A 
ATOM     37  C   UNL A   1      36.731  33.219  32.978  1.00  0.00    -0.014 A 
BRANCH  37  38
ATOM     38  C   UNL A   1      38.017  32.682  32.636  1.00  0.00     0.031 A 
ATOM     39  C   UNL A   1      38.907  32.622  33.795  1.00  0.00     0.074 A 
ATOM     40  C   UNL A   1      38.257  32.234  31.389  1.00  0.00     0.049 A 
ATOM     41  N   UNL A   1      39.887  33.418  34.049  1.00  0.00    -0.248 NA
ATOM     42  C   UNL A   1      38.500  31.762  34.915  1.00  0.00     0.031 C 
ATOM     43  C   UNL A   1      37.330  32.018  30.270  1.00  0.00     0.029 A 
ATOM     44  N   UNL A   1      39.421  31.760  30.896  1.00  0.00    -0.354 N 
ATOM     45  C   UNL A   1      40.347  33.022  35.293  1.00  0.00     0.074 A 
ATOM     46  C   UNL A   1      39.312  32.206  35.871  1.00  0.00     0.031 C 
ATOM     47  C   UNL A   1      37.923  31.216  29.352  1.00  0.00     0.029 A 
ATOM     48  C   UNL A   1      39.298  30.976  29.762  1.00  0.00     0.049 A 
ATOM     49  H   UNL A   1      40.292  31.956  31.312  1.00  0.00     0.167 HD
ATOM     50  C   UNL A   1      41.656  33.142  35.630  1.00  0.00     0.031 A 
ATOM     51  C   UNL A   1      40.247  30.128  29.292  1.00  0.00     0.031 A 
ATOM     52  C   UNL A   1      42.366  33.982  34.700  1.00  0.00     0.049 A 
ATOM     53  C   UNL A   1      41.534  30.514  29.940  1.00  0.00     0.074 A 
ATOM     54  C   UNL A   1      42.280  35.314  34.353  1.00  0.00     0.029 A 
ATOM     55  N   UNL A   1      43.018  33.349  33.665  1.00  0.00    -0.354 N 
ATOM     56  N   UNL A   1      42.137  31.644  29.693  1.00  0.00    -0.248 NA
ATOM     57  C   UNL A   1      41.859  29.909  31.228  1.00  0.00     0.031 C 
ATOM     58  C   UNL A   1      42.475  35.340  32.942  1.00  0.00     0.029 A 
ATOM     59  C   UNL A   1      42.745  34.039  32.510  1.00  0.00     0.049 A 
ATOM     60  H   UNL A   1      43.580  32.545  33.740  1.00  0.00     0.167 HD
ATOM     61  C   UNL A   1      42.570  32.103  30.932  1.00  0.00     0.074 A 
ATOM     62  C   UNL A   1      42.445  30.953  31.828  1.00  0.00     0.031 C 
ATOM     63  C   UNL A   1      42.687  33.439  31.192  1.00  0.00     0.031 A 
BRANCH  50  64
ATOM     64  C   UNL A   1      42.350  32.174  36.541  1.00  0.00    -0.014 A 
ATOM     65  C   UNL A   1      42.678  32.597  37.836  1.00  0.00     0.009 A 
ATOM     66  C   UNL A   1      42.914  30.958  36.104  1.00  0.00     0.009 A 
ATOM     67  C   UNL A   1      43.571  31.866  38.627  1.00  0.00     0.001 A 
ATOM     68  C   UNL A   1      43.769  30.204  36.906  1.00  0.00     0.001 A 
ATOM     69  C   UNL A   1      44.119  30.675  38.159  1.00  0.00     0.000 A 
ENDBRANCH  50  64
BRANCH  51  70
ATOM     70  C   UNL A   1      40.045  28.819  28.627  1.00  0.00    -0.014 A 
ATOM     71  C   UNL A   1      40.477  28.593  27.311  1.00  0.00     0.009 A 
ATOM     72  C   UNL A   1      39.644  27.697  29.379  1.00  0.00     0.009 A 
ATOM     73  C   UNL A   1      40.529  27.295  26.780  1.00  0.00     0.001 A 
ATOM     74  C   UNL A   1      39.695  26.402  28.851  1.00  0.00     0.001 A 
ATOM     75  C   UNL A   1      40.149  26.199  27.553  1.00  0.00     0.000 A 
ENDBRANCH  51  70
BRANCH  63  76
ATOM     76  C   UNL A   1      42.486  34.402  30.043  1.00  0.00    -0.014 A 
ATOM     77  C   UNL A   1      43.540  34.844  29.220  1.00  0.00     0.009 A 
ATOM     78  C   UNL A   1      41.174  34.702  29.656  1.00  0.00     0.009 A 
ATOM     79  C   UNL A   1      43.284  35.574  28.053  1.00  0.00     0.001 A 
ATOM     80  C   UNL A   1      40.916  35.413  28.481  1.00  0.00     0.001 A 
ATOM     81  C   UNL A   1      41.969  35.850  27.682  1.00  0.00     0.000 A 
ENDBRANCH  63  76
ENDBRANCH  37  38
ENDBRANCH  30  32
ENDBRANCH  29  30
ENDBRANCH  28  29
ENDBRANCH  27  28
ENDBRANCH  26  27
ENDBRANCH  25  26
ENDBRANCH   1  25
TORSDOF 20
ENDMDL
MODEL 2
REMARK VINA RESULT:      -9.9      3.851      8.113
REMARK SMILES C[N@H+]1[C@H]2CC[C@@H]1c1sc(=O)n(CCCC(=O)OCCOCCOCCOC(=O)c3ccc(-c4c5nc(c(-c6ccccc6)c6ccc([nH]6)c(-c6ccccc6)c6nc(c(-c7ccccc7)c7ccc4[nH]7)C=C6)C=C5)cc3)c1C2
REMARK SMILES IDX 21 1 20 2 19 3 18 4 17 5 15 6 16 7 14 8 13 9 12 10 11 11
REMARK SMILES IDX 1 12 2 13 3 14 6 15 4 17 78 18 5 19 7 20 77 21 8 22 9 23
REMARK SMILES IDX 10 24 22 25 23 26 24 27 25 28 26 29 27 30 28 31 29 32 30 33
REMARK SMILES IDX 76 34 31 35 75 36 32 37 33 38 34 39 69 40 35 41 74 42 68 43
REMARK SMILES IDX 70 44 36 45 73 46 67 47 66 48 37 50 59 51 44 52 58 53 45 54
REMARK SMILES IDX 48 55 57 56 71 57 46 58 47 59 56 61 72 62 49 63 38 64 39 65
REMARK SMILES IDX 43 66 40 67 42 68 41 69 60 70 61 71 65 72 62 73 64 74 63 75
REMARK SMILES IDX 50 76 51 77 55 78 52 79 54 80 53 81
REMARK H PARENT 2 16 70 49 48 60
REMARK Flexibility Score: inf
ROOT
ATOM      1  C   UNL A   1      34.963  31.469  27.944  1.00  0.00     0.188 C 
ENDROOT
BRANCH   1   2
ATOM      2  O   UNL A   1      34.101  30.739  27.100  1.00  0.00    -0.376 OA
BRANCH   2   3
ATOM      3  C   UNL A   1      32.715  31.046  27.152  1.00  0.00     0.202 C 
BRANCH   3   4
ATOM      4  C   UNL A   1      31.760  30.639  26.008  1.00  0.00     0.261 C 
BRANCH   4   5
ATOM      5  O   UNL A   1      31.675  29.224  25.748  1.00  0.00    -0.463 OA
BRANCH   5   6
ATOM      6  C   UNL A   1      32.649  28.665  24.993  1.00  0.00     0.305 C 
ATOM      7  O   UNL A   1      33.212  29.240  24.065  1.00  0.00    -0.252 OA
BRANCH   6   8
ATOM      8  C   UNL A   1      33.120  27.293  25.466  1.00  0.00     0.124 C 
BRANCH   8   9
ATOM      9  C   UNL A   1      32.217  26.207  26.067  1.00  0.00     0.034 C 
BRANCH   9  10
ATOM     10  C   UNL A   1      32.012  24.890  25.330  1.00  0.00     0.127 C 
BRANCH  10  11
ATOM     11  N   UNL A   1      32.767  23.787  25.880  1.00  0.00    -0.302 N 
ATOM     12  C   UNL A   1      38.154  23.520  26.122  1.00  0.00     0.333 C 
ATOM     13  N   UNL A   1      36.732  23.512  25.838  1.00  0.00    -0.328 N 
ATOM     14  C   UNL A   1      36.366  23.766  24.429  1.00  0.00     0.190 C 
ATOM     15  C   UNL A   1      36.077  22.205  26.110  1.00  0.00     0.227 C 
ATOM     16  H   UNL A   1      36.418  24.264  26.453  1.00  0.00     0.348 HD
ATOM     17  C   UNL A   1      36.631  22.415  23.760  1.00  0.00     0.072 C 
ATOM     18  C   UNL A   1      34.848  24.165  24.403  1.00  0.00     0.120 C 
ATOM     19  C   UNL A   1      36.269  21.381  24.826  1.00  0.00     0.077 C 
ATOM     20  C   UNL A   1      34.622  22.525  26.251  1.00  0.00     0.087 A 
ATOM     21  C   UNL A   1      34.049  23.461  25.479  1.00  0.00     0.047 A 
ATOM     22  S   UNL A   1      33.585  21.952  27.499  1.00  0.00    -0.073 S 
ATOM     23  C   UNL A   1      32.337  23.108  27.016  1.00  0.00     0.307 A 
ATOM     24  O   UNL A   1      31.295  23.248  27.641  1.00  0.00    -0.257 OA
ENDBRANCH  10  11
ENDBRANCH   9  10
ENDBRANCH   8   9
ENDBRANCH   6   8
ENDBRANCH   5   6
ENDBRANCH   4   5
ENDBRANCH   3   4
ENDBRANCH   2   3
ENDBRANCH   1   2
BRANCH   1  25
ATOM     25  C   UNL A   1      34.380  32.504  28.918  1.00  0.00     0.188 C 
BRANCH  25  26
ATOM     26  O   UNL A   1      35.039  32.867  30.108  1.00  0.00    -0.376 OA
BRANCH  26  27
ATOM     27  C   UNL A   1      35.068  32.163  31.343  1.00  0.00     0.202 C 
BRANCH  27  28
ATOM     28  C   UNL A   1      36.063  31.084  31.771  1.00  0.00     0.261 C 
BRANCH  28  29
ATOM     29  O   UNL A   1      36.471  30.238  30.733  1.00  0.00    -0.460 OA
BRANCH  29  30
ATOM     30  C   UNL A   1      37.679  30.545  30.226  1.00  0.00     0.338 C 
ATOM     31  O   UNL A   1      38.353  31.536  30.431  1.00  0.00    -0.246 OA
BRANCH  30  32
ATOM     32  C   UNL A   1      38.090  29.384  29.423  1.00  0.00     0.060 A 
ATOM     33  C   UNL A   1      38.371  28.220  30.130  1.00  0.00     0.016 A 
ATOM     34  C   UNL A   1      38.479  29.588  28.092  1.00  0.00     0.016 A 
ATOM     35  C   UNL A   1      39.453  27.510  29.700  1.00  0.00     0.010 A 
ATOM     36  C   UNL A   1      39.563  28.892  27.665  1.00  0.00     0.010 A 
ATOM     37  C   UNL A   1      40.121  28.013  28.583  1.00  0.00    -0.014 A 
BRANCH  37  38
ATOM     38  C   UNL A   1      41.532  27.773  28.492  1.00  0.00     0.031 A 
ATOM     39  C   UNL A   1      41.826  26.526  27.786  1.00  0.00     0.074 A 
ATOM     40  C   UNL A   1      42.408  28.684  28.953  1.00  0.00     0.049 A 
ATOM     41  N   UNL A   1      42.201  25.416  28.320  1.00  0.00    -0.248 NA
ATOM     42  C   UNL A   1      41.403  26.428  26.382  1.00  0.00     0.031 C 
ATOM     43  C   UNL A   1      42.182  30.060  29.417  1.00  0.00     0.029 A 
ATOM     44  N   UNL A   1      43.754  28.584  28.994  1.00  0.00    -0.354 N 
ATOM     45  C   UNL A   1      42.247  24.519  27.267  1.00  0.00     0.074 A 
ATOM     46  C   UNL A   1      41.506  25.116  26.187  1.00  0.00     0.031 C 
ATOM     47  C   UNL A   1      43.363  30.725  29.427  1.00  0.00     0.029 A 
ATOM     48  C   UNL A   1      44.426  29.789  29.096  1.00  0.00     0.049 A 
ATOM     49  H   UNL A   1      44.222  27.718  28.954  1.00  0.00     0.167 HD
ATOM     50  C   UNL A   1      43.138  23.494  27.254  1.00  0.00     0.031 A 
ATOM     51  C   UNL A   1      45.741  29.976  28.817  1.00  0.00     0.031 A 
ATOM     52  C   UNL A   1      43.742  23.303  28.547  1.00  0.00     0.049 A 
ATOM     53  C   UNL A   1      46.380  28.628  28.812  1.00  0.00     0.074 A 
ATOM     54  C   UNL A   1      43.260  22.937  29.786  1.00  0.00     0.029 A 
ATOM     55  N   UNL A   1      44.949  23.931  28.767  1.00  0.00    -0.354 N 
ATOM     56  N   UNL A   1      46.507  27.902  29.888  1.00  0.00    -0.248 NA
ATOM     57  C   UNL A   1      46.385  27.880  27.559  1.00  0.00     0.031 C 
ATOM     58  C   UNL A   1      43.969  23.754  30.713  1.00  0.00     0.029 A 
ATOM     59  C   UNL A   1      44.899  24.520  30.005  1.00  0.00     0.049 A 
ATOM     60  H   UNL A   1      45.712  23.953  28.145  1.00  0.00     0.167 HD
ATOM     61  C   UNL A   1      46.181  26.609  29.495  1.00  0.00     0.074 A 
ATOM     62  C   UNL A   1      46.197  26.641  28.032  1.00  0.00     0.031 C 
ATOM     63  C   UNL A   1      45.622  25.721  30.371  1.00  0.00     0.031 A 
BRANCH  50  64
ATOM     64  C   UNL A   1      43.744  22.964  25.989  1.00  0.00    -0.014 A 
ATOM     65  C   UNL A   1      43.716  21.581  25.766  1.00  0.00     0.009 A 
ATOM     66  C   UNL A   1      44.557  23.733  25.132  1.00  0.00     0.009 A 
ATOM     67  C   UNL A   1      44.508  20.996  24.772  1.00  0.00     0.001 A 
ATOM     68  C   UNL A   1      45.313  23.159  24.110  1.00  0.00     0.001 A 
ATOM     69  C   UNL A   1      45.308  21.784  23.950  1.00  0.00     0.000 A 
ENDBRANCH  50  64
BRANCH  51  70
ATOM     70  C   UNL A   1      46.379  31.169  28.212  1.00  0.00    -0.014 A 
ATOM     71  C   UNL A   1      47.737  31.456  28.419  1.00  0.00     0.009 A 
ATOM     72  C   UNL A   1      45.707  31.901  27.213  1.00  0.00     0.009 A 
ATOM     73  C   UNL A   1      48.399  32.420  27.642  1.00  0.00     0.001 A 
ATOM     74  C   UNL A   1      46.366  32.862  26.438  1.00  0.00     0.001 A 
ATOM     75  C   UNL A   1      47.717  33.114  26.644  1.00  0.00     0.000 A 
ENDBRANCH  51  70
BRANCH  63  76
ATOM     76  C   UNL A   1      45.516  26.133  31.822  1.00  0.00    -0.014 A 
ATOM     77  C   UNL A   1      44.411  26.835  32.341  1.00  0.00     0.009 A 
ATOM     78  C   UNL A   1      46.457  25.619  32.723  1.00  0.00     0.009 A 
ATOM     79  C   UNL A   1      44.263  27.022  33.721  1.00  0.00     0.001 A 
ATOM     80  C   UNL A   1      46.299  25.787  34.101  1.00  0.00     0.001 A 
ATOM     81  C   UNL A   1      45.205  26.489  34.600  1.00  0.00     0.000 A 
ENDBRANCH  63  76
ENDBRANCH  37  38
ENDBRANCH  30  32
ENDBRANCH  29  30
ENDBRANCH  28  29
ENDBRANCH  27  28
ENDBRANCH  26  27
ENDBRANCH  25  26
ENDBRANCH   1  25
TORSDOF 20
ENDMDL
MODEL 3
REMARK VINA RESULT:      -9.7      2.198      3.537
REMARK SMILES C[N@H+]1[C@H]2CC[C@@H]1c1sc(=O)n(CCCC(=O)OCCOCCOCCOC(=O)c3ccc(-c4c5nc(c(-c6ccccc6)c6ccc([nH]6)c(-c6ccccc6)c6nc(c(-c7ccccc7)c7ccc4[nH]7)C=C6)C=C5)cc3)c1C2
REMARK SMILES IDX 21 1 20 2 19 3 18 4 17 5 15 6 16 7 14 8 13 9 12 10 11 11
REMARK SMILES IDX 1 12 2 13 3 14 6 15 4 17 78 18 5 19 7 20 77 21 8 22 9 23
REMARK SMILES IDX 10 24 22 25 23 26 24 27 25 28 26 29 27 30 28 31 29 32 30 33
REMARK SMILES IDX 76 34 31 35 75 36 32 37 33 38 34 39 69 40 35 41 74 42 68 43
REMARK SMILES IDX 70 44 36 45 73 46 67 47 66 48 37 50 59 51 44 52 58 53 45 54
REMARK SMILES IDX 48 55 57 56 71 57 46 58 47 59 56 61 72 62 49 63 38 64 39 65
REMARK SMILES IDX 43 66 40 67 42 68 41 69 60 70 61 71 65 72 62 73 64 74 63 75
REMARK SMILES IDX 50 76 51 77 55 78 52 79 54 80 53 81
REMARK H PARENT 2 16 70 49 48 60
REMARK Flexibility Score: inf
ROOT
ATOM      1  C   UNL A   1      34.807  30.549  27.744  1.00  0.00     0.188 C 
ENDROOT
BRANCH   1   2
ATOM      2  O   UNL A   1      34.052  29.364  27.617  1.00  0.00    -0.376 OA
BRANCH   2   3
ATOM      3  C   UNL A   1      32.684  29.493  27.257  1.00  0.00     0.202 C 
BRANCH   3   4
ATOM      4  C   UNL A   1      31.685  28.337  27.481  1.00  0.00     0.261 C 
BRANCH   4   5
ATOM      5  O   UNL A   1      31.386  27.543  26.316  1.00  0.00    -0.463 OA
BRANCH   5   6
ATOM      6  C   UNL A   1      31.909  26.297  26.255  1.00  0.00     0.305 C 
ATOM      7  O   UNL A   1      33.091  26.038  26.473  1.00  0.00    -0.252 OA
BRANCH   6   8
ATOM      8  C   UNL A   1      30.892  25.182  26.035  1.00  0.00     0.124 C 
BRANCH   8   9
ATOM      9  C   UNL A   1      30.979  24.109  24.941  1.00  0.00     0.034 C 
BRANCH   9  10
ATOM     10  C   UNL A   1      30.588  24.447  23.508  1.00  0.00     0.127 C 
BRANCH  10  11
ATOM     11  N   UNL A   1      31.264  25.608  22.974  1.00  0.00    -0.302 N 
ATOM     12  C   UNL A   1      30.421  30.701  24.554  1.00  0.00     0.333 C 
ATOM     13  N   UNL A   1      30.462  29.365  23.991  1.00  0.00    -0.328 N 
ATOM     14  C   UNL A   1      29.152  28.801  23.601  1.00  0.00     0.190 C 
ATOM     15  C   UNL A   1      31.239  29.274  22.726  1.00  0.00     0.227 C 
ATOM     16  H   UNL A   1      30.881  28.851  24.767  1.00  0.00     0.348 HD
ATOM     17  C   UNL A   1      28.870  29.489  22.263  1.00  0.00     0.072 C 
ATOM     18  C   UNL A   1      29.333  27.249  23.456  1.00  0.00     0.120 C 
ATOM     19  C   UNL A   1      30.245  29.641  21.613  1.00  0.00     0.077 C 
ATOM     20  C   UNL A   1      31.586  27.825  22.589  1.00  0.00     0.087 A 
ATOM     21  C   UNL A   1      30.714  26.875  22.958  1.00  0.00     0.047 A 
ATOM     22  S   UNL A   1      33.138  27.199  22.192  1.00  0.00    -0.073 S 
ATOM     23  C   UNL A   1      32.614  25.570  22.637  1.00  0.00     0.307 A 
ATOM     24  O   UNL A   1      33.377  24.614  22.645  1.00  0.00    -0.257 OA
ENDBRANCH  10  11
ENDBRANCH   9  10
ENDBRANCH   8   9
ENDBRANCH   6   8
ENDBRANCH   5   6
ENDBRANCH   4   5
ENDBRANCH   3   4
ENDBRANCH   2   3
ENDBRANCH   1   2
BRANCH   1  25
ATOM     25  C   UNL A   1      34.089  31.904  27.843  1.00  0.00     0.188 C 
BRANCH  25  26
ATOM     26  O   UNL A   1      34.742  33.119  27.560  1.00  0.00    -0.376 OA
BRANCH  26  27
ATOM     27  C   UNL A   1      34.372  34.428  27.969  1.00  0.00     0.202 C 
BRANCH  27  28
ATOM     28  C   UNL A   1      33.629  34.825  29.246  1.00  0.00     0.261 C 
BRANCH  28  29
ATOM     29  O   UNL A   1      34.403  34.737  30.408  1.00  0.00    -0.460 OA
BRANCH  29  30
ATOM     30  C   UNL A   1      33.699  34.907  31.543  1.00  0.00     0.338 C 
ATOM     31  O   UNL A   1      32.560  35.312  31.670  1.00  0.00    -0.246 OA
BRANCH  30  32
ATOM     32  C   UNL A   1      34.556  34.412  32.630  1.00  0.00     0.060 A 
ATOM     33  C   UNL A   1      35.568  35.268  33.049  1.00  0.00     0.016 A 
ATOM     34  C   UNL A   1      34.523  33.046  32.947  1.00  0.00     0.016 A 
ATOM     35  C   UNL A   1      36.768  34.680  33.322  1.00  0.00     0.010 A 
ATOM     36  C   UNL A   1      35.717  32.457  33.204  1.00  0.00     0.010 A 
ATOM     37  C   UNL A   1      36.825  33.293  33.185  1.00  0.00    -0.014 A 
BRANCH  37  38
ATOM     38  C   UNL A   1      38.078  32.717  32.792  1.00  0.00     0.031 A 
ATOM     39  C   UNL A   1      39.027  32.672  33.904  1.00  0.00     0.074 A 
ATOM     40  C   UNL A   1      38.241  32.225  31.550  1.00  0.00     0.049 A 
ATOM     41  N   UNL A   1      40.037  33.452  34.080  1.00  0.00    -0.248 NA
ATOM     42  C   UNL A   1      38.663  31.856  35.072  1.00  0.00     0.031 C 
ATOM     43  C   UNL A   1      37.252  31.996  30.489  1.00  0.00     0.029 A 
ATOM     44  N   UNL A   1      39.367  31.709  31.011  1.00  0.00    -0.354 N 
ATOM     45  C   UNL A   1      40.554  33.084  35.310  1.00  0.00     0.074 A 
ATOM     46  C   UNL A   1      39.534  32.310  35.968  1.00  0.00     0.031 C 
ATOM     47  C   UNL A   1      37.777  31.152  29.567  1.00  0.00     0.029 A 
ATOM     48  C   UNL A   1      39.166  30.893  29.911  1.00  0.00     0.049 A 
ATOM     49  H   UNL A   1      40.263  31.897  31.374  1.00  0.00     0.167 HD
ATOM     50  C   UNL A   1      41.882  33.184  35.573  1.00  0.00     0.031 A 
ATOM     51  C   UNL A   1      40.071  30.009  29.419  1.00  0.00     0.031 A 
ATOM     52  C   UNL A   1      42.559  33.979  34.581  1.00  0.00     0.049 A 
ATOM     53  C   UNL A   1      41.398  30.386  29.985  1.00  0.00     0.074 A 
ATOM     54  C   UNL A   1      42.483  35.301  34.196  1.00  0.00     0.029 A 
ATOM     55  N   UNL A   1      43.141  33.299  33.533  1.00  0.00    -0.354 N 
ATOM     56  N   UNL A   1      42.012  31.493  29.671  1.00  0.00    -0.248 NA
ATOM     57  C   UNL A   1      41.779  29.813  31.272  1.00  0.00     0.031 C 
ATOM     58  C   UNL A   1      42.602  35.278  32.777  1.00  0.00     0.029 A 
ATOM     59  C   UNL A   1      42.821  33.959  32.373  1.00  0.00     0.049 A 
ATOM     60  H   UNL A   1      43.689  32.485  33.604  1.00  0.00     0.167 HD
ATOM     61  C   UNL A   1      42.520  31.979  30.869  1.00  0.00     0.074 A 
ATOM     62  C   UNL A   1      42.419  30.861  31.807  1.00  0.00     0.031 C 
ATOM     63  C   UNL A   1      42.679  33.320  31.080  1.00  0.00     0.031 A 
BRANCH  50  64
ATOM     64  C   UNL A   1      42.603  32.229  36.477  1.00  0.00    -0.014 A 
ATOM     65  C   UNL A   1      42.651  32.517  37.848  1.00  0.00     0.009 A 
ATOM     66  C   UNL A   1      43.443  31.198  36.011  1.00  0.00     0.009 A 
ATOM     67  C   UNL A   1      43.539  31.844  38.694  1.00  0.00     0.001 A 
ATOM     68  C   UNL A   1      44.296  30.493  36.859  1.00  0.00     0.001 A 
ATOM     69  C   UNL A   1      44.363  30.837  38.198  1.00  0.00     0.000 A 
ENDBRANCH  50  64
BRANCH  51  70
ATOM     70  C   UNL A   1      39.805  28.686  28.808  1.00  0.00    -0.014 A 
ATOM     71  C   UNL A   1      40.262  28.371  27.519  1.00  0.00     0.009 A 
ATOM     72  C   UNL A   1      39.310  27.628  29.597  1.00  0.00     0.009 A 
ATOM     73  C   UNL A   1      40.246  27.047  27.050  1.00  0.00     0.001 A 
ATOM     74  C   UNL A   1      39.294  26.309  29.130  1.00  0.00     0.001 A 
ATOM     75  C   UNL A   1      39.773  26.016  27.859  1.00  0.00     0.000 A 
ENDBRANCH  51  70
BRANCH  63  76
ATOM     76  C   UNL A   1      42.438  34.251  29.912  1.00  0.00    -0.014 A 
ATOM     77  C   UNL A   1      41.157  34.705  29.546  1.00  0.00     0.009 A 
ATOM     78  C   UNL A   1      43.550  34.845  29.302  1.00  0.00     0.009 A 
ATOM     79  C   UNL A   1      40.998  35.715  28.589  1.00  0.00     0.001 A 
ATOM     80  C   UNL A   1      43.394  35.867  28.363  1.00  0.00     0.001 A 
ATOM     81  C   UNL A   1      42.120  36.301  28.005  1.00  0.00     0.000 A 
ENDBRANCH  63  76
ENDBRANCH  37  38
ENDBRANCH  30  32
ENDBRANCH  29  30
ENDBRANCH  28  29
ENDBRANCH  27  28
ENDBRANCH  26  27
ENDBRANCH  25  26
ENDBRANCH   1  25
TORSDOF 20
ENDMDL
