MODEL 1
REMARK VINA RESULT:     -10.1      0.000      0.000
REMARK SMILES C[C@@H](C(=O)OCCOCCOCCOC(=O)c1ccc(-c2c3nc(c(-c4ccccc4)c4ccc([nH]4)c(-c4ccccc4)c4nc(c(-c5ccccc5)c5ccc2[nH]5)C=C4)C=C3)cc1)c1ccc(C[C@H]2CCCC2=O)c(-c2ccc(OC(F)(F)F)cc2)c1
REMARK SMILES IDX 9 1 8 2 7 3 6 4 5 5 3 6 4 7 2 8 1 9 65 10 66 11 88 12 67 13
REMARK SMILES IDX 76 14 68 15 77 16 78 17 87 18 79 19 86 20 80 21 81 22 82 23
REMARK SMILES IDX 83 24 84 25 85 26 69 27 70 28 71 29 74 30 72 31 73 32 75 33
REMARK SMILES IDX 10 34 11 35 12 36 13 37 14 38 15 39 16 40 17 41 18 42 64 43
REMARK SMILES IDX 19 44 63 45 20 46 21 47 22 48 57 49 23 50 62 51 56 52 58 53
REMARK SMILES IDX 24 54 61 55 55 56 54 57 25 59 47 60 32 61 46 62 33 63 36 64
REMARK SMILES IDX 45 65 59 66 34 67 35 68 44 70 60 71 37 72 26 73 27 74 31 75
REMARK SMILES IDX 28 76 30 77 29 78 48 79 49 80 53 81 50 82 52 83 51 84 38 85
REMARK SMILES IDX 39 86 43 87 40 88 42 89 41 90
REMARK H PARENT 58 58 36 69
REMARK Flexibility Score: inf
ROOT
ATOM      1  C   UNL A   1      36.860  23.692  25.710  1.00  0.00     0.188 C 
ENDROOT
BRANCH   1   2
ATOM      2  O   UNL A   1      35.992  22.618  26.052  1.00  0.00    -0.376 OA
BRANCH   2   3
ATOM      3  C   UNL A   1      34.772  22.478  25.326  1.00  0.00     0.202 C 
BRANCH   3   4
ATOM      4  C   UNL A   1      33.566  21.820  26.024  1.00  0.00     0.261 C 
BRANCH   4   5
ATOM      5  O   UNL A   1      32.323  21.915  25.290  1.00  0.00    -0.463 OA
BRANCH   5   6
ATOM      6  C   UNL A   1      32.346  21.497  23.996  1.00  0.00     0.313 C 
ATOM      7  O   UNL A   1      32.448  20.316  23.673  1.00  0.00    -0.252 OA
BRANCH   6   8
ATOM      8  C   UNL A   1      32.177  22.631  22.953  1.00  0.00     0.126 C 
ATOM      9  C   UNL A   1      33.351  22.765  21.976  1.00  0.00     0.025 C 
BRANCH   8  10
ATOM     10  C   UNL A   1      31.568  23.932  23.519  1.00  0.00    -0.033 A 
ATOM     11  C   UNL A   1      30.245  24.229  23.179  1.00  0.00     0.005 A 
ATOM     12  C   UNL A   1      32.269  24.922  24.257  1.00  0.00     0.013 A 
ATOM     13  C   UNL A   1      29.663  25.447  23.512  1.00  0.00     0.004 A 
ATOM     14  C   UNL A   1      31.709  26.202  24.602  1.00  0.00    -0.015 A 
ATOM     15  C   UNL A   1      30.383  26.466  24.165  1.00  0.00    -0.039 A 
BRANCH  14  16
ATOM     16  C   UNL A   1      32.523  27.195  25.387  1.00  0.00    -0.018 A 
ATOM     17  C   UNL A   1      32.309  27.414  26.761  1.00  0.00     0.012 A 
ATOM     18  C   UNL A   1      33.561  27.945  24.813  1.00  0.00     0.012 A 
ATOM     19  C   UNL A   1      33.062  28.318  27.517  1.00  0.00     0.047 A 
ATOM     20  C   UNL A   1      34.332  28.857  25.568  1.00  0.00     0.047 A 
ATOM     21  C   UNL A   1      34.084  29.047  26.925  1.00  0.00     0.129 A 
BRANCH  21  22
ATOM     22  O   UNL A   1      34.735  29.880  27.786  1.00  0.00    -0.406 OA
BRANCH  22  23
ATOM     23  C   UNL A   1      34.341  31.236  27.833  1.00  0.00     0.573 C 
ATOM     24  F   UNL A   1      34.106  31.628  29.104  1.00  0.00    -0.132 F 
ATOM     25  F   UNL A   1      35.277  32.036  27.279  1.00  0.00    -0.132 F 
ATOM     26  F   UNL A   1      33.195  31.379  27.132  1.00  0.00    -0.132 F 
ENDBRANCH  22  23
ENDBRANCH  21  22
ENDBRANCH  14  16
BRANCH  15  27
ATOM     27  C   UNL A   1      29.664  27.806  24.247  1.00  0.00     0.047 C 
BRANCH  27  28
ATOM     28  C   UNL A   1      29.069  28.355  22.946  1.00  0.00     0.060 C 
ATOM     29  C   UNL A   1      27.637  28.886  23.014  1.00  0.00     0.012 C 
ATOM     30  C   UNL A   1      29.828  29.553  22.430  1.00  0.00     0.136 C 
ATOM     31  C   UNL A   1      27.752  30.393  23.204  1.00  0.00     0.009 C 
ATOM     32  C   UNL A   1      29.002  30.811  22.440  1.00  0.00     0.076 C 
ATOM     33  O   UNL A   1      30.989  29.506  22.040  1.00  0.00    -0.299 OA
ENDBRANCH  27  28
ENDBRANCH  15  27
ENDBRANCH   8  10
ENDBRANCH   6   8
ENDBRANCH   5   6
ENDBRANCH   4   5
ENDBRANCH   3   4
ENDBRANCH   2   3
ENDBRANCH   1   2
BRANCH   1  34
ATOM     34  C   UNL A   1      38.241  23.764  26.386  1.00  0.00     0.188 C 
BRANCH  34  35
ATOM     35  O   UNL A   1      39.022  22.601  26.255  1.00  0.00    -0.376 OA
BRANCH  35  36
ATOM     36  C   UNL A   1      40.279  22.547  26.902  1.00  0.00     0.202 C 
BRANCH  36  37
ATOM     37  C   UNL A   1      41.549  23.173  26.286  1.00  0.00     0.261 C 
BRANCH  37  38
ATOM     38  O   UNL A   1      42.001  24.430  26.812  1.00  0.00    -0.460 OA
BRANCH  38  39
ATOM     39  C   UNL A   1      41.520  25.555  26.240  1.00  0.00     0.338 C 
ATOM     40  O   UNL A   1      41.271  25.736  25.053  1.00  0.00    -0.246 OA
BRANCH  39  41
ATOM     41  C   UNL A   1      41.116  26.472  27.323  1.00  0.00     0.060 A 
ATOM     42  C   UNL A   1      41.790  27.687  27.448  1.00  0.00     0.016 A 
ATOM     43  C   UNL A   1      40.075  26.161  28.200  1.00  0.00     0.016 A 
ATOM     44  C   UNL A   1      41.401  28.597  28.422  1.00  0.00     0.010 A 
ATOM     45  C   UNL A   1      39.745  27.056  29.232  1.00  0.00     0.010 A 
ATOM     46  C   UNL A   1      40.428  28.276  29.368  1.00  0.00    -0.014 A 
BRANCH  46  47
ATOM     47  C   UNL A   1      40.303  29.116  30.595  1.00  0.00     0.031 A 
ATOM     48  C   UNL A   1      39.232  30.178  30.633  1.00  0.00     0.074 A 
ATOM     49  C   UNL A   1      41.024  28.887  31.709  1.00  0.00     0.049 A 
ATOM     50  N   UNL A   1      38.994  31.090  31.542  1.00  0.00    -0.248 NA
ATOM     51  C   UNL A   1      38.294  30.200  29.499  1.00  0.00     0.031 C 
ATOM     52  C   UNL A   1      41.987  27.805  31.896  1.00  0.00     0.029 A 
ATOM     53  N   UNL A   1      41.035  29.557  32.913  1.00  0.00    -0.354 N 
ATOM     54  C   UNL A   1      37.916  31.826  31.064  1.00  0.00     0.074 A 
ATOM     55  C   UNL A   1      37.540  31.248  29.792  1.00  0.00     0.031 C 
ATOM     56  C   UNL A   1      42.499  27.887  33.136  1.00  0.00     0.029 A 
ATOM     57  C   UNL A   1      41.947  29.061  33.812  1.00  0.00     0.049 A 
ATOM     58  H   UNL A   1      40.445  30.319  33.110  1.00  0.00     0.167 HD
ATOM     59  C   UNL A   1      37.298  32.895  31.623  1.00  0.00     0.031 A 
ATOM     60  C   UNL A   1      42.329  29.520  35.022  1.00  0.00     0.031 A 
ATOM     61  C   UNL A   1      37.656  33.474  32.891  1.00  0.00     0.049 A 
ATOM     62  C   UNL A   1      41.712  30.782  35.574  1.00  0.00     0.074 A 
ATOM     63  C   UNL A   1      37.102  34.577  33.519  1.00  0.00     0.029 A 
ATOM     64  N   UNL A   1      38.653  32.998  33.725  1.00  0.00    -0.354 N 
ATOM     65  N   UNL A   1      40.744  31.516  35.082  1.00  0.00    -0.248 NA
ATOM     66  C   UNL A   1      42.255  31.284  36.847  1.00  0.00     0.031 C 
ATOM     67  C   UNL A   1      37.805  34.804  34.706  1.00  0.00     0.029 A 
ATOM     68  C   UNL A   1      38.748  33.799  34.851  1.00  0.00     0.049 A 
ATOM     69  H   UNL A   1      39.211  32.208  33.545  1.00  0.00     0.167 HD
ATOM     70  C   UNL A   1      40.549  32.549  35.993  1.00  0.00     0.074 A 
ATOM     71  C   UNL A   1      41.481  32.336  37.078  1.00  0.00     0.031 C 
ATOM     72  C   UNL A   1      39.674  33.585  35.932  1.00  0.00     0.031 A 
BRANCH  59  73
ATOM     73  C   UNL A   1      36.213  33.560  30.823  1.00  0.00    -0.014 A 
ATOM     74  C   UNL A   1      34.919  33.741  31.336  1.00  0.00     0.009 A 
ATOM     75  C   UNL A   1      36.507  34.040  29.536  1.00  0.00     0.009 A 
ATOM     76  C   UNL A   1      33.935  34.358  30.562  1.00  0.00     0.001 A 
ATOM     77  C   UNL A   1      35.529  34.686  28.778  1.00  0.00     0.001 A 
ATOM     78  C   UNL A   1      34.242  34.834  29.286  1.00  0.00     0.000 A 
ENDBRANCH  59  73
BRANCH  60  79
ATOM     79  C   UNL A   1      43.408  28.829  35.782  1.00  0.00    -0.014 A 
ATOM     80  C   UNL A   1      44.755  29.182  35.605  1.00  0.00     0.009 A 
ATOM     81  C   UNL A   1      43.096  27.775  36.656  1.00  0.00     0.009 A 
ATOM     82  C   UNL A   1      45.764  28.480  36.271  1.00  0.00     0.001 A 
ATOM     83  C   UNL A   1      44.103  27.098  37.346  1.00  0.00     0.001 A 
ATOM     84  C   UNL A   1      45.437  27.444  37.144  1.00  0.00     0.000 A 
ENDBRANCH  60  79
BRANCH  72  85
ATOM     85  C   UNL A   1      39.648  34.549  37.088  1.00  0.00    -0.014 A 
ATOM     86  C   UNL A   1      38.952  34.260  38.272  1.00  0.00     0.009 A 
ATOM     87  C   UNL A   1      40.373  35.750  37.007  1.00  0.00     0.009 A 
ATOM     88  C   UNL A   1      38.956  35.166  39.335  1.00  0.00     0.001 A 
ATOM     89  C   UNL A   1      40.402  36.639  38.083  1.00  0.00     0.001 A 
ATOM     90  C   UNL A   1      39.684  36.352  39.242  1.00  0.00     0.000 A 
ENDBRANCH  72  85
ENDBRANCH  46  47
ENDBRANCH  39  41
ENDBRANCH  38  39
ENDBRANCH  37  38
ENDBRANCH  36  37
ENDBRANCH  35  36
ENDBRANCH  34  35
ENDBRANCH   1  34
TORSDOF 23
ENDMDL
MODEL 2
REMARK VINA RESULT:      -9.4      4.935     10.277
REMARK SMILES C[C@@H](C(=O)OCCOCCOCCOC(=O)c1ccc(-c2c3nc(c(-c4ccccc4)c4ccc([nH]4)c(-c4ccccc4)c4nc(c(-c5ccccc5)c5ccc2[nH]5)C=C4)C=C3)cc1)c1ccc(C[C@H]2CCCC2=O)c(-c2ccc(OC(F)(F)F)cc2)c1
REMARK SMILES IDX 9 1 8 2 7 3 6 4 5 5 3 6 4 7 2 8 1 9 65 10 66 11 88 12 67 13
REMARK SMILES IDX 76 14 68 15 77 16 78 17 87 18 79 19 86 20 80 21 81 22 82 23
REMARK SMILES IDX 83 24 84 25 85 26 69 27 70 28 71 29 74 30 72 31 73 32 75 33
REMARK SMILES IDX 10 34 11 35 12 36 13 37 14 38 15 39 16 40 17 41 18 42 64 43
REMARK SMILES IDX 19 44 63 45 20 46 21 47 22 48 57 49 23 50 62 51 56 52 58 53
REMARK SMILES IDX 24 54 61 55 55 56 54 57 25 59 47 60 32 61 46 62 33 63 36 64
REMARK SMILES IDX 45 65 59 66 34 67 35 68 44 70 60 71 37 72 26 73 27 74 31 75
REMARK SMILES IDX 28 76 30 77 29 78 48 79 49 80 53 81 50 82 52 83 51 84 38 85
REMARK SMILES IDX 39 86 43 87 40 88 42 89 41 90
REMARK H PARENT 58 58 36 69
REMARK Flexibility Score: inf
ROOT
ATOM      1  C   UNL A   1      34.385  23.886  23.743  1.00  0.00     0.188 C 
ENDROOT
BRANCH   1   2
ATOM      2  O   UNL A   1      33.117  24.188  24.313  1.00  0.00    -0.376 OA
BRANCH   2   3
ATOM      3  C   UNL A   1      32.466  25.392  23.912  1.00  0.00     0.202 C 
BRANCH   3   4
ATOM      4  C   UNL A   1      32.050  26.406  24.996  1.00  0.00     0.261 C 
BRANCH   4   5
ATOM      5  O   UNL A   1      33.153  26.989  25.727  1.00  0.00    -0.463 OA
BRANCH   5   6
ATOM      6  C   UNL A   1      33.505  28.258  25.388  1.00  0.00     0.313 C 
ATOM      7  O   UNL A   1      34.116  28.533  24.358  1.00  0.00    -0.252 OA
BRANCH   6   8
ATOM      8  C   UNL A   1      33.024  29.344  26.383  1.00  0.00     0.126 C 
ATOM      9  C   UNL A   1      31.923  30.257  25.831  1.00  0.00     0.025 C 
BRANCH   8  10
ATOM     10  C   UNL A   1      34.154  30.005  27.202  1.00  0.00    -0.033 A 
ATOM     11  C   UNL A   1      34.029  31.366  27.498  1.00  0.00     0.005 A 
ATOM     12  C   UNL A   1      35.374  29.385  27.582  1.00  0.00     0.013 A 
ATOM     13  C   UNL A   1      35.062  32.080  28.094  1.00  0.00     0.004 A 
ATOM     14  C   UNL A   1      36.474  30.094  28.182  1.00  0.00    -0.015 A 
ATOM     15  C   UNL A   1      36.305  31.489  28.390  1.00  0.00    -0.039 A 
BRANCH  14  16
ATOM     16  C   UNL A   1      37.732  29.359  28.553  1.00  0.00    -0.018 A 
ATOM     17  C   UNL A   1      38.857  29.331  27.707  1.00  0.00     0.012 A 
ATOM     18  C   UNL A   1      37.880  28.676  29.771  1.00  0.00     0.012 A 
ATOM     19  C   UNL A   1      40.045  28.670  28.035  1.00  0.00     0.047 A 
ATOM     20  C   UNL A   1      39.077  28.010  30.116  1.00  0.00     0.047 A 
ATOM     21  C   UNL A   1      40.165  28.003  29.246  1.00  0.00     0.129 A 
BRANCH  21  22
ATOM     22  O   UNL A   1      41.380  27.414  29.431  1.00  0.00    -0.406 OA
BRANCH  22  23
ATOM     23  C   UNL A   1      42.364  28.122  30.158  1.00  0.00     0.573 C 
ATOM     24  F   UNL A   1      43.117  28.886  29.337  1.00  0.00    -0.132 F 
ATOM     25  F   UNL A   1      41.805  28.897  31.111  1.00  0.00    -0.132 F 
ATOM     26  F   UNL A   1      43.179  27.230  30.764  1.00  0.00    -0.132 F 
ENDBRANCH  22  23
ENDBRANCH  21  22
ENDBRANCH  14  16
BRANCH  15  27
ATOM     27  C   UNL A   1      37.390  32.465  28.827  1.00  0.00     0.047 C 
BRANCH  27  28
ATOM     28  C   UNL A   1      37.824  32.409  30.295  1.00  0.00     0.060 C 
ATOM     29  C   UNL A   1      39.311  32.182  30.565  1.00  0.00     0.012 C 
ATOM     30  C   UNL A   1      37.565  33.708  31.018  1.00  0.00     0.136 C 
ATOM     31  C   UNL A   1      39.918  33.562  30.788  1.00  0.00     0.009 C 
ATOM     32  C   UNL A   1      38.831  34.385  31.466  1.00  0.00     0.076 C 
ATOM     33  O   UNL A   1      36.444  34.160  31.224  1.00  0.00    -0.299 OA
ENDBRANCH  27  28
ENDBRANCH  15  27
ENDBRANCH   8  10
ENDBRANCH   6   8
ENDBRANCH   5   6
ENDBRANCH   4   5
ENDBRANCH   3   4
ENDBRANCH   2   3
ENDBRANCH   1   2
BRANCH   1  34
ATOM     34  C   UNL A   1      35.499  23.359  24.666  1.00  0.00     0.188 C 
BRANCH  34  35
ATOM     35  O   UNL A   1      36.267  22.313  24.123  1.00  0.00    -0.376 OA
BRANCH  35  36
ATOM     36  C   UNL A   1      36.427  21.124  24.873  1.00  0.00     0.202 C 
BRANCH  36  37
ATOM     37  C   UNL A   1      37.777  20.377  24.951  1.00  0.00     0.261 C 
BRANCH  37  38
ATOM     38  O   UNL A   1      38.835  20.979  25.712  1.00  0.00    -0.460 OA
BRANCH  38  39
ATOM     39  C   UNL A   1      39.975  20.271  25.865  1.00  0.00     0.338 C 
ATOM     40  O   UNL A   1      40.151  19.084  25.611  1.00  0.00    -0.246 OA
BRANCH  39  41
ATOM     41  C   UNL A   1      41.058  21.225  26.174  1.00  0.00     0.060 A 
ATOM     42  C   UNL A   1      42.358  20.734  26.294  1.00  0.00     0.016 A 
ATOM     43  C   UNL A   1      40.813  22.591  26.327  1.00  0.00     0.016 A 
ATOM     44  C   UNL A   1      43.409  21.610  26.531  1.00  0.00     0.010 A 
ATOM     45  C   UNL A   1      41.873  23.455  26.646  1.00  0.00     0.010 A 
ATOM     46  C   UNL A   1      43.183  22.965  26.778  1.00  0.00    -0.014 A 
BRANCH  46  47
ATOM     47  C   UNL A   1      44.274  23.784  27.380  1.00  0.00     0.031 A 
ATOM     48  C   UNL A   1      44.342  23.899  28.883  1.00  0.00     0.074 A 
ATOM     49  C   UNL A   1      45.266  24.327  26.648  1.00  0.00     0.049 A 
ATOM     50  N   UNL A   1      45.132  24.628  29.630  1.00  0.00    -0.248 NA
ATOM     51  C   UNL A   1      43.400  23.063  29.644  1.00  0.00     0.031 C 
ATOM     52  C   UNL A   1      45.440  24.180  25.205  1.00  0.00     0.029 A 
ATOM     53  N   UNL A   1      46.336  25.102  27.037  1.00  0.00    -0.354 N 
ATOM     54  C   UNL A   1      44.746  24.380  30.942  1.00  0.00     0.074 A 
ATOM     55  C   UNL A   1      43.661  23.426  30.890  1.00  0.00     0.031 C 
ATOM     56  C   UNL A   1      46.545  24.848  24.830  1.00  0.00     0.029 A 
ATOM     57  C   UNL A   1      47.125  25.519  25.992  1.00  0.00     0.049 A 
ATOM     58  H   UNL A   1      46.518  25.336  27.976  1.00  0.00     0.167 HD
ATOM     59  C   UNL A   1      45.240  24.905  32.090  1.00  0.00     0.031 A 
ATOM     60  C   UNL A   1      48.167  26.375  25.964  1.00  0.00     0.031 A 
ATOM     61  C   UNL A   1      46.325  25.848  32.156  1.00  0.00     0.049 A 
ATOM     62  C   UNL A   1      48.625  27.042  27.239  1.00  0.00     0.074 A 
ATOM     63  C   UNL A   1      46.870  26.455  33.275  1.00  0.00     0.029 A 
ATOM     64  N   UNL A   1      47.032  26.319  31.063  1.00  0.00    -0.354 N 
ATOM     65  N   UNL A   1      48.206  26.858  28.467  1.00  0.00    -0.248 NA
ATOM     66  C   UNL A   1      49.694  28.046  27.115  1.00  0.00     0.031 C 
ATOM     67  C   UNL A   1      47.868  27.338  32.854  1.00  0.00     0.029 A 
ATOM     68  C   UNL A   1      47.993  27.227  31.479  1.00  0.00     0.049 A 
ATOM     69  H   UNL A   1      46.877  26.048  30.130  1.00  0.00     0.167 HD
ATOM     70  C   UNL A   1      48.974  27.705  29.261  1.00  0.00     0.074 A 
ATOM     71  C   UNL A   1      49.898  28.385  28.381  1.00  0.00     0.031 C 
ATOM     72  C   UNL A   1      48.914  27.901  30.602  1.00  0.00     0.031 A 
BRANCH  59  73
ATOM     73  C   UNL A   1      44.553  24.527  33.372  1.00  0.00    -0.014 A 
ATOM     74  C   UNL A   1      44.855  23.336  34.051  1.00  0.00     0.009 A 
ATOM     75  C   UNL A   1      43.601  25.400  33.923  1.00  0.00     0.009 A 
ATOM     76  C   UNL A   1      44.192  23.015  35.238  1.00  0.00     0.001 A 
ATOM     77  C   UNL A   1      42.965  25.091  35.126  1.00  0.00     0.001 A 
ATOM     78  C   UNL A   1      43.253  23.894  35.776  1.00  0.00     0.000 A 
ENDBRANCH  59  73
BRANCH  60  79
ATOM     79  C   UNL A   1      48.820  26.721  24.671  1.00  0.00    -0.014 A 
ATOM     80  C   UNL A   1      50.188  26.481  24.466  1.00  0.00     0.009 A 
ATOM     81  C   UNL A   1      48.083  27.342  23.649  1.00  0.00     0.009 A 
ATOM     82  C   UNL A   1      50.805  26.875  23.275  1.00  0.00     0.001 A 
ATOM     83  C   UNL A   1      48.694  27.702  22.447  1.00  0.00     0.001 A 
ATOM     84  C   UNL A   1      50.057  27.479  22.265  1.00  0.00     0.000 A 
ENDBRANCH  60  79
BRANCH  72  85
ATOM     85  C   UNL A   1      49.900  28.860  31.215  1.00  0.00    -0.014 A 
ATOM     86  C   UNL A   1      49.595  30.219  31.389  1.00  0.00     0.009 A 
ATOM     87  C   UNL A   1      51.141  28.382  31.670  1.00  0.00     0.009 A 
ATOM     88  C   UNL A   1      50.524  31.084  31.973  1.00  0.00     0.001 A 
ATOM     89  C   UNL A   1      52.054  29.242  32.283  1.00  0.00     0.001 A 
ATOM     90  C   UNL A   1      51.749  30.595  32.425  1.00  0.00     0.000 A 
ENDBRANCH  72  85
ENDBRANCH  46  47
ENDBRANCH  39  41
ENDBRANCH  38  39
ENDBRANCH  37  38
ENDBRANCH  36  37
ENDBRANCH  35  36
ENDBRANCH  34  35
ENDBRANCH   1  34
TORSDOF 23
ENDMDL
MODEL 3
REMARK VINA RESULT:      -9.2      7.384      9.400
REMARK SMILES C[C@@H](C(=O)OCCOCCOCCOC(=O)c1ccc(-c2c3nc(c(-c4ccccc4)c4ccc([nH]4)c(-c4ccccc4)c4nc(c(-c5ccccc5)c5ccc2[nH]5)C=C4)C=C3)cc1)c1ccc(C[C@H]2CCCC2=O)c(-c2ccc(OC(F)(F)F)cc2)c1
REMARK SMILES IDX 9 1 8 2 7 3 6 4 5 5 3 6 4 7 2 8 1 9 65 10 66 11 88 12 67 13
REMARK SMILES IDX 76 14 68 15 77 16 78 17 87 18 79 19 86 20 80 21 81 22 82 23
REMARK SMILES IDX 83 24 84 25 85 26 69 27 70 28 71 29 74 30 72 31 73 32 75 33
REMARK SMILES IDX 10 34 11 35 12 36 13 37 14 38 15 39 16 40 17 41 18 42 64 43
REMARK SMILES IDX 19 44 63 45 20 46 21 47 22 48 57 49 23 50 62 51 56 52 58 53
REMARK SMILES IDX 24 54 61 55 55 56 54 57 25 59 47 60 32 61 46 62 33 63 36 64
REMARK SMILES IDX 45 65 59 66 34 67 35 68 44 70 60 71 37 72 26 73 27 74 31 75
REMARK SMILES IDX 28 76 30 77 29 78 48 79 49 80 53 81 50 82 52 83 51 84 38 85
REMARK SMILES IDX 39 86 43 87 40 88 42 89 41 90
REMARK H PARENT 58 58 36 69
REMARK Flexibility Score: inf
ROOT
ATOM      1  C   UNL A   1      39.359  22.236  26.525  1.00  0.00     0.188 C 
ENDROOT
BRANCH   1   2
ATOM      2  O   UNL A   1      38.243  21.949  25.690  1.00  0.00    -0.376 OA
BRANCH   2   3
ATOM      3  C   UNL A   1      37.417  23.034  25.271  1.00  0.00     0.202 C 
BRANCH   3   4
ATOM      4  C   UNL A   1      36.051  23.233  25.956  1.00  0.00     0.261 C 
BRANCH   4   5
ATOM      5  O   UNL A   1      34.994  22.389  25.444  1.00  0.00    -0.463 OA
BRANCH   5   6
ATOM      6  C   UNL A   1      34.120  21.886  26.356  1.00  0.00     0.313 C 
ATOM      7  O   UNL A   1      34.452  21.547  27.489  1.00  0.00    -0.252 OA
BRANCH   6   8
ATOM      8  C   UNL A   1      32.650  21.826  25.869  1.00  0.00     0.126 C 
ATOM      9  C   UNL A   1      32.312  20.577  25.046  1.00  0.00     0.025 C 
BRANCH   8  10
ATOM     10  C   UNL A   1      32.083  23.176  25.380  1.00  0.00    -0.033 A 
ATOM     11  C   UNL A   1      31.193  23.153  24.302  1.00  0.00     0.005 A 
ATOM     12  C   UNL A   1      32.477  24.458  25.848  1.00  0.00     0.013 A 
ATOM     13  C   UNL A   1      30.753  24.323  23.695  1.00  0.00     0.004 A 
ATOM     14  C   UNL A   1      32.059  25.691  25.234  1.00  0.00    -0.015 A 
ATOM     15  C   UNL A   1      31.210  25.592  24.099  1.00  0.00    -0.039 A 
BRANCH  14  16
ATOM     16  C   UNL A   1      32.525  27.007  25.794  1.00  0.00    -0.018 A 
ATOM     17  C   UNL A   1      31.879  27.626  26.881  1.00  0.00     0.012 A 
ATOM     18  C   UNL A   1      33.643  27.692  25.290  1.00  0.00     0.012 A 
ATOM     19  C   UNL A   1      32.302  28.840  27.432  1.00  0.00     0.047 A 
ATOM     20  C   UNL A   1      34.082  28.916  25.841  1.00  0.00     0.047 A 
ATOM     21  C   UNL A   1      33.411  29.496  26.916  1.00  0.00     0.129 A 
BRANCH  21  22
ATOM     22  O   UNL A   1      33.708  30.661  27.557  1.00  0.00    -0.406 OA
BRANCH  22  23
ATOM     23  C   UNL A   1      34.935  30.748  28.254  1.00  0.00     0.573 C 
ATOM     24  F   UNL A   1      34.811  31.513  29.360  1.00  0.00    -0.132 F 
ATOM     25  F   UNL A   1      35.390  29.525  28.598  1.00  0.00    -0.132 F 
ATOM     26  F   UNL A   1      35.851  31.326  27.446  1.00  0.00    -0.132 F 
ENDBRANCH  22  23
ENDBRANCH  21  22
ENDBRANCH  14  16
BRANCH  15  27
ATOM     27  C   UNL A   1      30.804  26.740  23.184  1.00  0.00     0.047 C 
BRANCH  27  28
ATOM     28  C   UNL A   1      29.961  27.859  23.807  1.00  0.00     0.060 C 
ATOM     29  C   UNL A   1      30.252  29.284  23.334  1.00  0.00     0.012 C 
ATOM     30  C   UNL A   1      28.493  27.713  23.491  1.00  0.00     0.136 C 
ATOM     31  C   UNL A   1      29.234  29.584  22.241  1.00  0.00     0.009 C 
ATOM     32  C   UNL A   1      27.968  28.837  22.640  1.00  0.00     0.076 C 
ATOM     33  O   UNL A   1      27.801  26.783  23.889  1.00  0.00    -0.299 OA
ENDBRANCH  27  28
ENDBRANCH  15  27
ENDBRANCH   8  10
ENDBRANCH   6   8
ENDBRANCH   5   6
ENDBRANCH   4   5
ENDBRANCH   3   4
ENDBRANCH   2   3
ENDBRANCH   1   2
BRANCH   1  34
ATOM     34  C   UNL A   1      39.629  23.701  26.912  1.00  0.00     0.188 C 
BRANCH  34  35
ATOM     35  O   UNL A   1      40.983  24.081  26.871  1.00  0.00    -0.376 OA
BRANCH  35  36
ATOM     36  C   UNL A   1      41.871  23.348  26.048  1.00  0.00     0.202 C 
BRANCH  36  37
ATOM     37  C   UNL A   1      42.979  22.445  26.634  1.00  0.00     0.261 C 
BRANCH  37  38
ATOM     38  O   UNL A   1      44.283  23.017  26.820  1.00  0.00    -0.460 OA
BRANCH  38  39
ATOM     39  C   UNL A   1      44.571  23.534  28.035  1.00  0.00     0.338 C 
ATOM     40  O   UNL A   1      44.519  22.959  29.116  1.00  0.00    -0.246 OA
BRANCH  39  41
ATOM     41  C   UNL A   1      45.190  24.856  27.825  1.00  0.00     0.060 A 
ATOM     42  C   UNL A   1      45.617  25.190  26.539  1.00  0.00     0.016 A 
ATOM     43  C   UNL A   1      45.339  25.773  28.867  1.00  0.00     0.016 A 
ATOM     44  C   UNL A   1      46.156  26.446  26.294  1.00  0.00     0.010 A 
ATOM     45  C   UNL A   1      45.960  27.009  28.622  1.00  0.00     0.010 A 
ATOM     46  C   UNL A   1      46.400  27.347  27.331  1.00  0.00    -0.014 A 
BRANCH  46  47
ATOM     47  C   UNL A   1      47.299  28.511  27.086  1.00  0.00     0.031 A 
ATOM     48  C   UNL A   1      46.684  29.884  26.973  1.00  0.00     0.074 A 
ATOM     49  C   UNL A   1      48.642  28.404  27.079  1.00  0.00     0.049 A 
ATOM     50  N   UNL A   1      47.245  31.027  26.666  1.00  0.00    -0.248 NA
ATOM     51  C   UNL A   1      45.244  29.980  27.263  1.00  0.00     0.031 C 
ATOM     52  C   UNL A   1      49.402  27.183  27.329  1.00  0.00     0.029 A 
ATOM     53  N   UNL A   1      49.608  29.364  26.869  1.00  0.00    -0.354 N 
ATOM     54  C   UNL A   1      46.218  31.965  26.674  1.00  0.00     0.074 A 
ATOM     55  C   UNL A   1      45.005  31.260  27.026  1.00  0.00     0.031 C 
ATOM     56  C   UNL A   1      50.715  27.464  27.253  1.00  0.00     0.029 A 
ATOM     57  C   UNL A   1      50.890  28.869  26.890  1.00  0.00     0.049 A 
ATOM     58  H   UNL A   1      49.400  30.314  26.719  1.00  0.00     0.167 HD
ATOM     59  C   UNL A   1      46.272  33.291  26.401  1.00  0.00     0.031 A 
ATOM     60  C   UNL A   1      52.067  29.465  26.607  1.00  0.00     0.031 A 
ATOM     61  C   UNL A   1      47.474  34.006  26.058  1.00  0.00     0.049 A 
ATOM     62  C   UNL A   1      52.092  30.915  26.189  1.00  0.00     0.074 A 
ATOM     63  C   UNL A   1      47.615  35.345  25.738  1.00  0.00     0.029 A 
ATOM     64  N   UNL A   1      48.737  33.444  25.995  1.00  0.00    -0.354 N 
ATOM     65  N   UNL A   1      51.107  31.777  26.126  1.00  0.00    -0.248 NA
ATOM     66  C   UNL A   1      53.397  31.468  25.789  1.00  0.00     0.031 C 
ATOM     67  C   UNL A   1      48.956  35.581  25.421  1.00  0.00     0.029 A 
ATOM     68  C   UNL A   1      49.661  34.405  25.616  1.00  0.00     0.049 A 
ATOM     69  H   UNL A   1      48.949  32.503  26.191  1.00  0.00     0.167 HD
ATOM     70  C   UNL A   1      51.676  32.975  25.703  1.00  0.00     0.074 A 
ATOM     71  C   UNL A   1      53.094  32.736  25.546  1.00  0.00     0.031 C 
ATOM     72  C   UNL A   1      51.073  34.166  25.463  1.00  0.00     0.031 A 
BRANCH  59  73
ATOM     73  C   UNL A   1      44.973  34.046  26.387  1.00  0.00    -0.014 A 
ATOM     74  C   UNL A   1      44.156  34.095  25.246  1.00  0.00     0.009 A 
ATOM     75  C   UNL A   1      44.548  34.699  27.556  1.00  0.00     0.009 A 
ATOM     76  C   UNL A   1      42.957  34.811  25.269  1.00  0.00     0.001 A 
ATOM     77  C   UNL A   1      43.334  35.387  27.584  1.00  0.00     0.001 A 
ATOM     78  C   UNL A   1      42.545  35.452  26.438  1.00  0.00     0.000 A 
ENDBRANCH  59  73
BRANCH  60  79
ATOM     79  C   UNL A   1      53.333  28.680  26.634  1.00  0.00    -0.014 A 
ATOM     80  C   UNL A   1      53.767  27.972  25.503  1.00  0.00     0.009 A 
ATOM     81  C   UNL A   1      54.089  28.597  27.814  1.00  0.00     0.009 A 
ATOM     82  C   UNL A   1      54.919  27.182  25.561  1.00  0.00     0.001 A 
ATOM     83  C   UNL A   1      55.258  27.835  27.860  1.00  0.00     0.001 A 
ATOM     84  C   UNL A   1      55.666  27.119  26.737  1.00  0.00     0.000 A 
ENDBRANCH  60  79
BRANCH  72  85
ATOM     85  C   UNL A   1      51.944  35.322  25.046  1.00  0.00    -0.014 A 
ATOM     86  C   UNL A   1      52.577  36.145  25.991  1.00  0.00     0.009 A 
ATOM     87  C   UNL A   1      52.172  35.561  23.680  1.00  0.00     0.009 A 
ATOM     88  C   UNL A   1      53.391  37.201  25.577  1.00  0.00     0.001 A 
ATOM     89  C   UNL A   1      53.013  36.598  23.270  1.00  0.00     0.001 A 
ATOM     90  C   UNL A   1      53.613  37.424  24.218  1.00  0.00     0.000 A 
ENDBRANCH  72  85
ENDBRANCH  46  47
ENDBRANCH  39  41
ENDBRANCH  38  39
ENDBRANCH  37  38
ENDBRANCH  36  37
ENDBRANCH  35  36
ENDBRANCH  34  35
ENDBRANCH   1  34
TORSDOF 23
ENDMDL
