MODEL 1
REMARK VINA RESULT:      -8.9      0.000      0.000
REMARK SMILES C=CCN(CC(=O)OCCOCCOCCOC(=O)c1ccc(-c2c3nc(c(-c4ccccc4)c4ccc([nH]4)c(-c4ccccc4)c4nc(c(-c5ccccc5)c5ccc2[nH]5)C=C4)C=C3)cc1)c1ccc([N+](=O)[O-])cc1Br
REMARK SMILES IDX 12 1 11 2 10 3 9 4 8 5 6 6 7 7 5 8 4 9 3 10 2 11 1 12 68 13
REMARK SMILES IDX 69 14 76 15 70 16 75 17 77 18 71 19 72 20 73 21 74 22 13 23
REMARK SMILES IDX 14 24 15 25 16 26 17 27 18 28 19 29 20 30 21 31 67 32 22 33
REMARK SMILES IDX 66 34 23 35 24 36 25 37 60 38 26 39 65 40 59 41 61 42 27 43
REMARK SMILES IDX 64 44 58 45 57 46 28 48 50 49 35 50 49 51 36 52 39 53 48 54
REMARK SMILES IDX 62 55 37 56 38 57 47 59 63 60 40 61 29 62 30 63 34 64 31 65
REMARK SMILES IDX 33 66 32 67 51 68 52 69 56 70 53 71 55 72 54 73 41 74 42 75
REMARK SMILES IDX 46 76 43 77 45 78 44 79
REMARK H PARENT 61 47 39 58
REMARK Flexibility Score: inf
ROOT
ATOM      1  C   UNL A   1      34.548  32.828  27.848  1.00  0.00     0.188 C 
ENDROOT
BRANCH   1   2
ATOM      2  O   UNL A   1      35.140  31.544  27.667  1.00  0.00    -0.376 OA
BRANCH   2   3
ATOM      3  C   UNL A   1      34.377  30.387  27.998  1.00  0.00     0.202 C 
BRANCH   3   4
ATOM      4  C   UNL A   1      34.077  29.456  26.821  1.00  0.00     0.261 C 
BRANCH   4   5
ATOM      5  O   UNL A   1      33.153  30.066  25.899  1.00  0.00    -0.462 OA
BRANCH   5   6
ATOM      6  C   UNL A   1      32.611  29.253  24.953  1.00  0.00     0.325 C 
ATOM      7  O   UNL A   1      32.906  29.291  23.763  1.00  0.00    -0.250 OA
BRANCH   6   8
ATOM      8  C   UNL A   1      31.696  28.175  25.547  1.00  0.00     0.239 C 
BRANCH   8   9
ATOM      9  N   UNL A   1      31.638  26.897  24.806  1.00  0.00    -0.356 N 
BRANCH   9  10
ATOM     10  C   UNL A   1      31.089  26.908  23.444  1.00  0.00     0.144 C 
BRANCH  10  11
ATOM     11  C   UNL A   1      29.662  27.383  23.469  1.00  0.00    -0.014 C 
ATOM     12  C   UNL A   1      28.619  26.643  23.873  1.00  0.00     0.006 C 
ENDBRANCH  10  11
ENDBRANCH   9  10
BRANCH   9  13
ATOM     13  C   UNL A   1      32.482  25.834  25.143  1.00  0.00     0.052 A 
ATOM     14  C   UNL A   1      33.850  25.952  24.805  1.00  0.00     0.034 A 
ATOM     15  C   UNL A   1      32.089  24.660  25.830  1.00  0.00     0.048 A 
ATOM     16  C   UNL A   1      34.777  24.938  25.071  1.00  0.00     0.088 A 
ATOM     17  C   UNL A   1      33.013  23.650  26.134  1.00  0.00     0.103 A 
ATOM     18  Br  UNL A   1      30.324  24.360  26.480  1.00  0.00    -0.048 Br
ATOM     19  C   UNL A   1      34.340  23.798  25.736  1.00  0.00     0.270 A 
BRANCH  19  20
ATOM     20  N   UNL A   1      35.268  22.718  26.009  1.00  0.00     0.062 N 
ATOM     21  O   UNL A   1      36.463  23.012  26.124  1.00  0.00    -0.258 OA
ATOM     22  O   UNL A   1      34.797  21.575  26.055  1.00  0.00    -0.258 OA
ENDBRANCH  19  20
ENDBRANCH   9  13
ENDBRANCH   8   9
ENDBRANCH   6   8
ENDBRANCH   5   6
ENDBRANCH   4   5
ENDBRANCH   3   4
ENDBRANCH   2   3
ENDBRANCH   1   2
BRANCH   1  23
ATOM     23  C   UNL A   1      34.358  33.361  29.271  1.00  0.00     0.188 C 
BRANCH  23  24
ATOM     24  O   UNL A   1      33.184  34.149  29.399  1.00  0.00    -0.376 OA
BRANCH  24  25
ATOM     25  C   UNL A   1      33.292  35.448  28.828  1.00  0.00     0.202 C 
BRANCH  25  26
ATOM     26  C   UNL A   1      32.896  36.485  29.880  1.00  0.00     0.261 C 
BRANCH  26  27
ATOM     27  O   UNL A   1      32.137  35.915  30.964  1.00  0.00    -0.460 OA
BRANCH  27  28
ATOM     28  C   UNL A   1      32.618  36.189  32.200  1.00  0.00     0.338 C 
ATOM     29  O   UNL A   1      32.133  36.949  33.017  1.00  0.00    -0.246 OA
BRANCH  28  30
ATOM     30  C   UNL A   1      33.733  35.263  32.467  1.00  0.00     0.060 A 
ATOM     31  C   UNL A   1      33.451  33.953  32.872  1.00  0.00     0.016 A 
ATOM     32  C   UNL A   1      35.051  35.693  32.324  1.00  0.00     0.016 A 
ATOM     33  C   UNL A   1      34.488  33.064  33.154  1.00  0.00     0.010 A 
ATOM     34  C   UNL A   1      36.089  34.803  32.609  1.00  0.00     0.010 A 
ATOM     35  C   UNL A   1      35.814  33.490  33.037  1.00  0.00    -0.014 A 
BRANCH  35  36
ATOM     36  C   UNL A   1      36.940  32.615  33.439  1.00  0.00     0.031 A 
ATOM     37  C   UNL A   1      37.629  32.874  34.744  1.00  0.00     0.074 A 
ATOM     38  C   UNL A   1      37.376  31.635  32.629  1.00  0.00     0.049 A 
ATOM     39  N   UNL A   1      38.769  32.407  35.185  1.00  0.00    -0.248 NA
ATOM     40  C   UNL A   1      36.943  33.784  35.676  1.00  0.00     0.031 C 
ATOM     41  C   UNL A   1      36.748  31.222  31.375  1.00  0.00     0.029 A 
ATOM     42  N   UNL A   1      38.480  30.826  32.737  1.00  0.00    -0.354 N 
ATOM     43  C   UNL A   1      38.955  32.993  36.429  1.00  0.00     0.074 A 
ATOM     44  C   UNL A   1      37.811  33.845  36.676  1.00  0.00     0.031 C 
ATOM     45  C   UNL A   1      37.493  30.254  30.814  1.00  0.00     0.029 A 
ATOM     46  C   UNL A   1      38.679  30.027  31.637  1.00  0.00     0.049 A 
ATOM     47  H   UNL A   1      39.072  30.820  33.523  1.00  0.00     0.167 HD
ATOM     48  C   UNL A   1      39.996  32.845  37.282  1.00  0.00     0.031 A 
ATOM     49  C   UNL A   1      39.726  29.248  31.305  1.00  0.00     0.031 A 
ATOM     50  C   UNL A   1      41.137  32.006  37.032  1.00  0.00     0.049 A 
ATOM     51  C   UNL A   1      40.923  29.185  32.216  1.00  0.00     0.074 A 
ATOM     52  C   UNL A   1      42.244  31.793  37.835  1.00  0.00     0.029 A 
ATOM     53  N   UNL A   1      41.318  31.245  35.888  1.00  0.00    -0.354 N 
ATOM     54  N   UNL A   1      41.112  29.767  33.375  1.00  0.00    -0.248 NA
ATOM     55  C   UNL A   1      42.059  28.369  31.760  1.00  0.00     0.031 C 
ATOM     56  C   UNL A   1      43.118  30.939  37.154  1.00  0.00     0.029 A 
ATOM     57  C   UNL A   1      42.530  30.582  35.952  1.00  0.00     0.049 A 
ATOM     58  H   UNL A   1      40.679  31.186  35.142  1.00  0.00     0.167 HD
ATOM     59  C   UNL A   1      42.378  29.373  33.795  1.00  0.00     0.074 A 
ATOM     60  C   UNL A   1      42.905  28.493  32.774  1.00  0.00     0.031 C 
ATOM     61  C   UNL A   1      43.041  29.708  34.927  1.00  0.00     0.031 A 
BRANCH  48  62
ATOM     62  C   UNL A   1      39.970  33.655  38.545  1.00  0.00    -0.014 A 
ATOM     63  C   UNL A   1      39.435  33.139  39.735  1.00  0.00     0.009 A 
ATOM     64  C   UNL A   1      40.514  34.950  38.546  1.00  0.00     0.009 A 
ATOM     65  C   UNL A   1      39.420  33.917  40.894  1.00  0.00     0.001 A 
ATOM     66  C   UNL A   1      40.518  35.714  39.712  1.00  0.00     0.001 A 
ATOM     67  C   UNL A   1      39.964  35.201  40.883  1.00  0.00     0.000 A 
ENDBRANCH  48  62
BRANCH  49  68
ATOM     68  C   UNL A   1      39.727  28.511  30.015  1.00  0.00    -0.014 A 
ATOM     69  C   UNL A   1      40.138  29.142  28.833  1.00  0.00     0.009 A 
ATOM     70  C   UNL A   1      39.291  27.177  29.957  1.00  0.00     0.009 A 
ATOM     71  C   UNL A   1      40.093  28.459  27.614  1.00  0.00     0.001 A 
ATOM     72  C   UNL A   1      39.271  26.489  28.744  1.00  0.00     0.001 A 
ATOM     73  C   UNL A   1      39.665  27.133  27.571  1.00  0.00     0.000 A 
ENDBRANCH  49  68
BRANCH  61  74
ATOM     74  C   UNL A   1      44.395  29.095  35.142  1.00  0.00    -0.014 A 
ATOM     75  C   UNL A   1      44.544  27.880  35.829  1.00  0.00     0.009 A 
ATOM     76  C   UNL A   1      45.533  29.718  34.606  1.00  0.00     0.009 A 
ATOM     77  C   UNL A   1      45.810  27.314  35.994  1.00  0.00     0.001 A 
ATOM     78  C   UNL A   1      46.793  29.138  34.751  1.00  0.00     0.001 A 
ATOM     79  C   UNL A   1      46.932  27.941  35.452  1.00  0.00     0.000 A 
ENDBRANCH  61  74
ENDBRANCH  35  36
ENDBRANCH  28  30
ENDBRANCH  27  28
ENDBRANCH  26  27
ENDBRANCH  25  26
ENDBRANCH  24  25
ENDBRANCH  23  24
ENDBRANCH   1  23
TORSDOF 22
ENDMDL
MODEL 2
REMARK VINA RESULT:      -8.7      1.793      3.378
REMARK SMILES C=CCN(CC(=O)OCCOCCOCCOC(=O)c1ccc(-c2c3nc(c(-c4ccccc4)c4ccc([nH]4)c(-c4ccccc4)c4nc(c(-c5ccccc5)c5ccc2[nH]5)C=C4)C=C3)cc1)c1ccc([N+](=O)[O-])cc1Br
REMARK SMILES IDX 12 1 11 2 10 3 9 4 8 5 6 6 7 7 5 8 4 9 3 10 2 11 1 12 68 13
REMARK SMILES IDX 69 14 76 15 70 16 75 17 77 18 71 19 72 20 73 21 74 22 13 23
REMARK SMILES IDX 14 24 15 25 16 26 17 27 18 28 19 29 20 30 21 31 67 32 22 33
REMARK SMILES IDX 66 34 23 35 24 36 25 37 60 38 26 39 65 40 59 41 61 42 27 43
REMARK SMILES IDX 64 44 58 45 57 46 28 48 50 49 35 50 49 51 36 52 39 53 48 54
REMARK SMILES IDX 62 55 37 56 38 57 47 59 63 60 40 61 29 62 30 63 34 64 31 65
REMARK SMILES IDX 33 66 32 67 51 68 52 69 56 70 53 71 55 72 54 73 41 74 42 75
REMARK SMILES IDX 46 76 43 77 45 78 44 79
REMARK H PARENT 61 47 39 58
REMARK Flexibility Score: inf
ROOT
ATOM      1  C   UNL A   1      34.423  31.929  28.386  1.00  0.00     0.188 C 
ENDROOT
BRANCH   1   2
ATOM      2  O   UNL A   1      35.368  30.871  28.527  1.00  0.00    -0.376 OA
BRANCH   2   3
ATOM      3  C   UNL A   1      35.161  29.667  27.794  1.00  0.00     0.202 C 
BRANCH   3   4
ATOM      4  C   UNL A   1      33.725  29.443  27.314  1.00  0.00     0.261 C 
BRANCH   4   5
ATOM      5  O   UNL A   1      33.398  28.041  27.291  1.00  0.00    -0.462 OA
BRANCH   5   6
ATOM      6  C   UNL A   1      32.079  27.721  27.378  1.00  0.00     0.325 C 
ATOM      7  O   UNL A   1      31.316  28.174  28.225  1.00  0.00    -0.250 OA
BRANCH   6   8
ATOM      8  C   UNL A   1      31.600  26.845  26.213  1.00  0.00     0.239 C 
BRANCH   8   9
ATOM      9  N   UNL A   1      31.842  27.385  24.857  1.00  0.00    -0.356 N 
BRANCH   9  10
ATOM     10  C   UNL A   1      32.835  26.714  24.009  1.00  0.00     0.144 C 
BRANCH  10  11
ATOM     11  C   UNL A   1      33.645  27.735  23.259  1.00  0.00    -0.014 C 
ATOM     12  C   UNL A   1      34.252  28.790  23.822  1.00  0.00     0.006 C 
ENDBRANCH  10  11
ENDBRANCH   9  10
BRANCH   9  13
ATOM     13  C   UNL A   1      30.874  28.161  24.211  1.00  0.00     0.052 A 
ATOM     14  C   UNL A   1      29.977  27.497  23.342  1.00  0.00     0.034 A 
ATOM     15  C   UNL A   1      30.691  29.554  24.382  1.00  0.00     0.048 A 
ATOM     16  C   UNL A   1      28.988  28.179  22.625  1.00  0.00     0.088 A 
ATOM     17  C   UNL A   1      29.682  30.246  23.696  1.00  0.00     0.103 A 
ATOM     18  Br  UNL A   1      31.710  30.611  25.595  1.00  0.00    -0.048 Br
ATOM     19  C   UNL A   1      28.855  29.550  22.817  1.00  0.00     0.270 A 
BRANCH  19  20
ATOM     20  N   UNL A   1      27.855  30.292  22.074  1.00  0.00     0.062 N 
ATOM     21  O   UNL A   1      26.976  30.867  22.725  1.00  0.00    -0.258 OA
ATOM     22  O   UNL A   1      27.930  30.250  20.839  1.00  0.00    -0.258 OA
ENDBRANCH  19  20
ENDBRANCH   9  13
ENDBRANCH   8   9
ENDBRANCH   6   8
ENDBRANCH   5   6
ENDBRANCH   4   5
ENDBRANCH   3   4
ENDBRANCH   2   3
ENDBRANCH   1   2
BRANCH   1  23
ATOM     23  C   UNL A   1      34.936  33.357  28.180  1.00  0.00     0.188 C 
BRANCH  23  24
ATOM     24  O   UNL A   1      34.495  34.241  29.200  1.00  0.00    -0.376 OA
BRANCH  24  25
ATOM     25  C   UNL A   1      33.157  34.696  29.034  1.00  0.00     0.202 C 
BRANCH  25  26
ATOM     26  C   UNL A   1      32.938  35.918  29.928  1.00  0.00     0.261 C 
BRANCH  26  27
ATOM     27  O   UNL A   1      32.268  35.593  31.161  1.00  0.00    -0.460 OA
BRANCH  27  28
ATOM     28  C   UNL A   1      32.895  36.025  32.280  1.00  0.00     0.338 C 
ATOM     29  O   UNL A   1      32.527  36.916  33.022  1.00  0.00    -0.246 OA
BRANCH  28  30
ATOM     30  C   UNL A   1      34.011  35.103  32.558  1.00  0.00     0.060 A 
ATOM     31  C   UNL A   1      33.731  33.812  33.023  1.00  0.00     0.016 A 
ATOM     32  C   UNL A   1      35.327  35.517  32.368  1.00  0.00     0.016 A 
ATOM     33  C   UNL A   1      34.769  32.929  33.316  1.00  0.00     0.010 A 
ATOM     34  C   UNL A   1      36.367  34.633  32.665  1.00  0.00     0.010 A 
ATOM     35  C   UNL A   1      36.094  33.340  33.151  1.00  0.00    -0.014 A 
BRANCH  35  36
ATOM     36  C   UNL A   1      37.224  32.475  33.562  1.00  0.00     0.031 A 
ATOM     37  C   UNL A   1      37.927  32.764  34.854  1.00  0.00     0.074 A 
ATOM     38  C   UNL A   1      37.653  31.475  32.771  1.00  0.00     0.049 A 
ATOM     39  N   UNL A   1      39.071  32.307  35.293  1.00  0.00    -0.248 NA
ATOM     40  C   UNL A   1      37.251  33.696  35.771  1.00  0.00     0.031 C 
ATOM     41  C   UNL A   1      37.011  31.034  31.534  1.00  0.00     0.029 A 
ATOM     42  N   UNL A   1      38.757  30.669  32.886  1.00  0.00    -0.354 N 
ATOM     43  C   UNL A   1      39.271  32.922  36.522  1.00  0.00     0.074 A 
ATOM     44  C   UNL A   1      38.129  33.780  36.760  1.00  0.00     0.031 C 
ATOM     45  C   UNL A   1      37.750  30.052  30.988  1.00  0.00     0.029 A 
ATOM     46  C   UNL A   1      38.945  29.845  31.804  1.00  0.00     0.049 A 
ATOM     47  H   UNL A   1      39.357  30.681  33.667  1.00  0.00     0.167 HD
ATOM     48  C   UNL A   1      40.320  32.794  37.367  1.00  0.00     0.031 A 
ATOM     49  C   UNL A   1      39.988  29.057  31.479  1.00  0.00     0.031 A 
ATOM     50  C   UNL A   1      41.459  31.949  37.124  1.00  0.00     0.049 A 
ATOM     51  C   UNL A   1      41.195  29.015  32.378  1.00  0.00     0.074 A 
ATOM     52  C   UNL A   1      42.574  31.755  37.921  1.00  0.00     0.029 A 
ATOM     53  N   UNL A   1      41.628  31.161  35.997  1.00  0.00    -0.354 N 
ATOM     54  N   UNL A   1      41.396  29.625  33.521  1.00  0.00    -0.248 NA
ATOM     55  C   UNL A   1      42.326  28.189  31.930  1.00  0.00     0.031 C 
ATOM     56  C   UNL A   1      43.441  30.884  37.251  1.00  0.00     0.029 A 
ATOM     57  C   UNL A   1      42.841  30.499  36.064  1.00  0.00     0.049 A 
ATOM     58  H   UNL A   1      40.981  31.085  35.259  1.00  0.00     0.167 HD
ATOM     59  C   UNL A   1      42.665  29.240  33.938  1.00  0.00     0.074 A 
ATOM     60  C   UNL A   1      43.182  28.336  32.932  1.00  0.00     0.031 C 
ATOM     61  C   UNL A   1      43.341  29.602  35.055  1.00  0.00     0.031 A 
BRANCH  48  62
ATOM     62  C   UNL A   1      40.307  33.634  38.611  1.00  0.00    -0.014 A 
ATOM     63  C   UNL A   1      40.849  34.928  38.625  1.00  0.00     0.009 A 
ATOM     64  C   UNL A   1      39.720  33.126  39.781  1.00  0.00     0.009 A 
ATOM     65  C   UNL A   1      40.828  35.686  39.797  1.00  0.00     0.001 A 
ATOM     66  C   UNL A   1      39.680  33.896  40.943  1.00  0.00     0.001 A 
ATOM     67  C   UNL A   1      40.240  35.172  40.953  1.00  0.00     0.000 A 
ENDBRANCH  48  62
BRANCH  49  68
ATOM     68  C   UNL A   1      39.976  28.290  30.207  1.00  0.00    -0.014 A 
ATOM     69  C   UNL A   1      39.319  27.054  30.126  1.00  0.00     0.009 A 
ATOM     70  C   UNL A   1      40.645  28.780  29.073  1.00  0.00     0.009 A 
ATOM     71  C   UNL A   1      39.351  26.314  28.940  1.00  0.00     0.001 A 
ATOM     72  C   UNL A   1      40.652  28.051  27.884  1.00  0.00     0.001 A 
ATOM     73  C   UNL A   1      40.012  26.815  27.820  1.00  0.00     0.000 A 
ENDBRANCH  49  68
BRANCH  61  74
ATOM     74  C   UNL A   1      44.697  28.993  35.270  1.00  0.00    -0.014 A 
ATOM     75  C   UNL A   1      44.847  27.763  35.929  1.00  0.00     0.009 A 
ATOM     76  C   UNL A   1      45.836  29.638  34.763  1.00  0.00     0.009 A 
ATOM     77  C   UNL A   1      46.115  27.202  36.094  1.00  0.00     0.001 A 
ATOM     78  C   UNL A   1      47.099  29.064  34.908  1.00  0.00     0.001 A 
ATOM     79  C   UNL A   1      47.238  27.850  35.580  1.00  0.00     0.000 A 
ENDBRANCH  61  74
ENDBRANCH  35  36
ENDBRANCH  28  30
ENDBRANCH  27  28
ENDBRANCH  26  27
ENDBRANCH  25  26
ENDBRANCH  24  25
ENDBRANCH  23  24
ENDBRANCH   1  23
TORSDOF 22
ENDMDL
MODEL 3
REMARK VINA RESULT:      -8.6      5.437      9.127
REMARK SMILES C=CCN(CC(=O)OCCOCCOCCOC(=O)c1ccc(-c2c3nc(c(-c4ccccc4)c4ccc([nH]4)c(-c4ccccc4)c4nc(c(-c5ccccc5)c5ccc2[nH]5)C=C4)C=C3)cc1)c1ccc([N+](=O)[O-])cc1Br
REMARK SMILES IDX 12 1 11 2 10 3 9 4 8 5 6 6 7 7 5 8 4 9 3 10 2 11 1 12 68 13
REMARK SMILES IDX 69 14 76 15 70 16 75 17 77 18 71 19 72 20 73 21 74 22 13 23
REMARK SMILES IDX 14 24 15 25 16 26 17 27 18 28 19 29 20 30 21 31 67 32 22 33
REMARK SMILES IDX 66 34 23 35 24 36 25 37 60 38 26 39 65 40 59 41 61 42 27 43
REMARK SMILES IDX 64 44 58 45 57 46 28 48 50 49 35 50 49 51 36 52 39 53 48 54
REMARK SMILES IDX 62 55 37 56 38 57 47 59 63 60 40 61 29 62 30 63 34 64 31 65
REMARK SMILES IDX 33 66 32 67 51 68 52 69 56 70 53 71 55 72 54 73 41 74 42 75
REMARK SMILES IDX 46 76 43 77 45 78 44 79
REMARK H PARENT 61 47 39 58
REMARK Flexibility Score: inf
ROOT
ATOM      1  C   UNL A   1      34.254  31.193  27.626  1.00  0.00     0.188 C 
ENDROOT
BRANCH   1   2
ATOM      2  O   UNL A   1      32.947  30.824  27.193  1.00  0.00    -0.376 OA
BRANCH   2   3
ATOM      3  C   UNL A   1      32.686  29.455  26.897  1.00  0.00     0.202 C 
BRANCH   3   4
ATOM      4  C   UNL A   1      33.661  28.814  25.907  1.00  0.00     0.261 C 
BRANCH   4   5
ATOM      5  O   UNL A   1      33.126  27.588  25.371  1.00  0.00    -0.462 OA
BRANCH   5   6
ATOM      6  C   UNL A   1      33.524  27.246  24.117  1.00  0.00     0.325 C 
ATOM      7  O   UNL A   1      33.875  28.053  23.263  1.00  0.00    -0.250 OA
BRANCH   6   8
ATOM      8  C   UNL A   1      33.637  25.729  23.921  1.00  0.00     0.239 C 
BRANCH   8   9
ATOM      9  N   UNL A   1      32.358  24.990  23.857  1.00  0.00    -0.356 N 
BRANCH   9  10
ATOM     10  C   UNL A   1      31.218  25.631  23.190  1.00  0.00     0.144 C 
BRANCH  10  11
ATOM     11  C   UNL A   1      30.133  25.920  24.191  1.00  0.00    -0.014 C 
ATOM     12  C   UNL A   1      28.893  26.324  23.876  1.00  0.00     0.006 C 
ENDBRANCH  10  11
ENDBRANCH   9  10
BRANCH   9  13
ATOM     13  C   UNL A   1      32.329  23.595  23.965  1.00  0.00     0.052 A 
ATOM     14  C   UNL A   1      32.544  22.843  22.787  1.00  0.00     0.034 A 
ATOM     15  C   UNL A   1      32.138  22.869  25.166  1.00  0.00     0.048 A 
ATOM     16  C   UNL A   1      32.510  21.444  22.776  1.00  0.00     0.088 A 
ATOM     17  C   UNL A   1      32.135  21.466  25.176  1.00  0.00     0.103 A 
ATOM     18  Br  UNL A   1      31.952  23.688  26.875  1.00  0.00    -0.048 Br
ATOM     19  C   UNL A   1      32.307  20.776  23.978  1.00  0.00     0.270 A 
BRANCH  19  20
ATOM     20  N   UNL A   1      32.244  19.327  24.001  1.00  0.00     0.062 N 
ATOM     21  O   UNL A   1      32.234  18.743  22.912  1.00  0.00    -0.258 OA
ATOM     22  O   UNL A   1      32.153  18.789  25.112  1.00  0.00    -0.258 OA
ENDBRANCH  19  20
ENDBRANCH   9  13
ENDBRANCH   8   9
ENDBRANCH   6   8
ENDBRANCH   5   6
ENDBRANCH   4   5
ENDBRANCH   3   4
ENDBRANCH   2   3
ENDBRANCH   1   2
BRANCH   1  23
ATOM     23  C   UNL A   1      34.486  32.613  28.152  1.00  0.00     0.188 C 
BRANCH  23  24
ATOM     24  O   UNL A   1      35.475  32.655  29.170  1.00  0.00    -0.376 OA
BRANCH  24  25
ATOM     25  C   UNL A   1      34.964  32.958  30.463  1.00  0.00     0.202 C 
BRANCH  25  26
ATOM     26  C   UNL A   1      35.534  31.955  31.467  1.00  0.00     0.261 C 
BRANCH  26  27
ATOM     27  O   UNL A   1      36.123  30.804  30.830  1.00  0.00    -0.460 OA
BRANCH  27  28
ATOM     28  C   UNL A   1      36.942  30.073  31.621  1.00  0.00     0.338 C 
ATOM     29  O   UNL A   1      36.653  29.544  32.677  1.00  0.00    -0.246 OA
BRANCH  28  30
ATOM     30  C   UNL A   1      38.206  29.862  30.891  1.00  0.00     0.060 A 
ATOM     31  C   UNL A   1      38.223  30.009  29.499  1.00  0.00     0.016 A 
ATOM     32  C   UNL A   1      39.364  29.513  31.581  1.00  0.00     0.016 A 
ATOM     33  C   UNL A   1      39.399  29.791  28.783  1.00  0.00     0.010 A 
ATOM     34  C   UNL A   1      40.542  29.293  30.863  1.00  0.00     0.010 A 
ATOM     35  C   UNL A   1      40.563  29.418  29.460  1.00  0.00    -0.014 A 
BRANCH  35  36
ATOM     36  C   UNL A   1      41.800  29.065  28.726  1.00  0.00     0.031 A 
ATOM     37  C   UNL A   1      42.004  27.645  28.290  1.00  0.00     0.074 A 
ATOM     38  C   UNL A   1      42.753  29.985  28.496  1.00  0.00     0.049 A 
ATOM     39  N   UNL A   1      43.092  27.061  27.860  1.00  0.00    -0.248 NA
ATOM     40  C   UNL A   1      40.824  26.767  28.351  1.00  0.00     0.031 C 
ATOM     41  C   UNL A   1      42.648  31.413  28.790  1.00  0.00     0.029 A 
ATOM     42  N   UNL A   1      44.017  29.837  27.981  1.00  0.00    -0.354 N 
ATOM     43  C   UNL A   1      42.739  25.738  27.632  1.00  0.00     0.074 A 
ATOM     44  C   UNL A   1      41.336  25.606  27.966  1.00  0.00     0.031 C 
ATOM     45  C   UNL A   1      43.813  32.007  28.477  1.00  0.00     0.029 A 
ATOM     46  C   UNL A   1      44.760  30.991  28.022  1.00  0.00     0.049 A 
ATOM     47  H   UNL A   1      44.358  28.987  27.621  1.00  0.00     0.167 HD
ATOM     48  C   UNL A   1      43.519  24.721  27.197  1.00  0.00     0.031 A 
ATOM     49  C   UNL A   1      46.069  31.194  27.779  1.00  0.00     0.031 A 
ATOM     50  C   UNL A   1      44.915  24.850  26.875  1.00  0.00     0.049 A 
ATOM     51  C   UNL A   1      46.944  30.027  27.405  1.00  0.00     0.074 A 
ATOM     52  C   UNL A   1      45.791  23.875  26.429  1.00  0.00     0.029 A 
ATOM     53  N   UNL A   1      45.638  26.028  26.968  1.00  0.00    -0.354 N 
ATOM     54  N   UNL A   1      46.615  28.771  27.225  1.00  0.00    -0.248 NA
ATOM     55  C   UNL A   1      48.376  30.306  27.220  1.00  0.00     0.031 C 
ATOM     56  C   UNL A   1      47.057  24.455  26.299  1.00  0.00     0.029 A 
ATOM     57  C   UNL A   1      46.956  25.800  26.614  1.00  0.00     0.049 A 
ATOM     58  H   UNL A   1      45.269  26.897  27.246  1.00  0.00     0.167 HD
ATOM     59  C   UNL A   1      47.793  28.115  26.885  1.00  0.00     0.074 A 
ATOM     60  C   UNL A   1      48.841  29.114  26.873  1.00  0.00     0.031 C 
ATOM     61  C   UNL A   1      47.988  26.804  26.606  1.00  0.00     0.031 A 
BRANCH  48  62
ATOM     62  C   UNL A   1      42.887  23.363  27.100  1.00  0.00    -0.014 A 
ATOM     63  C   UNL A   1      42.745  22.540  28.228  1.00  0.00     0.009 A 
ATOM     64  C   UNL A   1      42.405  22.913  25.861  1.00  0.00     0.009 A 
ATOM     65  C   UNL A   1      42.157  21.279  28.108  1.00  0.00     0.001 A 
ATOM     66  C   UNL A   1      41.797  21.662  25.750  1.00  0.00     0.001 A 
ATOM     67  C   UNL A   1      41.681  20.843  26.872  1.00  0.00     0.000 A 
ENDBRANCH  48  62
BRANCH  49  68
ATOM     68  C   UNL A   1      46.658  32.548  27.945  1.00  0.00    -0.014 A 
ATOM     69  C   UNL A   1      46.777  33.414  26.849  1.00  0.00     0.009 A 
ATOM     70  C   UNL A   1      47.128  32.970  29.200  1.00  0.00     0.009 A 
ATOM     71  C   UNL A   1      47.375  34.668  27.001  1.00  0.00     0.001 A 
ATOM     72  C   UNL A   1      47.700  34.233  29.354  1.00  0.00     0.001 A 
ATOM     73  C   UNL A   1      47.831  35.078  28.254  1.00  0.00     0.000 A 
ENDBRANCH  49  68
BRANCH  61  74
ATOM     74  C   UNL A   1      49.377  26.377  26.228  1.00  0.00    -0.014 A 
ATOM     75  C   UNL A   1      49.906  26.660  24.959  1.00  0.00     0.009 A 
ATOM     76  C   UNL A   1      50.184  25.725  27.174  1.00  0.00     0.009 A 
ATOM     77  C   UNL A   1      51.210  26.277  24.638  1.00  0.00     0.001 A 
ATOM     78  C   UNL A   1      51.495  25.365  26.858  1.00  0.00     0.001 A 
ATOM     79  C   UNL A   1      52.004  25.635  25.588  1.00  0.00     0.000 A 
ENDBRANCH  61  74
ENDBRANCH  35  36
ENDBRANCH  28  30
ENDBRANCH  27  28
ENDBRANCH  26  27
ENDBRANCH  25  26
ENDBRANCH  24  25
ENDBRANCH  23  24
ENDBRANCH   1  23
TORSDOF 22
ENDMDL
