MODEL 1
REMARK VINA RESULT:     -10.2      0.000      0.000
REMARK SMILES CC1CC[NH+]([C@H](c2ccc(F)cc2)c2ccc([C@@H](C)C(=O)OCCOCCOCCOC(=O)c3ccc(-c4c5nc(c(-c6ccccc6)c6ccc([nH]6)c(-c6ccccc6)c6nc(c(-c7ccccc7)c7ccc4[nH]7)C=C6)C=C5)cc3)cc2-c2ccc(C(F)(F)F)cc2)CC1
REMARK SMILES IDX 26 1 25 2 24 3 23 4 22 5 20 6 21 7 18 8 19 9 17 10 14 11
REMARK SMILES IDX 15 12 83 13 16 14 82 15 6 16 5 17 1 18 2 19 3 20 95 21 4 22
REMARK SMILES IDX 94 23 7 25 8 26 13 27 9 28 12 29 10 30 11 31 84 32 85 33
REMARK SMILES IDX 93 34 86 35 92 36 87 37 88 38 89 39 90 40 91 41 27 42 28 43
REMARK SMILES IDX 29 44 30 45 31 46 32 47 33 48 34 49 35 50 81 51 36 52 80 53
REMARK SMILES IDX 37 54 38 55 39 56 74 57 40 58 79 59 73 60 75 61 41 62 78 63
REMARK SMILES IDX 72 64 71 65 42 67 64 68 49 69 63 70 50 71 53 72 62 73 76 74
REMARK SMILES IDX 51 75 52 76 61 78 77 79 54 80 43 81 44 82 48 83 45 84 47 85
REMARK SMILES IDX 46 86 65 87 66 88 70 89 67 90 69 91 68 92 55 93 56 94 60 95
REMARK SMILES IDX 57 96 59 97 58 98
REMARK H PARENT 5 24 75 66 53 77
REMARK Flexibility Score: inf
ROOT
ATOM      1  C   UNL A   1      39.816  26.810  27.912  1.00  0.00     0.188 C 
ENDROOT
BRANCH   1   2
ATOM      2  O   UNL A   1      40.128  28.019  27.230  1.00  0.00    -0.376 OA
BRANCH   2   3
ATOM      3  C   UNL A   1      39.762  29.257  27.820  1.00  0.00     0.202 C 
BRANCH   3   4
ATOM      4  C   UNL A   1      38.534  29.250  28.735  1.00  0.00     0.261 C 
BRANCH   4   5
ATOM      5  O   UNL A   1      37.276  29.052  28.052  1.00  0.00    -0.463 OA
BRANCH   5   6
ATOM      6  C   UNL A   1      36.182  29.633  28.608  1.00  0.00     0.313 C 
ATOM      7  O   UNL A   1      35.878  29.506  29.792  1.00  0.00    -0.252 OA
BRANCH   6   8
ATOM      8  C   UNL A   1      35.289  30.433  27.653  1.00  0.00     0.126 C 
ATOM      9  C   UNL A   1      34.745  31.639  28.420  1.00  0.00     0.025 C 
BRANCH   8  10
ATOM     10  C   UNL A   1      34.175  29.744  26.867  1.00  0.00    -0.033 A 
ATOM     11  C   UNL A   1      32.102  28.378  25.377  1.00  0.00     0.022 A 
ATOM     12  C   UNL A   1      32.250  29.786  25.389  1.00  0.00     0.011 A 
ATOM     13  C   UNL A   1      33.057  27.636  26.123  1.00  0.00    -0.009 A 
ATOM     14  C   UNL A   1      33.277  30.450  26.075  1.00  0.00     0.005 A 
ATOM     15  C   UNL A   1      34.056  28.336  26.865  1.00  0.00     0.013 A 
BRANCH  11  16
ATOM     16  C   UNL A   1      31.015  27.682  24.494  1.00  0.00     0.247 C 
BRANCH  16  17
ATOM     17  N   UNL A   1      31.473  26.723  23.434  1.00  0.00    -0.325 N 
ATOM     18  C   UNL A   1      33.747  23.331  21.806  1.00  0.00     0.008 C 
ATOM     19  C   UNL A   1      33.119  24.431  22.653  1.00  0.00    -0.003 C 
ATOM     20  C   UNL A   1      31.600  24.283  22.740  1.00  0.00     0.065 C 
ATOM     21  C   UNL A   1      33.403  25.808  22.067  1.00  0.00     0.065 C 
ATOM     22  C   UNL A   1      30.987  25.356  23.643  1.00  0.00     0.263 C 
ATOM     23  C   UNL A   1      32.848  26.911  22.966  1.00  0.00     0.263 C 
ATOM     24  H   UNL A   1      30.986  26.991  22.579  1.00  0.00     0.348 HD
ENDBRANCH  16  17
BRANCH  16  25
ATOM     25  C   UNL A   1      29.911  28.606  23.938  1.00  0.00     0.014 A 
ATOM     26  C   UNL A   1      30.053  30.002  23.900  1.00  0.00     0.013 A 
ATOM     27  C   UNL A   1      28.741  28.048  23.383  1.00  0.00     0.013 A 
ATOM     28  C   UNL A   1      29.084  30.804  23.288  1.00  0.00     0.040 A 
ATOM     29  C   UNL A   1      27.747  28.858  22.826  1.00  0.00     0.040 A 
ATOM     30  C   UNL A   1      27.935  30.230  22.772  1.00  0.00     0.123 A 
ATOM     31  F   UNL A   1      27.002  31.009  22.208  1.00  0.00    -0.207 F 
ENDBRANCH  16  25
ENDBRANCH  11  16
BRANCH  13  32
ATOM     32  C   UNL A   1      33.063  26.157  26.188  1.00  0.00    -0.018 A 
ATOM     33  C   UNL A   1      34.181  25.440  25.743  1.00  0.00     0.009 A 
ATOM     34  C   UNL A   1      31.986  25.422  26.701  1.00  0.00     0.009 A 
ATOM     35  C   UNL A   1      34.250  24.048  25.822  1.00  0.00     0.014 A 
ATOM     36  C   UNL A   1      32.050  24.022  26.799  1.00  0.00     0.014 A 
ATOM     37  C   UNL A   1      33.189  23.322  26.373  1.00  0.00     0.056 A 
BRANCH  37  38
ATOM     38  C   UNL A   1      33.293  21.822  26.486  1.00  0.00     0.416 C 
ATOM     39  F   UNL A   1      34.490  21.348  26.043  1.00  0.00    -0.166 F 
ATOM     40  F   UNL A   1      33.173  21.382  27.772  1.00  0.00    -0.166 F 
ATOM     41  F   UNL A   1      32.339  21.156  25.778  1.00  0.00    -0.166 F 
ENDBRANCH  37  38
ENDBRANCH  13  32
ENDBRANCH   8  10
ENDBRANCH   6   8
ENDBRANCH   5   6
ENDBRANCH   4   5
ENDBRANCH   3   4
ENDBRANCH   2   3
ENDBRANCH   1   2
BRANCH   1  42
ATOM     42  C   UNL A   1      40.955  25.905  28.412  1.00  0.00     0.188 C 
BRANCH  42  43
ATOM     43  O   UNL A   1      41.814  25.415  27.397  1.00  0.00    -0.376 OA
BRANCH  43  44
ATOM     44  C   UNL A   1      41.687  24.029  27.129  1.00  0.00     0.202 C 
BRANCH  44  45
ATOM     45  C   UNL A   1      42.923  23.477  26.417  1.00  0.00     0.261 C 
BRANCH  45  46
ATOM     46  O   UNL A   1      44.044  23.273  27.303  1.00  0.00    -0.460 OA
BRANCH  46  47
ATOM     47  C   UNL A   1      45.261  23.329  26.735  1.00  0.00     0.338 C 
ATOM     48  O   UNL A   1      45.873  22.404  26.227  1.00  0.00    -0.246 OA
BRANCH  47  49
ATOM     49  C   UNL A   1      45.742  24.717  26.726  1.00  0.00     0.060 A 
ATOM     50  C   UNL A   1      45.953  25.373  25.506  1.00  0.00     0.016 A 
ATOM     51  C   UNL A   1      46.081  25.337  27.925  1.00  0.00     0.016 A 
ATOM     52  C   UNL A   1      46.557  26.629  25.474  1.00  0.00     0.010 A 
ATOM     53  C   UNL A   1      46.670  26.603  27.894  1.00  0.00     0.010 A 
ATOM     54  C   UNL A   1      46.946  27.239  26.669  1.00  0.00    -0.014 A 
BRANCH  54  55
ATOM     55  C   UNL A   1      47.750  28.483  26.662  1.00  0.00     0.031 A 
ATOM     56  C   UNL A   1      47.041  29.807  26.683  1.00  0.00     0.074 A 
ATOM     57  C   UNL A   1      49.091  28.437  26.592  1.00  0.00     0.049 A 
ATOM     58  N   UNL A   1      47.521  31.009  26.499  1.00  0.00    -0.248 NA
ATOM     59  C   UNL A   1      45.592  29.763  26.937  1.00  0.00     0.031 C 
ATOM     60  C   UNL A   1      49.900  27.220  26.619  1.00  0.00     0.029 A 
ATOM     61  N   UNL A   1      50.005  29.452  26.452  1.00  0.00    -0.354 N 
ATOM     62  C   UNL A   1      46.428  31.864  26.575  1.00  0.00     0.074 A 
ATOM     63  C   UNL A   1      45.262  31.041  26.813  1.00  0.00     0.031 C 
ATOM     64  C   UNL A   1      51.192  27.556  26.467  1.00  0.00     0.029 A 
ATOM     65  C   UNL A   1      51.291  29.002  26.283  1.00  0.00     0.049 A 
ATOM     66  H   UNL A   1      49.763  30.405  26.471  1.00  0.00     0.167 HD
ATOM     67  C   UNL A   1      46.399  33.212  26.447  1.00  0.00     0.031 A 
ATOM     68  C   UNL A   1      52.415  29.675  25.967  1.00  0.00     0.031 A 
ATOM     69  C   UNL A   1      47.560  34.025  26.200  1.00  0.00     0.049 A 
ATOM     70  C   UNL A   1      52.354  31.162  25.763  1.00  0.00     0.074 A 
ATOM     71  C   UNL A   1      47.641  35.401  26.078  1.00  0.00     0.029 A 
ATOM     72  N   UNL A   1      48.844  33.530  26.028  1.00  0.00    -0.354 N 
ATOM     73  N   UNL A   1      51.319  31.964  25.839  1.00  0.00    -0.248 NA
ATOM     74  C   UNL A   1      53.616  31.837  25.429  1.00  0.00     0.031 C 
ATOM     75  C   UNL A   1      48.966  35.734  25.775  1.00  0.00     0.029 A 
ATOM     76  C   UNL A   1      49.721  34.570  25.768  1.00  0.00     0.049 A 
ATOM     77  H   UNL A   1      49.095  32.580  26.081  1.00  0.00     0.167 HD
ATOM     78  C   UNL A   1      51.807  33.240  25.582  1.00  0.00     0.074 A 
ATOM     79  C   UNL A   1      53.232  33.105  25.362  1.00  0.00     0.031 C 
ATOM     80  C   UNL A   1      51.134  34.417  25.538  1.00  0.00     0.031 A 
BRANCH  67  81
ATOM     81  C   UNL A   1      45.050  33.874  26.509  1.00  0.00    -0.014 A 
ATOM     82  C   UNL A   1      44.293  34.117  25.352  1.00  0.00     0.009 A 
ATOM     83  C   UNL A   1      44.534  34.274  27.753  1.00  0.00     0.009 A 
ATOM     84  C   UNL A   1      43.072  34.792  25.435  1.00  0.00     0.001 A 
ATOM     85  C   UNL A   1      43.300  34.920  27.835  1.00  0.00     0.001 A 
ATOM     86  C   UNL A   1      42.577  35.191  26.676  1.00  0.00     0.000 A 
ENDBRANCH  67  81
BRANCH  68  87
ATOM     87  C   UNL A   1      53.684  28.926  25.781  1.00  0.00    -0.014 A 
ATOM     88  C   UNL A   1      54.051  28.440  24.519  1.00  0.00     0.009 A 
ATOM     89  C   UNL A   1      54.552  28.723  26.867  1.00  0.00     0.009 A 
ATOM     90  C   UNL A   1      55.260  27.759  24.348  1.00  0.00     0.001 A 
ATOM     91  C   UNL A   1      55.769  28.064  26.689  1.00  0.00     0.001 A 
ATOM     92  C   UNL A   1      56.121  27.579  25.431  1.00  0.00     0.000 A 
ENDBRANCH  68  87
BRANCH  80  93
ATOM     93  C   UNL A   1      51.939  35.657  25.264  1.00  0.00    -0.014 A 
ATOM     94  C   UNL A   1      52.514  36.399  26.309  1.00  0.00     0.009 A 
ATOM     95  C   UNL A   1      52.161  36.063  23.939  1.00  0.00     0.009 A 
ATOM     96  C   UNL A   1      53.270  37.539  26.030  1.00  0.00     0.001 A 
ATOM     97  C   UNL A   1      52.940  37.188  23.662  1.00  0.00     0.001 A 
ATOM     98  C   UNL A   1      53.486  37.930  24.708  1.00  0.00     0.000 A 
ENDBRANCH  80  93
ENDBRANCH  54  55
ENDBRANCH  47  49
ENDBRANCH  46  47
ENDBRANCH  45  46
ENDBRANCH  44  45
ENDBRANCH  43  44
ENDBRANCH  42  43
ENDBRANCH   1  42
TORSDOF 23
ENDMDL
MODEL 2
REMARK VINA RESULT:     -10.0      8.501     16.032
REMARK SMILES CC1CC[NH+]([C@H](c2ccc(F)cc2)c2ccc([C@@H](C)C(=O)OCCOCCOCCOC(=O)c3ccc(-c4c5nc(c(-c6ccccc6)c6ccc([nH]6)c(-c6ccccc6)c6nc(c(-c7ccccc7)c7ccc4[nH]7)C=C6)C=C5)cc3)cc2-c2ccc(C(F)(F)F)cc2)CC1
REMARK SMILES IDX 26 1 25 2 24 3 23 4 22 5 20 6 21 7 18 8 19 9 17 10 14 11
REMARK SMILES IDX 15 12 83 13 16 14 82 15 6 16 5 17 1 18 2 19 3 20 95 21 4 22
REMARK SMILES IDX 94 23 7 25 8 26 13 27 9 28 12 29 10 30 11 31 84 32 85 33
REMARK SMILES IDX 93 34 86 35 92 36 87 37 88 38 89 39 90 40 91 41 27 42 28 43
REMARK SMILES IDX 29 44 30 45 31 46 32 47 33 48 34 49 35 50 81 51 36 52 80 53
REMARK SMILES IDX 37 54 38 55 39 56 74 57 40 58 79 59 73 60 75 61 41 62 78 63
REMARK SMILES IDX 72 64 71 65 42 67 64 68 49 69 63 70 50 71 53 72 62 73 76 74
REMARK SMILES IDX 51 75 52 76 61 78 77 79 54 80 43 81 44 82 48 83 45 84 47 85
REMARK SMILES IDX 46 86 65 87 66 88 70 89 67 90 69 91 68 92 55 93 56 94 60 95
REMARK SMILES IDX 57 96 59 97 58 98
REMARK H PARENT 5 24 75 66 53 77
REMARK Flexibility Score: inf
ROOT
ATOM      1  C   UNL A   1      44.152  40.179  38.129  1.00  0.00     0.188 C 
ENDROOT
BRANCH   1   2
ATOM      2  O   UNL A   1      44.788  41.311  37.548  1.00  0.00    -0.376 OA
BRANCH   2   3
ATOM      3  C   UNL A   1      44.101  42.049  36.549  1.00  0.00     0.202 C 
BRANCH   3   4
ATOM      4  C   UNL A   1      44.738  42.085  35.157  1.00  0.00     0.261 C 
BRANCH   4   5
ATOM      5  O   UNL A   1      44.106  41.224  34.184  1.00  0.00    -0.463 OA
BRANCH   5   6
ATOM      6  C   UNL A   1      43.167  41.792  33.384  1.00  0.00     0.313 C 
ATOM      7  O   UNL A   1      41.999  41.411  33.340  1.00  0.00    -0.252 OA
BRANCH   6   8
ATOM      8  C   UNL A   1      43.655  42.925  32.475  1.00  0.00     0.126 C 
ATOM      9  C   UNL A   1      42.693  44.102  32.636  1.00  0.00     0.025 C 
BRANCH   8  10
ATOM     10  C   UNL A   1      43.952  42.666  30.999  1.00  0.00    -0.033 A 
ATOM     11  C   UNL A   1      44.511  42.106  28.214  1.00  0.00     0.022 A 
ATOM     12  C   UNL A   1      44.877  43.317  28.851  1.00  0.00     0.011 A 
ATOM     13  C   UNL A   1      43.866  41.134  29.026  1.00  0.00    -0.009 A 
ATOM     14  C   UNL A   1      44.646  43.576  30.209  1.00  0.00     0.005 A 
ATOM     15  C   UNL A   1      43.585  41.445  30.391  1.00  0.00     0.013 A 
BRANCH  11  16
ATOM     16  C   UNL A   1      44.905  41.818  26.728  1.00  0.00     0.247 C 
BRANCH  16  17
ATOM     17  N   UNL A   1      46.169  41.054  26.467  1.00  0.00    -0.325 N 
ATOM     18  C   UNL A   1      48.999  37.716  26.895  1.00  0.00     0.008 C 
ATOM     19  C   UNL A   1      47.838  38.700  26.969  1.00  0.00    -0.003 C 
ATOM     20  C   UNL A   1      47.152  38.872  25.614  1.00  0.00     0.065 C 
ATOM     21  C   UNL A   1      48.314  40.080  27.409  1.00  0.00     0.065 C 
ATOM     22  C   UNL A   1      45.950  39.815  25.714  1.00  0.00     0.263 C 
ATOM     23  C   UNL A   1      47.136  41.039  27.568  1.00  0.00     0.263 C 
ATOM     24  H   UNL A   1      46.707  41.611  25.803  1.00  0.00     0.348 HD
ENDBRANCH  16  17
BRANCH  16  25
ATOM     25  C   UNL A   1      44.796  43.016  25.762  1.00  0.00     0.014 A 
ATOM     26  C   UNL A   1      45.766  44.030  25.714  1.00  0.00     0.013 A 
ATOM     27  C   UNL A   1      43.730  43.082  24.841  1.00  0.00     0.013 A 
ATOM     28  C   UNL A   1      45.698  45.042  24.752  1.00  0.00     0.040 A 
ATOM     29  C   UNL A   1      43.634  44.129  23.919  1.00  0.00     0.040 A 
ATOM     30  C   UNL A   1      44.628  45.093  23.875  1.00  0.00     0.123 A 
ATOM     31  F   UNL A   1      44.559  46.080  22.971  1.00  0.00    -0.207 F 
ENDBRANCH  16  25
ENDBRANCH  11  16
BRANCH  13  32
ATOM     32  C   UNL A   1      43.450  39.806  28.524  1.00  0.00    -0.018 A 
ATOM     33  C   UNL A   1      44.195  38.666  28.852  1.00  0.00     0.009 A 
ATOM     34  C   UNL A   1      42.309  39.625  27.730  1.00  0.00     0.009 A 
ATOM     35  C   UNL A   1      43.819  37.388  28.436  1.00  0.00     0.014 A 
ATOM     36  C   UNL A   1      41.912  38.342  27.319  1.00  0.00     0.014 A 
ATOM     37  C   UNL A   1      42.657  37.209  27.680  1.00  0.00     0.056 A 
BRANCH  37  38
ATOM     38  C   UNL A   1      42.242  35.818  27.269  1.00  0.00     0.416 C 
ATOM     39  F   UNL A   1      42.506  35.562  25.958  1.00  0.00    -0.166 F 
ATOM     40  F   UNL A   1      42.889  34.846  27.975  1.00  0.00    -0.166 F 
ATOM     41  F   UNL A   1      40.913  35.575  27.440  1.00  0.00    -0.166 F 
ENDBRANCH  37  38
ENDBRANCH  13  32
ENDBRANCH   8  10
ENDBRANCH   6   8
ENDBRANCH   5   6
ENDBRANCH   4   5
ENDBRANCH   3   4
ENDBRANCH   2   3
ENDBRANCH   1   2
BRANCH   1  42
ATOM     42  C   UNL A   1      43.228  40.367  39.345  1.00  0.00     0.188 C 
BRANCH  42  43
ATOM     43  O   UNL A   1      43.069  39.214  40.154  1.00  0.00    -0.376 OA
BRANCH  43  44
ATOM     44  C   UNL A   1      42.186  38.237  39.628  1.00  0.00     0.202 C 
BRANCH  44  45
ATOM     45  C   UNL A   1      40.726  38.574  39.938  1.00  0.00     0.261 C 
BRANCH  45  46
ATOM     46  O   UNL A   1      39.790  37.864  39.099  1.00  0.00    -0.460 OA
BRANCH  46  47
ATOM     47  C   UNL A   1      39.703  36.539  39.304  1.00  0.00     0.338 C 
ATOM     48  O   UNL A   1      39.613  35.970  40.379  1.00  0.00    -0.246 OA
BRANCH  47  49
ATOM     49  C   UNL A   1      39.641  35.839  38.013  1.00  0.00     0.060 A 
ATOM     50  C   UNL A   1      38.886  34.664  37.893  1.00  0.00     0.016 A 
ATOM     51  C   UNL A   1      40.411  36.292  36.945  1.00  0.00     0.016 A 
ATOM     52  C   UNL A   1      38.943  33.904  36.726  1.00  0.00     0.010 A 
ATOM     53  C   UNL A   1      40.453  35.539  35.770  1.00  0.00     0.010 A 
ATOM     54  C   UNL A   1      39.751  34.324  35.667  1.00  0.00    -0.014 A 
BRANCH  54  55
ATOM     55  C   UNL A   1      39.976  33.453  34.489  1.00  0.00     0.031 A 
ATOM     56  C   UNL A   1      39.012  33.521  33.341  1.00  0.00     0.074 A 
ATOM     57  C   UNL A   1      40.998  32.581  34.462  1.00  0.00     0.049 A 
ATOM     58  N   UNL A   1      38.902  32.736  32.301  1.00  0.00    -0.248 NA
ATOM     59  C   UNL A   1      38.033  34.620  33.378  1.00  0.00     0.031 C 
ATOM     60  C   UNL A   1      42.032  32.454  35.487  1.00  0.00     0.029 A 
ATOM     61  N   UNL A   1      41.311  31.612  33.540  1.00  0.00    -0.354 N 
ATOM     62  C   UNL A   1      37.818  33.220  31.579  1.00  0.00     0.074 A 
ATOM     63  C   UNL A   1      37.301  34.360  32.305  1.00  0.00     0.031 C 
ATOM     64  C   UNL A   1      42.850  31.442  35.154  1.00  0.00     0.029 A 
ATOM     65  C   UNL A   1      42.365  30.822  33.922  1.00  0.00     0.049 A 
ATOM     66  H   UNL A   1      40.827  31.497  32.692  1.00  0.00     0.167 HD
ATOM     67  C   UNL A   1      37.295  32.750  30.422  1.00  0.00     0.031 A 
ATOM     68  C   UNL A   1      42.855  29.695  33.369  1.00  0.00     0.031 A 
ATOM     69  C   UNL A   1      37.806  31.609  29.709  1.00  0.00     0.049 A 
ATOM     70  C   UNL A   1      42.222  29.149  32.121  1.00  0.00     0.074 A 
ATOM     71  C   UNL A   1      37.364  31.066  28.516  1.00  0.00     0.029 A 
ATOM     72  N   UNL A   1      38.873  30.830  30.133  1.00  0.00    -0.354 N 
ATOM     73  N   UNL A   1      41.200  29.613  31.442  1.00  0.00    -0.248 NA
ATOM     74  C   UNL A   1      42.810  27.923  31.563  1.00  0.00     0.031 C 
ATOM     75  C   UNL A   1      38.127  29.923  28.248  1.00  0.00     0.029 A 
ATOM     76  C   UNL A   1      39.083  29.790  29.243  1.00  0.00     0.049 A 
ATOM     77  H   UNL A   1      39.401  30.992  30.948  1.00  0.00     0.167 HD
ATOM     78  C   UNL A   1      41.034  28.748  30.367  1.00  0.00     0.074 A 
ATOM     79  C   UNL A   1      42.069  27.741  30.478  1.00  0.00     0.031 C 
ATOM     80  C   UNL A   1      40.109  28.789  29.375  1.00  0.00     0.031 A 
BRANCH  67  81
ATOM     81  C   UNL A   1      36.066  33.440  29.898  1.00  0.00    -0.014 A 
ATOM     82  C   UNL A   1      36.042  34.046  28.632  1.00  0.00     0.009 A 
ATOM     83  C   UNL A   1      34.912  33.495  30.698  1.00  0.00     0.009 A 
ATOM     84  C   UNL A   1      34.906  34.735  28.199  1.00  0.00     0.001 A 
ATOM     85  C   UNL A   1      33.769  34.159  30.250  1.00  0.00     0.001 A 
ATOM     86  C   UNL A   1      33.771  34.790  29.008  1.00  0.00     0.000 A 
ENDBRANCH  67  81
BRANCH  68  87
ATOM     87  C   UNL A   1      43.984  28.991  34.029  1.00  0.00    -0.014 A 
ATOM     88  C   UNL A   1      43.745  27.982  34.973  1.00  0.00     0.009 A 
ATOM     89  C   UNL A   1      45.310  29.306  33.692  1.00  0.00     0.009 A 
ATOM     90  C   UNL A   1      44.813  27.306  35.569  1.00  0.00     0.001 A 
ATOM     91  C   UNL A   1      46.374  28.612  34.271  1.00  0.00     0.001 A 
ATOM     92  C   UNL A   1      46.125  27.616  35.212  1.00  0.00     0.000 A 
ENDBRANCH  68  87
BRANCH  80  93
ATOM     93  C   UNL A   1      40.192  27.725  28.316  1.00  0.00    -0.014 A 
ATOM     94  C   UNL A   1      40.964  27.909  27.157  1.00  0.00     0.009 A 
ATOM     95  C   UNL A   1      39.523  26.505  28.501  1.00  0.00     0.009 A 
ATOM     96  C   UNL A   1      41.038  26.901  26.193  1.00  0.00     0.001 A 
ATOM     97  C   UNL A   1      39.621  25.490  27.549  1.00  0.00     0.001 A 
ATOM     98  C   UNL A   1      40.372  25.692  26.392  1.00  0.00     0.000 A 
ENDBRANCH  80  93
ENDBRANCH  54  55
ENDBRANCH  47  49
ENDBRANCH  46  47
ENDBRANCH  45  46
ENDBRANCH  44  45
ENDBRANCH  43  44
ENDBRANCH  42  43
ENDBRANCH   1  42
TORSDOF 23
ENDMDL
MODEL 3
REMARK VINA RESULT:      -9.7      7.456     16.137
REMARK SMILES CC1CC[NH+]([C@H](c2ccc(F)cc2)c2ccc([C@@H](C)C(=O)OCCOCCOCCOC(=O)c3ccc(-c4c5nc(c(-c6ccccc6)c6ccc([nH]6)c(-c6ccccc6)c6nc(c(-c7ccccc7)c7ccc4[nH]7)C=C6)C=C5)cc3)cc2-c2ccc(C(F)(F)F)cc2)CC1
REMARK SMILES IDX 26 1 25 2 24 3 23 4 22 5 20 6 21 7 18 8 19 9 17 10 14 11
REMARK SMILES IDX 15 12 83 13 16 14 82 15 6 16 5 17 1 18 2 19 3 20 95 21 4 22
REMARK SMILES IDX 94 23 7 25 8 26 13 27 9 28 12 29 10 30 11 31 84 32 85 33
REMARK SMILES IDX 93 34 86 35 92 36 87 37 88 38 89 39 90 40 91 41 27 42 28 43
REMARK SMILES IDX 29 44 30 45 31 46 32 47 33 48 34 49 35 50 81 51 36 52 80 53
REMARK SMILES IDX 37 54 38 55 39 56 74 57 40 58 79 59 73 60 75 61 41 62 78 63
REMARK SMILES IDX 72 64 71 65 42 67 64 68 49 69 63 70 50 71 53 72 62 73 76 74
REMARK SMILES IDX 51 75 52 76 61 78 77 79 54 80 43 81 44 82 48 83 45 84 47 85
REMARK SMILES IDX 46 86 65 87 66 88 70 89 67 90 69 91 68 92 55 93 56 94 60 95
REMARK SMILES IDX 57 96 59 97 58 98
REMARK H PARENT 5 24 75 66 53 77
REMARK Flexibility Score: inf
ROOT
ATOM      1  C   UNL A   1      44.776  43.057  29.270  1.00  0.00     0.188 C 
ENDROOT
BRANCH   1   2
ATOM      2  O   UNL A   1      45.853  43.535  28.473  1.00  0.00    -0.376 OA
BRANCH   2   3
ATOM      3  C   UNL A   1      45.631  44.635  27.604  1.00  0.00     0.202 C 
BRANCH   3   4
ATOM      4  C   UNL A   1      45.517  44.322  26.109  1.00  0.00     0.261 C 
BRANCH   4   5
ATOM      5  O   UNL A   1      44.580  43.272  25.784  1.00  0.00    -0.463 OA
BRANCH   5   6
ATOM      6  C   UNL A   1      44.993  42.340  24.887  1.00  0.00     0.313 C 
ATOM      7  O   UNL A   1      44.246  41.821  24.060  1.00  0.00    -0.252 OA
BRANCH   6   8
ATOM      8  C   UNL A   1      46.462  41.914  24.991  1.00  0.00     0.126 C 
ATOM      9  C   UNL A   1      46.948  41.563  23.584  1.00  0.00     0.025 C 
BRANCH   8  10
ATOM     10  C   UNL A   1      46.894  40.848  25.995  1.00  0.00    -0.033 A 
ATOM     11  C   UNL A   1      47.656  38.791  27.885  1.00  0.00     0.022 A 
ATOM     12  C   UNL A   1      48.144  40.118  27.944  1.00  0.00     0.011 A 
ATOM     13  C   UNL A   1      46.726  38.505  26.848  1.00  0.00    -0.009 A 
ATOM     14  C   UNL A   1      47.747  41.129  27.057  1.00  0.00     0.005 A 
ATOM     15  C   UNL A   1      46.384  39.533  25.918  1.00  0.00     0.013 A 
BRANCH  11  16
ATOM     16  C   UNL A   1      48.035  37.735  28.974  1.00  0.00     0.247 C 
BRANCH  16  17
ATOM     17  N   UNL A   1      48.208  38.209  30.388  1.00  0.00    -0.325 N 
ATOM     18  C   UNL A   1      49.573  37.965  34.560  1.00  0.00     0.008 C 
ATOM     19  C   UNL A   1      49.240  37.748  33.089  1.00  0.00    -0.003 C 
ATOM     20  C   UNL A   1      49.886  38.808  32.198  1.00  0.00     0.065 C 
ATOM     21  C   UNL A   1      47.737  37.814  32.849  1.00  0.00     0.065 C 
ATOM     22  C   UNL A   1      49.596  38.544  30.718  1.00  0.00     0.263 C 
ATOM     23  C   UNL A   1      47.402  37.508  31.391  1.00  0.00     0.263 C 
ATOM     24  H   UNL A   1      47.753  39.120  30.440  1.00  0.00     0.348 HD
ENDBRANCH  16  17
BRANCH  16  25
ATOM     25  C   UNL A   1      49.168  36.759  28.596  1.00  0.00     0.014 A 
ATOM     26  C   UNL A   1      49.188  35.428  29.040  1.00  0.00     0.013 A 
ATOM     27  C   UNL A   1      50.193  37.176  27.722  1.00  0.00     0.013 A 
ATOM     28  C   UNL A   1      50.167  34.536  28.589  1.00  0.00     0.040 A 
ATOM     29  C   UNL A   1      51.204  36.298  27.320  1.00  0.00     0.040 A 
ATOM     30  C   UNL A   1      51.174  34.981  27.749  1.00  0.00     0.123 A 
ATOM     31  F   UNL A   1      52.121  34.125  27.340  1.00  0.00    -0.207 F 
ENDBRANCH  16  25
ENDBRANCH  11  16
BRANCH  13  32
ATOM     32  C   UNL A   1      46.097  37.178  26.667  1.00  0.00    -0.018 A 
ATOM     33  C   UNL A   1      46.793  36.154  26.011  1.00  0.00     0.009 A 
ATOM     34  C   UNL A   1      44.813  36.882  27.146  1.00  0.00     0.009 A 
ATOM     35  C   UNL A   1      46.257  34.875  25.853  1.00  0.00     0.014 A 
ATOM     36  C   UNL A   1      44.271  35.593  27.006  1.00  0.00     0.014 A 
ATOM     37  C   UNL A   1      44.994  34.574  26.369  1.00  0.00     0.056 A 
BRANCH  37  38
ATOM     38  C   UNL A   1      44.443  33.176  26.223  1.00  0.00     0.416 C 
ATOM     39  F   UNL A   1      43.547  33.074  25.203  1.00  0.00    -0.166 F 
ATOM     40  F   UNL A   1      45.413  32.254  25.960  1.00  0.00    -0.166 F 
ATOM     41  F   UNL A   1      43.800  32.728  27.336  1.00  0.00    -0.166 F 
ENDBRANCH  37  38
ENDBRANCH  13  32
ENDBRANCH   8  10
ENDBRANCH   6   8
ENDBRANCH   5   6
ENDBRANCH   4   5
ENDBRANCH   3   4
ENDBRANCH   2   3
ENDBRANCH   1   2
BRANCH   1  42
ATOM     42  C   UNL A   1      44.013  41.794  28.837  1.00  0.00     0.188 C 
BRANCH  42  43
ATOM     43  O   UNL A   1      43.424  41.062  29.899  1.00  0.00    -0.376 OA
BRANCH  43  44
ATOM     44  C   UNL A   1      42.489  41.791  30.676  1.00  0.00     0.202 C 
BRANCH  44  45
ATOM     45  C   UNL A   1      42.813  41.712  32.168  1.00  0.00     0.261 C 
BRANCH  45  46
ATOM     46  O   UNL A   1      42.769  40.366  32.688  1.00  0.00    -0.460 OA
BRANCH  46  47
ATOM     47  C   UNL A   1      43.953  39.823  33.018  1.00  0.00     0.338 C 
ATOM     48  O   UNL A   1      44.847  40.353  33.657  1.00  0.00    -0.246 OA
BRANCH  47  49
ATOM     49  C   UNL A   1      44.001  38.424  32.570  1.00  0.00     0.060 A 
ATOM     50  C   UNL A   1      43.889  38.126  31.205  1.00  0.00     0.016 A 
ATOM     51  C   UNL A   1      44.057  37.400  33.511  1.00  0.00     0.016 A 
ATOM     52  C   UNL A   1      43.774  36.804  30.778  1.00  0.00     0.010 A 
ATOM     53  C   UNL A   1      43.959  36.076  33.081  1.00  0.00     0.010 A 
ATOM     54  C   UNL A   1      43.779  35.771  31.719  1.00  0.00    -0.014 A 
BRANCH  54  55
ATOM     55  C   UNL A   1      43.477  34.377  31.319  1.00  0.00     0.031 A 
ATOM     56  C   UNL A   1      44.570  33.540  30.720  1.00  0.00     0.074 A 
ATOM     57  C   UNL A   1      42.236  33.876  31.447  1.00  0.00     0.049 A 
ATOM     58  N   UNL A   1      44.497  32.373  30.135  1.00  0.00    -0.248 NA
ATOM     59  C   UNL A   1      45.928  34.105  30.781  1.00  0.00     0.031 C 
ATOM     60  C   UNL A   1      41.103  34.566  32.061  1.00  0.00     0.029 A 
ATOM     61  N   UNL A   1      41.721  32.673  31.032  1.00  0.00    -0.354 N 
ATOM     62  C   UNL A   1      45.790  32.079  29.722  1.00  0.00     0.074 A 
ATOM     63  C   UNL A   1      46.625  33.194  30.117  1.00  0.00     0.031 C 
ATOM     64  C   UNL A   1      40.014  33.786  31.955  1.00  0.00     0.029 A 
ATOM     65  C   UNL A   1      40.366  32.570  31.224  1.00  0.00     0.049 A 
ATOM     66  H   UNL A   1      42.268  31.957  30.638  1.00  0.00     0.167 HD
ATOM     67  C   UNL A   1      46.240  30.984  29.065  1.00  0.00     0.031 A 
ATOM     68  C   UNL A   1      39.497  31.627  30.813  1.00  0.00     0.031 A 
ATOM     69  C   UNL A   1      45.404  29.882  28.665  1.00  0.00     0.049 A 
ATOM     70  C   UNL A   1      40.001  30.449  30.027  1.00  0.00     0.074 A 
ATOM     71  C   UNL A   1      45.765  28.715  28.016  1.00  0.00     0.029 A 
ATOM     72  N   UNL A   1      44.034  29.820  28.872  1.00  0.00    -0.354 N 
ATOM     73  N   UNL A   1      41.225  30.176  29.643  1.00  0.00    -0.248 NA
ATOM     74  C   UNL A   1      39.003  29.451  29.617  1.00  0.00     0.031 C 
ATOM     75  C   UNL A   1      44.603  27.972  27.779  1.00  0.00     0.029 A 
ATOM     76  C   UNL A   1      43.528  28.648  28.333  1.00  0.00     0.049 A 
ATOM     77  H   UNL A   1      43.500  30.507  29.332  1.00  0.00     0.167 HD
ATOM     78  C   UNL A   1      41.149  28.966  28.964  1.00  0.00     0.074 A 
ATOM     79  C   UNL A   1      39.761  28.553  29.001  1.00  0.00     0.031 C 
ATOM     80  C   UNL A   1      42.142  28.259  28.367  1.00  0.00     0.031 A 
BRANCH  67  81
ATOM     81  C   UNL A   1      47.694  30.965  28.684  1.00  0.00    -0.014 A 
ATOM     82  C   UNL A   1      48.685  30.516  29.572  1.00  0.00     0.009 A 
ATOM     83  C   UNL A   1      48.080  31.421  27.413  1.00  0.00     0.009 A 
ATOM     84  C   UNL A   1      50.034  30.572  29.214  1.00  0.00     0.001 A 
ATOM     85  C   UNL A   1      49.427  31.446  27.046  1.00  0.00     0.001 A 
ATOM     86  C   UNL A   1      50.403  31.035  27.951  1.00  0.00     0.000 A 
ENDBRANCH  67  81
BRANCH  68  87
ATOM     87  C   UNL A   1      38.050  31.791  31.106  1.00  0.00    -0.014 A 
ATOM     88  C   UNL A   1      37.521  31.396  32.343  1.00  0.00     0.009 A 
ATOM     89  C   UNL A   1      37.196  32.375  30.157  1.00  0.00     0.009 A 
ATOM     90  C   UNL A   1      36.164  31.578  32.621  1.00  0.00     0.001 A 
ATOM     91  C   UNL A   1      35.846  32.579  30.446  1.00  0.00     0.001 A 
ATOM     92  C   UNL A   1      35.330  32.176  31.675  1.00  0.00     0.000 A 
ENDBRANCH  68  87
BRANCH  80  93
ATOM     93  C   UNL A   1      41.764  26.952  27.728  1.00  0.00    -0.014 A 
ATOM     94  C   UNL A   1      41.732  25.760  28.469  1.00  0.00     0.009 A 
ATOM     95  C   UNL A   1      41.394  26.921  26.374  1.00  0.00     0.009 A 
ATOM     96  C   UNL A   1      41.363  24.560  27.857  1.00  0.00     0.001 A 
ATOM     97  C   UNL A   1      41.000  25.725  25.773  1.00  0.00     0.001 A 
ATOM     98  C   UNL A   1      40.994  24.544  26.512  1.00  0.00     0.000 A 
ENDBRANCH  80  93
ENDBRANCH  54  55
ENDBRANCH  47  49
ENDBRANCH  46  47
ENDBRANCH  45  46
ENDBRANCH  44  45
ENDBRANCH  43  44
ENDBRANCH  42  43
ENDBRANCH   1  42
TORSDOF 23
ENDMDL
