MODEL 1
REMARK VINA RESULT:     -10.4      0.000      0.000
REMARK SMILES O=C(OCCOCCOCCOC(=O)c1ccc(NC(=O)c2ccc([N+](=O)[O-])cc2Cl)cc1Cl)c1ccc(-c2c3nc(c(-c4ccccc4)c4ccc([nH]4)c(-c4ccccc4)c4nc(c(-c5ccccc5)c5ccc2[nH]5)C=C4)C=C3)cc1
REMARK SMILES IDX 8 1 7 2 6 3 5 4 4 5 3 6 2 7 1 8 35 9 36 10 82 11 37 12 81 13
REMARK SMILES IDX 38 14 39 15 40 16 75 17 41 18 80 19 74 20 76 21 42 22 79 23
REMARK SMILES IDX 73 24 72 25 43 27 65 28 50 29 64 30 51 31 54 32 63 33 77 34
REMARK SMILES IDX 52 35 53 36 62 38 78 39 55 40 44 41 45 42 49 43 46 44 48 45
REMARK SMILES IDX 47 46 66 47 67 48 71 49 68 50 70 51 69 52 56 53 57 54 61 55
REMARK SMILES IDX 58 56 60 57 59 58 9 59 10 60 11 61 12 62 13 63 14 64 15 65
REMARK SMILES IDX 16 66 33 67 17 68 32 69 34 70 18 71 19 72 20 73 21 75 22 76
REMARK SMILES IDX 23 77 30 78 24 79 29 80 31 81 25 82 26 83 27 84 28 85
REMARK H PARENT 76 26 54 37 19 74
REMARK Flexibility Score: inf
ROOT
ATOM      1  C   UNL A   1      33.292  36.998  30.862  1.00  0.00     0.188 C 
ENDROOT
BRANCH   1   2
ATOM      2  C   UNL A   1      32.776  36.167  32.039  1.00  0.00     0.188 C 
BRANCH   2   3
ATOM      3  O   UNL A   1      33.857  35.447  32.648  1.00  0.00    -0.376 OA
BRANCH   3   4
ATOM      4  C   UNL A   1      33.476  34.173  33.173  1.00  0.00     0.202 C 
BRANCH   4   5
ATOM      5  C   UNL A   1      34.533  33.078  32.982  1.00  0.00     0.261 C 
BRANCH   5   6
ATOM      6  O   UNL A   1      35.822  33.492  33.467  1.00  0.00    -0.460 OA
BRANCH   6   7
ATOM      7  C   UNL A   1      36.861  32.705  33.842  1.00  0.00     0.338 C 
ATOM      8  O   UNL A   1      36.993  32.420  35.032  1.00  0.00    -0.246 OA
BRANCH   7   9
ATOM      9  C   UNL A   1      37.834  32.110  32.879  1.00  0.00     0.060 A 
ATOM     10  C   UNL A   1      38.760  31.117  33.195  1.00  0.00     0.016 A 
ATOM     11  C   UNL A   1      37.759  32.539  31.541  1.00  0.00     0.016 A 
ATOM     12  C   UNL A   1      39.674  30.660  32.253  1.00  0.00     0.010 A 
ATOM     13  C   UNL A   1      38.628  32.028  30.571  1.00  0.00     0.010 A 
ATOM     14  C   UNL A   1      39.617  31.107  30.931  1.00  0.00    -0.014 A 
BRANCH  14  15
ATOM     15  C   UNL A   1      40.660  30.637  29.990  1.00  0.00     0.031 A 
ATOM     16  C   UNL A   1      41.917  31.440  29.826  1.00  0.00     0.074 A 
ATOM     17  C   UNL A   1      40.548  29.419  29.426  1.00  0.00     0.049 A 
ATOM     18  N   UNL A   1      43.002  31.145  29.158  1.00  0.00    -0.248 NA
ATOM     19  C   UNL A   1      41.974  32.736  30.523  1.00  0.00     0.031 C 
ATOM     20  C   UNL A   1      39.403  28.519  29.584  1.00  0.00     0.029 A 
ATOM     21  N   UNL A   1      41.431  28.702  28.660  1.00  0.00    -0.354 N 
ATOM     22  C   UNL A   1      43.867  32.213  29.356  1.00  0.00     0.074 A 
ATOM     23  C   UNL A   1      43.174  33.178  30.181  1.00  0.00     0.031 C 
ATOM     24  C   UNL A   1      39.684  27.348  28.991  1.00  0.00     0.029 A 
ATOM     25  C   UNL A   1      40.996  27.434  28.362  1.00  0.00     0.049 A 
ATOM     26  H   UNL A   1      42.296  29.062  28.353  1.00  0.00     0.167 HD
ATOM     27  C   UNL A   1      45.131  32.375  28.901  1.00  0.00     0.031 A 
ATOM     28  C   UNL A   1      41.584  26.448  27.661  1.00  0.00     0.031 A 
ATOM     29  C   UNL A   1      45.811  31.429  28.063  1.00  0.00     0.049 A 
ATOM     30  C   UNL A   1      42.956  26.685  27.102  1.00  0.00     0.074 A 
ATOM     31  C   UNL A   1      47.056  31.534  27.469  1.00  0.00     0.029 A 
ATOM     32  N   UNL A   1      45.296  30.193  27.703  1.00  0.00    -0.354 N 
ATOM     33  N   UNL A   1      43.738  27.726  27.255  1.00  0.00    -0.248 NA
ATOM     34  C   UNL A   1      43.526  25.615  26.271  1.00  0.00     0.031 C 
ATOM     35  C   UNL A   1      47.281  30.370  26.724  1.00  0.00     0.029 A 
ATOM     36  C   UNL A   1      46.192  29.527  26.888  1.00  0.00     0.049 A 
ATOM     37  H   UNL A   1      44.420  29.842  27.986  1.00  0.00     0.167 HD
ATOM     38  C   UNL A   1      44.891  27.440  26.538  1.00  0.00     0.074 A 
ATOM     39  C   UNL A   1      44.721  26.112  25.983  1.00  0.00     0.031 C 
ATOM     40  C   UNL A   1      45.988  28.211  26.342  1.00  0.00     0.031 A 
BRANCH  27  41
ATOM     41  C   UNL A   1      45.822  33.652  29.279  1.00  0.00    -0.014 A 
ATOM     42  C   UNL A   1      46.543  33.757  30.478  1.00  0.00     0.009 A 
ATOM     43  C   UNL A   1      45.716  34.775  28.445  1.00  0.00     0.009 A 
ATOM     44  C   UNL A   1      47.117  34.975  30.851  1.00  0.00     0.001 A 
ATOM     45  C   UNL A   1      46.307  35.985  28.812  1.00  0.00     0.001 A 
ATOM     46  C   UNL A   1      46.998  36.087  30.019  1.00  0.00     0.000 A 
ENDBRANCH  27  41
BRANCH  28  47
ATOM     47  C   UNL A   1      40.867  25.167  27.421  1.00  0.00    -0.014 A 
ATOM     48  C   UNL A   1      41.277  23.980  28.043  1.00  0.00     0.009 A 
ATOM     49  C   UNL A   1      39.765  25.129  26.549  1.00  0.00     0.009 A 
ATOM     50  C   UNL A   1      40.614  22.777  27.779  1.00  0.00     0.001 A 
ATOM     51  C   UNL A   1      39.087  23.933  26.310  1.00  0.00     0.001 A 
ATOM     52  C   UNL A   1      39.518  22.756  26.918  1.00  0.00     0.000 A 
ENDBRANCH  28  47
BRANCH  40  53
ATOM     53  C   UNL A   1      47.077  27.628  25.492  1.00  0.00    -0.014 A 
ATOM     54  C   UNL A   1      48.084  26.835  26.061  1.00  0.00     0.009 A 
ATOM     55  C   UNL A   1      47.080  27.854  24.109  1.00  0.00     0.009 A 
ATOM     56  C   UNL A   1      49.095  26.302  25.262  1.00  0.00     0.001 A 
ATOM     57  C   UNL A   1      48.080  27.302  23.308  1.00  0.00     0.001 A 
ATOM     58  C   UNL A   1      49.091  26.534  23.887  1.00  0.00     0.000 A 
ENDBRANCH  40  53
ENDBRANCH  14  15
ENDBRANCH   7   9
ENDBRANCH   6   7
ENDBRANCH   5   6
ENDBRANCH   4   5
ENDBRANCH   3   4
ENDBRANCH   2   3
ENDBRANCH   1   2
BRANCH   1  59
ATOM     59  O   UNL A   1      32.887  36.520  29.577  1.00  0.00    -0.376 OA
BRANCH  59  60
ATOM     60  C   UNL A   1      32.885  35.105  29.397  1.00  0.00     0.202 C 
BRANCH  60  61
ATOM     61  C   UNL A   1      33.938  34.561  28.425  1.00  0.00     0.261 C 
BRANCH  61  62
ATOM     62  O   UNL A   1      33.613  33.274  27.869  1.00  0.00    -0.460 OA
BRANCH  62  63
ATOM     63  C   UNL A   1      34.153  32.223  28.532  1.00  0.00     0.339 C 
ATOM     64  O   UNL A   1      34.613  32.202  29.660  1.00  0.00    -0.246 OA
BRANCH  63  65
ATOM     65  C   UNL A   1      34.081  31.008  27.712  1.00  0.00     0.078 A 
ATOM     66  C   UNL A   1      32.819  30.540  27.340  1.00  0.00     0.019 A 
ATOM     67  C   UNL A   1      35.208  30.224  27.479  1.00  0.00     0.057 A 
ATOM     68  C   UNL A   1      32.684  29.286  26.729  1.00  0.00     0.027 A 
ATOM     69  C   UNL A   1      35.063  28.968  26.875  1.00  0.00     0.047 A 
ATOM     70  Cl  UNL A   1      36.791  30.727  27.946  1.00  0.00    -0.083 Cl
ATOM     71  C   UNL A   1      33.803  28.487  26.488  1.00  0.00     0.043 A 
BRANCH  71  72
ATOM     72  N   UNL A   1      33.765  27.187  25.944  1.00  0.00    -0.322 N 
ATOM     73  C   UNL A   1      32.907  26.550  25.076  1.00  0.00     0.257 C 
ATOM     74  H   UNL A   1      34.507  26.616  26.247  1.00  0.00     0.170 HD
ATOM     75  O   UNL A   1      32.968  25.330  24.929  1.00  0.00    -0.269 OA
BRANCH  73  76
ATOM     76  C   UNL A   1      31.914  27.284  24.283  1.00  0.00     0.059 A 
ATOM     77  C   UNL A   1      30.559  26.994  24.506  1.00  0.00     0.022 A 
ATOM     78  C   UNL A   1      32.287  28.222  23.312  1.00  0.00     0.060 A 
ATOM     79  C   UNL A   1      29.575  27.702  23.815  1.00  0.00     0.086 A 
ATOM     80  C   UNL A   1      31.307  28.944  22.627  1.00  0.00     0.107 A 
ATOM     81  Cl  UNL A   1      33.938  28.510  22.909  1.00  0.00    -0.083 Cl
ATOM     82  C   UNL A   1      29.953  28.688  22.891  1.00  0.00     0.270 A 
BRANCH  82  83
ATOM     83  N   UNL A   1      28.919  29.463  22.192  1.00  0.00     0.062 N 
ATOM     84  O   UNL A   1      29.245  30.043  21.147  1.00  0.00    -0.258 OA
ATOM     85  O   UNL A   1      27.785  29.483  22.688  1.00  0.00    -0.258 OA
ENDBRANCH  82  83
ENDBRANCH  73  76
ENDBRANCH  71  72
ENDBRANCH  63  65
ENDBRANCH  62  63
ENDBRANCH  61  62
ENDBRANCH  60  61
ENDBRANCH  59  60
ENDBRANCH   1  59
TORSDOF 20
ENDMDL
MODEL 2
REMARK VINA RESULT:      -9.8      4.116      9.015
REMARK SMILES O=C(OCCOCCOCCOC(=O)c1ccc(NC(=O)c2ccc([N+](=O)[O-])cc2Cl)cc1Cl)c1ccc(-c2c3nc(c(-c4ccccc4)c4ccc([nH]4)c(-c4ccccc4)c4nc(c(-c5ccccc5)c5ccc2[nH]5)C=C4)C=C3)cc1
REMARK SMILES IDX 8 1 7 2 6 3 5 4 4 5 3 6 2 7 1 8 35 9 36 10 82 11 37 12 81 13
REMARK SMILES IDX 38 14 39 15 40 16 75 17 41 18 80 19 74 20 76 21 42 22 79 23
REMARK SMILES IDX 73 24 72 25 43 27 65 28 50 29 64 30 51 31 54 32 63 33 77 34
REMARK SMILES IDX 52 35 53 36 62 38 78 39 55 40 44 41 45 42 49 43 46 44 48 45
REMARK SMILES IDX 47 46 66 47 67 48 71 49 68 50 70 51 69 52 56 53 57 54 61 55
REMARK SMILES IDX 58 56 60 57 59 58 9 59 10 60 11 61 12 62 13 63 14 64 15 65
REMARK SMILES IDX 16 66 33 67 17 68 32 69 34 70 18 71 19 72 20 73 21 75 22 76
REMARK SMILES IDX 23 77 30 78 24 79 29 80 31 81 25 82 26 83 27 84 28 85
REMARK H PARENT 76 26 54 37 19 74
REMARK Flexibility Score: inf
ROOT
ATOM      1  C   UNL A   1      37.710  21.164  25.050  1.00  0.00     0.188 C 
ENDROOT
BRANCH   1   2
ATOM      2  C   UNL A   1      37.665  22.588  25.607  1.00  0.00     0.188 C 
BRANCH   2   3
ATOM      3  O   UNL A   1      38.831  22.845  26.403  1.00  0.00    -0.376 OA
BRANCH   3   4
ATOM      4  C   UNL A   1      39.763  21.760  26.422  1.00  0.00     0.202 C 
BRANCH   4   5
ATOM      5  C   UNL A   1      41.231  22.198  26.334  1.00  0.00     0.261 C 
BRANCH   5   6
ATOM      6  O   UNL A   1      41.660  22.865  27.532  1.00  0.00    -0.460 OA
BRANCH   6   7
ATOM      7  C   UNL A   1      41.605  24.192  27.811  1.00  0.00     0.338 C 
ATOM      8  O   UNL A   1      40.602  24.643  28.364  1.00  0.00    -0.246 OA
BRANCH   7   9
ATOM      9  C   UNL A   1      42.725  25.140  27.537  1.00  0.00     0.060 A 
ATOM     10  C   UNL A   1      43.569  25.675  28.509  1.00  0.00     0.016 A 
ATOM     11  C   UNL A   1      42.985  25.457  26.191  1.00  0.00     0.016 A 
ATOM     12  C   UNL A   1      44.552  26.601  28.176  1.00  0.00     0.010 A 
ATOM     13  C   UNL A   1      44.021  26.331  25.844  1.00  0.00     0.010 A 
ATOM     14  C   UNL A   1      44.791  26.937  26.842  1.00  0.00    -0.014 A 
BRANCH  14  15
ATOM     15  C   UNL A   1      45.803  27.979  26.556  1.00  0.00     0.031 A 
ATOM     16  C   UNL A   1      45.411  29.426  26.639  1.00  0.00     0.074 A 
ATOM     17  C   UNL A   1      47.093  27.629  26.393  1.00  0.00     0.049 A 
ATOM     18  N   UNL A   1      46.167  30.491  26.553  1.00  0.00    -0.248 NA
ATOM     19  C   UNL A   1      43.987  29.716  26.873  1.00  0.00     0.031 C 
ATOM     20  C   UNL A   1      47.598  26.253  26.377  1.00  0.00     0.029 A 
ATOM     21  N   UNL A   1      48.222  28.398  26.276  1.00  0.00    -0.354 N 
ATOM     22  C   UNL A   1      45.312  31.571  26.725  1.00  0.00     0.074 A 
ATOM     23  C   UNL A   1      43.977  31.039  26.890  1.00  0.00     0.031 C 
ATOM     24  C   UNL A   1      48.938  26.281  26.324  1.00  0.00     0.029 A 
ATOM     25  C   UNL A   1      49.384  27.666  26.241  1.00  0.00     0.049 A 
ATOM     26  H   UNL A   1      48.203  29.382  26.223  1.00  0.00     0.167 HD
ATOM     27  C   UNL A   1      45.611  32.891  26.753  1.00  0.00     0.031 A 
ATOM     28  C   UNL A   1      50.667  28.062  26.151  1.00  0.00     0.031 A 
ATOM     29  C   UNL A   1      46.931  33.420  26.565  1.00  0.00     0.049 A 
ATOM     30  C   UNL A   1      50.963  29.532  26.105  1.00  0.00     0.074 A 
ATOM     31  C   UNL A   1      47.333  34.741  26.483  1.00  0.00     0.029 A 
ATOM     32  N   UNL A   1      48.073  32.643  26.437  1.00  0.00    -0.354 N 
ATOM     33  N   UNL A   1      50.134  30.542  26.215  1.00  0.00    -0.248 NA
ATOM     34  C   UNL A   1      52.368  29.919  25.921  1.00  0.00     0.031 C 
ATOM     35  C   UNL A   1      48.717  34.762  26.273  1.00  0.00     0.029 A 
ATOM     36  C   UNL A   1      49.179  33.455  26.266  1.00  0.00     0.049 A 
ATOM     37  H   UNL A   1      48.092  31.659  26.462  1.00  0.00     0.167 HD
ATOM     38  C   UNL A   1      50.914  31.684  26.109  1.00  0.00     0.074 A 
ATOM     39  C   UNL A   1      52.287  31.241  25.967  1.00  0.00     0.031 C 
ATOM     40  C   UNL A   1      50.531  32.983  26.115  1.00  0.00     0.031 A 
BRANCH  27  41
ATOM     41  C   UNL A   1      44.461  33.835  26.952  1.00  0.00    -0.014 A 
ATOM     42  C   UNL A   1      43.791  34.400  25.856  1.00  0.00     0.009 A 
ATOM     43  C   UNL A   1      44.070  34.192  28.251  1.00  0.00     0.009 A 
ATOM     44  C   UNL A   1      42.773  35.335  26.059  1.00  0.00     0.001 A 
ATOM     45  C   UNL A   1      43.039  35.112  28.449  1.00  0.00     0.001 A 
ATOM     46  C   UNL A   1      42.398  35.689  27.354  1.00  0.00     0.000 A 
ENDBRANCH  27  41
BRANCH  28  47
ATOM     47  C   UNL A   1      51.759  27.055  26.064  1.00  0.00    -0.014 A 
ATOM     48  C   UNL A   1      52.121  26.485  24.836  1.00  0.00     0.009 A 
ATOM     49  C   UNL A   1      52.439  26.651  27.225  1.00  0.00     0.009 A 
ATOM     50  C   UNL A   1      53.126  25.513  24.775  1.00  0.00     0.001 A 
ATOM     51  C   UNL A   1      53.461  25.702  27.159  1.00  0.00     0.001 A 
ATOM     52  C   UNL A   1      53.797  25.127  25.934  1.00  0.00     0.000 A 
ENDBRANCH  28  47
BRANCH  40  53
ATOM     53  C   UNL A   1      51.617  34.005  25.959  1.00  0.00    -0.014 A 
ATOM     54  C   UNL A   1      52.290  34.512  27.081  1.00  0.00     0.009 A 
ATOM     55  C   UNL A   1      51.985  34.445  24.680  1.00  0.00     0.009 A 
ATOM     56  C   UNL A   1      53.294  35.467  26.925  1.00  0.00     0.001 A 
ATOM     57  C   UNL A   1      53.005  35.384  24.526  1.00  0.00     0.001 A 
ATOM     58  C   UNL A   1      53.652  35.899  25.649  1.00  0.00     0.000 A 
ENDBRANCH  40  53
ENDBRANCH  14  15
ENDBRANCH   7   9
ENDBRANCH   6   7
ENDBRANCH   5   6
ENDBRANCH   4   5
ENDBRANCH   3   4
ENDBRANCH   2   3
ENDBRANCH   1   2
BRANCH   1  59
ATOM     59  O   UNL A   1      36.468  20.459  25.128  1.00  0.00    -0.376 OA
BRANCH  59  60
ATOM     60  C   UNL A   1      35.286  21.225  24.908  1.00  0.00     0.202 C 
BRANCH  60  61
ATOM     61  C   UNL A   1      34.200  21.088  25.980  1.00  0.00     0.261 C 
BRANCH  61  62
ATOM     62  O   UNL A   1      33.126  22.038  25.851  1.00  0.00    -0.460 OA
BRANCH  62  63
ATOM     63  C   UNL A   1      32.423  21.938  24.697  1.00  0.00     0.339 C 
ATOM     64  O   UNL A   1      32.041  20.927  24.135  1.00  0.00    -0.246 OA
BRANCH  63  65
ATOM     65  C   UNL A   1      32.103  23.272  24.175  1.00  0.00     0.078 A 
ATOM     66  C   UNL A   1      30.987  23.931  24.695  1.00  0.00     0.019 A 
ATOM     67  C   UNL A   1      32.755  23.788  23.058  1.00  0.00     0.057 A 
ATOM     68  C   UNL A   1      30.523  25.111  24.098  1.00  0.00     0.027 A 
ATOM     69  C   UNL A   1      32.280  24.964  22.462  1.00  0.00     0.047 A 
ATOM     70  Cl  UNL A   1      34.117  23.005  22.344  1.00  0.00    -0.083 Cl
ATOM     71  C   UNL A   1      31.164  25.642  22.978  1.00  0.00     0.043 A 
BRANCH  71  72
ATOM     72  N   UNL A   1      30.737  26.782  22.268  1.00  0.00    -0.322 N 
ATOM     73  C   UNL A   1      30.781  28.132  22.531  1.00  0.00     0.257 C 
ATOM     74  H   UNL A   1      30.319  26.568  21.402  1.00  0.00     0.170 HD
ATOM     75  O   UNL A   1      30.133  28.919  21.843  1.00  0.00    -0.269 OA
BRANCH  73  76
ATOM     76  C   UNL A   1      31.608  28.689  23.608  1.00  0.00     0.059 A 
ATOM     77  C   UNL A   1      30.948  29.254  24.710  1.00  0.00     0.022 A 
ATOM     78  C   UNL A   1      33.008  28.693  23.543  1.00  0.00     0.060 A 
ATOM     79  C   UNL A   1      31.688  29.749  25.785  1.00  0.00     0.086 A 
ATOM     80  C   UNL A   1      33.754  29.175  24.621  1.00  0.00     0.107 A 
ATOM     81  Cl  UNL A   1      33.857  28.135  22.151  1.00  0.00    -0.083 Cl
ATOM     82  C   UNL A   1      33.089  29.690  25.744  1.00  0.00     0.270 A 
BRANCH  82  83
ATOM     83  N   UNL A   1      33.870  30.173  26.890  1.00  0.00     0.062 N 
ATOM     84  O   UNL A   1      35.009  29.711  27.044  1.00  0.00    -0.258 OA
ATOM     85  O   UNL A   1      33.344  31.017  27.627  1.00  0.00    -0.258 OA
ENDBRANCH  82  83
ENDBRANCH  73  76
ENDBRANCH  71  72
ENDBRANCH  63  65
ENDBRANCH  62  63
ENDBRANCH  61  62
ENDBRANCH  60  61
ENDBRANCH  59  60
ENDBRANCH   1  59
TORSDOF 20
ENDMDL
MODEL 3
REMARK VINA RESULT:      -9.7      4.467      8.717
REMARK SMILES O=C(OCCOCCOCCOC(=O)c1ccc(NC(=O)c2ccc([N+](=O)[O-])cc2Cl)cc1Cl)c1ccc(-c2c3nc(c(-c4ccccc4)c4ccc([nH]4)c(-c4ccccc4)c4nc(c(-c5ccccc5)c5ccc2[nH]5)C=C4)C=C3)cc1
REMARK SMILES IDX 8 1 7 2 6 3 5 4 4 5 3 6 2 7 1 8 35 9 36 10 82 11 37 12 81 13
REMARK SMILES IDX 38 14 39 15 40 16 75 17 41 18 80 19 74 20 76 21 42 22 79 23
REMARK SMILES IDX 73 24 72 25 43 27 65 28 50 29 64 30 51 31 54 32 63 33 77 34
REMARK SMILES IDX 52 35 53 36 62 38 78 39 55 40 44 41 45 42 49 43 46 44 48 45
REMARK SMILES IDX 47 46 66 47 67 48 71 49 68 50 70 51 69 52 56 53 57 54 61 55
REMARK SMILES IDX 58 56 60 57 59 58 9 59 10 60 11 61 12 62 13 63 14 64 15 65
REMARK SMILES IDX 16 66 33 67 17 68 32 69 34 70 18 71 19 72 20 73 21 75 22 76
REMARK SMILES IDX 23 77 30 78 24 79 29 80 31 81 25 82 26 83 27 84 28 85
REMARK H PARENT 76 26 54 37 19 74
REMARK Flexibility Score: inf
ROOT
ATOM      1  C   UNL A   1      34.974  33.392  28.003  1.00  0.00     0.188 C 
ENDROOT
BRANCH   1   2
ATOM      2  C   UNL A   1      33.896  34.260  28.656  1.00  0.00     0.188 C 
BRANCH   2   3
ATOM      3  O   UNL A   1      34.501  35.355  29.359  1.00  0.00    -0.376 OA
BRANCH   3   4
ATOM      4  C   UNL A   1      33.570  36.364  29.761  1.00  0.00     0.202 C 
BRANCH   4   5
ATOM      5  C   UNL A   1      32.222  35.812  30.243  1.00  0.00     0.261 C 
BRANCH   5   6
ATOM      6  O   UNL A   1      32.235  35.531  31.653  1.00  0.00    -0.460 OA
BRANCH   6   7
ATOM      7  C   UNL A   1      33.211  35.821  32.550  1.00  0.00     0.338 C 
ATOM      8  O   UNL A   1      33.130  36.861  33.202  1.00  0.00    -0.246 OA
BRANCH   7   9
ATOM      9  C   UNL A   1      34.362  34.914  32.838  1.00  0.00     0.060 A 
ATOM     10  C   UNL A   1      34.245  33.606  33.303  1.00  0.00     0.016 A 
ATOM     11  C   UNL A   1      35.651  35.400  32.552  1.00  0.00     0.016 A 
ATOM     12  C   UNL A   1      35.371  32.848  33.606  1.00  0.00     0.010 A 
ATOM     13  C   UNL A   1      36.784  34.613  32.784  1.00  0.00     0.010 A 
ATOM     14  C   UNL A   1      36.651  33.340  33.348  1.00  0.00    -0.014 A 
BRANCH  14  15
ATOM     15  C   UNL A   1      37.811  32.515  33.755  1.00  0.00     0.031 A 
ATOM     16  C   UNL A   1      38.383  31.522  32.785  1.00  0.00     0.074 A 
ATOM     17  C   UNL A   1      38.444  32.780  34.915  1.00  0.00     0.049 A 
ATOM     18  N   UNL A   1      39.466  30.796  32.891  1.00  0.00    -0.248 NA
ATOM     19  C   UNL A   1      37.656  31.336  31.519  1.00  0.00     0.031 C 
ATOM     20  C   UNL A   1      38.021  33.782  35.896  1.00  0.00     0.029 A 
ATOM     21  N   UNL A   1      39.609  32.277  35.435  1.00  0.00    -0.354 N 
ATOM     22  C   UNL A   1      39.550  30.073  31.709  1.00  0.00     0.074 A 
ATOM     23  C   UNL A   1      38.395  30.422  30.912  1.00  0.00     0.031 C 
ATOM     24  C   UNL A   1      38.949  33.865  36.862  1.00  0.00     0.029 A 
ATOM     25  C   UNL A   1      39.996  32.886  36.604  1.00  0.00     0.049 A 
ATOM     26  H   UNL A   1      40.120  31.550  35.010  1.00  0.00     0.167 HD
ATOM     27  C   UNL A   1      40.507  29.202  31.315  1.00  0.00     0.031 A 
ATOM     28  C   UNL A   1      41.072  32.679  37.385  1.00  0.00     0.031 A 
ATOM     29  C   UNL A   1      41.641  28.838  32.116  1.00  0.00     0.049 A 
ATOM     30  C   UNL A   1      42.079  31.651  36.961  1.00  0.00     0.074 A 
ATOM     31  C   UNL A   1      42.622  27.898  31.855  1.00  0.00     0.029 A 
ATOM     32  N   UNL A   1      41.947  29.409  33.342  1.00  0.00    -0.354 N 
ATOM     33  N   UNL A   1      42.113  30.936  35.863  1.00  0.00    -0.248 NA
ATOM     34  C   UNL A   1      43.194  31.397  37.885  1.00  0.00     0.031 C 
ATOM     35  C   UNL A   1      43.506  27.880  32.940  1.00  0.00     0.029 A 
ATOM     36  C   UNL A   1      43.096  28.836  33.857  1.00  0.00     0.049 A 
ATOM     37  H   UNL A   1      41.422  30.116  33.782  1.00  0.00     0.167 HD
ATOM     38  C   UNL A   1      43.248  30.144  35.963  1.00  0.00     0.074 A 
ATOM     39  C   UNL A   1      43.895  30.497  37.211  1.00  0.00     0.031 C 
ATOM     40  C   UNL A   1      43.708  29.200  35.107  1.00  0.00     0.031 A 
BRANCH  27  41
ATOM     41  C   UNL A   1      40.321  28.563  29.970  1.00  0.00    -0.014 A 
ATOM     42  C   UNL A   1      39.629  27.350  29.835  1.00  0.00     0.009 A 
ATOM     43  C   UNL A   1      40.878  29.163  28.831  1.00  0.00     0.009 A 
ATOM     44  C   UNL A   1      39.530  26.731  28.587  1.00  0.00     0.001 A 
ATOM     45  C   UNL A   1      40.760  28.551  27.582  1.00  0.00     0.001 A 
ATOM     46  C   UNL A   1      40.095  27.332  27.463  1.00  0.00     0.000 A 
ENDBRANCH  27  41
BRANCH  28  47
ATOM     47  C   UNL A   1      41.233  33.435  38.656  1.00  0.00    -0.014 A 
ATOM     48  C   UNL A   1      41.967  34.629  38.700  1.00  0.00     0.009 A 
ATOM     49  C   UNL A   1      40.656  32.951  39.841  1.00  0.00     0.009 A 
ATOM     50  C   UNL A   1      42.139  35.310  39.910  1.00  0.00     0.001 A 
ATOM     51  C   UNL A   1      40.804  33.646  41.043  1.00  0.00     0.001 A 
ATOM     52  C   UNL A   1      41.554  34.821  41.077  1.00  0.00     0.000 A 
ENDBRANCH  28  47
BRANCH  40  53
ATOM     53  C   UNL A   1      44.967  28.489  35.504  1.00  0.00    -0.014 A 
ATOM     54  C   UNL A   1      46.223  28.995  35.134  1.00  0.00     0.009 A 
ATOM     55  C   UNL A   1      44.897  27.320  36.274  1.00  0.00     0.009 A 
ATOM     56  C   UNL A   1      47.387  28.323  35.504  1.00  0.00     0.001 A 
ATOM     57  C   UNL A   1      46.065  26.662  36.660  1.00  0.00     0.001 A 
ATOM     58  C   UNL A   1      47.307  27.160  36.268  1.00  0.00     0.000 A 
ENDBRANCH  40  53
ENDBRANCH  14  15
ENDBRANCH   7   9
ENDBRANCH   6   7
ENDBRANCH   5   6
ENDBRANCH   4   5
ENDBRANCH   3   4
ENDBRANCH   2   3
ENDBRANCH   1   2
BRANCH   1  59
ATOM     59  O   UNL A   1      34.494  32.160  27.460  1.00  0.00    -0.376 OA
BRANCH  59  60
ATOM     60  C   UNL A   1      34.981  30.965  28.068  1.00  0.00     0.202 C 
BRANCH  60  61
ATOM     61  C   UNL A   1      34.332  29.664  27.581  1.00  0.00     0.261 C 
BRANCH  61  62
ATOM     62  O   UNL A   1      34.441  29.451  26.162  1.00  0.00    -0.460 OA
BRANCH  62  63
ATOM     63  C   UNL A   1      33.258  29.243  25.533  1.00  0.00     0.339 C 
ATOM     64  O   UNL A   1      32.375  30.052  25.307  1.00  0.00    -0.246 OA
BRANCH  63  65
ATOM     65  C   UNL A   1      33.159  27.853  25.075  1.00  0.00     0.078 A 
ATOM     66  C   UNL A   1      33.803  27.505  23.886  1.00  0.00     0.019 A 
ATOM     67  C   UNL A   1      32.288  26.951  25.682  1.00  0.00     0.057 A 
ATOM     68  C   UNL A   1      33.578  26.250  23.303  1.00  0.00     0.027 A 
ATOM     69  C   UNL A   1      32.063  25.702  25.088  1.00  0.00     0.047 A 
ATOM     70  Cl  UNL A   1      31.434  27.331  27.132  1.00  0.00    -0.083 Cl
ATOM     71  C   UNL A   1      32.708  25.334  23.898  1.00  0.00     0.043 A 
BRANCH  71  72
ATOM     72  N   UNL A   1      32.365  24.078  23.357  1.00  0.00    -0.322 N 
ATOM     73  C   UNL A   1      33.057  22.902  23.185  1.00  0.00     0.257 C 
ATOM     74  H   UNL A   1      31.435  24.033  23.036  1.00  0.00     0.170 HD
ATOM     75  O   UNL A   1      32.595  22.009  22.476  1.00  0.00    -0.269 OA
BRANCH  73  76
ATOM     76  C   UNL A   1      34.344  22.652  23.845  1.00  0.00     0.059 A 
ATOM     77  C   UNL A   1      35.512  22.973  23.138  1.00  0.00     0.022 A 
ATOM     78  C   UNL A   1      34.424  22.084  25.123  1.00  0.00     0.060 A 
ATOM     79  C   UNL A   1      36.760  22.803  23.741  1.00  0.00     0.086 A 
ATOM     80  C   UNL A   1      35.668  21.924  25.739  1.00  0.00     0.107 A 
ATOM     81  Cl  UNL A   1      33.023  21.548  25.972  1.00  0.00    -0.083 Cl
ATOM     82  C   UNL A   1      36.831  22.296  25.048  1.00  0.00     0.270 A 
BRANCH  82  83
ATOM     83  N   UNL A   1      38.139  22.154  25.701  1.00  0.00     0.062 N 
ATOM     84  O   UNL A   1      38.547  23.107  26.380  1.00  0.00    -0.258 OA
ATOM     85  O   UNL A   1      38.749  21.090  25.537  1.00  0.00    -0.258 OA
ENDBRANCH  82  83
ENDBRANCH  73  76
ENDBRANCH  71  72
ENDBRANCH  63  65
ENDBRANCH  62  63
ENDBRANCH  61  62
ENDBRANCH  60  61
ENDBRANCH  59  60
ENDBRANCH   1  59
TORSDOF 20
ENDMDL
