MODEL 1
REMARK VINA RESULT:      -9.7      0.000      0.000
REMARK SMILES N#Cc1ccc(C(=O)NC[C@H]2CC[C@H](C(=O)OCCOCCOCCOC(=O)c3ccc(-c4c5nc(c(-c6ccccc6)c6ccc([nH]6)c(-c6ccccc6)c6nc(c(-c7ccccc7)c7ccc4[nH]7)C=C6)C=C5)cc3)O2)cc1
REMARK SMILES IDX 21 1 20 2 19 3 18 4 17 5 15 6 16 7 14 8 11 9 12 10 77 11
REMARK SMILES IDX 13 12 10 13 9 14 7 15 8 16 6 18 3 19 4 20 79 21 5 22 78 23
REMARK SMILES IDX 2 24 1 25 22 26 23 27 24 28 25 29 26 30 27 31 28 32 29 33
REMARK SMILES IDX 30 34 76 35 31 36 75 37 32 38 33 39 34 40 69 41 35 42 74 43
REMARK SMILES IDX 68 44 70 45 36 46 73 47 67 48 66 49 37 51 59 52 44 53 58 54
REMARK SMILES IDX 45 55 48 56 57 57 71 58 46 59 47 60 56 62 72 63 49 64 38 65
REMARK SMILES IDX 39 66 43 67 40 68 42 69 41 70 60 71 61 72 65 73 62 74 64 75
REMARK SMILES IDX 63 76 50 77 51 78 55 79 52 80 54 81 53 82
REMARK H PARENT 9 17 70 50 48 61
REMARK Flexibility Score: inf
ROOT
ATOM      1  C   UNL A   1      40.045  22.104  26.515  1.00  0.00     0.188 C 
ENDROOT
BRANCH   1   2
ATOM      2  O   UNL A   1      39.014  21.331  25.932  1.00  0.00    -0.376 OA
BRANCH   2   3
ATOM      3  C   UNL A   1      37.859  22.000  25.430  1.00  0.00     0.202 C 
BRANCH   3   4
ATOM      4  C   UNL A   1      37.660  23.510  25.684  1.00  0.00     0.261 C 
BRANCH   4   5
ATOM      5  O   UNL A   1      36.448  23.852  26.390  1.00  0.00    -0.461 OA
BRANCH   5   6
ATOM      6  C   UNL A   1      35.327  23.188  26.013  1.00  0.00     0.335 C 
ATOM      7  O   UNL A   1      34.779  22.330  26.700  1.00  0.00    -0.249 OA
BRANCH   6   8
ATOM      8  C   UNL A   1      34.712  23.695  24.698  1.00  0.00     0.228 C 
ATOM      9  C   UNL A   1      32.553  22.974  24.109  1.00  0.00     0.138 C 
ATOM     10  C   UNL A   1      33.562  22.084  23.394  1.00  0.00     0.037 C 
ATOM     11  O   UNL A   1      33.311  23.879  24.934  1.00  0.00    -0.361 OA
ATOM     12  C   UNL A   1      34.817  22.907  23.405  1.00  0.00     0.047 C 
BRANCH   9  13
ATOM     13  C   UNL A   1      31.627  23.856  23.248  1.00  0.00     0.148 C 
BRANCH  13  14
ATOM     14  N   UNL A   1      32.272  24.429  22.081  1.00  0.00    -0.349 N 
ATOM     15  C   UNL A   1      32.663  25.705  21.776  1.00  0.00     0.251 C 
ATOM     16  O   UNL A   1      33.211  25.884  20.687  1.00  0.00    -0.269 OA
ATOM     17  H   UNL A   1      32.465  23.773  21.371  1.00  0.00     0.163 HD
BRANCH  15  18
ATOM     18  C   UNL A   1      32.503  26.863  22.705  1.00  0.00     0.039 A 
ATOM     19  C   UNL A   1      32.342  28.923  24.627  1.00  0.00     0.052 A 
ATOM     20  C   UNL A   1      33.516  28.178  24.495  1.00  0.00     0.020 A 
ATOM     21  C   UNL A   1      31.275  28.681  23.762  1.00  0.00     0.020 A 
ATOM     22  C   UNL A   1      33.591  27.154  23.544  1.00  0.00     0.015 A 
ATOM     23  C   UNL A   1      31.370  27.679  22.788  1.00  0.00     0.015 A 
BRANCH  19  24
ATOM     24  C   UNL A   1      32.227  29.930  25.644  1.00  0.00     0.099 C 
ATOM     25  N   UNL A   1      32.127  30.725  26.476  1.00  0.00    -0.192 NA
ENDBRANCH  19  24
ENDBRANCH  15  18
ENDBRANCH  13  14
ENDBRANCH   9  13
ENDBRANCH   6   8
ENDBRANCH   5   6
ENDBRANCH   4   5
ENDBRANCH   3   4
ENDBRANCH   2   3
ENDBRANCH   1   2
BRANCH   1  26
ATOM     26  C   UNL A   1      41.497  21.783  26.156  1.00  0.00     0.188 C 
BRANCH  26  27
ATOM     27  O   UNL A   1      42.046  20.627  26.732  1.00  0.00    -0.376 OA
BRANCH  27  28
ATOM     28  C   UNL A   1      42.022  19.383  26.047  1.00  0.00     0.202 C 
BRANCH  28  29
ATOM     29  C   UNL A   1      43.266  18.666  25.464  1.00  0.00     0.261 C 
BRANCH  29  30
ATOM     30  O   UNL A   1      43.835  19.134  24.231  1.00  0.00    -0.460 OA
BRANCH  30  31
ATOM     31  C   UNL A   1      45.113  19.597  24.270  1.00  0.00     0.338 C 
ATOM     32  O   UNL A   1      46.087  19.082  23.754  1.00  0.00    -0.246 OA
BRANCH  31  33
ATOM     33  C   UNL A   1      45.067  21.004  24.769  1.00  0.00     0.060 A 
ATOM     34  C   UNL A   1      44.649  22.019  23.889  1.00  0.00     0.016 A 
ATOM     35  C   UNL A   1      45.354  21.312  26.097  1.00  0.00     0.016 A 
ATOM     36  C   UNL A   1      44.530  23.340  24.332  1.00  0.00     0.010 A 
ATOM     37  C   UNL A   1      45.273  22.643  26.528  1.00  0.00     0.010 A 
ATOM     38  C   UNL A   1      44.883  23.669  25.645  1.00  0.00    -0.014 A 
BRANCH  38  39
ATOM     39  C   UNL A   1      45.006  25.093  26.060  1.00  0.00     0.031 A 
ATOM     40  C   UNL A   1      46.361  25.746  25.998  1.00  0.00     0.074 A 
ATOM     41  C   UNL A   1      43.945  25.804  26.485  1.00  0.00     0.049 A 
ATOM     42  N   UNL A   1      46.731  26.937  26.393  1.00  0.00    -0.248 NA
ATOM     43  C   UNL A   1      47.446  24.940  25.416  1.00  0.00     0.031 C 
ATOM     44  C   UNL A   1      42.566  25.324  26.540  1.00  0.00     0.029 A 
ATOM     45  N   UNL A   1      43.872  27.090  26.966  1.00  0.00    -0.354 N 
ATOM     46  C   UNL A   1      48.092  27.018  26.125  1.00  0.00     0.074 A 
ATOM     47  C   UNL A   1      48.487  25.746  25.559  1.00  0.00     0.031 C 
ATOM     48  C   UNL A   1      41.785  26.298  27.041  1.00  0.00     0.029 A 
ATOM     49  C   UNL A   1      42.615  27.453  27.385  1.00  0.00     0.049 A 
ATOM     50  H   UNL A   1      44.648  27.694  27.007  1.00  0.00     0.167 HD
ATOM     51  C   UNL A   1      48.939  28.054  26.330  1.00  0.00     0.031 A 
ATOM     52  C   UNL A   1      42.185  28.572  28.005  1.00  0.00     0.031 A 
ATOM     53  C   UNL A   1      48.554  29.314  26.911  1.00  0.00     0.049 A 
ATOM     54  C   UNL A   1      43.168  29.673  28.317  1.00  0.00     0.074 A 
ATOM     55  C   UNL A   1      49.340  30.430  27.144  1.00  0.00     0.029 A 
ATOM     56  N   UNL A   1      47.280  29.621  27.364  1.00  0.00    -0.354 N 
ATOM     57  N   UNL A   1      44.447  29.748  28.038  1.00  0.00    -0.248 NA
ATOM     58  C   UNL A   1      42.643  30.847  29.030  1.00  0.00     0.031 C 
ATOM     59  C   UNL A   1      48.561  31.382  27.810  1.00  0.00     0.029 A 
ATOM     60  C   UNL A   1      47.269  30.893  27.913  1.00  0.00     0.049 A 
ATOM     61  H   UNL A   1      46.500  29.024  27.303  1.00  0.00     0.167 HD
ATOM     62  C   UNL A   1      44.869  30.987  28.509  1.00  0.00     0.074 A 
ATOM     63  C   UNL A   1      43.706  31.638  29.074  1.00  0.00     0.031 C 
ATOM     64  C   UNL A   1      46.109  31.535  28.477  1.00  0.00     0.031 A 
BRANCH  51  65
ATOM     65  C   UNL A   1      50.386  27.853  25.966  1.00  0.00    -0.014 A 
ATOM     66  C   UNL A   1      51.311  27.332  26.886  1.00  0.00     0.009 A 
ATOM     67  C   UNL A   1      50.822  28.153  24.665  1.00  0.00     0.009 A 
ATOM     68  C   UNL A   1      52.648  27.154  26.521  1.00  0.00     0.001 A 
ATOM     69  C   UNL A   1      52.150  27.941  24.293  1.00  0.00     0.001 A 
ATOM     70  C   UNL A   1      53.064  27.453  25.224  1.00  0.00     0.000 A 
ENDBRANCH  51  65
BRANCH  52  71
ATOM     71  C   UNL A   1      40.758  28.705  28.411  1.00  0.00    -0.014 A 
ATOM     72  C   UNL A   1      40.325  28.269  29.673  1.00  0.00     0.009 A 
ATOM     73  C   UNL A   1      39.811  29.239  27.521  1.00  0.00     0.009 A 
ATOM     74  C   UNL A   1      38.974  28.335  30.022  1.00  0.00     0.001 A 
ATOM     75  C   UNL A   1      38.467  29.339  27.887  1.00  0.00     0.001 A 
ATOM     76  C   UNL A   1      38.048  28.876  29.132  1.00  0.00     0.000 A 
ENDBRANCH  52  71
BRANCH  64  77
ATOM     77  C   UNL A   1      46.270  32.929  29.029  1.00  0.00    -0.014 A 
ATOM     78  C   UNL A   1      46.643  33.154  30.364  1.00  0.00     0.009 A 
ATOM     79  C   UNL A   1      46.088  34.035  28.184  1.00  0.00     0.009 A 
ATOM     80  C   UNL A   1      46.788  34.456  30.848  1.00  0.00     0.001 A 
ATOM     81  C   UNL A   1      46.271  35.334  28.660  1.00  0.00     0.001 A 
ATOM     82  C   UNL A   1      46.608  35.544  29.995  1.00  0.00     0.000 A 
ENDBRANCH  64  77
ENDBRANCH  38  39
ENDBRANCH  31  33
ENDBRANCH  30  31
ENDBRANCH  29  30
ENDBRANCH  28  29
ENDBRANCH  27  28
ENDBRANCH  26  27
ENDBRANCH   1  26
TORSDOF 21
ENDMDL
MODEL 2
REMARK VINA RESULT:      -9.5      4.690      7.569
REMARK SMILES N#Cc1ccc(C(=O)NC[C@H]2CC[C@H](C(=O)OCCOCCOCCOC(=O)c3ccc(-c4c5nc(c(-c6ccccc6)c6ccc([nH]6)c(-c6ccccc6)c6nc(c(-c7ccccc7)c7ccc4[nH]7)C=C6)C=C5)cc3)O2)cc1
REMARK SMILES IDX 21 1 20 2 19 3 18 4 17 5 15 6 16 7 14 8 11 9 12 10 77 11
REMARK SMILES IDX 13 12 10 13 9 14 7 15 8 16 6 18 3 19 4 20 79 21 5 22 78 23
REMARK SMILES IDX 2 24 1 25 22 26 23 27 24 28 25 29 26 30 27 31 28 32 29 33
REMARK SMILES IDX 30 34 76 35 31 36 75 37 32 38 33 39 34 40 69 41 35 42 74 43
REMARK SMILES IDX 68 44 70 45 36 46 73 47 67 48 66 49 37 51 59 52 44 53 58 54
REMARK SMILES IDX 45 55 48 56 57 57 71 58 46 59 47 60 56 62 72 63 49 64 38 65
REMARK SMILES IDX 39 66 43 67 40 68 42 69 41 70 60 71 61 72 65 73 62 74 64 75
REMARK SMILES IDX 63 76 50 77 51 78 55 79 52 80 54 81 53 82
REMARK H PARENT 9 17 70 50 48 61
REMARK Flexibility Score: inf
ROOT
ATOM      1  C   UNL A   1      42.249  19.861  27.245  1.00  0.00     0.188 C 
ENDROOT
BRANCH   1   2
ATOM      2  O   UNL A   1      40.852  19.944  27.457  1.00  0.00    -0.376 OA
BRANCH   2   3
ATOM      3  C   UNL A   1      40.032  20.453  26.407  1.00  0.00     0.202 C 
BRANCH   3   4
ATOM      4  C   UNL A   1      39.843  21.976  26.233  1.00  0.00     0.261 C 
BRANCH   4   5
ATOM      5  O   UNL A   1      38.569  22.370  25.682  1.00  0.00    -0.461 OA
BRANCH   5   6
ATOM      6  C   UNL A   1      38.026  23.509  26.181  1.00  0.00     0.335 C 
ATOM      7  O   UNL A   1      38.686  24.490  26.511  1.00  0.00    -0.249 OA
BRANCH   6   8
ATOM      8  C   UNL A   1      36.489  23.523  26.178  1.00  0.00     0.228 C 
ATOM      9  C   UNL A   1      35.349  22.143  24.654  1.00  0.00     0.138 C 
ATOM     10  C   UNL A   1      35.448  23.538  24.049  1.00  0.00     0.037 C 
ATOM     11  O   UNL A   1      36.057  22.184  25.907  1.00  0.00    -0.361 OA
ATOM     12  C   UNL A   1      35.694  24.415  25.242  1.00  0.00     0.047 C 
BRANCH   9  13
ATOM     13  C   UNL A   1      33.946  21.591  24.975  1.00  0.00     0.148 C 
BRANCH  13  14
ATOM     14  N   UNL A   1      33.063  21.513  23.827  1.00  0.00    -0.349 N 
ATOM     15  C   UNL A   1      32.477  20.455  23.183  1.00  0.00     0.251 C 
ATOM     16  O   UNL A   1      31.749  20.710  22.223  1.00  0.00    -0.269 OA
ATOM     17  H   UNL A   1      32.842  22.389  23.434  1.00  0.00     0.163 HD
BRANCH  15  18
ATOM     18  C   UNL A   1      32.639  19.034  23.612  1.00  0.00     0.039 A 
ATOM     19  C   UNL A   1      33.009  16.437  24.651  1.00  0.00     0.052 A 
ATOM     20  C   UNL A   1      32.478  17.445  25.458  1.00  0.00     0.020 A 
ATOM     21  C   UNL A   1      33.297  16.708  23.314  1.00  0.00     0.020 A 
ATOM     22  C   UNL A   1      32.300  18.733  24.941  1.00  0.00     0.015 A 
ATOM     23  C   UNL A   1      33.083  17.990  22.792  1.00  0.00     0.015 A 
BRANCH  19  24
ATOM     24  C   UNL A   1      33.261  15.129  25.188  1.00  0.00     0.099 C 
ATOM     25  N   UNL A   1      33.474  14.085  25.636  1.00  0.00    -0.192 NA
ENDBRANCH  19  24
ENDBRANCH  15  18
ENDBRANCH  13  14
ENDBRANCH   9  13
ENDBRANCH   6   8
ENDBRANCH   5   6
ENDBRANCH   4   5
ENDBRANCH   3   4
ENDBRANCH   2   3
ENDBRANCH   1   2
BRANCH   1  26
ATOM     26  C   UNL A   1      42.762  19.145  25.995  1.00  0.00     0.188 C 
BRANCH  26  27
ATOM     27  O   UNL A   1      43.375  19.946  25.019  1.00  0.00    -0.376 OA
BRANCH  27  28
ATOM     28  C   UNL A   1      43.840  21.252  25.328  1.00  0.00     0.202 C 
BRANCH  28  29
ATOM     29  C   UNL A   1      43.951  22.419  24.315  1.00  0.00     0.261 C 
BRANCH  29  30
ATOM     30  O   UNL A   1      43.643  23.755  24.744  1.00  0.00    -0.460 OA
BRANCH  30  31
ATOM     31  C   UNL A   1      44.683  24.541  25.130  1.00  0.00     0.338 C 
ATOM     32  O   UNL A   1      45.718  24.726  24.518  1.00  0.00    -0.246 OA
BRANCH  31  33
ATOM     33  C   UNL A   1      44.208  25.391  26.262  1.00  0.00     0.060 A 
ATOM     34  C   UNL A   1      43.420  24.800  27.265  1.00  0.00     0.016 A 
ATOM     35  C   UNL A   1      44.595  26.725  26.379  1.00  0.00     0.016 A 
ATOM     36  C   UNL A   1      43.006  25.543  28.376  1.00  0.00     0.010 A 
ATOM     37  C   UNL A   1      44.146  27.478  27.472  1.00  0.00     0.010 A 
ATOM     38  C   UNL A   1      43.332  26.901  28.466  1.00  0.00    -0.014 A 
BRANCH  38  39
ATOM     39  C   UNL A   1      42.696  27.762  29.500  1.00  0.00     0.031 A 
ATOM     40  C   UNL A   1      43.381  27.912  30.832  1.00  0.00     0.074 A 
ATOM     41  C   UNL A   1      41.535  28.403  29.274  1.00  0.00     0.049 A 
ATOM     42  N   UNL A   1      42.975  28.529  31.913  1.00  0.00    -0.248 NA
ATOM     43  C   UNL A   1      44.702  27.275  30.962  1.00  0.00     0.031 C 
ATOM     44  C   UNL A   1      40.791  28.400  28.016  1.00  0.00     0.029 A 
ATOM     45  N   UNL A   1      40.769  29.177  30.115  1.00  0.00    -0.354 N 
ATOM     46  C   UNL A   1      43.979  28.338  32.855  1.00  0.00     0.074 A 
ATOM     47  C   UNL A   1      45.000  27.526  32.227  1.00  0.00     0.031 C 
ATOM     48  C   UNL A   1      39.669  29.125  28.172  1.00  0.00     0.029 A 
ATOM     49  C   UNL A   1      39.591  29.605  29.551  1.00  0.00     0.049 A 
ATOM     50  H   UNL A   1      41.039  29.403  31.034  1.00  0.00     0.167 HD
ATOM     51  C   UNL A   1      44.049  28.796  34.128  1.00  0.00     0.031 A 
ATOM     52  C   UNL A   1      38.553  30.277  30.092  1.00  0.00     0.031 A 
ATOM     53  C   UNL A   1      43.027  29.586  34.763  1.00  0.00     0.049 A 
ATOM     54  C   UNL A   1      38.607  30.687  31.543  1.00  0.00     0.074 A 
ATOM     55  C   UNL A   1      43.016  30.109  36.045  1.00  0.00     0.029 A 
ATOM     56  N   UNL A   1      41.829  29.957  34.170  1.00  0.00    -0.354 N 
ATOM     57  N   UNL A   1      39.571  30.522  32.417  1.00  0.00    -0.248 NA
ATOM     58  C   UNL A   1      37.427  31.380  32.080  1.00  0.00     0.031 C 
ATOM     59  C   UNL A   1      41.779  30.726  36.255  1.00  0.00     0.029 A 
ATOM     60  C   UNL A   1      41.055  30.665  35.075  1.00  0.00     0.049 A 
ATOM     61  H   UNL A   1      41.569  29.748  33.244  1.00  0.00     0.167 HD
ATOM     62  C   UNL A   1      39.127  31.119  33.592  1.00  0.00     0.074 A 
ATOM     63  C   UNL A   1      37.816  31.668  33.313  1.00  0.00     0.031 C 
ATOM     64  C   UNL A   1      39.749  31.205  34.794  1.00  0.00     0.031 A 
BRANCH  51  65
ATOM     65  C   UNL A   1      45.256  28.409  34.941  1.00  0.00    -0.014 A 
ATOM     66  C   UNL A   1      45.260  27.265  35.755  1.00  0.00     0.009 A 
ATOM     67  C   UNL A   1      46.424  29.185  34.858  1.00  0.00     0.009 A 
ATOM     68  C   UNL A   1      46.394  26.930  36.499  1.00  0.00     0.001 A 
ATOM     69  C   UNL A   1      47.567  28.828  35.574  1.00  0.00     0.001 A 
ATOM     70  C   UNL A   1      47.548  27.707  36.402  1.00  0.00     0.000 A 
ENDBRANCH  51  65
BRANCH  52  71
ATOM     71  C   UNL A   1      37.347  30.581  29.273  1.00  0.00    -0.014 A 
ATOM     72  C   UNL A   1      36.434  29.569  28.932  1.00  0.00     0.009 A 
ATOM     73  C   UNL A   1      37.119  31.881  28.795  1.00  0.00     0.009 A 
ATOM     74  C   UNL A   1      35.341  29.847  28.108  1.00  0.00     0.001 A 
ATOM     75  C   UNL A   1      36.004  32.164  28.003  1.00  0.00     0.001 A 
ATOM     76  C   UNL A   1      35.123  31.145  27.650  1.00  0.00     0.000 A 
ENDBRANCH  52  71
BRANCH  64  77
ATOM     77  C   UNL A   1      39.043  31.956  35.893  1.00  0.00    -0.014 A 
ATOM     78  C   UNL A   1      39.189  33.344  36.049  1.00  0.00     0.009 A 
ATOM     79  C   UNL A   1      38.181  31.266  36.761  1.00  0.00     0.009 A 
ATOM     80  C   UNL A   1      38.520  34.015  37.075  1.00  0.00     0.001 A 
ATOM     81  C   UNL A   1      37.483  31.945  37.762  1.00  0.00     0.001 A 
ATOM     82  C   UNL A   1      37.663  33.316  37.926  1.00  0.00     0.000 A 
ENDBRANCH  64  77
ENDBRANCH  38  39
ENDBRANCH  31  33
ENDBRANCH  30  31
ENDBRANCH  29  30
ENDBRANCH  28  29
ENDBRANCH  27  28
ENDBRANCH  26  27
ENDBRANCH   1  26
TORSDOF 21
ENDMDL
MODEL 3
REMARK VINA RESULT:      -9.3      2.640      4.704
REMARK SMILES N#Cc1ccc(C(=O)NC[C@H]2CC[C@H](C(=O)OCCOCCOCCOC(=O)c3ccc(-c4c5nc(c(-c6ccccc6)c6ccc([nH]6)c(-c6ccccc6)c6nc(c(-c7ccccc7)c7ccc4[nH]7)C=C6)C=C5)cc3)O2)cc1
REMARK SMILES IDX 21 1 20 2 19 3 18 4 17 5 15 6 16 7 14 8 11 9 12 10 77 11
REMARK SMILES IDX 13 12 10 13 9 14 7 15 8 16 6 18 3 19 4 20 79 21 5 22 78 23
REMARK SMILES IDX 2 24 1 25 22 26 23 27 24 28 25 29 26 30 27 31 28 32 29 33
REMARK SMILES IDX 30 34 76 35 31 36 75 37 32 38 33 39 34 40 69 41 35 42 74 43
REMARK SMILES IDX 68 44 70 45 36 46 73 47 67 48 66 49 37 51 59 52 44 53 58 54
REMARK SMILES IDX 45 55 48 56 57 57 71 58 46 59 47 60 56 62 72 63 49 64 38 65
REMARK SMILES IDX 39 66 43 67 40 68 42 69 41 70 60 71 61 72 65 73 62 74 64 75
REMARK SMILES IDX 63 76 50 77 51 78 55 79 52 80 54 81 53 82
REMARK H PARENT 9 17 70 50 48 61
REMARK Flexibility Score: inf
ROOT
ATOM      1  C   UNL A   1      36.837  23.470  24.578  1.00  0.00     0.188 C 
ENDROOT
BRANCH   1   2
ATOM      2  O   UNL A   1      35.424  23.540  24.555  1.00  0.00    -0.376 OA
BRANCH   2   3
ATOM      3  C   UNL A   1      34.724  23.613  25.796  1.00  0.00     0.202 C 
BRANCH   3   4
ATOM      4  C   UNL A   1      33.400  24.400  25.900  1.00  0.00     0.261 C 
BRANCH   4   5
ATOM      5  O   UNL A   1      33.552  25.828  26.039  1.00  0.00    -0.461 OA
BRANCH   5   6
ATOM      6  C   UNL A   1      33.255  26.572  24.944  1.00  0.00     0.335 C 
ATOM      7  O   UNL A   1      32.631  26.143  23.978  1.00  0.00    -0.249 OA
BRANCH   6   8
ATOM      8  C   UNL A   1      33.655  28.052  25.065  1.00  0.00     0.228 C 
ATOM      9  C   UNL A   1      33.121  29.207  27.042  1.00  0.00     0.138 C 
ATOM     10  C   UNL A   1      32.034  29.497  26.015  1.00  0.00     0.037 C 
ATOM     11  O   UNL A   1      34.031  28.274  26.430  1.00  0.00    -0.361 OA
ATOM     12  C   UNL A   1      32.699  29.175  24.708  1.00  0.00     0.047 C 
BRANCH   9  13
ATOM     13  C   UNL A   1      33.986  30.385  27.533  1.00  0.00     0.148 C 
BRANCH  13  14
ATOM     14  N   UNL A   1      33.299  31.663  27.535  1.00  0.00    -0.349 N 
ATOM     15  C   UNL A   1      33.605  32.875  28.096  1.00  0.00     0.251 C 
ATOM     16  O   UNL A   1      32.814  33.801  27.908  1.00  0.00    -0.269 OA
ATOM     17  H   UNL A   1      32.449  31.658  27.038  1.00  0.00     0.163 HD
BRANCH  15  18
ATOM     18  C   UNL A   1      34.854  33.135  28.871  1.00  0.00     0.039 A 
ATOM     19  C   UNL A   1      37.070  33.733  30.513  1.00  0.00     0.052 A 
ATOM     20  C   UNL A   1      35.854  33.355  31.087  1.00  0.00     0.020 A 
ATOM     21  C   UNL A   1      37.195  33.755  29.125  1.00  0.00     0.020 A 
ATOM     22  C   UNL A   1      34.756  33.063  30.270  1.00  0.00     0.015 A 
ATOM     23  C   UNL A   1      36.104  33.427  28.312  1.00  0.00     0.015 A 
BRANCH  19  24
ATOM     24  C   UNL A   1      38.184  34.102  31.341  1.00  0.00     0.099 C 
ATOM     25  N   UNL A   1      39.094  34.389  31.993  1.00  0.00    -0.192 NA
ENDBRANCH  19  24
ENDBRANCH  15  18
ENDBRANCH  13  14
ENDBRANCH   9  13
ENDBRANCH   6   8
ENDBRANCH   5   6
ENDBRANCH   4   5
ENDBRANCH   3   4
ENDBRANCH   2   3
ENDBRANCH   1   2
BRANCH   1  26
ATOM     26  C   UNL A   1      37.540  23.246  25.917  1.00  0.00     0.188 C 
BRANCH  26  27
ATOM     27  O   UNL A   1      38.480  22.203  25.967  1.00  0.00    -0.376 OA
BRANCH  27  28
ATOM     28  C   UNL A   1      38.207  20.942  25.374  1.00  0.00     0.202 C 
BRANCH  28  29
ATOM     29  C   UNL A   1      39.174  19.730  25.379  1.00  0.00     0.261 C 
BRANCH  29  30
ATOM     30  O   UNL A   1      40.042  19.528  26.506  1.00  0.00    -0.460 OA
BRANCH  30  31
ATOM     31  C   UNL A   1      41.382  19.590  26.279  1.00  0.00     0.338 C 
ATOM     32  O   UNL A   1      42.065  18.743  25.733  1.00  0.00    -0.246 OA
BRANCH  31  33
ATOM     33  C   UNL A   1      41.814  20.999  26.514  1.00  0.00     0.060 A 
ATOM     34  C   UNL A   1      42.092  21.409  27.830  1.00  0.00     0.016 A 
ATOM     35  C   UNL A   1      42.018  21.882  25.455  1.00  0.00     0.016 A 
ATOM     36  C   UNL A   1      42.560  22.702  28.090  1.00  0.00     0.010 A 
ATOM     37  C   UNL A   1      42.449  23.188  25.721  1.00  0.00     0.010 A 
ATOM     38  C   UNL A   1      42.702  23.615  27.039  1.00  0.00    -0.014 A 
BRANCH  38  39
ATOM     39  C   UNL A   1      42.952  25.055  27.320  1.00  0.00     0.031 A 
ATOM     40  C   UNL A   1      44.335  25.603  27.089  1.00  0.00     0.074 A 
ATOM     41  C   UNL A   1      41.982  25.870  27.772  1.00  0.00     0.049 A 
ATOM     42  N   UNL A   1      44.815  26.793  27.349  1.00  0.00    -0.248 NA
ATOM     43  C   UNL A   1      45.311  24.679  26.487  1.00  0.00     0.031 C 
ATOM     44  C   UNL A   1      40.585  25.495  27.983  1.00  0.00     0.029 A 
ATOM     45  N   UNL A   1      42.035  27.193  28.147  1.00  0.00    -0.354 N 
ATOM     46  C   UNL A   1      46.148  26.755  26.961  1.00  0.00     0.074 A 
ATOM     47  C   UNL A   1      46.409  25.418  26.473  1.00  0.00     0.031 C 
ATOM     48  C   UNL A   1      39.917  26.559  28.465  1.00  0.00     0.029 A 
ATOM     49  C   UNL A   1      40.846  27.675  28.638  1.00  0.00     0.049 A 
ATOM     50  H   UNL A   1      42.849  27.741  28.071  1.00  0.00     0.167 HD
ATOM     51  C   UNL A   1      47.075  27.742  27.005  1.00  0.00     0.031 A 
ATOM     52  C   UNL A   1      40.546  28.867  29.196  1.00  0.00     0.031 A 
ATOM     53  C   UNL A   1      46.825  29.068  27.508  1.00  0.00     0.049 A 
ATOM     54  C   UNL A   1      41.622  29.916  29.330  1.00  0.00     0.074 A 
ATOM     55  C   UNL A   1      47.698  30.140  27.579  1.00  0.00     0.029 A 
ATOM     56  N   UNL A   1      45.619  29.499  28.039  1.00  0.00    -0.354 N 
ATOM     57  N   UNL A   1      42.872  29.879  28.938  1.00  0.00    -0.248 NA
ATOM     58  C   UNL A   1      41.239  31.178  29.983  1.00  0.00     0.031 C 
ATOM     59  C   UNL A   1      47.045  31.194  28.226  1.00  0.00     0.029 A 
ATOM     60  C   UNL A   1      45.739  30.808  28.478  1.00  0.00     0.049 A 
ATOM     61  H   UNL A   1      44.800  28.956  28.095  1.00  0.00     0.167 HD
ATOM     62  C   UNL A   1      43.413  31.117  29.265  1.00  0.00     0.074 A 
ATOM     63  C   UNL A   1      42.349  31.892  29.870  1.00  0.00     0.031 C 
ATOM     64  C   UNL A   1      44.678  31.572  29.082  1.00  0.00     0.031 A 
BRANCH  51  65
ATOM     65  C   UNL A   1      48.468  27.410  26.539  1.00  0.00    -0.014 A 
ATOM     66  C   UNL A   1      49.467  27.003  27.436  1.00  0.00     0.009 A 
ATOM     67  C   UNL A   1      48.772  27.469  25.169  1.00  0.00     0.009 A 
ATOM     68  C   UNL A   1      50.751  26.700  26.975  1.00  0.00     0.001 A 
ATOM     69  C   UNL A   1      50.045  27.132  24.707  1.00  0.00     0.001 A 
ATOM     70  C   UNL A   1      51.036  26.759  25.612  1.00  0.00     0.000 A 
ENDBRANCH  51  65
BRANCH  52  71
ATOM     71  C   UNL A   1      39.173  29.133  29.708  1.00  0.00    -0.014 A 
ATOM     72  C   UNL A   1      38.193  29.701  28.879  1.00  0.00     0.009 A 
ATOM     73  C   UNL A   1      38.845  28.853  31.045  1.00  0.00     0.009 A 
ATOM     74  C   UNL A   1      36.928  30.011  29.384  1.00  0.00     0.001 A 
ATOM     75  C   UNL A   1      37.567  29.128  31.537  1.00  0.00     0.001 A 
ATOM     76  C   UNL A   1      36.614  29.717  30.711  1.00  0.00     0.000 A 
ENDBRANCH  52  71
BRANCH  64  77
ATOM     77  C   UNL A   1      44.977  32.990  29.499  1.00  0.00    -0.014 A 
ATOM     78  C   UNL A   1      45.410  33.300  30.798  1.00  0.00     0.009 A 
ATOM     79  C   UNL A   1      44.864  34.027  28.559  1.00  0.00     0.009 A 
ATOM     80  C   UNL A   1      45.682  34.623  31.156  1.00  0.00     0.001 A 
ATOM     81  C   UNL A   1      45.174  35.343  28.909  1.00  0.00     0.001 A 
ATOM     82  C   UNL A   1      45.570  35.641  30.210  1.00  0.00     0.000 A 
ENDBRANCH  64  77
ENDBRANCH  38  39
ENDBRANCH  31  33
ENDBRANCH  30  31
ENDBRANCH  29  30
ENDBRANCH  28  29
ENDBRANCH  27  28
ENDBRANCH  26  27
ENDBRANCH   1  26
TORSDOF 21
ENDMDL
