MODEL 1
REMARK VINA RESULT:     -10.3      0.000      0.000
REMARK SMILES Cc1nsc(N[C@@H](C)C2CCCC2)c1C(=O)OCCOCCOCCOC(=O)c1ccc(-c2c3nc(c(-c4ccccc4)c4ccc([nH]4)c(-c4ccccc4)c4nc(c(-c5ccccc5)c5ccc2[nH]5)C=C4)C=C3)cc1
REMARK SMILES IDX 21 1 20 2 19 3 18 4 17 5 15 6 16 7 14 8 1 9 2 10 3 11 4 12
REMARK SMILES IDX 5 13 6 14 7 16 8 17 9 18 10 19 13 20 11 21 12 22 22 23 23 24
REMARK SMILES IDX 24 25 25 26 26 27 27 28 28 29 29 30 30 31 76 32 31 33 75 34
REMARK SMILES IDX 32 35 33 36 34 37 69 38 35 39 74 40 68 41 70 42 36 43 73 44
REMARK SMILES IDX 67 45 66 46 37 48 59 49 44 50 58 51 45 52 48 53 57 54 71 55
REMARK SMILES IDX 46 56 47 57 56 59 72 60 49 61 38 62 39 63 43 64 40 65 42 66
REMARK SMILES IDX 41 67 60 68 61 69 65 70 62 71 64 72 63 73 50 74 51 75 55 76
REMARK SMILES IDX 52 77 54 78 53 79
REMARK H PARENT 6 15 70 47 48 58
REMARK Flexibility Score: inf
ROOT
ATOM      1  C   UNL A   1      38.119  21.243  25.394  1.00  0.00     0.188 C 
ENDROOT
BRANCH   1   2
ATOM      2  O   UNL A   1      36.797  21.709  25.525  1.00  0.00    -0.376 OA
BRANCH   2   3
ATOM      3  C   UNL A   1      36.517  23.019  25.989  1.00  0.00     0.202 C 
BRANCH   3   4
ATOM      4  C   UNL A   1      35.717  24.104  25.233  1.00  0.00     0.261 C 
BRANCH   4   5
ATOM      5  O   UNL A   1      34.750  23.672  24.274  1.00  0.00    -0.460 OA
BRANCH   5   6
ATOM      6  C   UNL A   1      33.616  24.430  24.186  1.00  0.00     0.343 C 
ATOM      7  O   UNL A   1      33.351  25.150  23.231  1.00  0.00    -0.246 OA
BRANCH   6   8
ATOM      8  C   UNL A   1      32.662  24.143  25.251  1.00  0.00     0.117 A 
ATOM      9  C   UNL A   1      32.335  26.545  26.254  1.00  0.00     0.069 C 
ATOM     10  C   UNL A   1      32.065  25.080  26.171  1.00  0.00     0.068 A 
ATOM     11  N   UNL A   1      31.202  24.564  27.045  1.00  0.00    -0.195 NA
ATOM     12  S   UNL A   1      31.138  22.930  26.845  1.00  0.00    -0.018 S 
ATOM     13  C   UNL A   1      32.303  22.834  25.582  1.00  0.00     0.124 A 
BRANCH  13  14
ATOM     14  N   UNL A   1      32.827  21.690  25.051  1.00  0.00    -0.372 N 
ATOM     15  H   UNL A   1      33.768  21.486  25.261  1.00  0.00     0.161 HD
BRANCH  14  16
ATOM     16  C   UNL A   1      32.115  20.744  24.200  1.00  0.00     0.080 C 
ATOM     17  C   UNL A   1      32.189  21.285  22.766  1.00  0.00     0.031 C 
BRANCH  16  18
ATOM     18  C   UNL A   1      32.691  19.316  24.263  1.00  0.00     0.011 C 
ATOM     19  C   UNL A   1      32.529  18.433  23.022  1.00  0.00     0.006 C 
ATOM     20  C   UNL A   1      34.196  19.218  24.516  1.00  0.00     0.006 C 
ATOM     21  C   UNL A   1      33.464  17.249  23.283  1.00  0.00     0.000 C 
ATOM     22  C   UNL A   1      34.482  17.731  24.319  1.00  0.00     0.000 C 
ENDBRANCH  16  18
ENDBRANCH  14  16
ENDBRANCH  13  14
ENDBRANCH   6   8
ENDBRANCH   5   6
ENDBRANCH   4   5
ENDBRANCH   3   4
ENDBRANCH   2   3
ENDBRANCH   1   2
BRANCH   1  23
ATOM     23  C   UNL A   1      39.251  21.956  26.162  1.00  0.00     0.188 C 
BRANCH  23  24
ATOM     24  O   UNL A   1      40.556  21.422  26.218  1.00  0.00    -0.376 OA
BRANCH  24  25
ATOM     25  C   UNL A   1      40.879  20.146  26.746  1.00  0.00     0.202 C 
BRANCH  25  26
ATOM     26  C   UNL A   1      42.084  19.288  26.354  1.00  0.00     0.261 C 
BRANCH  26  27
ATOM     27  O   UNL A   1      42.582  19.505  25.052  1.00  0.00    -0.460 OA
BRANCH  27  28
ATOM     28  C   UNL A   1      43.927  19.437  24.994  1.00  0.00     0.338 C 
ATOM     29  O   UNL A   1      44.623  18.440  25.002  1.00  0.00    -0.246 OA
BRANCH  28  30
ATOM     30  C   UNL A   1      44.467  20.792  24.869  1.00  0.00     0.060 A 
ATOM     31  C   UNL A   1      45.713  21.021  25.459  1.00  0.00     0.016 A 
ATOM     32  C   UNL A   1      43.624  21.827  24.449  1.00  0.00     0.016 A 
ATOM     33  C   UNL A   1      45.993  22.290  25.901  1.00  0.00     0.010 A 
ATOM     34  C   UNL A   1      43.900  23.095  24.898  1.00  0.00     0.010 A 
ATOM     35  C   UNL A   1      45.010  23.264  25.729  1.00  0.00    -0.014 A 
BRANCH  35  36
ATOM     36  C   UNL A   1      45.023  24.368  26.666  1.00  0.00     0.031 A 
ATOM     37  C   UNL A   1      46.200  25.251  26.629  1.00  0.00     0.074 A 
ATOM     38  C   UNL A   1      43.932  24.577  27.432  1.00  0.00     0.049 A 
ATOM     39  N   UNL A   1      46.948  25.617  27.615  1.00  0.00    -0.248 NA
ATOM     40  C   UNL A   1      46.645  25.734  25.314  1.00  0.00     0.031 C 
ATOM     41  C   UNL A   1      42.627  23.905  27.333  1.00  0.00     0.029 A 
ATOM     42  N   UNL A   1      43.705  25.550  28.355  1.00  0.00    -0.354 N 
ATOM     43  C   UNL A   1      47.878  26.499  27.076  1.00  0.00     0.074 A 
ATOM     44  C   UNL A   1      47.722  26.444  25.645  1.00  0.00     0.031 C 
ATOM     45  C   UNL A   1      41.696  24.660  27.950  1.00  0.00     0.029 A 
ATOM     46  C   UNL A   1      42.356  25.795  28.572  1.00  0.00     0.049 A 
ATOM     47  H   UNL A   1      44.425  26.030  28.823  1.00  0.00     0.167 HD
ATOM     48  C   UNL A   1      48.578  27.370  27.850  1.00  0.00     0.031 A 
ATOM     49  C   UNL A   1      41.817  26.916  29.109  1.00  0.00     0.031 A 
ATOM     50  C   UNL A   1      48.583  26.988  29.235  1.00  0.00     0.049 A 
ATOM     51  C   UNL A   1      42.897  27.639  29.824  1.00  0.00     0.074 A 
ATOM     52  C   UNL A   1      49.049  25.893  29.933  1.00  0.00     0.029 A 
ATOM     53  N   UNL A   1      47.733  27.650  30.088  1.00  0.00    -0.354 N 
ATOM     54  N   UNL A   1      43.460  27.201  30.914  1.00  0.00    -0.248 NA
ATOM     55  C   UNL A   1      43.664  28.632  29.087  1.00  0.00     0.031 C 
ATOM     56  C   UNL A   1      48.112  25.698  30.985  1.00  0.00     0.029 A 
ATOM     57  C   UNL A   1      47.148  26.703  30.887  1.00  0.00     0.049 A 
ATOM     58  H   UNL A   1      47.574  28.621  30.118  1.00  0.00     0.167 HD
ATOM     59  C   UNL A   1      44.802  27.527  30.779  1.00  0.00     0.074 A 
ATOM     60  C   UNL A   1      44.849  28.502  29.692  1.00  0.00     0.031 C 
ATOM     61  C   UNL A   1      45.779  26.764  31.354  1.00  0.00     0.031 A 
BRANCH  48  62
ATOM     62  C   UNL A   1      48.952  28.751  27.393  1.00  0.00    -0.014 A 
ATOM     63  C   UNL A   1      50.312  29.089  27.295  1.00  0.00     0.009 A 
ATOM     64  C   UNL A   1      48.026  29.811  27.321  1.00  0.00     0.009 A 
ATOM     65  C   UNL A   1      50.723  30.423  27.198  1.00  0.00     0.001 A 
ATOM     66  C   UNL A   1      48.432  31.140  27.180  1.00  0.00     0.001 A 
ATOM     67  C   UNL A   1      49.783  31.447  27.148  1.00  0.00     0.000 A 
ENDBRANCH  48  62
BRANCH  49  68
ATOM     68  C   UNL A   1      40.518  27.530  28.754  1.00  0.00    -0.014 A 
ATOM     69  C   UNL A   1      39.452  27.548  29.664  1.00  0.00     0.009 A 
ATOM     70  C   UNL A   1      40.383  28.298  27.580  1.00  0.00     0.009 A 
ATOM     71  C   UNL A   1      38.305  28.314  29.411  1.00  0.00     0.001 A 
ATOM     72  C   UNL A   1      39.236  29.052  27.320  1.00  0.00     0.001 A 
ATOM     73  C   UNL A   1      38.199  29.069  28.243  1.00  0.00     0.000 A 
ENDBRANCH  49  68
BRANCH  61  74
ATOM     74  C   UNL A   1      45.364  25.677  32.315  1.00  0.00    -0.014 A 
ATOM     75  C   UNL A   1      45.316  25.883  33.705  1.00  0.00     0.009 A 
ATOM     76  C   UNL A   1      44.818  24.493  31.799  1.00  0.00     0.009 A 
ATOM     77  C   UNL A   1      44.759  24.923  34.554  1.00  0.00     0.001 A 
ATOM     78  C   UNL A   1      44.242  23.542  32.646  1.00  0.00     0.001 A 
ATOM     79  C   UNL A   1      44.215  23.756  34.023  1.00  0.00     0.000 A 
ENDBRANCH  61  74
ENDBRANCH  35  36
ENDBRANCH  28  30
ENDBRANCH  27  28
ENDBRANCH  26  27
ENDBRANCH  25  26
ENDBRANCH  24  25
ENDBRANCH  23  24
ENDBRANCH   1  23
TORSDOF 20
ENDMDL
MODEL 2
REMARK VINA RESULT:     -10.0      3.854      7.955
REMARK SMILES Cc1nsc(N[C@@H](C)C2CCCC2)c1C(=O)OCCOCCOCCOC(=O)c1ccc(-c2c3nc(c(-c4ccccc4)c4ccc([nH]4)c(-c4ccccc4)c4nc(c(-c5ccccc5)c5ccc2[nH]5)C=C4)C=C3)cc1
REMARK SMILES IDX 21 1 20 2 19 3 18 4 17 5 15 6 16 7 14 8 1 9 2 10 3 11 4 12
REMARK SMILES IDX 5 13 6 14 7 16 8 17 9 18 10 19 13 20 11 21 12 22 22 23 23 24
REMARK SMILES IDX 24 25 25 26 26 27 27 28 28 29 29 30 30 31 76 32 31 33 75 34
REMARK SMILES IDX 32 35 33 36 34 37 69 38 35 39 74 40 68 41 70 42 36 43 73 44
REMARK SMILES IDX 67 45 66 46 37 48 59 49 44 50 58 51 45 52 48 53 57 54 71 55
REMARK SMILES IDX 46 56 47 57 56 59 72 60 49 61 38 62 39 63 43 64 40 65 42 66
REMARK SMILES IDX 41 67 60 68 61 69 65 70 62 71 64 72 63 73 50 74 51 75 55 76
REMARK SMILES IDX 52 77 54 78 53 79
REMARK H PARENT 6 15 70 47 48 58
REMARK Flexibility Score: inf
ROOT
ATOM      1  C   UNL A   1      39.140  21.919  26.088  1.00  0.00     0.188 C 
ENDROOT
BRANCH   1   2
ATOM      2  O   UNL A   1      37.797  21.608  25.806  1.00  0.00    -0.376 OA
BRANCH   2   3
ATOM      3  C   UNL A   1      37.291  21.648  24.483  1.00  0.00     0.202 C 
BRANCH   3   4
ATOM      4  C   UNL A   1      36.588  22.849  23.809  1.00  0.00     0.261 C 
BRANCH   4   5
ATOM      5  O   UNL A   1      35.750  23.673  24.623  1.00  0.00    -0.460 OA
BRANCH   5   6
ATOM      6  C   UNL A   1      34.599  24.118  24.034  1.00  0.00     0.343 C 
ATOM      7  O   UNL A   1      34.481  24.308  22.830  1.00  0.00    -0.246 OA
BRANCH   6   8
ATOM      8  C   UNL A   1      33.472  24.153  24.957  1.00  0.00     0.117 A 
ATOM      9  C   UNL A   1      33.588  26.649  25.755  1.00  0.00     0.069 C 
ATOM     10  C   UNL A   1      32.994  25.281  25.719  1.00  0.00     0.068 A 
ATOM     11  N   UNL A   1      31.925  25.056  26.481  1.00  0.00    -0.195 NA
ATOM     12  S   UNL A   1      31.506  23.466  26.371  1.00  0.00    -0.018 S 
ATOM     13  C   UNL A   1      32.773  22.995  25.308  1.00  0.00     0.124 A 
BRANCH  13  14
ATOM     14  N   UNL A   1      33.079  21.717  24.932  1.00  0.00    -0.372 N 
ATOM     15  H   UNL A   1      33.950  21.359  25.221  1.00  0.00     0.161 HD
BRANCH  14  16
ATOM     16  C   UNL A   1      32.229  20.839  24.138  1.00  0.00     0.080 C 
ATOM     17  C   UNL A   1      32.285  21.344  22.690  1.00  0.00     0.031 C 
BRANCH  16  18
ATOM     18  C   UNL A   1      32.654  19.359  24.204  1.00  0.00     0.011 C 
ATOM     19  C   UNL A   1      32.495  18.520  22.932  1.00  0.00     0.006 C 
ATOM     20  C   UNL A   1      34.119  19.105  24.558  1.00  0.00     0.006 C 
ATOM     21  C   UNL A   1      33.287  17.243  23.227  1.00  0.00     0.000 C 
ATOM     22  C   UNL A   1      34.270  17.600  24.343  1.00  0.00     0.000 C 
ENDBRANCH  16  18
ENDBRANCH  14  16
ENDBRANCH  13  14
ENDBRANCH   6   8
ENDBRANCH   5   6
ENDBRANCH   4   5
ENDBRANCH   3   4
ENDBRANCH   2   3
ENDBRANCH   1   2
BRANCH   1  23
ATOM     23  C   UNL A   1      40.186  20.788  26.126  1.00  0.00     0.188 C 
BRANCH  23  24
ATOM     24  O   UNL A   1      41.524  21.004  25.732  1.00  0.00    -0.376 OA
BRANCH  24  25
ATOM     25  C   UNL A   1      42.375  21.990  26.291  1.00  0.00     0.202 C 
BRANCH  25  26
ATOM     26  C   UNL A   1      42.613  23.396  25.733  1.00  0.00     0.261 C 
BRANCH  26  27
ATOM     27  O   UNL A   1      41.859  24.422  26.341  1.00  0.00    -0.460 OA
BRANCH  27  28
ATOM     28  C   UNL A   1      41.938  25.589  25.670  1.00  0.00     0.338 C 
ATOM     29  O   UNL A   1      42.667  25.864  24.737  1.00  0.00    -0.246 OA
BRANCH  28  30
ATOM     30  C   UNL A   1      40.946  26.518  26.215  1.00  0.00     0.060 A 
ATOM     31  C   UNL A   1      41.114  27.867  25.888  1.00  0.00     0.016 A 
ATOM     32  C   UNL A   1      40.091  26.086  27.234  1.00  0.00     0.016 A 
ATOM     33  C   UNL A   1      40.651  28.808  26.774  1.00  0.00     0.010 A 
ATOM     34  C   UNL A   1      39.635  27.025  28.125  1.00  0.00     0.010 A 
ATOM     35  C   UNL A   1      40.045  28.348  27.942  1.00  0.00    -0.014 A 
BRANCH  35  36
ATOM     36  C   UNL A   1      40.102  29.228  29.091  1.00  0.00     0.031 A 
ATOM     37  C   UNL A   1      38.951  30.124  29.294  1.00  0.00     0.074 A 
ATOM     38  C   UNL A   1      41.139  29.107  29.945  1.00  0.00     0.049 A 
ATOM     39  N   UNL A   1      38.963  31.401  29.479  1.00  0.00    -0.248 NA
ATOM     40  C   UNL A   1      37.608  29.532  29.212  1.00  0.00     0.031 C 
ATOM     41  C   UNL A   1      42.176  28.064  29.952  1.00  0.00     0.029 A 
ATOM     42  N   UNL A   1      41.395  29.798  31.088  1.00  0.00    -0.354 N 
ATOM     43  C   UNL A   1      37.638  31.765  29.685  1.00  0.00     0.074 A 
ATOM     44  C   UNL A   1      36.838  30.603  29.394  1.00  0.00     0.031 C 
ATOM     45  C   UNL A   1      42.758  28.030  31.168  1.00  0.00     0.029 A 
ATOM     46  C   UNL A   1      42.215  29.111  31.972  1.00  0.00     0.049 A 
ATOM     47  H   UNL A   1      41.035  30.696  31.270  1.00  0.00     0.167 HD
ATOM     48  C   UNL A   1      37.297  32.940  30.278  1.00  0.00     0.031 A 
ATOM     49  C   UNL A   1      42.334  29.338  33.303  1.00  0.00     0.031 A 
ATOM     50  C   UNL A   1      38.369  33.895  30.254  1.00  0.00     0.049 A 
ATOM     51  C   UNL A   1      41.803  30.694  33.580  1.00  0.00     0.074 A 
ATOM     52  C   UNL A   1      39.072  34.531  29.252  1.00  0.00     0.029 A 
ATOM     53  N   UNL A   1      39.099  34.072  31.404  1.00  0.00    -0.354 N 
ATOM     54  N   UNL A   1      42.382  31.792  33.183  1.00  0.00    -0.248 NA
ATOM     55  C   UNL A   1      40.392  30.824  33.914  1.00  0.00     0.031 C 
ATOM     56  C   UNL A   1      40.399  34.655  29.751  1.00  0.00     0.029 A 
ATOM     57  C   UNL A   1      40.419  34.116  31.039  1.00  0.00     0.049 A 
ATOM     58  H   UNL A   1      38.741  34.152  32.318  1.00  0.00     0.167 HD
ATOM     59  C   UNL A   1      41.340  32.630  32.810  1.00  0.00     0.074 A 
ATOM     60  C   UNL A   1      40.141  32.026  33.385  1.00  0.00     0.031 C 
ATOM     61  C   UNL A   1      41.501  33.568  31.829  1.00  0.00     0.031 A 
BRANCH  48  62
ATOM     62  C   UNL A   1      36.110  33.080  31.190  1.00  0.00    -0.014 A 
ATOM     63  C   UNL A   1      35.101  33.998  30.853  1.00  0.00     0.009 A 
ATOM     64  C   UNL A   1      36.080  32.552  32.495  1.00  0.00     0.009 A 
ATOM     65  C   UNL A   1      34.155  34.414  31.795  1.00  0.00     0.001 A 
ATOM     66  C   UNL A   1      35.110  32.932  33.425  1.00  0.00     0.001 A 
ATOM     67  C   UNL A   1      34.164  33.885  33.082  1.00  0.00     0.000 A 
ENDBRANCH  48  62
BRANCH  49  68
ATOM     68  C   UNL A   1      42.579  28.324  34.354  1.00  0.00    -0.014 A 
ATOM     69  C   UNL A   1      43.701  28.403  35.189  1.00  0.00     0.009 A 
ATOM     70  C   UNL A   1      41.587  27.379  34.684  1.00  0.00     0.009 A 
ATOM     71  C   UNL A   1      43.817  27.575  36.316  1.00  0.00     0.001 A 
ATOM     72  C   UNL A   1      41.707  26.545  35.799  1.00  0.00     0.001 A 
ATOM     73  C   UNL A   1      42.819  26.651  36.623  1.00  0.00     0.000 A 
ENDBRANCH  49  68
BRANCH  61  74
ATOM     74  C   UNL A   1      42.892  33.818  31.302  1.00  0.00    -0.014 A 
ATOM     75  C   UNL A   1      43.909  34.369  32.101  1.00  0.00     0.009 A 
ATOM     76  C   UNL A   1      43.240  33.305  30.044  1.00  0.00     0.009 A 
ATOM     77  C   UNL A   1      45.230  34.423  31.646  1.00  0.00     0.001 A 
ATOM     78  C   UNL A   1      44.563  33.341  29.597  1.00  0.00     0.001 A 
ATOM     79  C   UNL A   1      45.556  33.902  30.396  1.00  0.00     0.000 A 
ENDBRANCH  61  74
ENDBRANCH  35  36
ENDBRANCH  28  30
ENDBRANCH  27  28
ENDBRANCH  26  27
ENDBRANCH  25  26
ENDBRANCH  24  25
ENDBRANCH  23  24
ENDBRANCH   1  23
TORSDOF 20
ENDMDL
MODEL 3
REMARK VINA RESULT:      -9.6      4.083      8.682
REMARK SMILES Cc1nsc(N[C@@H](C)C2CCCC2)c1C(=O)OCCOCCOCCOC(=O)c1ccc(-c2c3nc(c(-c4ccccc4)c4ccc([nH]4)c(-c4ccccc4)c4nc(c(-c5ccccc5)c5ccc2[nH]5)C=C4)C=C3)cc1
REMARK SMILES IDX 21 1 20 2 19 3 18 4 17 5 15 6 16 7 14 8 1 9 2 10 3 11 4 12
REMARK SMILES IDX 5 13 6 14 7 16 8 17 9 18 10 19 13 20 11 21 12 22 22 23 23 24
REMARK SMILES IDX 24 25 25 26 26 27 27 28 28 29 29 30 30 31 76 32 31 33 75 34
REMARK SMILES IDX 32 35 33 36 34 37 69 38 35 39 74 40 68 41 70 42 36 43 73 44
REMARK SMILES IDX 67 45 66 46 37 48 59 49 44 50 58 51 45 52 48 53 57 54 71 55
REMARK SMILES IDX 46 56 47 57 56 59 72 60 49 61 38 62 39 63 43 64 40 65 42 66
REMARK SMILES IDX 41 67 60 68 61 69 65 70 62 71 64 72 63 73 50 74 51 75 55 76
REMARK SMILES IDX 52 77 54 78 53 79
REMARK H PARENT 6 15 70 47 48 58
REMARK Flexibility Score: inf
ROOT
ATOM      1  C   UNL A   1      39.361  22.544  26.532  1.00  0.00     0.188 C 
ENDROOT
BRANCH   1   2
ATOM      2  O   UNL A   1      38.045  22.673  26.050  1.00  0.00    -0.376 OA
BRANCH   2   3
ATOM      3  C   UNL A   1      37.566  21.873  24.982  1.00  0.00     0.202 C 
BRANCH   3   4
ATOM      4  C   UNL A   1      36.632  22.337  23.841  1.00  0.00     0.261 C 
BRANCH   4   5
ATOM      5  O   UNL A   1      35.925  23.567  24.017  1.00  0.00    -0.460 OA
BRANCH   5   6
ATOM      6  C   UNL A   1      34.687  23.632  23.441  1.00  0.00     0.343 C 
ATOM      7  O   UNL A   1      34.490  23.511  22.239  1.00  0.00    -0.246 OA
BRANCH   6   8
ATOM      8  C   UNL A   1      33.610  23.661  24.423  1.00  0.00     0.117 A 
ATOM      9  C   UNL A   1      32.354  21.440  23.813  1.00  0.00     0.069 C 
ATOM     10  C   UNL A   1      32.571  22.679  24.616  1.00  0.00     0.068 A 
ATOM     11  N   UNL A   1      31.711  22.930  25.602  1.00  0.00    -0.195 NA
ATOM     12  S   UNL A   1      32.072  24.388  26.277  1.00  0.00    -0.018 S 
ATOM     13  C   UNL A   1      33.395  24.769  25.246  1.00  0.00     0.124 A 
BRANCH  13  14
ATOM     14  N   UNL A   1      34.065  25.959  25.196  1.00  0.00    -0.372 N 
ATOM     15  H   UNL A   1      34.869  26.047  25.757  1.00  0.00     0.161 HD
BRANCH  14  16
ATOM     16  C   UNL A   1      33.691  27.110  24.383  1.00  0.00     0.080 C 
ATOM     17  C   UNL A   1      32.357  26.769  23.705  1.00  0.00     0.031 C 
BRANCH  16  18
ATOM     18  C   UNL A   1      33.559  28.412  25.197  1.00  0.00     0.011 C 
ATOM     19  C   UNL A   1      32.262  29.212  25.046  1.00  0.00     0.006 C 
ATOM     20  C   UNL A   1      33.649  28.256  26.716  1.00  0.00     0.006 C 
ATOM     21  C   UNL A   1      32.313  30.225  26.193  1.00  0.00     0.000 C 
ATOM     22  C   UNL A   1      33.282  29.648  27.226  1.00  0.00     0.000 C 
ENDBRANCH  16  18
ENDBRANCH  14  16
ENDBRANCH  13  14
ENDBRANCH   6   8
ENDBRANCH   5   6
ENDBRANCH   4   5
ENDBRANCH   3   4
ENDBRANCH   2   3
ENDBRANCH   1   2
BRANCH   1  23
ATOM     23  C   UNL A   1      40.193  21.308  26.136  1.00  0.00     0.188 C 
BRANCH  23  24
ATOM     24  O   UNL A   1      41.535  21.158  26.546  1.00  0.00    -0.376 OA
BRANCH  24  25
ATOM     25  C   UNL A   1      42.371  22.225  26.959  1.00  0.00     0.202 C 
BRANCH  25  26
ATOM     26  C   UNL A   1      42.681  23.490  26.154  1.00  0.00     0.261 C 
BRANCH  26  27
ATOM     27  O   UNL A   1      42.225  24.696  26.726  1.00  0.00    -0.460 OA
BRANCH  27  28
ATOM     28  C   UNL A   1      41.977  25.646  25.802  1.00  0.00     0.338 C 
ATOM     29  O   UNL A   1      42.455  25.744  24.688  1.00  0.00    -0.246 OA
BRANCH  28  30
ATOM     30  C   UNL A   1      40.969  26.568  26.328  1.00  0.00     0.060 A 
ATOM     31  C   UNL A   1      41.130  27.918  25.999  1.00  0.00     0.016 A 
ATOM     32  C   UNL A   1      40.102  26.132  27.334  1.00  0.00     0.016 A 
ATOM     33  C   UNL A   1      40.645  28.857  26.874  1.00  0.00     0.010 A 
ATOM     34  C   UNL A   1      39.623  27.070  28.215  1.00  0.00     0.010 A 
ATOM     35  C   UNL A   1      40.024  28.396  28.034  1.00  0.00    -0.014 A 
BRANCH  35  36
ATOM     36  C   UNL A   1      40.056  29.281  29.180  1.00  0.00     0.031 A 
ATOM     37  C   UNL A   1      38.898  30.173  29.357  1.00  0.00     0.074 A 
ATOM     38  C   UNL A   1      41.077  29.167  30.055  1.00  0.00     0.049 A 
ATOM     39  N   UNL A   1      38.902  31.451  29.538  1.00  0.00    -0.248 NA
ATOM     40  C   UNL A   1      37.559  29.576  29.251  1.00  0.00     0.031 C 
ATOM     41  C   UNL A   1      42.117  28.127  30.086  1.00  0.00     0.029 A 
ATOM     42  N   UNL A   1      41.308  29.863  31.201  1.00  0.00    -0.354 N 
ATOM     43  C   UNL A   1      37.571  31.811  29.716  1.00  0.00     0.074 A 
ATOM     44  C   UNL A   1      36.782  30.644  29.415  1.00  0.00     0.031 C 
ATOM     45  C   UNL A   1      42.675  28.100  31.314  1.00  0.00     0.029 A 
ATOM     46  C   UNL A   1      42.112  29.181  32.103  1.00  0.00     0.049 A 
ATOM     47  H   UNL A   1      40.941  30.760  31.371  1.00  0.00     0.167 HD
ATOM     48  C   UNL A   1      37.215  32.986  30.298  1.00  0.00     0.031 A 
ATOM     49  C   UNL A   1      42.205  29.414  33.435  1.00  0.00     0.031 A 
ATOM     50  C   UNL A   1      38.283  33.946  30.292  1.00  0.00     0.049 A 
ATOM     51  C   UNL A   1      41.663  30.769  33.697  1.00  0.00     0.074 A 
ATOM     52  C   UNL A   1      39.004  34.580  29.301  1.00  0.00     0.029 A 
ATOM     53  N   UNL A   1      38.990  34.130  31.456  1.00  0.00    -0.354 N 
ATOM     54  N   UNL A   1      42.246  31.867  33.307  1.00  0.00    -0.248 NA
ATOM     55  C   UNL A   1      40.245  30.895  34.002  1.00  0.00     0.031 C 
ATOM     56  C   UNL A   1      40.320  34.711  29.826  1.00  0.00     0.029 A 
ATOM     57  C   UNL A   1      40.318  34.177  31.117  1.00  0.00     0.049 A 
ATOM     58  H   UNL A   1      38.614  34.211  32.362  1.00  0.00     0.167 HD
ATOM     59  C   UNL A   1      41.209  32.701  32.911  1.00  0.00     0.074 A 
ATOM     60  C   UNL A   1      40.001  32.095  33.464  1.00  0.00     0.031 C 
ATOM     61  C   UNL A   1      41.385  33.636  31.930  1.00  0.00     0.031 A 
BRANCH  48  62
ATOM     62  C   UNL A   1      36.010  33.126  31.186  1.00  0.00    -0.014 A 
ATOM     63  C   UNL A   1      34.990  34.016  30.810  1.00  0.00     0.009 A 
ATOM     64  C   UNL A   1      35.967  32.628  32.503  1.00  0.00     0.009 A 
ATOM     65  C   UNL A   1      34.020  34.436  31.726  1.00  0.00     0.001 A 
ATOM     66  C   UNL A   1      34.974  33.011  33.407  1.00  0.00     0.001 A 
ATOM     67  C   UNL A   1      34.017  33.938  33.026  1.00  0.00     0.000 A 
ENDBRANCH  48  62
BRANCH  49  68
ATOM     68  C   UNL A   1      42.432  28.405  34.494  1.00  0.00    -0.014 A 
ATOM     69  C   UNL A   1      43.258  28.681  35.592  1.00  0.00     0.009 A 
ATOM     70  C   UNL A   1      41.662  27.226  34.540  1.00  0.00     0.009 A 
ATOM     71  C   UNL A   1      43.300  27.815  36.695  1.00  0.00     0.001 A 
ATOM     72  C   UNL A   1      41.711  26.356  35.632  1.00  0.00     0.001 A 
ATOM     73  C   UNL A   1      42.524  26.657  36.717  1.00  0.00     0.000 A 
ENDBRANCH  49  68
BRANCH  61  74
ATOM     74  C   UNL A   1      42.786  33.889  31.429  1.00  0.00    -0.014 A 
ATOM     75  C   UNL A   1      43.359  33.134  30.390  1.00  0.00     0.009 A 
ATOM     76  C   UNL A   1      43.463  35.035  31.869  1.00  0.00     0.009 A 
ATOM     77  C   UNL A   1      44.583  33.503  29.825  1.00  0.00     0.001 A 
ATOM     78  C   UNL A   1      44.677  35.416  31.291  1.00  0.00     0.001 A 
ATOM     79  C   UNL A   1      45.237  34.649  30.272  1.00  0.00     0.000 A 
ENDBRANCH  61  74
ENDBRANCH  35  36
ENDBRANCH  28  30
ENDBRANCH  27  28
ENDBRANCH  26  27
ENDBRANCH  25  26
ENDBRANCH  24  25
ENDBRANCH  23  24
ENDBRANCH   1  23
TORSDOF 20
ENDMDL
