MODEL 1
REMARK VINA RESULT:     -12.4      0.000      0.000
REMARK SMILES COc1ccc(-c2[nH]nc3nc(-c4ccc(C(F)(F)F)cc4)cc(C(=O)OCCOCCOCCOC(=O)c4ccc(-c5c6nc(c(-c7ccccc7)c7ccc([nH]7)c(-c7ccccc7)c7nc(c(-c8ccccc8)c8ccc5[nH]8)C=C7)C=C6)cc4)c23)cc1
REMARK SMILES IDX 31 1 30 2 29 3 28 4 27 5 25 6 26 7 24 8 7 9 8 10 87 11 9 12
REMARK SMILES IDX 10 14 11 15 23 16 12 17 6 18 3 19 4 20 89 21 5 22 88 23 2 24
REMARK SMILES IDX 1 25 13 26 14 27 22 28 15 29 21 30 16 31 17 32 18 33 19 34
REMARK SMILES IDX 20 35 32 36 33 37 34 38 35 39 36 40 37 41 38 42 39 43 40 44
REMARK SMILES IDX 86 45 41 46 85 47 42 48 43 49 44 50 79 51 45 52 84 53 78 54
REMARK SMILES IDX 80 55 46 56 83 57 77 58 76 59 47 61 69 62 54 63 68 64 55 65
REMARK SMILES IDX 58 66 67 67 81 68 56 69 57 70 66 72 82 73 59 74 48 75 49 76
REMARK SMILES IDX 53 77 50 78 52 79 51 80 70 81 71 82 75 83 72 84 74 85 73 86
REMARK SMILES IDX 60 87 61 88 65 89 62 90 64 91 63 92
REMARK H PARENT 8 13 80 60 58 71
REMARK Flexibility Score: inf
ROOT
ATOM      1  C   UNL A   1      39.105  21.849  26.138  1.00  0.00     0.188 C 
ENDROOT
BRANCH   1   2
ATOM      2  O   UNL A   1      38.047  21.546  25.246  1.00  0.00    -0.376 OA
BRANCH   2   3
ATOM      3  C   UNL A   1      36.784  22.127  25.612  1.00  0.00     0.202 C 
BRANCH   3   4
ATOM      4  C   UNL A   1      35.856  22.704  24.506  1.00  0.00     0.261 C 
BRANCH   4   5
ATOM      5  O   UNL A   1      35.450  24.088  24.642  1.00  0.00    -0.460 OA
BRANCH   5   6
ATOM      6  C   UNL A   1      34.395  24.543  23.913  1.00  0.00     0.339 C 
ATOM      7  O   UNL A   1      34.211  24.306  22.748  1.00  0.00    -0.246 OA
BRANCH   6   8
ATOM      8  C   UNL A   1      33.460  25.252  24.842  1.00  0.00     0.075 A 
ATOM      9  C   UNL A   1      31.690  23.490  25.302  1.00  0.00     0.075 A 
ATOM     10  N   UNL A   1      30.455  23.628  25.898  1.00  0.00    -0.275 N 
ATOM     11  C   UNL A   1      32.236  24.766  25.332  1.00  0.00     0.061 A 
ATOM     12  N   UNL A   1      30.248  24.811  26.486  1.00  0.00    -0.154 NA
ATOM     13  H   UNL A   1      29.780  22.910  25.892  1.00  0.00     0.190 HD
ATOM     14  C   UNL A   1      31.349  25.502  26.194  1.00  0.00     0.182 A 
ATOM     15  N   UNL A   1      31.642  26.731  26.674  1.00  0.00    -0.226 NA
ATOM     16  C   UNL A   1      33.744  26.522  25.403  1.00  0.00     0.045 A 
ATOM     17  C   UNL A   1      32.852  27.207  26.278  1.00  0.00     0.074 A 
BRANCH   9  18
ATOM     18  C   UNL A   1      32.190  22.158  24.991  1.00  0.00     0.001 A 
ATOM     19  C   UNL A   1      33.074  19.573  24.316  1.00  0.00     0.118 A 
ATOM     20  C   UNL A   1      33.233  20.070  25.614  1.00  0.00     0.047 A 
ATOM     21  C   UNL A   1      32.515  20.393  23.339  1.00  0.00     0.047 A 
ATOM     22  C   UNL A   1      32.804  21.359  25.950  1.00  0.00     0.014 A 
ATOM     23  C   UNL A   1      32.083  21.681  23.675  1.00  0.00     0.014 A 
BRANCH  19  24
ATOM     24  O   UNL A   1      33.492  18.283  24.140  1.00  0.00    -0.497 OA
ATOM     25  C   UNL A   1      33.024  17.604  22.983  1.00  0.00     0.278 C 
ENDBRANCH  19  24
ENDBRANCH   9  18
BRANCH  17  26
ATOM     26  C   UNL A   1      33.159  28.566  26.795  1.00  0.00     0.000 A 
ATOM     27  C   UNL A   1      32.184  29.582  26.847  1.00  0.00     0.011 A 
ATOM     28  C   UNL A   1      34.462  28.910  27.190  1.00  0.00     0.011 A 
ATOM     29  C   UNL A   1      32.502  30.885  27.261  1.00  0.00     0.014 A 
ATOM     30  C   UNL A   1      34.786  30.209  27.600  1.00  0.00     0.014 A 
ATOM     31  C   UNL A   1      33.813  31.214  27.634  1.00  0.00     0.056 A 
BRANCH  31  32
ATOM     32  C   UNL A   1      34.171  32.624  28.039  1.00  0.00     0.416 C 
ATOM     33  F   UNL A   1      35.421  32.986  27.635  1.00  0.00    -0.166 F 
ATOM     34  F   UNL A   1      33.324  33.554  27.515  1.00  0.00    -0.166 F 
ATOM     35  F   UNL A   1      34.148  32.822  29.388  1.00  0.00    -0.166 F 
ENDBRANCH  31  32
ENDBRANCH  17  26
ENDBRANCH   6   8
ENDBRANCH   5   6
ENDBRANCH   4   5
ENDBRANCH   3   4
ENDBRANCH   2   3
ENDBRANCH   1   2
BRANCH   1  36
ATOM     36  C   UNL A   1      40.047  20.737  26.538  1.00  0.00     0.188 C 
BRANCH  36  37
ATOM     37  O   UNL A   1      41.269  20.697  25.801  1.00  0.00    -0.376 OA
BRANCH  37  38
ATOM     38  C   UNL A   1      42.424  20.188  26.463  1.00  0.00     0.202 C 
BRANCH  38  39
ATOM     39  C   UNL A   1      43.254  19.162  25.698  1.00  0.00     0.261 C 
BRANCH  39  40
ATOM     40  O   UNL A   1      44.573  19.598  25.407  1.00  0.00    -0.460 OA
BRANCH  40  41
ATOM     41  C   UNL A   1      44.723  20.024  24.133  1.00  0.00     0.338 C 
ATOM     42  O   UNL A   1      44.570  19.384  23.106  1.00  0.00    -0.246 OA
BRANCH  41  43
ATOM     43  C   UNL A   1      45.229  21.399  24.147  1.00  0.00     0.060 A 
ATOM     44  C   UNL A   1      46.212  21.656  25.104  1.00  0.00     0.016 A 
ATOM     45  C   UNL A   1      44.397  22.398  23.627  1.00  0.00     0.016 A 
ATOM     46  C   UNL A   1      46.111  22.830  25.803  1.00  0.00     0.010 A 
ATOM     47  C   UNL A   1      44.285  23.563  24.338  1.00  0.00     0.010 A 
ATOM     48  C   UNL A   1      45.059  23.697  25.485  1.00  0.00    -0.014 A 
BRANCH  48  49
ATOM     49  C   UNL A   1      44.821  24.805  26.373  1.00  0.00     0.031 A 
ATOM     50  C   UNL A   1      45.906  25.796  26.315  1.00  0.00     0.074 A 
ATOM     51  C   UNL A   1      43.706  24.927  27.116  1.00  0.00     0.049 A 
ATOM     52  N   UNL A   1      46.810  26.004  27.209  1.00  0.00    -0.248 NA
ATOM     53  C   UNL A   1      46.141  26.475  25.032  1.00  0.00     0.031 C 
ATOM     54  C   UNL A   1      42.468  24.146  27.061  1.00  0.00     0.029 A 
ATOM     55  N   UNL A   1      43.422  25.880  28.038  1.00  0.00    -0.354 N 
ATOM     56  C   UNL A   1      47.616  27.002  26.685  1.00  0.00     0.074 A 
ATOM     57  C   UNL A   1      47.292  27.097  25.284  1.00  0.00     0.031 C 
ATOM     58  C   UNL A   1      41.495  24.814  27.727  1.00  0.00     0.029 A 
ATOM     59  C   UNL A   1      42.078  25.984  28.363  1.00  0.00     0.049 A 
ATOM     60  H   UNL A   1      44.114  26.452  28.443  1.00  0.00     0.167 HD
ATOM     61  C   UNL A   1      48.266  27.870  27.503  1.00  0.00     0.031 A 
ATOM     62  C   UNL A   1      41.503  27.010  29.042  1.00  0.00     0.031 A 
ATOM     63  C   UNL A   1      48.347  27.371  28.853  1.00  0.00     0.049 A 
ATOM     64  C   UNL A   1      42.584  27.722  29.771  1.00  0.00     0.074 A 
ATOM     65  C   UNL A   1      48.888  26.241  29.435  1.00  0.00     0.029 A 
ATOM     66  N   UNL A   1      47.444  27.870  29.764  1.00  0.00    -0.354 N 
ATOM     67  N   UNL A   1      43.232  27.197  30.771  1.00  0.00    -0.248 NA
ATOM     68  C   UNL A   1      43.267  28.811  29.088  1.00  0.00     0.031 C 
ATOM     69  C   UNL A   1      47.949  25.856  30.437  1.00  0.00     0.029 A 
ATOM     70  C   UNL A   1      46.929  26.810  30.465  1.00  0.00     0.049 A 
ATOM     71  H   UNL A   1      47.210  28.818  29.889  1.00  0.00     0.167 HD
ATOM     72  C   UNL A   1      44.555  27.560  30.563  1.00  0.00     0.074 A 
ATOM     73  C   UNL A   1      44.503  28.631  29.567  1.00  0.00     0.031 C 
ATOM     74  C   UNL A   1      45.581  26.763  30.987  1.00  0.00     0.031 A 
BRANCH  61  75
ATOM     75  C   UNL A   1      48.400  29.331  27.168  1.00  0.00    -0.014 A 
ATOM     76  C   UNL A   1      49.670  29.921  27.242  1.00  0.00     0.009 A 
ATOM     77  C   UNL A   1      47.298  30.204  27.061  1.00  0.00     0.009 A 
ATOM     78  C   UNL A   1      49.819  31.312  27.285  1.00  0.00     0.001 A 
ATOM     79  C   UNL A   1      47.445  31.591  27.060  1.00  0.00     0.001 A 
ATOM     80  C   UNL A   1      48.707  32.146  27.201  1.00  0.00     0.000 A 
ENDBRANCH  61  75
BRANCH  62  81
ATOM     81  C   UNL A   1      40.162  27.606  28.850  1.00  0.00    -0.014 A 
ATOM     82  C   UNL A   1      39.224  27.620  29.896  1.00  0.00     0.009 A 
ATOM     83  C   UNL A   1      39.900  28.415  27.729  1.00  0.00     0.009 A 
ATOM     84  C   UNL A   1      38.090  28.444  29.838  1.00  0.00     0.001 A 
ATOM     85  C   UNL A   1      38.767  29.235  27.670  1.00  0.00     0.001 A 
ATOM     86  C   UNL A   1      37.870  29.261  28.731  1.00  0.00     0.000 A 
ENDBRANCH  62  81
BRANCH  74  87
ATOM     87  C   UNL A   1      45.242  25.587  31.875  1.00  0.00    -0.014 A 
ATOM     88  C   UNL A   1      45.330  25.629  33.279  1.00  0.00     0.009 A 
ATOM     89  C   UNL A   1      44.670  24.454  31.281  1.00  0.00     0.009 A 
ATOM     90  C   UNL A   1      44.886  24.554  34.057  1.00  0.00     0.001 A 
ATOM     91  C   UNL A   1      44.207  23.391  32.059  1.00  0.00     0.001 A 
ATOM     92  C   UNL A   1      44.320  23.437  33.447  1.00  0.00     0.000 A 
ENDBRANCH  74  87
ENDBRANCH  48  49
ENDBRANCH  41  43
ENDBRANCH  40  41
ENDBRANCH  39  40
ENDBRANCH  38  39
ENDBRANCH  37  38
ENDBRANCH  36  37
ENDBRANCH   1  36
TORSDOF 21
ENDMDL
MODEL 2
REMARK VINA RESULT:     -12.2      5.651     10.774
REMARK SMILES COc1ccc(-c2[nH]nc3nc(-c4ccc(C(F)(F)F)cc4)cc(C(=O)OCCOCCOCCOC(=O)c4ccc(-c5c6nc(c(-c7ccccc7)c7ccc([nH]7)c(-c7ccccc7)c7nc(c(-c8ccccc8)c8ccc5[nH]8)C=C7)C=C6)cc4)c23)cc1
REMARK SMILES IDX 31 1 30 2 29 3 28 4 27 5 25 6 26 7 24 8 7 9 8 10 87 11 9 12
REMARK SMILES IDX 10 14 11 15 23 16 12 17 6 18 3 19 4 20 89 21 5 22 88 23 2 24
REMARK SMILES IDX 1 25 13 26 14 27 22 28 15 29 21 30 16 31 17 32 18 33 19 34
REMARK SMILES IDX 20 35 32 36 33 37 34 38 35 39 36 40 37 41 38 42 39 43 40 44
REMARK SMILES IDX 86 45 41 46 85 47 42 48 43 49 44 50 79 51 45 52 84 53 78 54
REMARK SMILES IDX 80 55 46 56 83 57 77 58 76 59 47 61 69 62 54 63 68 64 55 65
REMARK SMILES IDX 58 66 67 67 81 68 56 69 57 70 66 72 82 73 59 74 48 75 49 76
REMARK SMILES IDX 53 77 50 78 52 79 51 80 70 81 71 82 75 83 72 84 74 85 73 86
REMARK SMILES IDX 60 87 61 88 65 89 62 90 64 91 63 92
REMARK H PARENT 8 13 80 60 58 71
REMARK Flexibility Score: inf
ROOT
ATOM      1  C   UNL A   1      34.556  30.954  27.639  1.00  0.00     0.188 C 
ENDROOT
BRANCH   1   2
ATOM      2  O   UNL A   1      33.957  29.680  27.475  1.00  0.00    -0.376 OA
BRANCH   2   3
ATOM      3  C   UNL A   1      32.684  29.710  26.808  1.00  0.00     0.202 C 
BRANCH   3   4
ATOM      4  C   UNL A   1      32.121  28.407  26.172  1.00  0.00     0.261 C 
BRANCH   4   5
ATOM      5  O   UNL A   1      32.965  27.231  26.224  1.00  0.00    -0.460 OA
BRANCH   5   6
ATOM      6  C   UNL A   1      32.399  26.003  26.071  1.00  0.00     0.339 C 
ATOM      7  O   UNL A   1      31.343  25.670  26.542  1.00  0.00    -0.246 OA
BRANCH   6   8
ATOM      8  C   UNL A   1      33.243  25.218  25.117  1.00  0.00     0.075 A 
ATOM      9  C   UNL A   1      32.044  25.559  22.904  1.00  0.00     0.075 A 
ATOM     10  N   UNL A   1      32.214  24.898  21.707  1.00  0.00    -0.275 N 
ATOM     11  C   UNL A   1      32.971  24.980  23.759  1.00  0.00     0.061 A 
ATOM     12  N   UNL A   1      33.290  24.104  21.656  1.00  0.00    -0.154 NA
ATOM     13  H   UNL A   1      31.593  25.003  20.950  1.00  0.00     0.190 HD
ATOM     14  C   UNL A   1      33.794  24.183  22.886  1.00  0.00     0.182 A 
ATOM     15  N   UNL A   1      34.961  23.627  23.282  1.00  0.00    -0.226 NA
ATOM     16  C   UNL A   1      34.492  24.653  25.474  1.00  0.00     0.045 A 
ATOM     17  C   UNL A   1      35.293  23.894  24.573  1.00  0.00     0.074 A 
BRANCH   9  18
ATOM     18  C   UNL A   1      31.177  26.729  22.958  1.00  0.00     0.001 A 
ATOM     19  C   UNL A   1      29.415  28.922  23.041  1.00  0.00     0.118 A 
ATOM     20  C   UNL A   1      30.732  29.075  22.595  1.00  0.00     0.047 A 
ATOM     21  C   UNL A   1      28.994  27.674  23.494  1.00  0.00     0.047 A 
ATOM     22  C   UNL A   1      31.613  27.989  22.563  1.00  0.00     0.014 A 
ATOM     23  C   UNL A   1      29.873  26.587  23.459  1.00  0.00     0.014 A 
BRANCH  19  24
ATOM     24  O   UNL A   1      28.651  30.053  22.973  1.00  0.00    -0.497 OA
ATOM     25  C   UNL A   1      28.536  30.682  21.703  1.00  0.00     0.278 C 
ENDBRANCH  19  24
ENDBRANCH   9  18
BRANCH  17  26
ATOM     26  C   UNL A   1      36.568  23.265  25.005  1.00  0.00     0.000 A 
ATOM     27  C   UNL A   1      36.896  21.937  24.667  1.00  0.00     0.011 A 
ATOM     28  C   UNL A   1      37.469  23.955  25.833  1.00  0.00     0.011 A 
ATOM     29  C   UNL A   1      38.065  21.324  25.146  1.00  0.00     0.014 A 
ATOM     30  C   UNL A   1      38.633  23.348  26.317  1.00  0.00     0.014 A 
ATOM     31  C   UNL A   1      38.943  22.023  25.987  1.00  0.00     0.056 A 
BRANCH  31  32
ATOM     32  C   UNL A   1      40.179  21.356  26.541  1.00  0.00     0.416 C 
ATOM     33  F   UNL A   1      40.375  21.627  27.862  1.00  0.00    -0.166 F 
ATOM     34  F   UNL A   1      40.135  19.999  26.439  1.00  0.00    -0.166 F 
ATOM     35  F   UNL A   1      41.328  21.737  25.912  1.00  0.00    -0.166 F 
ENDBRANCH  31  32
ENDBRANCH  17  26
ENDBRANCH   6   8
ENDBRANCH   5   6
ENDBRANCH   4   5
ENDBRANCH   3   4
ENDBRANCH   2   3
ENDBRANCH   1   2
BRANCH   1  36
ATOM     36  C   UNL A   1      33.656  32.143  27.886  1.00  0.00     0.188 C 
BRANCH  36  37
ATOM     37  O   UNL A   1      34.010  32.932  29.021  1.00  0.00    -0.376 OA
BRANCH  37  38
ATOM     38  C   UNL A   1      34.161  34.336  28.830  1.00  0.00     0.202 C 
BRANCH  38  39
ATOM     39  C   UNL A   1      33.266  35.241  29.670  1.00  0.00     0.261 C 
BRANCH  39  40
ATOM     40  O   UNL A   1      33.867  35.672  30.881  1.00  0.00    -0.460 OA
BRANCH  40  41
ATOM     41  C   UNL A   1      33.257  35.179  31.982  1.00  0.00     0.338 C 
ATOM     42  O   UNL A   1      32.091  35.311  32.316  1.00  0.00    -0.246 OA
BRANCH  41  43
ATOM     43  C   UNL A   1      34.258  34.522  32.827  1.00  0.00     0.060 A 
ATOM     44  C   UNL A   1      35.410  35.270  33.067  1.00  0.00     0.016 A 
ATOM     45  C   UNL A   1      34.237  33.122  32.883  1.00  0.00     0.016 A 
ATOM     46  C   UNL A   1      36.609  34.611  32.997  1.00  0.00     0.010 A 
ATOM     47  C   UNL A   1      35.436  32.467  32.793  1.00  0.00     0.010 A 
ATOM     48  C   UNL A   1      36.591  33.238  32.726  1.00  0.00    -0.014 A 
BRANCH  48  49
ATOM     49  C   UNL A   1      37.847  32.604  32.421  1.00  0.00     0.031 A 
ATOM     50  C   UNL A   1      38.715  32.510  33.605  1.00  0.00     0.074 A 
ATOM     51  C   UNL A   1      38.149  32.115  31.205  1.00  0.00     0.049 A 
ATOM     52  N   UNL A   1      39.770  33.208  33.846  1.00  0.00    -0.248 NA
ATOM     53  C   UNL A   1      38.234  31.709  34.740  1.00  0.00     0.031 C 
ATOM     54  C   UNL A   1      37.278  31.927  30.042  1.00  0.00     0.029 A 
ATOM     55  N   UNL A   1      39.324  31.578  30.793  1.00  0.00    -0.354 N 
ATOM     56  C   UNL A   1      40.212  32.781  35.087  1.00  0.00     0.074 A 
ATOM     57  C   UNL A   1      39.130  32.030  35.672  1.00  0.00     0.031 C 
ATOM     58  C   UNL A   1      37.890  31.098  29.161  1.00  0.00     0.029 A 
ATOM     59  C   UNL A   1      39.236  30.818  29.636  1.00  0.00     0.049 A 
ATOM     60  H   UNL A   1      40.170  31.716  31.277  1.00  0.00     0.167 HD
ATOM     61  C   UNL A   1      41.532  32.824  35.406  1.00  0.00     0.031 A 
ATOM     62  C   UNL A   1      40.189  29.971  29.169  1.00  0.00     0.031 A 
ATOM     63  C   UNL A   1      42.263  33.706  34.531  1.00  0.00     0.049 A 
ATOM     64  C   UNL A   1      41.475  30.352  29.808  1.00  0.00     0.074 A 
ATOM     65  C   UNL A   1      42.177  35.050  34.222  1.00  0.00     0.029 A 
ATOM     66  N   UNL A   1      42.978  33.127  33.507  1.00  0.00    -0.354 N 
ATOM     67  N   UNL A   1      42.094  31.467  29.548  1.00  0.00    -0.248 NA
ATOM     68  C   UNL A   1      41.818  29.730  31.079  1.00  0.00     0.031 C 
ATOM     69  C   UNL A   1      42.419  35.122  32.819  1.00  0.00     0.029 A 
ATOM     70  C   UNL A   1      42.714  33.835  32.363  1.00  0.00     0.049 A 
ATOM     71  H   UNL A   1      43.570  32.345  33.583  1.00  0.00     0.167 HD
ATOM     72  C   UNL A   1      42.543  31.917  30.782  1.00  0.00     0.074 A 
ATOM     73  C   UNL A   1      42.427  30.761  31.673  1.00  0.00     0.031 C 
ATOM     74  C   UNL A   1      42.681  33.252  31.040  1.00  0.00     0.031 A 
BRANCH  61  75
ATOM     75  C   UNL A   1      42.197  31.727  36.194  1.00  0.00    -0.014 A 
ATOM     76  C   UNL A   1      42.987  32.080  37.298  1.00  0.00     0.009 A 
ATOM     77  C   UNL A   1      42.308  30.401  35.731  1.00  0.00     0.009 A 
ATOM     78  C   UNL A   1      43.895  31.173  37.855  1.00  0.00     0.001 A 
ATOM     79  C   UNL A   1      43.180  29.480  36.311  1.00  0.00     0.001 A 
ATOM     80  C   UNL A   1      43.997  29.877  37.357  1.00  0.00     0.000 A 
ENDBRANCH  61  75
BRANCH  62  81
ATOM     81  C   UNL A   1      40.012  28.676  28.475  1.00  0.00    -0.014 A 
ATOM     82  C   UNL A   1      40.614  28.439  27.228  1.00  0.00     0.009 A 
ATOM     83  C   UNL A   1      39.483  27.569  29.165  1.00  0.00     0.009 A 
ATOM     84  C   UNL A   1      40.720  27.138  26.713  1.00  0.00     0.001 A 
ATOM     85  C   UNL A   1      39.587  26.271  28.650  1.00  0.00     0.001 A 
ATOM     86  C   UNL A   1      40.219  26.054  27.431  1.00  0.00     0.000 A 
ENDBRANCH  62  81
BRANCH  74  87
ATOM     87  C   UNL A   1      42.540  34.214  29.882  1.00  0.00    -0.014 A 
ATOM     88  C   UNL A   1      41.309  34.765  29.481  1.00  0.00     0.009 A 
ATOM     89  C   UNL A   1      43.710  34.695  29.277  1.00  0.00     0.009 A 
ATOM     90  C   UNL A   1      41.254  35.745  28.484  1.00  0.00     0.001 A 
ATOM     91  C   UNL A   1      43.655  35.689  28.297  1.00  0.00     0.001 A 
ATOM     92  C   UNL A   1      42.428  36.210  27.895  1.00  0.00     0.000 A 
ENDBRANCH  74  87
ENDBRANCH  48  49
ENDBRANCH  41  43
ENDBRANCH  40  41
ENDBRANCH  39  40
ENDBRANCH  38  39
ENDBRANCH  37  38
ENDBRANCH  36  37
ENDBRANCH   1  36
TORSDOF 21
ENDMDL
MODEL 3
REMARK VINA RESULT:     -12.1      3.910      7.899
REMARK SMILES COc1ccc(-c2[nH]nc3nc(-c4ccc(C(F)(F)F)cc4)cc(C(=O)OCCOCCOCCOC(=O)c4ccc(-c5c6nc(c(-c7ccccc7)c7ccc([nH]7)c(-c7ccccc7)c7nc(c(-c8ccccc8)c8ccc5[nH]8)C=C7)C=C6)cc4)c23)cc1
REMARK SMILES IDX 31 1 30 2 29 3 28 4 27 5 25 6 26 7 24 8 7 9 8 10 87 11 9 12
REMARK SMILES IDX 10 14 11 15 23 16 12 17 6 18 3 19 4 20 89 21 5 22 88 23 2 24
REMARK SMILES IDX 1 25 13 26 14 27 22 28 15 29 21 30 16 31 17 32 18 33 19 34
REMARK SMILES IDX 20 35 32 36 33 37 34 38 35 39 36 40 37 41 38 42 39 43 40 44
REMARK SMILES IDX 86 45 41 46 85 47 42 48 43 49 44 50 79 51 45 52 84 53 78 54
REMARK SMILES IDX 80 55 46 56 83 57 77 58 76 59 47 61 69 62 54 63 68 64 55 65
REMARK SMILES IDX 58 66 67 67 81 68 56 69 57 70 66 72 82 73 59 74 48 75 49 76
REMARK SMILES IDX 53 77 50 78 52 79 51 80 70 81 71 82 75 83 72 84 74 85 73 86
REMARK SMILES IDX 60 87 61 88 65 89 62 90 64 91 63 92
REMARK H PARENT 8 13 80 60 58 71
REMARK Flexibility Score: inf
ROOT
ATOM      1  C   UNL A   1      34.930  24.152  25.899  1.00  0.00     0.188 C 
ENDROOT
BRANCH   1   2
ATOM      2  O   UNL A   1      33.958  25.180  25.821  1.00  0.00    -0.376 OA
BRANCH   2   3
ATOM      3  C   UNL A   1      34.409  26.366  25.144  1.00  0.00     0.202 C 
BRANCH   3   4
ATOM      4  C   UNL A   1      33.653  26.861  23.879  1.00  0.00     0.261 C 
BRANCH   4   5
ATOM      5  O   UNL A   1      33.504  25.917  22.790  1.00  0.00    -0.460 OA
BRANCH   5   6
ATOM      6  C   UNL A   1      32.264  25.444  22.490  1.00  0.00     0.339 C 
ATOM      7  O   UNL A   1      31.622  25.761  21.524  1.00  0.00    -0.246 OA
BRANCH   6   8
ATOM      8  C   UNL A   1      31.920  24.379  23.484  1.00  0.00     0.075 A 
ATOM      9  C   UNL A   1      30.224  25.538  24.977  1.00  0.00     0.075 A 
ATOM     10  N   UNL A   1      29.723  25.144  26.199  1.00  0.00    -0.275 N 
ATOM     11  C   UNL A   1      31.095  24.520  24.612  1.00  0.00     0.061 A 
ATOM     12  N   UNL A   1      30.028  23.890  26.550  1.00  0.00    -0.154 NA
ATOM     13  H   UNL A   1      29.183  25.740  26.768  1.00  0.00     0.190 HD
ATOM     14  C   UNL A   1      30.824  23.476  25.565  1.00  0.00     0.182 A 
ATOM     15  N   UNL A   1      31.299  22.217  25.431  1.00  0.00    -0.226 NA
ATOM     16  C   UNL A   1      32.359  23.037  23.361  1.00  0.00     0.045 A 
ATOM     17  C   UNL A   1      32.045  22.023  24.312  1.00  0.00     0.074 A 
BRANCH   9  18
ATOM     18  C   UNL A   1      29.647  26.695  24.307  1.00  0.00     0.001 A 
ATOM     19  C   UNL A   1      28.602  28.997  23.072  1.00  0.00     0.118 A 
ATOM     20  C   UNL A   1      27.802  27.869  23.281  1.00  0.00     0.047 A 
ATOM     21  C   UNL A   1      29.945  28.955  23.438  1.00  0.00     0.047 A 
ATOM     22  C   UNL A   1      28.322  26.719  23.885  1.00  0.00     0.014 A 
ATOM     23  C   UNL A   1      30.465  27.807  24.045  1.00  0.00     0.014 A 
BRANCH  19  24
ATOM     24  O   UNL A   1      27.953  30.066  22.518  1.00  0.00    -0.497 OA
ATOM     25  C   UNL A   1      28.694  30.875  21.613  1.00  0.00     0.278 C 
ENDBRANCH  19  24
ENDBRANCH   9  18
BRANCH  17  26
ATOM     26  C   UNL A   1      32.578  20.641  24.180  1.00  0.00     0.000 A 
ATOM     27  C   UNL A   1      32.168  19.781  23.141  1.00  0.00     0.011 A 
ATOM     28  C   UNL A   1      33.464  20.115  25.134  1.00  0.00     0.011 A 
ATOM     29  C   UNL A   1      32.614  18.451  23.070  1.00  0.00     0.014 A 
ATOM     30  C   UNL A   1      33.908  18.789  25.070  1.00  0.00     0.014 A 
ATOM     31  C   UNL A   1      33.484  17.938  24.042  1.00  0.00     0.056 A 
BRANCH  31  32
ATOM     32  C   UNL A   1      33.933  16.498  23.996  1.00  0.00     0.416 C 
ATOM     33  F   UNL A   1      34.374  16.124  22.763  1.00  0.00    -0.166 F 
ATOM     34  F   UNL A   1      34.956  16.236  24.855  1.00  0.00    -0.166 F 
ATOM     35  F   UNL A   1      32.945  15.613  24.318  1.00  0.00    -0.166 F 
ENDBRANCH  31  32
ENDBRANCH  17  26
ENDBRANCH   6   8
ENDBRANCH   5   6
ENDBRANCH   4   5
ENDBRANCH   3   4
ENDBRANCH   2   3
ENDBRANCH   1   2
BRANCH   1  36
ATOM     36  C   UNL A   1      35.717  23.812  24.653  1.00  0.00     0.188 C 
BRANCH  36  37
ATOM     37  O   UNL A   1      35.842  22.415  24.391  1.00  0.00    -0.376 OA
BRANCH  37  38
ATOM     38  C   UNL A   1      37.149  21.904  24.142  1.00  0.00     0.202 C 
BRANCH  38  39
ATOM     39  C   UNL A   1      37.675  20.862  25.124  1.00  0.00     0.261 C 
BRANCH  39  40
ATOM     40  O   UNL A   1      38.841  21.272  25.821  1.00  0.00    -0.460 OA
BRANCH  40  41
ATOM     41  C   UNL A   1      39.824  20.344  25.806  1.00  0.00     0.338 C 
ATOM     42  O   UNL A   1      39.742  19.172  25.480  1.00  0.00    -0.246 OA
BRANCH  41  43
ATOM     43  C   UNL A   1      41.042  20.931  26.369  1.00  0.00     0.060 A 
ATOM     44  C   UNL A   1      41.183  20.788  27.750  1.00  0.00     0.016 A 
ATOM     45  C   UNL A   1      41.654  21.965  25.647  1.00  0.00     0.016 A 
ATOM     46  C   UNL A   1      41.625  21.880  28.450  1.00  0.00     0.010 A 
ATOM     47  C   UNL A   1      42.077  23.063  26.349  1.00  0.00     0.010 A 
ATOM     48  C   UNL A   1      41.935  23.041  27.732  1.00  0.00    -0.014 A 
BRANCH  48  49
ATOM     49  C   UNL A   1      42.168  24.245  28.485  1.00  0.00     0.031 A 
ATOM     50  C   UNL A   1      41.164  25.278  28.189  1.00  0.00     0.074 A 
ATOM     51  C   UNL A   1      43.158  24.370  29.387  1.00  0.00     0.049 A 
ATOM     52  N   UNL A   1      41.340  26.349  27.496  1.00  0.00    -0.248 NA
ATOM     53  C   UNL A   1      39.762  24.979  28.514  1.00  0.00     0.031 C 
ATOM     54  C   UNL A   1      44.041  23.340  29.939  1.00  0.00     0.029 A 
ATOM     55  N   UNL A   1      43.512  25.477  30.084  1.00  0.00    -0.354 N 
ATOM     56  C   UNL A   1      40.104  26.975  27.474  1.00  0.00     0.074 A 
ATOM     57  C   UNL A   1      39.143  25.999  27.922  1.00  0.00     0.031 C 
ATOM     58  C   UNL A   1      44.644  23.825  31.052  1.00  0.00     0.029 A 
ATOM     59  C   UNL A   1      44.296  25.229  31.201  1.00  0.00     0.049 A 
ATOM     60  H   UNL A   1      43.235  26.384  29.820  1.00  0.00     0.167 HD
ATOM     61  C   UNL A   1      40.011  28.326  27.375  1.00  0.00     0.031 A 
ATOM     62  C   UNL A   1      44.559  26.112  32.198  1.00  0.00     0.031 A 
ATOM     63  C   UNL A   1      41.238  28.911  26.893  1.00  0.00     0.049 A 
ATOM     64  C   UNL A   1      44.287  27.473  31.670  1.00  0.00     0.074 A 
ATOM     65  C   UNL A   1      41.992  28.765  25.745  1.00  0.00     0.029 A 
ATOM     66  N   UNL A   1      42.077  29.473  27.828  1.00  0.00    -0.354 N 
ATOM     67  N   UNL A   1      45.014  28.035  30.747  1.00  0.00    -0.248 NA
ATOM     68  C   UNL A   1      42.941  28.007  31.814  1.00  0.00     0.031 C 
ATOM     69  C   UNL A   1      43.347  28.798  26.187  1.00  0.00     0.029 A 
ATOM     70  C   UNL A   1      43.350  29.037  27.562  1.00  0.00     0.049 A 
ATOM     71  H   UNL A   1      41.812  30.079  28.557  1.00  0.00     0.167 HD
ATOM     72  C   UNL A   1      44.099  28.656  29.908  1.00  0.00     0.074 A 
ATOM     73  C   UNL A   1      42.847  28.686  30.666  1.00  0.00     0.031 C 
ATOM     74  C   UNL A   1      44.358  28.816  28.576  1.00  0.00     0.031 A 
BRANCH  61  75
ATOM     75  C   UNL A   1      38.987  29.113  28.148  1.00  0.00    -0.014 A 
ATOM     76  C   UNL A   1      39.097  29.164  29.545  1.00  0.00     0.009 A 
ATOM     77  C   UNL A   1      37.773  29.561  27.589  1.00  0.00     0.009 A 
ATOM     78  C   UNL A   1      38.018  29.571  30.340  1.00  0.00     0.001 A 
ATOM     79  C   UNL A   1      36.711  30.007  28.375  1.00  0.00     0.001 A 
ATOM     80  C   UNL A   1      36.825  29.984  29.755  1.00  0.00     0.000 A 
ENDBRANCH  61  75
BRANCH  62  81
ATOM     81  C   UNL A   1      44.712  25.849  33.647  1.00  0.00    -0.014 A 
ATOM     82  C   UNL A   1      43.763  25.084  34.344  1.00  0.00     0.009 A 
ATOM     83  C   UNL A   1      45.937  26.110  34.289  1.00  0.00     0.009 A 
ATOM     84  C   UNL A   1      44.046  24.566  35.617  1.00  0.00     0.001 A 
ATOM     85  C   UNL A   1      46.219  25.595  35.560  1.00  0.00     0.001 A 
ATOM     86  C   UNL A   1      45.279  24.810  36.217  1.00  0.00     0.000 A 
ENDBRANCH  62  81
BRANCH  74  87
ATOM     87  C   UNL A   1      45.751  28.495  28.083  1.00  0.00    -0.014 A 
ATOM     88  C   UNL A   1      46.142  27.213  27.653  1.00  0.00     0.009 A 
ATOM     89  C   UNL A   1      46.649  29.557  27.903  1.00  0.00     0.009 A 
ATOM     90  C   UNL A   1      47.406  27.001  27.090  1.00  0.00     0.001 A 
ATOM     91  C   UNL A   1      47.901  29.348  27.321  1.00  0.00     0.001 A 
ATOM     92  C   UNL A   1      48.283  28.070  26.920  1.00  0.00     0.000 A 
ENDBRANCH  74  87
ENDBRANCH  48  49
ENDBRANCH  41  43
ENDBRANCH  40  41
ENDBRANCH  39  40
ENDBRANCH  38  39
ENDBRANCH  37  38
ENDBRANCH  36  37
ENDBRANCH   1  36
TORSDOF 21
ENDMDL
