MODEL 1
REMARK VINA RESULT:      -9.9      0.000      0.000
REMARK SMILES CCn1ncc(NC(=O)[C@@H]2CCCC[C@@H]2C(=O)OCCOCCOCCOC(=O)c2ccc(-c3c4nc(c(-c5ccccc5)c5ccc([nH]5)c(-c5ccccc5)c5nc(c(-c6ccccc6)c6ccc3[nH]6)C=C5)C=C4)cc2)c1C(=O)Nc1cnn(C)c1C
REMARK SMILES IDX 22 1 21 2 20 3 19 4 18 5 16 6 17 7 15 8 10 9 11 10 12 11
REMARK SMILES IDX 14 12 13 13 8 14 7 15 9 17 6 18 3 19 4 20 78 21 5 22 2 23
REMARK SMILES IDX 1 24 79 25 80 26 81 27 82 29 83 30 87 31 84 32 85 33 88 34
REMARK SMILES IDX 86 35 23 36 24 37 25 38 26 39 27 40 28 41 29 42 30 43 31 44
REMARK SMILES IDX 77 45 32 46 76 47 33 48 34 49 35 50 70 51 36 52 75 53 69 54
REMARK SMILES IDX 71 55 37 56 74 57 68 58 67 59 38 61 60 62 45 63 59 64 46 65
REMARK SMILES IDX 49 66 58 67 72 68 47 69 48 70 57 72 73 73 50 74 39 75 40 76
REMARK SMILES IDX 44 77 41 78 43 79 42 80 61 81 62 82 66 83 63 84 65 85 64 86
REMARK SMILES IDX 51 87 52 88 56 89 53 90 55 91 54 92
REMARK H PARENT 7 16 81 28 71 60 49 71
REMARK Flexibility Score: inf
ROOT
ATOM      1  C   UNL A   1      32.133  29.026  25.427  1.00  0.00     0.188 C 
ENDROOT
BRANCH   1   2
ATOM      2  O   UNL A   1      33.327  28.293  25.183  1.00  0.00    -0.376 OA
BRANCH   2   3
ATOM      3  C   UNL A   1      33.743  28.095  23.842  1.00  0.00     0.202 C 
BRANCH   3   4
ATOM      4  C   UNL A   1      33.437  26.700  23.284  1.00  0.00     0.261 C 
BRANCH   4   5
ATOM      5  O   UNL A   1      32.075  26.503  22.849  1.00  0.00    -0.463 OA
BRANCH   5   6
ATOM      6  C   UNL A   1      31.383  25.545  23.512  1.00  0.00     0.309 C 
ATOM      7  O   UNL A   1      30.220  25.239  23.261  1.00  0.00    -0.252 OA
BRANCH   6   8
ATOM      8  C   UNL A   1      32.168  24.806  24.598  1.00  0.00     0.111 C 
ATOM      9  C   UNL A   1      32.441  23.302  24.542  1.00  0.00     0.093 C 
ATOM     10  C   UNL A   1      31.227  22.442  24.862  1.00  0.00     0.014 C 
ATOM     11  C   UNL A   1      30.585  22.789  26.201  1.00  0.00     0.001 C 
ATOM     12  C   UNL A   1      31.681  25.186  26.002  1.00  0.00     0.016 C 
ATOM     13  C   UNL A   1      30.705  24.231  26.695  1.00  0.00     0.001 C 
BRANCH   9  14
ATOM     14  C   UNL A   1      33.147  22.866  23.280  1.00  0.00     0.228 C 
ATOM     15  N   UNL A   1      34.484  22.630  23.254  1.00  0.00    -0.322 N 
ATOM     16  H   UNL A   1      34.773  22.252  22.392  1.00  0.00     0.170 HD
ATOM     17  O   UNL A   1      32.523  22.626  22.243  1.00  0.00    -0.274 OA
BRANCH  15  18
ATOM     18  C   UNL A   1      35.546  22.784  24.132  1.00  0.00     0.092 A 
ATOM     19  N   UNL A   1      37.315  22.813  25.440  1.00  0.00    -0.258 N 
ATOM     20  N   UNL A   1      36.919  24.098  25.409  1.00  0.00    -0.178 NA
ATOM     21  C   UNL A   1      36.473  21.942  24.754  1.00  0.00     0.150 A 
ATOM     22  C   UNL A   1      35.840  24.073  24.645  1.00  0.00     0.162 A 
BRANCH  19  23
ATOM     23  C   UNL A   1      38.516  22.546  26.210  1.00  0.00     0.142 C 
ATOM     24  C   UNL A   1      39.265  23.805  26.607  1.00  0.00     0.029 C 
ENDBRANCH  19  23
BRANCH  21  25
ATOM     25  C   UNL A   1      36.515  20.494  24.922  1.00  0.00     0.276 C 
ATOM     26  O   UNL A   1      37.507  19.818  24.667  1.00  0.00    -0.267 OA
ATOM     27  N   UNL A   1      35.391  19.926  25.483  1.00  0.00    -0.318 N 
ATOM     28  H   UNL A   1      35.229  20.070  26.444  1.00  0.00     0.170 HD
BRANCH  27  29
ATOM     29  C   UNL A   1      34.481  19.168  24.780  1.00  0.00     0.082 A 
ATOM     30  C   UNL A   1      33.265  19.544  24.182  1.00  0.00     0.161 A 
ATOM     31  C   UNL A   1      34.543  17.791  24.650  1.00  0.00     0.059 A 
ATOM     32  N   UNL A   1      32.530  18.485  23.844  1.00  0.00    -0.179 NA
ATOM     33  N   UNL A   1      33.284  17.434  24.218  1.00  0.00    -0.271 N 
ATOM     34  C   UNL A   1      35.573  16.796  25.047  1.00  0.00     0.068 C 
ATOM     35  C   UNL A   1      32.637  16.150  24.377  1.00  0.00     0.174 C 
ENDBRANCH  27  29
ENDBRANCH  21  25
ENDBRANCH  15  18
ENDBRANCH   9  14
ENDBRANCH   6   8
ENDBRANCH   5   6
ENDBRANCH   4   5
ENDBRANCH   3   4
ENDBRANCH   2   3
ENDBRANCH   1   2
BRANCH   1  36
ATOM     36  C   UNL A   1      32.191  30.404  26.089  1.00  0.00     0.188 C 
BRANCH  36  37
ATOM     37  O   UNL A   1      32.876  30.387  27.336  1.00  0.00    -0.376 OA
BRANCH  37  38
ATOM     38  C   UNL A   1      34.192  30.943  27.262  1.00  0.00     0.202 C 
BRANCH  38  39
ATOM     39  C   UNL A   1      34.476  31.629  28.591  1.00  0.00     0.261 C 
BRANCH  39  40
ATOM     40  O   UNL A   1      35.404  30.884  29.381  1.00  0.00    -0.460 OA
BRANCH  40  41
ATOM     41  C   UNL A   1      36.452  31.546  29.920  1.00  0.00     0.338 C 
ATOM     42  O   UNL A   1      36.417  32.496  30.676  1.00  0.00    -0.246 OA
BRANCH  41  43
ATOM     43  C   UNL A   1      37.680  30.931  29.379  1.00  0.00     0.060 A 
ATOM     44  C   UNL A   1      37.594  29.613  28.925  1.00  0.00     0.016 A 
ATOM     45  C   UNL A   1      38.916  31.568  29.557  1.00  0.00     0.016 A 
ATOM     46  C   UNL A   1      38.742  28.843  28.919  1.00  0.00     0.010 A 
ATOM     47  C   UNL A   1      40.054  30.799  29.576  1.00  0.00     0.010 A 
ATOM     48  C   UNL A   1      39.930  29.424  29.366  1.00  0.00    -0.014 A 
BRANCH  48  49
ATOM     49  C   UNL A   1      41.002  28.560  29.832  1.00  0.00     0.031 A 
ATOM     50  C   UNL A   1      41.196  28.441  31.292  1.00  0.00     0.074 A 
ATOM     51  C   UNL A   1      41.599  27.733  28.946  1.00  0.00     0.049 A 
ATOM     52  N   UNL A   1      42.309  28.490  31.948  1.00  0.00    -0.248 NA
ATOM     53  C   UNL A   1      40.001  28.267  32.133  1.00  0.00     0.031 C 
ATOM     54  C   UNL A   1      41.230  27.548  27.534  1.00  0.00     0.029 A 
ATOM     55  N   UNL A   1      42.541  26.768  29.149  1.00  0.00    -0.354 N 
ATOM     56  C   UNL A   1      41.978  28.183  33.263  1.00  0.00     0.074 A 
ATOM     57  C   UNL A   1      40.542  28.165  33.345  1.00  0.00     0.031 C 
ATOM     58  C   UNL A   1      41.761  26.393  27.085  1.00  0.00     0.029 A 
ATOM     59  C   UNL A   1      42.581  25.816  28.137  1.00  0.00     0.049 A 
ATOM     60  H   UNL A   1      43.134  26.747  29.935  1.00  0.00     0.167 HD
ATOM     61  C   UNL A   1      42.897  27.732  34.156  1.00  0.00     0.031 A 
ATOM     62  C   UNL A   1      43.165  24.595  28.178  1.00  0.00     0.031 A 
ATOM     63  C   UNL A   1      44.246  28.043  33.779  1.00  0.00     0.049 A 
ATOM     64  C   UNL A   1      44.100  24.568  29.323  1.00  0.00     0.074 A 
ATOM     65  C   UNL A   1      44.935  29.210  33.516  1.00  0.00     0.029 A 
ATOM     66  N   UNL A   1      45.031  27.024  33.304  1.00  0.00    -0.354 N 
ATOM     67  N   UNL A   1      45.224  25.220  29.363  1.00  0.00    -0.248 NA
ATOM     68  C   UNL A   1      43.618  24.080  30.606  1.00  0.00     0.031 C 
ATOM     69  C   UNL A   1      45.883  28.868  32.510  1.00  0.00     0.029 A 
ATOM     70  C   UNL A   1      45.726  27.510  32.227  1.00  0.00     0.049 A 
ATOM     71  H   UNL A   1      45.086  26.111  33.670  1.00  0.00     0.167 HD
ATOM     72  C   UNL A   1      45.370  25.592  30.691  1.00  0.00     0.074 A 
ATOM     73  C   UNL A   1      44.439  24.742  31.425  1.00  0.00     0.031 C 
ATOM     74  C   UNL A   1      46.010  26.749  31.031  1.00  0.00     0.031 A 
BRANCH  61  75
ATOM     75  C   UNL A   1      42.558  26.690  35.182  1.00  0.00    -0.014 A 
ATOM     76  C   UNL A   1      42.420  25.351  34.789  1.00  0.00     0.009 A 
ATOM     77  C   UNL A   1      42.111  27.027  36.477  1.00  0.00     0.009 A 
ATOM     78  C   UNL A   1      41.845  24.403  35.644  1.00  0.00     0.001 A 
ATOM     79  C   UNL A   1      41.580  26.075  37.349  1.00  0.00     0.001 A 
ATOM     80  C   UNL A   1      41.428  24.765  36.922  1.00  0.00     0.000 A 
ENDBRANCH  61  75
BRANCH  62  81
ATOM     81  C   UNL A   1      42.819  23.379  27.411  1.00  0.00    -0.014 A 
ATOM     82  C   UNL A   1      43.212  23.235  26.072  1.00  0.00     0.009 A 
ATOM     83  C   UNL A   1      42.277  22.250  28.056  1.00  0.00     0.009 A 
ATOM     84  C   UNL A   1      43.081  22.007  25.410  1.00  0.00     0.001 A 
ATOM     85  C   UNL A   1      42.133  21.027  27.392  1.00  0.00     0.001 A 
ATOM     86  C   UNL A   1      42.548  20.902  26.071  1.00  0.00     0.000 A 
ENDBRANCH  62  81
BRANCH  74  87
ATOM     87  C   UNL A   1      46.809  27.450  29.959  1.00  0.00    -0.014 A 
ATOM     88  C   UNL A   1      46.285  28.509  29.196  1.00  0.00     0.009 A 
ATOM     89  C   UNL A   1      48.170  27.135  29.814  1.00  0.00     0.009 A 
ATOM     90  C   UNL A   1      47.086  29.203  28.286  1.00  0.00     0.001 A 
ATOM     91  C   UNL A   1      48.976  27.847  28.921  1.00  0.00     0.001 A 
ATOM     92  C   UNL A   1      48.433  28.874  28.151  1.00  0.00     0.000 A 
ENDBRANCH  74  87
ENDBRANCH  48  49
ENDBRANCH  41  43
ENDBRANCH  40  41
ENDBRANCH  39  40
ENDBRANCH  38  39
ENDBRANCH  37  38
ENDBRANCH  36  37
ENDBRANCH   1  36
TORSDOF 22
ENDMDL
MODEL 2
REMARK VINA RESULT:      -9.9      3.548      5.541
REMARK SMILES CCn1ncc(NC(=O)[C@@H]2CCCC[C@@H]2C(=O)OCCOCCOCCOC(=O)c2ccc(-c3c4nc(c(-c5ccccc5)c5ccc([nH]5)c(-c5ccccc5)c5nc(c(-c6ccccc6)c6ccc3[nH]6)C=C5)C=C4)cc2)c1C(=O)Nc1cnn(C)c1C
REMARK SMILES IDX 22 1 21 2 20 3 19 4 18 5 16 6 17 7 15 8 10 9 11 10 12 11
REMARK SMILES IDX 14 12 13 13 8 14 7 15 9 17 6 18 3 19 4 20 78 21 5 22 2 23
REMARK SMILES IDX 1 24 79 25 80 26 81 27 82 29 83 30 87 31 84 32 85 33 88 34
REMARK SMILES IDX 86 35 23 36 24 37 25 38 26 39 27 40 28 41 29 42 30 43 31 44
REMARK SMILES IDX 77 45 32 46 76 47 33 48 34 49 35 50 70 51 36 52 75 53 69 54
REMARK SMILES IDX 71 55 37 56 74 57 68 58 67 59 38 61 60 62 45 63 59 64 46 65
REMARK SMILES IDX 49 66 58 67 72 68 47 69 48 70 57 72 73 73 50 74 39 75 40 76
REMARK SMILES IDX 44 77 41 78 43 79 42 80 61 81 62 82 66 83 63 84 65 85 64 86
REMARK SMILES IDX 51 87 52 88 56 89 53 90 55 91 54 92
REMARK H PARENT 7 16 81 28 71 60 49 71
REMARK Flexibility Score: inf
ROOT
ATOM      1  C   UNL A   1      32.982  32.170  27.704  1.00  0.00     0.188 C 
ENDROOT
BRANCH   1   2
ATOM      2  O   UNL A   1      32.730  31.043  26.872  1.00  0.00    -0.376 OA
BRANCH   2   3
ATOM      3  C   UNL A   1      33.763  30.089  26.685  1.00  0.00     0.202 C 
BRANCH   3   4
ATOM      4  C   UNL A   1      33.596  28.806  27.507  1.00  0.00     0.261 C 
BRANCH   4   5
ATOM      5  O   UNL A   1      32.554  27.919  27.048  1.00  0.00    -0.463 OA
BRANCH   5   6
ATOM      6  C   UNL A   1      32.545  27.670  25.716  1.00  0.00     0.309 C 
ATOM      7  O   UNL A   1      33.558  27.554  25.032  1.00  0.00    -0.252 OA
BRANCH   6   8
ATOM      8  C   UNL A   1      31.158  27.484  25.096  1.00  0.00     0.111 C 
ATOM      9  C   UNL A   1      30.626  26.121  24.655  1.00  0.00     0.093 C 
ATOM     10  C   UNL A   1      31.249  25.600  23.367  1.00  0.00     0.014 C 
ATOM     11  C   UNL A   1      31.136  26.585  22.209  1.00  0.00     0.001 C 
ATOM     12  C   UNL A   1      30.891  28.518  23.995  1.00  0.00     0.016 C 
ATOM     13  C   UNL A   1      31.101  28.077  22.544  1.00  0.00     0.001 C 
BRANCH   9  14
ATOM     14  C   UNL A   1      30.625  25.090  25.759  1.00  0.00     0.228 C 
ATOM     15  N   UNL A   1      31.698  24.290  25.992  1.00  0.00    -0.322 N 
ATOM     16  H   UNL A   1      31.584  23.751  26.808  1.00  0.00     0.170 HD
ATOM     17  O   UNL A   1      29.682  24.992  26.548  1.00  0.00    -0.274 OA
BRANCH  15  18
ATOM     18  C   UNL A   1      32.914  24.041  25.374  1.00  0.00     0.092 A 
ATOM     19  N   UNL A   1      34.713  23.577  24.195  1.00  0.00    -0.258 N 
ATOM     20  N   UNL A   1      35.169  24.383  25.170  1.00  0.00    -0.178 NA
ATOM     21  C   UNL A   1      33.363  23.255  24.307  1.00  0.00     0.150 A 
ATOM     22  C   UNL A   1      34.091  24.638  25.893  1.00  0.00     0.162 A 
BRANCH  19  23
ATOM     23  C   UNL A   1      35.703  23.147  23.224  1.00  0.00     0.142 C 
ATOM     24  C   UNL A   1      36.810  22.306  23.831  1.00  0.00     0.029 C 
ENDBRANCH  19  23
BRANCH  21  25
ATOM     25  C   UNL A   1      32.740  22.160  23.574  1.00  0.00     0.276 C 
ATOM     26  O   UNL A   1      31.756  22.308  22.854  1.00  0.00    -0.267 OA
ATOM     27  N   UNL A   1      33.383  20.943  23.659  1.00  0.00    -0.318 N 
ATOM     28  H   UNL A   1      34.233  20.833  23.175  1.00  0.00     0.170 HD
BRANCH  27  29
ATOM     29  C   UNL A   1      32.906  19.872  24.382  1.00  0.00     0.082 A 
ATOM     30  C   UNL A   1      32.800  19.698  25.773  1.00  0.00     0.161 A 
ATOM     31  C   UNL A   1      32.555  18.651  23.833  1.00  0.00     0.059 A 
ATOM     32  N   UNL A   1      32.562  18.428  26.099  1.00  0.00    -0.179 NA
ATOM     33  N   UNL A   1      32.506  17.794  24.912  1.00  0.00    -0.271 N 
ATOM     34  C   UNL A   1      32.439  18.184  22.427  1.00  0.00     0.068 C 
ATOM     35  C   UNL A   1      32.669  16.357  24.895  1.00  0.00     0.174 C 
ENDBRANCH  27  29
ENDBRANCH  21  25
ENDBRANCH  15  18
ENDBRANCH   9  14
ENDBRANCH   6   8
ENDBRANCH   5   6
ENDBRANCH   4   5
ENDBRANCH   3   4
ENDBRANCH   2   3
ENDBRANCH   1   2
BRANCH   1  36
ATOM     36  C   UNL A   1      34.403  32.480  28.177  1.00  0.00     0.188 C 
BRANCH  36  37
ATOM     37  O   UNL A   1      34.661  33.878  28.264  1.00  0.00    -0.376 OA
BRANCH  37  38
ATOM     38  C   UNL A   1      33.470  34.669  28.269  1.00  0.00     0.202 C 
BRANCH  38  39
ATOM     39  C   UNL A   1      33.417  35.409  29.599  1.00  0.00     0.261 C 
BRANCH  39  40
ATOM     40  O   UNL A   1      33.206  34.514  30.692  1.00  0.00    -0.460 OA
BRANCH  40  41
ATOM     41  C   UNL A   1      33.236  35.023  31.943  1.00  0.00     0.338 C 
ATOM     42  O   UNL A   1      32.469  35.827  32.433  1.00  0.00    -0.246 OA
BRANCH  41  43
ATOM     43  C   UNL A   1      34.421  34.456  32.616  1.00  0.00     0.060 A 
ATOM     44  C   UNL A   1      35.397  35.350  33.064  1.00  0.00     0.016 A 
ATOM     45  C   UNL A   1      34.656  33.075  32.570  1.00  0.00     0.016 A 
ATOM     46  C   UNL A   1      36.694  34.895  33.197  1.00  0.00     0.010 A 
ATOM     47  C   UNL A   1      35.949  32.625  32.677  1.00  0.00     0.010 A 
ATOM     48  C   UNL A   1      36.964  33.563  32.879  1.00  0.00    -0.014 A 
BRANCH  48  49
ATOM     49  C   UNL A   1      38.324  33.185  32.534  1.00  0.00     0.031 A 
ATOM     50  C   UNL A   1      39.341  33.243  33.604  1.00  0.00     0.074 A 
ATOM     51  C   UNL A   1      38.546  32.575  31.348  1.00  0.00     0.049 A 
ATOM     52  N   UNL A   1      40.533  33.739  33.536  1.00  0.00    -0.248 NA
ATOM     53  C   UNL A   1      38.983  32.701  34.924  1.00  0.00     0.031 C 
ATOM     54  C   UNL A   1      37.527  32.174  30.365  1.00  0.00     0.029 A 
ATOM     55  N   UNL A   1      39.693  32.037  30.843  1.00  0.00    -0.354 N 
ATOM     56  C   UNL A   1      41.138  33.422  34.747  1.00  0.00     0.074 A 
ATOM     57  C   UNL A   1      40.113  32.885  35.603  1.00  0.00     0.031 C 
ATOM     58  C   UNL A   1      38.059  31.266  29.523  1.00  0.00     0.029 A 
ATOM     59  C   UNL A   1      39.467  31.100  29.842  1.00  0.00     0.049 A 
ATOM     60  H   UNL A   1      40.593  32.287  31.157  1.00  0.00     0.167 HD
ATOM     61  C   UNL A   1      42.487  33.399  34.901  1.00  0.00     0.031 A 
ATOM     62  C   UNL A   1      40.339  30.183  29.360  1.00  0.00     0.031 A 
ATOM     63  C   UNL A   1      43.178  34.156  33.898  1.00  0.00     0.049 A 
ATOM     64  C   UNL A   1      41.702  30.576  29.779  1.00  0.00     0.074 A 
ATOM     65  C   UNL A   1      43.154  35.473  33.487  1.00  0.00     0.029 A 
ATOM     66  N   UNL A   1      43.841  33.464  32.915  1.00  0.00    -0.354 N 
ATOM     67  N   UNL A   1      42.349  31.596  29.295  1.00  0.00    -0.248 NA
ATOM     68  C   UNL A   1      42.235  30.033  31.019  1.00  0.00     0.031 C 
ATOM     69  C   UNL A   1      43.407  35.434  32.086  1.00  0.00     0.029 A 
ATOM     70  C   UNL A   1      43.584  34.097  31.726  1.00  0.00     0.049 A 
ATOM     71  H   UNL A   1      44.397  32.662  33.040  1.00  0.00     0.167 HD
ATOM     72  C   UNL A   1      43.089  32.083  30.361  1.00  0.00     0.074 A 
ATOM     73  C   UNL A   1      43.094  31.004  31.342  1.00  0.00     0.031 C 
ATOM     74  C   UNL A   1      43.373  33.414  30.469  1.00  0.00     0.031 A 
BRANCH  61  75
ATOM     75  C   UNL A   1      43.167  32.376  35.765  1.00  0.00    -0.014 A 
ATOM     76  C   UNL A   1      43.044  31.015  35.452  1.00  0.00     0.009 A 
ATOM     77  C   UNL A   1      43.708  32.698  37.027  1.00  0.00     0.009 A 
ATOM     78  C   UNL A   1      43.424  30.027  36.368  1.00  0.00     0.001 A 
ATOM     79  C   UNL A   1      44.131  31.716  37.924  1.00  0.00     0.001 A 
ATOM     80  C   UNL A   1      43.969  30.378  37.601  1.00  0.00     0.000 A 
ENDBRANCH  61  75
BRANCH  62  81
ATOM     81  C   UNL A   1      40.053  28.876  28.731  1.00  0.00    -0.014 A 
ATOM     82  C   UNL A   1      40.391  28.631  27.392  1.00  0.00     0.009 A 
ATOM     83  C   UNL A   1      39.631  27.778  29.508  1.00  0.00     0.009 A 
ATOM     84  C   UNL A   1      40.326  27.338  26.857  1.00  0.00     0.001 A 
ATOM     85  C   UNL A   1      39.552  26.490  28.970  1.00  0.00     0.001 A 
ATOM     86  C   UNL A   1      39.912  26.267  27.646  1.00  0.00     0.000 A 
ENDBRANCH  62  81
BRANCH  74  87
ATOM     87  C   UNL A   1      43.126  34.285  29.261  1.00  0.00    -0.014 A 
ATOM     88  C   UNL A   1      44.014  34.336  28.172  1.00  0.00     0.009 A 
ATOM     89  C   UNL A   1      41.899  34.959  29.152  1.00  0.00     0.009 A 
ATOM     90  C   UNL A   1      43.702  35.072  27.026  1.00  0.00     0.001 A 
ATOM     91  C   UNL A   1      41.578  35.675  27.996  1.00  0.00     0.001 A 
ATOM     92  C   UNL A   1      42.483  35.739  26.937  1.00  0.00     0.000 A 
ENDBRANCH  74  87
ENDBRANCH  48  49
ENDBRANCH  41  43
ENDBRANCH  40  41
ENDBRANCH  39  40
ENDBRANCH  38  39
ENDBRANCH  37  38
ENDBRANCH  36  37
ENDBRANCH   1  36
TORSDOF 22
ENDMDL
MODEL 3
REMARK VINA RESULT:      -9.8      2.846      6.467
REMARK SMILES CCn1ncc(NC(=O)[C@@H]2CCCC[C@@H]2C(=O)OCCOCCOCCOC(=O)c2ccc(-c3c4nc(c(-c5ccccc5)c5ccc([nH]5)c(-c5ccccc5)c5nc(c(-c6ccccc6)c6ccc3[nH]6)C=C5)C=C4)cc2)c1C(=O)Nc1cnn(C)c1C
REMARK SMILES IDX 22 1 21 2 20 3 19 4 18 5 16 6 17 7 15 8 10 9 11 10 12 11
REMARK SMILES IDX 14 12 13 13 8 14 7 15 9 17 6 18 3 19 4 20 78 21 5 22 2 23
REMARK SMILES IDX 1 24 79 25 80 26 81 27 82 29 83 30 87 31 84 32 85 33 88 34
REMARK SMILES IDX 86 35 23 36 24 37 25 38 26 39 27 40 28 41 29 42 30 43 31 44
REMARK SMILES IDX 77 45 32 46 76 47 33 48 34 49 35 50 70 51 36 52 75 53 69 54
REMARK SMILES IDX 71 55 37 56 74 57 68 58 67 59 38 61 60 62 45 63 59 64 46 65
REMARK SMILES IDX 49 66 58 67 72 68 47 69 48 70 57 72 73 73 50 74 39 75 40 76
REMARK SMILES IDX 44 77 41 78 43 79 42 80 61 81 62 82 66 83 63 84 65 85 64 86
REMARK SMILES IDX 51 87 52 88 56 89 53 90 55 91 54 92
REMARK H PARENT 7 16 81 28 71 60 49 71
REMARK Flexibility Score: inf
ROOT
ATOM      1  C   UNL A   1      34.430  31.893  27.839  1.00  0.00     0.188 C 
ENDROOT
BRANCH   1   2
ATOM      2  O   UNL A   1      33.716  30.754  27.374  1.00  0.00    -0.376 OA
BRANCH   2   3
ATOM      3  C   UNL A   1      34.406  29.521  27.247  1.00  0.00     0.202 C 
BRANCH   3   4
ATOM      4  C   UNL A   1      33.496  28.305  27.043  1.00  0.00     0.261 C 
BRANCH   4   5
ATOM      5  O   UNL A   1      33.950  27.365  26.045  1.00  0.00    -0.463 OA
BRANCH   5   6
ATOM      6  C   UNL A   1      33.392  27.503  24.817  1.00  0.00     0.309 C 
ATOM      7  O   UNL A   1      33.735  28.351  23.998  1.00  0.00    -0.252 OA
BRANCH   6   8
ATOM      8  C   UNL A   1      32.308  26.478  24.474  1.00  0.00     0.111 C 
ATOM      9  C   UNL A   1      32.015  26.033  23.041  1.00  0.00     0.093 C 
ATOM     10  C   UNL A   1      31.270  27.070  22.211  1.00  0.00     0.014 C 
ATOM     11  C   UNL A   1      29.978  27.543  22.867  1.00  0.00     0.001 C 
ATOM     12  C   UNL A   1      30.989  26.794  25.191  1.00  0.00     0.016 C 
ATOM     13  C   UNL A   1      29.909  27.531  24.395  1.00  0.00     0.001 C 
BRANCH   9  14
ATOM     14  C   UNL A   1      33.223  25.474  22.327  1.00  0.00     0.228 C 
ATOM     15  N   UNL A   1      33.792  24.299  22.698  1.00  0.00    -0.322 N 
ATOM     16  H   UNL A   1      34.499  24.019  22.071  1.00  0.00     0.170 HD
ATOM     17  O   UNL A   1      33.689  26.022  21.324  1.00  0.00    -0.274 OA
BRANCH  15  18
ATOM     18  C   UNL A   1      33.632  23.390  23.733  1.00  0.00     0.092 A 
ATOM     19  N   UNL A   1      33.494  22.113  25.519  1.00  0.00    -0.258 N 
ATOM     20  N   UNL A   1      32.541  21.627  24.704  1.00  0.00    -0.178 NA
ATOM     21  C   UNL A   1      34.258  23.133  24.957  1.00  0.00     0.150 A 
ATOM     22  C   UNL A   1      32.644  22.379  23.621  1.00  0.00     0.162 A 
BRANCH  19  23
ATOM     23  C   UNL A   1      33.596  21.471  26.817  1.00  0.00     0.142 C 
ATOM     24  C   UNL A   1      33.020  22.307  27.945  1.00  0.00     0.029 C 
ENDBRANCH  19  23
BRANCH  21  25
ATOM     25  C   UNL A   1      35.530  23.576  25.513  1.00  0.00     0.276 C 
ATOM     26  O   UNL A   1      35.945  24.727  25.405  1.00  0.00    -0.267 OA
ATOM     27  N   UNL A   1      36.212  22.641  26.263  1.00  0.00    -0.318 N 
ATOM     28  H   UNL A   1      35.859  22.415  27.153  1.00  0.00     0.170 HD
BRANCH  27  29
ATOM     29  C   UNL A   1      37.358  22.005  25.839  1.00  0.00     0.082 A 
ATOM     30  C   UNL A   1      37.515  20.771  25.184  1.00  0.00     0.161 A 
ATOM     31  C   UNL A   1      38.643  22.433  26.126  1.00  0.00     0.059 A 
ATOM     32  N   UNL A   1      38.782  20.360  25.195  1.00  0.00    -0.179 NA
ATOM     33  N   UNL A   1      39.435  21.340  25.849  1.00  0.00    -0.271 N 
ATOM     34  C   UNL A   1      39.164  23.662  26.780  1.00  0.00     0.068 C 
ATOM     35  C   UNL A   1      40.739  21.043  26.401  1.00  0.00     0.174 C 
ENDBRANCH  27  29
ENDBRANCH  21  25
ENDBRANCH  15  18
ENDBRANCH   9  14
ENDBRANCH   6   8
ENDBRANCH   5   6
ENDBRANCH   4   5
ENDBRANCH   3   4
ENDBRANCH   2   3
ENDBRANCH   1   2
BRANCH   1  36
ATOM     36  C   UNL A   1      33.725  33.241  27.989  1.00  0.00     0.188 C 
BRANCH  36  37
ATOM     37  O   UNL A   1      34.463  34.163  28.785  1.00  0.00    -0.376 OA
BRANCH  37  38
ATOM     38  C   UNL A   1      33.651  34.860  29.734  1.00  0.00     0.202 C 
BRANCH  38  39
ATOM     39  C   UNL A   1      34.259  34.633  31.112  1.00  0.00     0.261 C 
BRANCH  39  40
ATOM     40  O   UNL A   1      34.215  33.255  31.487  1.00  0.00    -0.460 OA
BRANCH  40  41
ATOM     41  C   UNL A   1      34.877  32.881  32.604  1.00  0.00     0.338 C 
ATOM     42  O   UNL A   1      34.750  33.332  33.725  1.00  0.00    -0.246 OA
BRANCH  41  43
ATOM     43  C   UNL A   1      35.841  31.835  32.209  1.00  0.00     0.060 A 
ATOM     44  C   UNL A   1      36.725  31.373  33.187  1.00  0.00     0.016 A 
ATOM     45  C   UNL A   1      36.013  31.520  30.854  1.00  0.00     0.016 A 
ATOM     46  C   UNL A   1      37.931  30.835  32.781  1.00  0.00     0.010 A 
ATOM     47  C   UNL A   1      37.222  31.009  30.448  1.00  0.00     0.010 A 
ATOM     48  C   UNL A   1      38.204  30.779  31.414  1.00  0.00    -0.014 A 
BRANCH  48  49
ATOM     49  C   UNL A   1      39.588  30.695  30.976  1.00  0.00     0.031 A 
ATOM     50  C   UNL A   1      40.035  29.424  30.370  1.00  0.00     0.074 A 
ATOM     51  C   UNL A   1      40.318  31.830  30.915  1.00  0.00     0.049 A 
ATOM     52  N   UNL A   1      41.126  28.774  30.613  1.00  0.00    -0.248 NA
ATOM     53  C   UNL A   1      39.151  28.783  29.384  1.00  0.00     0.031 C 
ATOM     54  C   UNL A   1      39.838  33.196  31.181  1.00  0.00     0.029 A 
ATOM     55  N   UNL A   1      41.583  32.032  30.447  1.00  0.00    -0.354 N 
ATOM     56  C   UNL A   1      41.150  27.732  29.692  1.00  0.00     0.074 A 
ATOM     57  C   UNL A   1      39.868  27.715  29.039  1.00  0.00     0.031 C 
ATOM     58  C   UNL A   1      40.706  34.081  30.650  1.00  0.00     0.029 A 
ATOM     59  C   UNL A   1      41.838  33.354  30.101  1.00  0.00     0.049 A 
ATOM     60  H   UNL A   1      42.250  31.312  30.362  1.00  0.00     0.167 HD
ATOM     61  C   UNL A   1      42.298  27.090  29.353  1.00  0.00     0.031 A 
ATOM     62  C   UNL A   1      42.855  33.824  29.341  1.00  0.00     0.031 A 
ATOM     63  C   UNL A   1      43.339  27.250  30.327  1.00  0.00     0.049 A 
ATOM     64  C   UNL A   1      43.889  32.772  29.249  1.00  0.00     0.074 A 
ATOM     65  C   UNL A   1      43.464  26.958  31.670  1.00  0.00     0.029 A 
ATOM     66  N   UNL A   1      44.379  28.090  30.022  1.00  0.00    -0.354 N 
ATOM     67  N   UNL A   1      44.657  32.415  30.236  1.00  0.00    -0.248 NA
ATOM     68  C   UNL A   1      43.842  31.842  28.130  1.00  0.00     0.031 C 
ATOM     69  C   UNL A   1      44.303  27.980  32.199  1.00  0.00     0.029 A 
ATOM     70  C   UNL A   1      44.651  28.828  31.146  1.00  0.00     0.049 A 
ATOM     71  H   UNL A   1      44.845  28.154  29.157  1.00  0.00     0.167 HD
ATOM     72  C   UNL A   1      44.848  31.053  30.061  1.00  0.00     0.074 A 
ATOM     73  C   UNL A   1      44.452  30.790  28.683  1.00  0.00     0.031 C 
ATOM     74  C   UNL A   1      45.024  30.225  31.133  1.00  0.00     0.031 A 
BRANCH  61  75
ATOM     75  C   UNL A   1      42.559  26.627  27.948  1.00  0.00    -0.014 A 
ATOM     76  C   UNL A   1      42.362  27.514  26.879  1.00  0.00     0.009 A 
ATOM     77  C   UNL A   1      42.742  25.266  27.627  1.00  0.00     0.009 A 
ATOM     78  C   UNL A   1      42.328  27.054  25.558  1.00  0.00     0.001 A 
ATOM     79  C   UNL A   1      42.754  24.811  26.308  1.00  0.00     0.001 A 
ATOM     80  C   UNL A   1      42.526  25.705  25.273  1.00  0.00     0.000 A 
ENDBRANCH  61  75
BRANCH  62  81
ATOM     81  C   UNL A   1      42.902  35.052  28.518  1.00  0.00    -0.014 A 
ATOM     82  C   UNL A   1      42.867  34.983  27.117  1.00  0.00     0.009 A 
ATOM     83  C   UNL A   1      42.769  36.323  29.111  1.00  0.00     0.009 A 
ATOM     84  C   UNL A   1      42.690  36.137  26.342  1.00  0.00     0.001 A 
ATOM     85  C   UNL A   1      42.606  37.477  28.338  1.00  0.00     0.001 A 
ATOM     86  C   UNL A   1      42.555  37.382  26.952  1.00  0.00     0.000 A 
ENDBRANCH  62  81
BRANCH  74  87
ATOM     87  C   UNL A   1      45.307  30.860  32.473  1.00  0.00    -0.014 A 
ATOM     88  C   UNL A   1      44.285  31.321  33.321  1.00  0.00     0.009 A 
ATOM     89  C   UNL A   1      46.625  30.863  32.956  1.00  0.00     0.009 A 
ATOM     90  C   UNL A   1      44.577  31.808  34.598  1.00  0.00     0.001 A 
ATOM     91  C   UNL A   1      46.913  31.328  34.242  1.00  0.00     0.001 A 
ATOM     92  C   UNL A   1      45.890  31.808  35.059  1.00  0.00     0.000 A 
ENDBRANCH  74  87
ENDBRANCH  48  49
ENDBRANCH  41  43
ENDBRANCH  40  41
ENDBRANCH  39  40
ENDBRANCH  38  39
ENDBRANCH  37  38
ENDBRANCH  36  37
ENDBRANCH   1  36
TORSDOF 22
ENDMDL
