MODEL 1
REMARK VINA RESULT:      -9.2      0.000      0.000
REMARK SMILES C[N@H+]1CCO[C@](C)(C(=O)OCCOCCOCCOC(=O)c2ccc(-c3c4nc(c(-c5ccccc5)c5ccc([nH]5)c(-c5ccccc5)c5nc(c(-c6ccccc6)c6ccc3[nH]6)C=C5)C=C4)cc2)C1
REMARK SMILES IDX 15 1 14 2 13 3 12 4 11 5 10 6 8 7 9 8 6 9 1 10 2 11 3 12
REMARK SMILES IDX 70 13 4 15 5 16 7 17 16 18 17 19 18 20 19 21 20 22 21 23
REMARK SMILES IDX 22 24 23 25 69 26 24 27 68 28 25 29 26 30 27 31 62 32 28 33
REMARK SMILES IDX 67 34 61 35 63 36 29 37 66 38 60 39 59 40 30 42 52 43 37 44
REMARK SMILES IDX 51 45 38 46 41 47 50 48 64 49 39 50 40 51 49 53 65 54 42 55
REMARK SMILES IDX 31 56 32 57 36 58 33 59 35 60 34 61 53 62 54 63 58 64 55 65
REMARK SMILES IDX 57 66 56 67 43 68 44 69 48 70 45 71 47 72 46 73
REMARK H PARENT 2 14 63 41 41 52
REMARK Flexibility Score: inf
ROOT
ATOM      1  C   UNL A   1      36.804  23.030  24.853  1.00  0.00     0.188 C 
ENDROOT
BRANCH   1   2
ATOM      2  C   UNL A   1      36.595  22.955  23.337  1.00  0.00     0.188 C 
BRANCH   2   3
ATOM      3  O   UNL A   1      35.270  22.949  22.832  1.00  0.00    -0.376 OA
BRANCH   3   4
ATOM      4  C   UNL A   1      34.283  23.724  23.504  1.00  0.00     0.202 C 
BRANCH   4   5
ATOM      5  C   UNL A   1      32.820  23.234  23.567  1.00  0.00     0.261 C 
BRANCH   5   6
ATOM      6  O   UNL A   1      32.583  21.821  23.345  1.00  0.00    -0.461 OA
BRANCH   6   7
ATOM      7  C   UNL A   1      32.339  21.090  24.468  1.00  0.00     0.344 C 
ATOM      8  O   UNL A   1      31.690  21.531  25.418  1.00  0.00    -0.249 OA
BRANCH   7   9
ATOM      9  C   UNL A   1      32.907  19.645  24.474  1.00  0.00     0.211 C 
ATOM     10  C   UNL A   1      34.182  16.835  23.229  1.00  0.00     0.332 C 
ATOM     11  N   UNL A   1      32.808  17.282  23.413  1.00  0.00    -0.333 N 
ATOM     12  C   UNL A   1      32.250  16.825  24.698  1.00  0.00     0.290 C 
ATOM     13  C   UNL A   1      32.609  18.747  23.240  1.00  0.00     0.310 C 
ATOM     14  H   UNL A   1      32.290  16.841  22.652  1.00  0.00     0.348 HD
ATOM     15  C   UNL A   1      32.637  17.706  25.892  1.00  0.00     0.223 C 
ATOM     16  O   UNL A   1      32.309  19.076  25.668  1.00  0.00    -0.353 OA
ATOM     17  C   UNL A   1      34.423  19.834  24.641  1.00  0.00     0.061 C 
ENDBRANCH   7   9
ENDBRANCH   6   7
ENDBRANCH   5   6
ENDBRANCH   4   5
ENDBRANCH   3   4
ENDBRANCH   2   3
ENDBRANCH   1   2
BRANCH   1  18
ATOM     18  O   UNL A   1      37.176  21.816  25.463  1.00  0.00    -0.376 OA
BRANCH  18  19
ATOM     19  C   UNL A   1      38.549  21.545  25.711  1.00  0.00     0.202 C 
BRANCH  19  20
ATOM     20  C   UNL A   1      39.152  20.159  25.394  1.00  0.00     0.261 C 
BRANCH  20  21
ATOM     21  O   UNL A   1      40.044  19.585  26.366  1.00  0.00    -0.460 OA
BRANCH  21  22
ATOM     22  C   UNL A   1      41.373  19.669  26.119  1.00  0.00     0.338 C 
ATOM     23  O   UNL A   1      42.037  18.914  25.425  1.00  0.00    -0.246 OA
BRANCH  22  24
ATOM     24  C   UNL A   1      41.830  21.002  26.593  1.00  0.00     0.060 A 
ATOM     25  C   UNL A   1      41.719  21.303  27.961  1.00  0.00     0.016 A 
ATOM     26  C   UNL A   1      42.428  21.914  25.723  1.00  0.00     0.016 A 
ATOM     27  C   UNL A   1      42.181  22.526  28.456  1.00  0.00     0.010 A 
ATOM     28  C   UNL A   1      42.862  23.151  26.215  1.00  0.00     0.010 A 
ATOM     29  C   UNL A   1      42.712  23.477  27.576  1.00  0.00    -0.014 A 
BRANCH  29  30
ATOM     30  C   UNL A   1      42.909  24.879  28.027  1.00  0.00     0.031 A 
ATOM     31  C   UNL A   1      44.306  25.319  28.378  1.00  0.00     0.074 A 
ATOM     32  C   UNL A   1      41.894  25.756  28.118  1.00  0.00     0.049 A 
ATOM     33  N   UNL A   1      44.725  26.461  28.859  1.00  0.00    -0.248 NA
ATOM     34  C   UNL A   1      45.375  24.330  28.156  1.00  0.00     0.031 C 
ATOM     35  C   UNL A   1      40.503  25.490  27.757  1.00  0.00     0.029 A 
ATOM     36  N   UNL A   1      41.884  27.059  28.557  1.00  0.00    -0.354 N 
ATOM     37  C   UNL A   1      46.100  26.322  29.013  1.00  0.00     0.074 A 
ATOM     38  C   UNL A   1      46.440  24.978  28.600  1.00  0.00     0.031 C 
ATOM     39  C   UNL A   1      39.772  26.592  28.002  1.00  0.00     0.029 A 
ATOM     40  C   UNL A   1      40.633  27.626  28.573  1.00  0.00     0.049 A 
ATOM     41  H   UNL A   1      42.697  27.539  28.836  1.00  0.00     0.167 HD
ATOM     42  C   UNL A   1      47.002  27.229  29.453  1.00  0.00     0.031 A 
ATOM     43  C   UNL A   1      40.228  28.832  29.021  1.00  0.00     0.031 A 
ATOM     44  C   UNL A   1      46.671  28.562  29.881  1.00  0.00     0.049 A 
ATOM     45  C   UNL A   1      41.237  29.793  29.599  1.00  0.00     0.074 A 
ATOM     46  C   UNL A   1      47.519  29.556  30.334  1.00  0.00     0.029 A 
ATOM     47  N   UNL A   1      45.387  29.081  29.924  1.00  0.00    -0.354 N 
ATOM     48  N   UNL A   1      42.536  29.660  29.717  1.00  0.00    -0.248 NA
ATOM     49  C   UNL A   1      40.720  31.077  30.100  1.00  0.00     0.031 C 
ATOM     50  C   UNL A   1      46.742  30.655  30.712  1.00  0.00     0.029 A 
ATOM     51  C   UNL A   1      45.416  30.371  30.424  1.00  0.00     0.049 A 
ATOM     52  H   UNL A   1      44.574  28.603  29.639  1.00  0.00     0.167 HD
ATOM     53  C   UNL A   1      42.993  30.852  30.272  1.00  0.00     0.074 A 
ATOM     54  C   UNL A   1      41.835  31.701  30.452  1.00  0.00     0.031 C 
ATOM     55  C   UNL A   1      44.259  31.212  30.598  1.00  0.00     0.031 A 
BRANCH  42  56
ATOM     56  C   UNL A   1      48.439  26.792  29.535  1.00  0.00    -0.014 A 
ATOM     57  C   UNL A   1      48.934  26.102  30.653  1.00  0.00     0.009 A 
ATOM     58  C   UNL A   1      49.305  27.053  28.461  1.00  0.00     0.009 A 
ATOM     59  C   UNL A   1      50.274  25.714  30.708  1.00  0.00     0.001 A 
ATOM     60  C   UNL A   1      50.635  26.635  28.505  1.00  0.00     0.001 A 
ATOM     61  C   UNL A   1      51.122  25.975  29.632  1.00  0.00     0.000 A 
ENDBRANCH  42  56
BRANCH  43  62
ATOM     62  C   UNL A   1      38.786  29.205  28.973  1.00  0.00    -0.014 A 
ATOM     63  C   UNL A   1      37.960  29.024  30.094  1.00  0.00     0.009 A 
ATOM     64  C   UNL A   1      38.220  29.709  27.791  1.00  0.00     0.009 A 
ATOM     65  C   UNL A   1      36.594  29.310  30.022  1.00  0.00     0.001 A 
ATOM     66  C   UNL A   1      36.862  30.026  27.733  1.00  0.00     0.001 A 
ATOM     67  C   UNL A   1      36.047  29.816  28.843  1.00  0.00     0.000 A 
ENDBRANCH  43  62
BRANCH  55  68
ATOM     68  C   UNL A   1      44.474  32.601  31.138  1.00  0.00    -0.014 A 
ATOM     69  C   UNL A   1      44.698  33.696  30.289  1.00  0.00     0.009 A 
ATOM     70  C   UNL A   1      44.405  32.823  32.524  1.00  0.00     0.009 A 
ATOM     71  C   UNL A   1      44.887  34.975  30.820  1.00  0.00     0.001 A 
ATOM     72  C   UNL A   1      44.559  34.106  33.049  1.00  0.00     0.001 A 
ATOM     73  C   UNL A   1      44.811  35.180  32.197  1.00  0.00     0.000 A 
ENDBRANCH  55  68
ENDBRANCH  29  30
ENDBRANCH  22  24
ENDBRANCH  21  22
ENDBRANCH  20  21
ENDBRANCH  19  20
ENDBRANCH  18  19
ENDBRANCH   1  18
TORSDOF 17
ENDMDL
MODEL 2
REMARK VINA RESULT:      -8.9      2.724      7.613
REMARK SMILES C[N@H+]1CCO[C@](C)(C(=O)OCCOCCOCCOC(=O)c2ccc(-c3c4nc(c(-c5ccccc5)c5ccc([nH]5)c(-c5ccccc5)c5nc(c(-c6ccccc6)c6ccc3[nH]6)C=C5)C=C4)cc2)C1
REMARK SMILES IDX 15 1 14 2 13 3 12 4 11 5 10 6 8 7 9 8 6 9 1 10 2 11 3 12
REMARK SMILES IDX 70 13 4 15 5 16 7 17 16 18 17 19 18 20 19 21 20 22 21 23
REMARK SMILES IDX 22 24 23 25 69 26 24 27 68 28 25 29 26 30 27 31 62 32 28 33
REMARK SMILES IDX 67 34 61 35 63 36 29 37 66 38 60 39 59 40 30 42 52 43 37 44
REMARK SMILES IDX 51 45 38 46 41 47 50 48 64 49 39 50 40 51 49 53 65 54 42 55
REMARK SMILES IDX 31 56 32 57 36 58 33 59 35 60 34 61 53 62 54 63 58 64 55 65
REMARK SMILES IDX 57 66 56 67 43 68 44 69 48 70 45 71 47 72 46 73
REMARK H PARENT 2 14 63 41 41 52
REMARK Flexibility Score: inf
ROOT
ATOM      1  C   UNL A   1      31.033  28.723  23.863  1.00  0.00     0.188 C 
ENDROOT
BRANCH   1   2
ATOM      2  C   UNL A   1      31.869  27.495  23.485  1.00  0.00     0.188 C 
BRANCH   2   3
ATOM      3  O   UNL A   1      31.332  26.205  23.731  1.00  0.00    -0.376 OA
BRANCH   3   4
ATOM      4  C   UNL A   1      30.204  26.091  24.592  1.00  0.00     0.202 C 
BRANCH   4   5
ATOM      5  C   UNL A   1      30.393  26.091  26.124  1.00  0.00     0.261 C 
BRANCH   5   6
ATOM      6  O   UNL A   1      31.656  25.596  26.637  1.00  0.00    -0.461 OA
BRANCH   6   7
ATOM      7  C   UNL A   1      31.743  24.243  26.758  1.00  0.00     0.344 C 
ATOM      8  O   UNL A   1      30.861  23.566  27.289  1.00  0.00    -0.249 OA
BRANCH   7   9
ATOM      9  C   UNL A   1      33.017  23.589  26.156  1.00  0.00     0.211 C 
ATOM     10  C   UNL A   1      35.338  21.257  25.661  1.00  0.00     0.332 C 
ATOM     11  N   UNL A   1      35.231  22.332  26.639  1.00  0.00    -0.333 N 
ATOM     12  C   UNL A   1      35.920  23.554  26.188  1.00  0.00     0.290 C 
ATOM     13  C   UNL A   1      33.840  22.637  27.069  1.00  0.00     0.310 C 
ATOM     14  H   UNL A   1      35.705  21.972  27.468  1.00  0.00     0.348 HD
ATOM     15  C   UNL A   1      35.091  24.418  25.230  1.00  0.00     0.223 C 
ATOM     16  O   UNL A   1      33.815  24.743  25.781  1.00  0.00    -0.353 OA
ATOM     17  C   UNL A   1      32.506  22.833  24.919  1.00  0.00     0.061 C 
ENDBRANCH   7   9
ENDBRANCH   6   7
ENDBRANCH   5   6
ENDBRANCH   4   5
ENDBRANCH   3   4
ENDBRANCH   2   3
ENDBRANCH   1   2
BRANCH   1  18
ATOM     18  O   UNL A   1      31.649  29.606  24.771  1.00  0.00    -0.376 OA
BRANCH  18  19
ATOM     19  C   UNL A   1      31.981  29.154  26.076  1.00  0.00     0.202 C 
BRANCH  19  20
ATOM     20  C   UNL A   1      33.418  28.698  26.416  1.00  0.00     0.261 C 
BRANCH  20  21
ATOM     21  O   UNL A   1      33.916  29.000  27.731  1.00  0.00    -0.460 OA
BRANCH  21  22
ATOM     22  C   UNL A   1      34.550  30.186  27.900  1.00  0.00     0.338 C 
ATOM     23  O   UNL A   1      34.031  31.287  27.980  1.00  0.00    -0.246 OA
BRANCH  22  24
ATOM     24  C   UNL A   1      35.959  29.886  28.270  1.00  0.00     0.060 A 
ATOM     25  C   UNL A   1      36.960  30.057  27.299  1.00  0.00     0.016 A 
ATOM     26  C   UNL A   1      36.303  29.517  29.571  1.00  0.00     0.016 A 
ATOM     27  C   UNL A   1      38.302  29.833  27.619  1.00  0.00     0.010 A 
ATOM     28  C   UNL A   1      37.644  29.262  29.881  1.00  0.00     0.010 A 
ATOM     29  C   UNL A   1      38.647  29.388  28.901  1.00  0.00    -0.014 A 
BRANCH  29  30
ATOM     30  C   UNL A   1      40.007  28.847  29.160  1.00  0.00     0.031 A 
ATOM     31  C   UNL A   1      41.007  29.746  29.837  1.00  0.00     0.074 A 
ATOM     32  C   UNL A   1      40.359  27.594  28.823  1.00  0.00     0.049 A 
ATOM     33  N   UNL A   1      42.270  29.534  30.108  1.00  0.00    -0.248 NA
ATOM     34  C   UNL A   1      40.512  31.066  30.263  1.00  0.00     0.031 C 
ATOM     35  C   UNL A   1      39.482  26.595  28.217  1.00  0.00     0.029 A 
ATOM     36  N   UNL A   1      41.570  26.953  28.939  1.00  0.00    -0.354 N 
ATOM     37  C   UNL A   1      42.722  30.698  30.720  1.00  0.00     0.074 A 
ATOM     38  C   UNL A   1      41.609  31.620  30.755  1.00  0.00     0.031 C 
ATOM     39  C   UNL A   1      40.187  25.470  28.002  1.00  0.00     0.029 A 
ATOM     40  C   UNL A   1      41.573  25.681  28.419  1.00  0.00     0.049 A 
ATOM     41  H   UNL A   1      42.361  27.367  29.355  1.00  0.00     0.167 HD
ATOM     42  C   UNL A   1      43.951  30.976  31.213  1.00  0.00     0.031 A 
ATOM     43  C   UNL A   1      42.584  24.801  28.272  1.00  0.00     0.031 A 
ATOM     44  C   UNL A   1      45.069  30.071  31.167  1.00  0.00     0.049 A 
ATOM     45  C   UNL A   1      43.970  25.170  28.741  1.00  0.00     0.074 A 
ATOM     46  C   UNL A   1      46.351  30.262  31.651  1.00  0.00     0.029 A 
ATOM     47  N   UNL A   1      45.040  28.811  30.591  1.00  0.00    -0.354 N 
ATOM     48  N   UNL A   1      44.381  26.262  29.339  1.00  0.00    -0.248 NA
ATOM     49  C   UNL A   1      45.033  24.175  28.518  1.00  0.00     0.031 C 
ATOM     50  C   UNL A   1      47.117  29.143  31.309  1.00  0.00     0.029 A 
ATOM     51  C   UNL A   1      46.291  28.225  30.679  1.00  0.00     0.049 A 
ATOM     52  H   UNL A   1      44.248  28.395  30.180  1.00  0.00     0.167 HD
ATOM     53  C   UNL A   1      45.736  26.071  29.594  1.00  0.00     0.074 A 
ATOM     54  C   UNL A   1      46.074  24.753  29.100  1.00  0.00     0.031 C 
ATOM     55  C   UNL A   1      46.620  26.911  30.188  1.00  0.00     0.031 A 
BRANCH  42  56
ATOM     56  C   UNL A   1      44.164  32.340  31.810  1.00  0.00    -0.014 A 
ATOM     57  C   UNL A   1      44.485  33.449  31.012  1.00  0.00     0.009 A 
ATOM     58  C   UNL A   1      44.014  32.522  33.195  1.00  0.00     0.009 A 
ATOM     59  C   UNL A   1      44.686  34.703  31.592  1.00  0.00     0.001 A 
ATOM     60  C   UNL A   1      44.182  33.782  33.767  1.00  0.00     0.001 A 
ATOM     61  C   UNL A   1      44.528  34.870  32.968  1.00  0.00     0.000 A 
ENDBRANCH  42  56
BRANCH  43  62
ATOM     62  C   UNL A   1      42.343  23.481  27.624  1.00  0.00    -0.014 A 
ATOM     63  C   UNL A   1      42.554  23.308  26.247  1.00  0.00     0.009 A 
ATOM     64  C   UNL A   1      41.862  22.397  28.376  1.00  0.00     0.009 A 
ATOM     65  C   UNL A   1      42.260  22.088  25.632  1.00  0.00     0.001 A 
ATOM     66  C   UNL A   1      41.601  21.169  27.764  1.00  0.00     0.001 A 
ATOM     67  C   UNL A   1      41.789  21.018  26.392  1.00  0.00     0.000 A 
ENDBRANCH  43  62
BRANCH  55  68
ATOM     68  C   UNL A   1      48.029  26.418  30.385  1.00  0.00    -0.014 A 
ATOM     69  C   UNL A   1      48.419  25.751  31.556  1.00  0.00     0.009 A 
ATOM     70  C   UNL A   1      48.971  26.586  29.356  1.00  0.00     0.009 A 
ATOM     71  C   UNL A   1      49.733  25.298  31.708  1.00  0.00     0.001 A 
ATOM     72  C   UNL A   1      50.272  26.103  29.496  1.00  0.00     0.001 A 
ATOM     73  C   UNL A   1      50.656  25.468  30.676  1.00  0.00     0.000 A 
ENDBRANCH  55  68
ENDBRANCH  29  30
ENDBRANCH  22  24
ENDBRANCH  21  22
ENDBRANCH  20  21
ENDBRANCH  19  20
ENDBRANCH  18  19
ENDBRANCH   1  18
TORSDOF 17
ENDMDL
MODEL 3
REMARK VINA RESULT:      -8.9      3.004      4.637
REMARK SMILES C[N@H+]1CCO[C@](C)(C(=O)OCCOCCOCCOC(=O)c2ccc(-c3c4nc(c(-c5ccccc5)c5ccc([nH]5)c(-c5ccccc5)c5nc(c(-c6ccccc6)c6ccc3[nH]6)C=C5)C=C4)cc2)C1
REMARK SMILES IDX 15 1 14 2 13 3 12 4 11 5 10 6 8 7 9 8 6 9 1 10 2 11 3 12
REMARK SMILES IDX 70 13 4 15 5 16 7 17 16 18 17 19 18 20 19 21 20 22 21 23
REMARK SMILES IDX 22 24 23 25 69 26 24 27 68 28 25 29 26 30 27 31 62 32 28 33
REMARK SMILES IDX 67 34 61 35 63 36 29 37 66 38 60 39 59 40 30 42 52 43 37 44
REMARK SMILES IDX 51 45 38 46 41 47 50 48 64 49 39 50 40 51 49 53 65 54 42 55
REMARK SMILES IDX 31 56 32 57 36 58 33 59 35 60 34 61 53 62 54 63 58 64 55 65
REMARK SMILES IDX 57 66 56 67 43 68 44 69 48 70 45 71 47 72 46 73
REMARK H PARENT 2 14 63 41 41 52
REMARK Flexibility Score: inf
ROOT
ATOM      1  C   UNL A   1      35.213  22.810  25.745  1.00  0.00     0.188 C 
ENDROOT
BRANCH   1   2
ATOM      2  C   UNL A   1      33.758  23.244  25.540  1.00  0.00     0.188 C 
BRANCH   2   3
ATOM      3  O   UNL A   1      32.942  22.490  24.658  1.00  0.00    -0.376 OA
BRANCH   3   4
ATOM      4  C   UNL A   1      32.614  23.048  23.390  1.00  0.00     0.202 C 
BRANCH   4   5
ATOM      5  C   UNL A   1      33.725  23.612  22.479  1.00  0.00     0.261 C 
BRANCH   5   6
ATOM      6  O   UNL A   1      34.094  25.002  22.665  1.00  0.00    -0.461 OA
BRANCH   6   7
ATOM      7  C   UNL A   1      33.279  25.905  22.054  1.00  0.00     0.344 C 
ATOM      8  O   UNL A   1      33.163  25.973  20.829  1.00  0.00    -0.249 OA
BRANCH   7   9
ATOM      9  C   UNL A   1      32.474  26.839  22.998  1.00  0.00     0.211 C 
ATOM     10  C   UNL A   1      30.655  29.475  23.903  1.00  0.00     0.332 C 
ATOM     11  N   UNL A   1      32.095  29.265  23.827  1.00  0.00    -0.333 N 
ATOM     12  C   UNL A   1      32.652  28.817  25.116  1.00  0.00     0.290 C 
ATOM     13  C   UNL A   1      32.530  28.368  22.723  1.00  0.00     0.310 C 
ATOM     14  H   UNL A   1      32.478  30.185  23.604  1.00  0.00     0.348 HD
ATOM     15  C   UNL A   1      32.502  27.312  25.369  1.00  0.00     0.223 C 
ATOM     16  O   UNL A   1      33.045  26.539  24.299  1.00  0.00    -0.353 OA
ATOM     17  C   UNL A   1      31.027  26.331  22.889  1.00  0.00     0.061 C 
ENDBRANCH   7   9
ENDBRANCH   6   7
ENDBRANCH   5   6
ENDBRANCH   4   5
ENDBRANCH   3   4
ENDBRANCH   2   3
ENDBRANCH   1   2
BRANCH   1  18
ATOM     18  O   UNL A   1      35.394  21.441  26.019  1.00  0.00    -0.376 OA
BRANCH  18  19
ATOM     19  C   UNL A   1      35.904  20.582  25.008  1.00  0.00     0.202 C 
BRANCH  19  20
ATOM     20  C   UNL A   1      37.397  20.189  24.982  1.00  0.00     0.261 C 
BRANCH  20  21
ATOM     21  O   UNL A   1      38.363  21.236  25.181  1.00  0.00    -0.460 OA
BRANCH  21  22
ATOM     22  C   UNL A   1      39.309  21.040  26.130  1.00  0.00     0.338 C 
ATOM     23  O   UNL A   1      39.885  19.994  26.383  1.00  0.00    -0.246 OA
BRANCH  22  24
ATOM     24  C   UNL A   1      39.739  22.379  26.611  1.00  0.00     0.060 A 
ATOM     25  C   UNL A   1      39.026  23.510  26.178  1.00  0.00     0.016 A 
ATOM     26  C   UNL A   1      40.777  22.519  27.534  1.00  0.00     0.016 A 
ATOM     27  C   UNL A   1      39.367  24.783  26.645  1.00  0.00     0.010 A 
ATOM     28  C   UNL A   1      41.138  23.797  27.976  1.00  0.00     0.010 A 
ATOM     29  C   UNL A   1      40.457  24.938  27.511  1.00  0.00    -0.014 A 
BRANCH  29  30
ATOM     30  C   UNL A   1      41.022  26.290  27.759  1.00  0.00     0.031 A 
ATOM     31  C   UNL A   1      42.382  26.602  27.192  1.00  0.00     0.074 A 
ATOM     32  C   UNL A   1      40.360  27.231  28.455  1.00  0.00     0.049 A 
ATOM     33  N   UNL A   1      43.116  27.677  27.328  1.00  0.00    -0.248 NA
ATOM     34  C   UNL A   1      42.996  25.554  26.359  1.00  0.00     0.031 C 
ATOM     35  C   UNL A   1      39.016  27.092  29.012  1.00  0.00     0.029 A 
ATOM     36  N   UNL A   1      40.746  28.499  28.819  1.00  0.00    -0.354 N 
ATOM     37  C   UNL A   1      44.281  27.427  26.613  1.00  0.00     0.074 A 
ATOM     38  C   UNL A   1      44.170  26.092  26.069  1.00  0.00     0.031 C 
ATOM     39  C   UNL A   1      38.694  28.226  29.659  1.00  0.00     0.029 A 
ATOM     40  C   UNL A   1      39.822  29.155  29.597  1.00  0.00     0.049 A 
ATOM     41  H   UNL A   1      41.604  28.899  28.550  1.00  0.00     0.167 HD
ATOM     42  C   UNL A   1      45.350  28.236  26.420  1.00  0.00     0.031 A 
ATOM     43  C   UNL A   1      39.890  30.356  30.207  1.00  0.00     0.031 A 
ATOM     44  C   UNL A   1      45.477  29.558  26.972  1.00  0.00     0.049 A 
ATOM     45  C   UNL A   1      41.132  31.200  30.060  1.00  0.00     0.074 A 
ATOM     46  C   UNL A   1      46.519  30.456  26.822  1.00  0.00     0.029 A 
ATOM     47  N   UNL A   1      44.538  30.166  27.789  1.00  0.00    -0.354 N 
ATOM     48  N   UNL A   1      42.217  30.965  29.363  1.00  0.00    -0.248 NA
ATOM     49  C   UNL A   1      41.152  32.483  30.781  1.00  0.00     0.031 C 
ATOM     50  C   UNL A   1      46.241  31.582  27.603  1.00  0.00     0.029 A 
ATOM     51  C   UNL A   1      44.991  31.415  28.178  1.00  0.00     0.049 A 
ATOM     52  H   UNL A   1      43.677  29.769  28.054  1.00  0.00     0.167 HD
ATOM     53  C   UNL A   1      43.030  32.081  29.534  1.00  0.00     0.074 A 
ATOM     54  C   UNL A   1      42.307  32.999  30.387  1.00  0.00     0.031 C 
ATOM     55  C   UNL A   1      44.264  32.325  29.026  1.00  0.00     0.031 A 
BRANCH  42  56
ATOM     56  C   UNL A   1      46.492  27.689  25.609  1.00  0.00    -0.014 A 
ATOM     57  C   UNL A   1      46.611  27.955  24.235  1.00  0.00     0.009 A 
ATOM     58  C   UNL A   1      47.481  26.915  26.237  1.00  0.00     0.009 A 
ATOM     59  C   UNL A   1      47.677  27.428  23.503  1.00  0.00     0.001 A 
ATOM     60  C   UNL A   1      48.562  26.418  25.510  1.00  0.00     0.001 A 
ATOM     61  C   UNL A   1      48.654  26.665  24.142  1.00  0.00     0.000 A 
ENDBRANCH  42  56
BRANCH  43  62
ATOM     62  C   UNL A   1      38.758  30.836  31.049  1.00  0.00    -0.014 A 
ATOM     63  C   UNL A   1      38.702  30.533  32.418  1.00  0.00     0.009 A 
ATOM     64  C   UNL A   1      37.705  31.567  30.475  1.00  0.00     0.009 A 
ATOM     65  C   UNL A   1      37.604  30.927  33.188  1.00  0.00     0.001 A 
ATOM     66  C   UNL A   1      36.626  31.988  31.254  1.00  0.00     0.001 A 
ATOM     67  C   UNL A   1      36.569  31.658  32.606  1.00  0.00     0.000 A 
ENDBRANCH  43  62
BRANCH  55  68
ATOM     68  C   UNL A   1      44.896  33.657  29.334  1.00  0.00    -0.014 A 
ATOM     69  C   UNL A   1      45.748  33.831  30.435  1.00  0.00     0.009 A 
ATOM     70  C   UNL A   1      44.666  34.746  28.478  1.00  0.00     0.009 A 
ATOM     71  C   UNL A   1      46.326  35.078  30.693  1.00  0.00     0.001 A 
ATOM     72  C   UNL A   1      45.272  35.980  28.717  1.00  0.00     0.001 A 
ATOM     73  C   UNL A   1      46.093  36.148  29.831  1.00  0.00     0.000 A 
ENDBRANCH  55  68
ENDBRANCH  29  30
ENDBRANCH  22  24
ENDBRANCH  21  22
ENDBRANCH  20  21
ENDBRANCH  19  20
ENDBRANCH  18  19
ENDBRANCH   1  18
TORSDOF 17
ENDMDL
