MODEL 1
REMARK VINA RESULT:      -6.7      0.000      0.000
REMARK SMILES O=C(N[C@@H](Cc1ccc(O)cc1)C(=O)N[C@@H](Cc1c[nH]c2ccccc12)C(=O)N[C@@H](CO)C(=O)OCCOCCOCCOC(=O)c1ccc(-c2c3nc(c(-c4ccccc4)c4ccc([nH]4)c(-c4ccccc4)c4nc(c(-c5ccccc5)c5ccc2[nH]5)C=C4)C=C3)cc1)c1ccc(F)cc1
REMARK SMILES IDX 37 1 36 2 35 3 33 4 34 5 30 6 29 7 27 8 28 9 16 11 15 12
REMARK SMILES IDX 13 13 14 14 4 16 3 17 1 18 2 19 95 21 96 22 101 23 97 24
REMARK SMILES IDX 100 25 98 26 99 27 5 28 6 29 7 30 12 31 8 32 11 33 9 34
REMARK SMILES IDX 10 35 17 37 18 38 19 39 26 40 20 41 21 42 25 43 22 45 24 46
REMARK SMILES IDX 23 47 31 48 32 49 38 51 39 52 40 53 41 54 42 55 43 56 44 57
REMARK SMILES IDX 45 58 46 59 47 60 48 61 94 62 49 63 93 64 50 65 51 66 52 67
REMARK SMILES IDX 87 68 53 69 92 70 86 71 88 72 54 73 91 74 85 75 84 76 55 78
REMARK SMILES IDX 77 79 62 80 76 81 63 82 66 83 75 84 89 85 64 86 65 87 74 89
REMARK SMILES IDX 90 90 67 91 56 92 57 93 61 94 58 95 60 96 59 97 78 98 79 99
REMARK SMILES IDX 83 100 80 101 82 102 81 103 68 104 69 105 73 106 70 107
REMARK SMILES IDX 72 108 71 109
REMARK H PARENT 29 10 15 15 3 20 10 36 20 44 32 50 88 77 66 88
REMARK Flexibility Score: inf
ROOT
ATOM      1  C   UNL A   1      41.968  33.430  31.747  1.00  0.00     0.202 C 
ENDROOT
BRANCH   1   2
ATOM      2  C   UNL A   1      41.346  32.168  31.119  1.00  0.00     0.261 C 
BRANCH   2   3
ATOM      3  O   UNL A   1      40.188  31.751  31.874  1.00  0.00    -0.462 OA
BRANCH   3   4
ATOM      4  C   UNL A   1      39.524  30.642  31.435  1.00  0.00     0.331 C 
ATOM      5  O   UNL A   1      39.082  29.762  32.166  1.00  0.00    -0.250 OA
BRANCH   4   6
ATOM      6  C   UNL A   1      39.511  30.555  29.884  1.00  0.00     0.218 C 
BRANCH   6   7
ATOM      7  N   UNL A   1      39.336  29.189  29.354  1.00  0.00    -0.339 N 
ATOM      8  C   UNL A   1      40.262  28.201  29.164  1.00  0.00     0.243 C 
ATOM      9  O   UNL A   1      39.917  27.047  29.441  1.00  0.00    -0.273 OA
ATOM     10  H   UNL A   1      38.415  28.954  29.099  1.00  0.00     0.164 HD
BRANCH   8  11
ATOM     11  C   UNL A   1      41.711  28.416  28.688  1.00  0.00     0.175 C 
BRANCH  11  12
ATOM     12  N   UNL A   1      41.856  28.927  27.331  1.00  0.00    -0.342 N 
ATOM     13  C   UNL A   1      42.391  28.336  26.222  1.00  0.00     0.243 C 
ATOM     14  O   UNL A   1      42.099  28.864  25.141  1.00  0.00    -0.273 OA
ATOM     15  H   UNL A   1      41.514  29.839  27.191  1.00  0.00     0.164 HD
BRANCH  13  16
ATOM     16  C   UNL A   1      43.248  27.031  26.222  1.00  0.00     0.176 C 
BRANCH  16  17
ATOM     17  N   UNL A   1      44.515  27.080  25.482  1.00  0.00    -0.340 N 
ATOM     18  O   UNL A   1      46.436  26.373  24.589  1.00  0.00    -0.269 OA
ATOM     19  C   UNL A   1      45.348  26.068  25.069  1.00  0.00     0.251 C 
ATOM     20  H   UNL A   1      44.817  27.986  25.242  1.00  0.00     0.164 HD
BRANCH  19  21
ATOM     21  C   UNL A   1      45.010  24.636  25.278  1.00  0.00     0.040 A 
ATOM     22  C   UNL A   1      45.785  23.784  26.076  1.00  0.00     0.017 A 
ATOM     23  C   UNL A   1      43.855  24.139  24.655  1.00  0.00     0.017 A 
ATOM     24  C   UNL A   1      45.467  22.425  26.159  1.00  0.00     0.040 A 
ATOM     25  C   UNL A   1      43.526  22.785  24.760  1.00  0.00     0.040 A 
ATOM     26  C   UNL A   1      44.348  21.936  25.493  1.00  0.00     0.123 A 
ATOM     27  F   UNL A   1      44.055  20.631  25.564  1.00  0.00    -0.207 F 
ENDBRANCH  19  21
ENDBRANCH  16  17
BRANCH  16  28
ATOM     28  C   UNL A   1      43.361  26.303  27.574  1.00  0.00     0.070 C 
BRANCH  28  29
ATOM     29  C   UNL A   1      42.687  24.967  27.739  1.00  0.00    -0.045 A 
ATOM     30  C   UNL A   1      41.424  24.713  27.178  1.00  0.00     0.007 A 
ATOM     31  C   UNL A   1      43.285  23.981  28.538  1.00  0.00     0.007 A 
ATOM     32  C   UNL A   1      40.784  23.489  27.397  1.00  0.00     0.046 A 
ATOM     33  C   UNL A   1      42.640  22.765  28.768  1.00  0.00     0.046 A 
ATOM     34  C   UNL A   1      41.403  22.523  28.183  1.00  0.00     0.115 A 
BRANCH  34  35
ATOM     35  O   UNL A   1      40.831  21.302  28.385  1.00  0.00    -0.508 OA
ATOM     36  H   UNL A   1      39.915  21.183  28.235  1.00  0.00     0.293 HD
ENDBRANCH  34  35
ENDBRANCH  28  29
ENDBRANCH  16  28
ENDBRANCH  13  16
ENDBRANCH  11  12
BRANCH  11  37
ATOM     37  C   UNL A   1      42.652  29.052  29.731  1.00  0.00     0.072 C 
BRANCH  37  38
ATOM     38  C   UNL A   1      42.937  28.277  30.978  1.00  0.00    -0.020 A 
ATOM     39  C   UNL A   1      42.333  28.431  32.209  1.00  0.00     0.087 A 
ATOM     40  C   UNL A   1      43.944  27.263  31.147  1.00  0.00     0.003 A 
ATOM     41  N   UNL A   1      42.790  27.440  33.039  1.00  0.00    -0.361 N 
ATOM     42  C   UNL A   1      43.762  26.702  32.408  1.00  0.00     0.046 A 
ATOM     43  C   UNL A   1      44.975  26.738  30.338  1.00  0.00     0.010 A 
ATOM     44  H   UNL A   1      42.468  27.280  33.955  1.00  0.00     0.166 HD
ATOM     45  C   UNL A   1      44.481  25.586  32.855  1.00  0.00     0.026 A 
ATOM     46  C   UNL A   1      45.730  25.645  30.778  1.00  0.00     0.001 A 
ATOM     47  C   UNL A   1      45.464  25.060  32.011  1.00  0.00     0.002 A 
ENDBRANCH  37  38
ENDBRANCH  11  37
ENDBRANCH   8  11
ENDBRANCH   6   7
BRANCH   6  48
ATOM     48  C   UNL A   1      38.406  31.492  29.391  1.00  0.00     0.193 C 
BRANCH  48  49
ATOM     49  O   UNL A   1      37.713  30.958  28.265  1.00  0.00    -0.394 OA
ATOM     50  H   UNL A   1      36.772  31.184  28.329  1.00  0.00     0.210 HD
ENDBRANCH  48  49
ENDBRANCH   6  48
ENDBRANCH   4   6
ENDBRANCH   3   4
ENDBRANCH   2   3
ENDBRANCH   1   2
BRANCH   1  51
ATOM     51  O   UNL A   1      42.258  34.451  30.795  1.00  0.00    -0.376 OA
BRANCH  51  52
ATOM     52  C   UNL A   1      41.812  34.169  29.477  1.00  0.00     0.188 C 
BRANCH  52  53
ATOM     53  C   UNL A   1      41.151  35.290  28.678  1.00  0.00     0.188 C 
BRANCH  53  54
ATOM     54  O   UNL A   1      42.021  36.148  27.964  1.00  0.00    -0.376 OA
BRANCH  54  55
ATOM     55  C   UNL A   1      42.581  35.592  26.774  1.00  0.00     0.202 C 
BRANCH  55  56
ATOM     56  C   UNL A   1      44.107  35.463  26.806  1.00  0.00     0.261 C 
BRANCH  56  57
ATOM     57  O   UNL A   1      44.628  35.008  25.536  1.00  0.00    -0.460 OA
BRANCH  57  58
ATOM     58  C   UNL A   1      44.445  33.703  25.232  1.00  0.00     0.338 C 
ATOM     59  O   UNL A   1      44.060  33.235  24.163  1.00  0.00    -0.246 OA
BRANCH  58  60
ATOM     60  C   UNL A   1      44.896  32.857  26.357  1.00  0.00     0.060 A 
ATOM     61  C   UNL A   1      46.047  33.239  27.054  1.00  0.00     0.016 A 
ATOM     62  C   UNL A   1      44.237  31.671  26.694  1.00  0.00     0.016 A 
ATOM     63  C   UNL A   1      46.533  32.443  28.096  1.00  0.00     0.010 A 
ATOM     64  C   UNL A   1      44.722  30.879  27.745  1.00  0.00     0.010 A 
ATOM     65  C   UNL A   1      45.869  31.264  28.460  1.00  0.00    -0.014 A 
BRANCH  65  66
ATOM     66  C   UNL A   1      46.448  30.373  29.498  1.00  0.00     0.031 A 
ATOM     67  C   UNL A   1      47.518  29.402  29.098  1.00  0.00     0.074 A 
ATOM     68  C   UNL A   1      46.062  30.433  30.787  1.00  0.00     0.049 A 
ATOM     69  N   UNL A   1      48.076  28.447  29.795  1.00  0.00    -0.248 NA
ATOM     70  C   UNL A   1      48.020  29.528  27.723  1.00  0.00     0.031 C 
ATOM     71  C   UNL A   1      45.131  31.404  31.346  1.00  0.00     0.029 A 
ATOM     72  N   UNL A   1      46.417  29.656  31.864  1.00  0.00    -0.354 N 
ATOM     73  C   UNL A   1      48.993  27.851  28.940  1.00  0.00     0.074 A 
ATOM     74  C   UNL A   1      48.902  28.543  27.672  1.00  0.00     0.031 C 
ATOM     75  C   UNL A   1      44.992  31.177  32.663  1.00  0.00     0.029 A 
ATOM     76  C   UNL A   1      45.770  29.997  33.028  1.00  0.00     0.049 A 
ATOM     77  H   UNL A   1      47.073  28.924  31.807  1.00  0.00     0.167 HD
ATOM     78  C   UNL A   1      49.823  26.810  29.181  1.00  0.00     0.031 A 
ATOM     79  C   UNL A   1      45.774  29.402  34.238  1.00  0.00     0.031 A 
ATOM     80  C   UNL A   1      49.889  26.098  30.428  1.00  0.00     0.049 A 
ATOM     81  C   UNL A   1      46.571  28.138  34.433  1.00  0.00     0.074 A 
ATOM     82  C   UNL A   1      50.670  25.004  30.759  1.00  0.00     0.029 A 
ATOM     83  N   UNL A   1      49.131  26.402  31.549  1.00  0.00    -0.354 N 
ATOM     84  N   UNL A   1      47.403  27.548  33.608  1.00  0.00    -0.248 NA
ATOM     85  C   UNL A   1      46.413  27.444  35.720  1.00  0.00     0.031 C 
ATOM     86  C   UNL A   1      50.329  24.601  32.054  1.00  0.00     0.029 A 
ATOM     87  C   UNL A   1      49.388  25.486  32.556  1.00  0.00     0.049 A 
ATOM     88  H   UNL A   1      48.503  27.157  31.619  1.00  0.00     0.167 HD
ATOM     89  C   UNL A   1      47.881  26.431  34.282  1.00  0.00     0.074 A 
ATOM     90  C   UNL A   1      47.260  26.432  35.590  1.00  0.00     0.031 C 
ATOM     91  C   UNL A   1      48.759  25.490  33.854  1.00  0.00     0.031 A 
BRANCH  78  92
ATOM     92  C   UNL A   1      50.648  26.328  28.022  1.00  0.00    -0.014 A 
ATOM     93  C   UNL A   1      50.058  25.892  26.825  1.00  0.00     0.009 A 
ATOM     94  C   UNL A   1      52.044  26.264  28.156  1.00  0.00     0.009 A 
ATOM     95  C   UNL A   1      50.847  25.348  25.809  1.00  0.00     0.001 A 
ATOM     96  C   UNL A   1      52.832  25.750  27.126  1.00  0.00     0.001 A 
ATOM     97  C   UNL A   1      52.231  25.277  25.960  1.00  0.00     0.000 A 
ENDBRANCH  78  92
BRANCH  79  98
ATOM     98  C   UNL A   1      44.951  29.947  35.354  1.00  0.00    -0.014 A 
ATOM     99  C   UNL A   1      45.493  30.882  36.249  1.00  0.00     0.009 A 
ATOM    100  C   UNL A   1      43.631  29.510  35.554  1.00  0.00     0.009 A 
ATOM    101  C   UNL A   1      44.740  31.354  37.327  1.00  0.00     0.001 A 
ATOM    102  C   UNL A   1      42.870  30.006  36.615  1.00  0.00     0.001 A 
ATOM    103  C   UNL A   1      43.427  30.921  37.505  1.00  0.00     0.000 A 
ENDBRANCH  79  98
BRANCH  91 104
ATOM    104  C   UNL A   1      49.127  24.391  34.813  1.00  0.00    -0.014 A 
ATOM    105  C   UNL A   1      48.385  23.202  34.881  1.00  0.00     0.009 A 
ATOM    106  C   UNL A   1      50.275  24.522  35.613  1.00  0.00     0.009 A 
ATOM    107  C   UNL A   1      48.774  22.175  35.745  1.00  0.00     0.001 A 
ATOM    108  C   UNL A   1      50.678  23.483  36.452  1.00  0.00     0.001 A 
ATOM    109  C   UNL A   1      49.924  22.313  36.523  1.00  0.00     0.000 A 
ENDBRANCH  91 104
ENDBRANCH  65  66
ENDBRANCH  58  60
ENDBRANCH  57  58
ENDBRANCH  56  57
ENDBRANCH  55  56
ENDBRANCH  54  55
ENDBRANCH  53  54
ENDBRANCH  52  53
ENDBRANCH  51  52
ENDBRANCH   1  51
TORSDOF 30
ENDMDL
MODEL 2
REMARK VINA RESULT:      -6.4      2.988      5.850
REMARK SMILES O=C(N[C@@H](Cc1ccc(O)cc1)C(=O)N[C@@H](Cc1c[nH]c2ccccc12)C(=O)N[C@@H](CO)C(=O)OCCOCCOCCOC(=O)c1ccc(-c2c3nc(c(-c4ccccc4)c4ccc([nH]4)c(-c4ccccc4)c4nc(c(-c5ccccc5)c5ccc2[nH]5)C=C4)C=C3)cc1)c1ccc(F)cc1
REMARK SMILES IDX 37 1 36 2 35 3 33 4 34 5 30 6 29 7 27 8 28 9 16 11 15 12
REMARK SMILES IDX 13 13 14 14 4 16 3 17 1 18 2 19 95 21 96 22 101 23 97 24
REMARK SMILES IDX 100 25 98 26 99 27 5 28 6 29 7 30 12 31 8 32 11 33 9 34
REMARK SMILES IDX 10 35 17 37 18 38 19 39 26 40 20 41 21 42 25 43 22 45 24 46
REMARK SMILES IDX 23 47 31 48 32 49 38 51 39 52 40 53 41 54 42 55 43 56 44 57
REMARK SMILES IDX 45 58 46 59 47 60 48 61 94 62 49 63 93 64 50 65 51 66 52 67
REMARK SMILES IDX 87 68 53 69 92 70 86 71 88 72 54 73 91 74 85 75 84 76 55 78
REMARK SMILES IDX 77 79 62 80 76 81 63 82 66 83 75 84 89 85 64 86 65 87 74 89
REMARK SMILES IDX 90 90 67 91 56 92 57 93 61 94 58 95 60 96 59 97 78 98 79 99
REMARK SMILES IDX 83 100 80 101 82 102 81 103 68 104 69 105 73 106 70 107
REMARK SMILES IDX 72 108 71 109
REMARK H PARENT 29 10 15 15 3 20 10 36 20 44 32 50 88 77 66 88
REMARK Flexibility Score: inf
ROOT
ATOM      1  C   UNL A   1      41.838  36.286  28.490  1.00  0.00     0.202 C 
ENDROOT
BRANCH   1   2
ATOM      2  C   UNL A   1      41.925  34.889  29.135  1.00  0.00     0.261 C 
BRANCH   2   3
ATOM      3  O   UNL A   1      40.852  34.708  30.085  1.00  0.00    -0.462 OA
BRANCH   3   4
ATOM      4  C   UNL A   1      40.502  33.425  30.392  1.00  0.00     0.331 C 
ATOM      5  O   UNL A   1      41.170  32.436  30.107  1.00  0.00    -0.250 OA
BRANCH   4   6
ATOM      6  C   UNL A   1      39.088  33.349  31.030  1.00  0.00     0.218 C 
BRANCH   6   7
ATOM      7  N   UNL A   1      39.090  33.124  32.488  1.00  0.00    -0.339 N 
ATOM      8  C   UNL A   1      38.975  31.957  33.191  1.00  0.00     0.243 C 
ATOM      9  O   UNL A   1      39.689  31.832  34.193  1.00  0.00    -0.273 OA
ATOM     10  H   UNL A   1      39.190  33.935  33.036  1.00  0.00     0.164 HD
BRANCH   8  11
ATOM     11  C   UNL A   1      38.073  30.769  32.807  1.00  0.00     0.175 C 
BRANCH  11  12
ATOM     12  N   UNL A   1      38.576  29.453  33.181  1.00  0.00    -0.342 N 
ATOM     13  C   UNL A   1      39.550  28.689  32.606  1.00  0.00     0.243 C 
ATOM     14  O   UNL A   1      39.993  27.769  33.307  1.00  0.00    -0.273 OA
ATOM     15  H   UNL A   1      38.148  29.054  33.973  1.00  0.00     0.164 HD
BRANCH  13  16
ATOM     16  C   UNL A   1      40.182  28.943  31.201  1.00  0.00     0.176 C 
BRANCH  16  17
ATOM     17  N   UNL A   1      39.413  29.790  30.281  1.00  0.00    -0.340 N 
ATOM     18  O   UNL A   1      38.599  30.570  28.352  1.00  0.00    -0.269 OA
ATOM     19  C   UNL A   1      39.150  29.642  28.940  1.00  0.00     0.251 C 
ATOM     20  H   UNL A   1      39.022  30.595  30.691  1.00  0.00     0.164 HD
BRANCH  19  21
ATOM     21  C   UNL A   1      39.596  28.447  28.177  1.00  0.00     0.040 A 
ATOM     22  C   UNL A   1      39.212  27.144  28.518  1.00  0.00     0.017 A 
ATOM     23  C   UNL A   1      40.422  28.656  27.062  1.00  0.00     0.017 A 
ATOM     24  C   UNL A   1      39.739  26.055  27.817  1.00  0.00     0.040 A 
ATOM     25  C   UNL A   1      40.927  27.566  26.347  1.00  0.00     0.040 A 
ATOM     26  C   UNL A   1      40.598  26.275  26.746  1.00  0.00     0.123 A 
ATOM     27  F   UNL A   1      41.112  25.229  26.086  1.00  0.00    -0.207 F 
ENDBRANCH  19  21
ENDBRANCH  16  17
BRANCH  16  28
ATOM     28  C   UNL A   1      41.692  29.247  31.190  1.00  0.00     0.070 C 
BRANCH  28  29
ATOM     29  C   UNL A   1      42.566  28.555  30.177  1.00  0.00    -0.045 A 
ATOM     30  C   UNL A   1      43.313  29.287  29.240  1.00  0.00     0.007 A 
ATOM     31  C   UNL A   1      42.572  27.155  30.107  1.00  0.00     0.007 A 
ATOM     32  C   UNL A   1      44.068  28.627  28.264  1.00  0.00     0.046 A 
ATOM     33  C   UNL A   1      43.315  26.497  29.125  1.00  0.00     0.046 A 
ATOM     34  C   UNL A   1      44.069  27.237  28.223  1.00  0.00     0.115 A 
BRANCH  34  35
ATOM     35  O   UNL A   1      44.825  26.556  27.315  1.00  0.00    -0.508 OA
ATOM     36  H   UNL A   1      44.581  26.552  26.411  1.00  0.00     0.293 HD
ENDBRANCH  34  35
ENDBRANCH  28  29
ENDBRANCH  16  28
ENDBRANCH  13  16
ENDBRANCH  11  12
BRANCH  11  37
ATOM     37  C   UNL A   1      36.567  30.988  33.054  1.00  0.00     0.072 C 
BRANCH  37  38
ATOM     38  C   UNL A   1      35.860  31.994  32.202  1.00  0.00    -0.020 A 
ATOM     39  C   UNL A   1      35.570  31.888  30.857  1.00  0.00     0.087 A 
ATOM     40  C   UNL A   1      35.402  33.295  32.612  1.00  0.00     0.003 A 
ATOM     41  N   UNL A   1      34.801  32.964  30.498  1.00  0.00    -0.361 N 
ATOM     42  C   UNL A   1      34.669  33.829  31.556  1.00  0.00     0.046 A 
ATOM     43  C   UNL A   1      35.507  34.063  33.792  1.00  0.00     0.010 A 
ATOM     44  H   UNL A   1      34.401  33.097  29.608  1.00  0.00     0.166 HD
ATOM     45  C   UNL A   1      33.956  35.032  31.656  1.00  0.00     0.026 A 
ATOM     46  C   UNL A   1      34.832  35.283  33.902  1.00  0.00     0.001 A 
ATOM     47  C   UNL A   1      34.043  35.745  32.855  1.00  0.00     0.002 A 
ENDBRANCH  37  38
ENDBRANCH  11  37
ENDBRANCH   8  11
ENDBRANCH   6   7
BRANCH   6  48
ATOM     48  C   UNL A   1      38.361  34.645  30.665  1.00  0.00     0.193 C 
BRANCH  48  49
ATOM     49  O   UNL A   1      37.998  34.687  29.287  1.00  0.00    -0.394 OA
ATOM     50  H   UNL A   1      37.428  35.455  29.126  1.00  0.00     0.210 HD
ENDBRANCH  48  49
ENDBRANCH   6  48
ENDBRANCH   4   6
ENDBRANCH   3   4
ENDBRANCH   2   3
ENDBRANCH   1   2
BRANCH   1  51
ATOM     51  O   UNL A   1      42.720  37.237  29.082  1.00  0.00    -0.376 OA
BRANCH  51  52
ATOM     52  C   UNL A   1      43.381  38.083  28.153  1.00  0.00     0.188 C 
BRANCH  52  53
ATOM     53  C   UNL A   1      43.832  37.489  26.821  1.00  0.00     0.188 C 
BRANCH  53  54
ATOM     54  O   UNL A   1      45.088  36.836  26.819  1.00  0.00    -0.376 OA
BRANCH  54  55
ATOM     55  C   UNL A   1      45.032  35.411  26.835  1.00  0.00     0.202 C 
BRANCH  55  56
ATOM     56  C   UNL A   1      46.347  34.741  27.245  1.00  0.00     0.261 C 
BRANCH  56  57
ATOM     57  O   UNL A   1      46.123  33.423  27.798  1.00  0.00    -0.460 OA
BRANCH  57  58
ATOM     58  C   UNL A   1      46.602  32.374  27.091  1.00  0.00     0.338 C 
ATOM     59  O   UNL A   1      46.850  32.339  25.889  1.00  0.00    -0.246 OA
BRANCH  58  60
ATOM     60  C   UNL A   1      46.917  31.256  28.004  1.00  0.00     0.060 A 
ATOM     61  C   UNL A   1      46.919  31.501  29.381  1.00  0.00     0.016 A 
ATOM     62  C   UNL A   1      47.263  29.989  27.521  1.00  0.00     0.016 A 
ATOM     63  C   UNL A   1      47.255  30.482  30.276  1.00  0.00     0.010 A 
ATOM     64  C   UNL A   1      47.591  28.966  28.422  1.00  0.00     0.010 A 
ATOM     65  C   UNL A   1      47.581  29.202  29.807  1.00  0.00    -0.014 A 
BRANCH  65  66
ATOM     66  C   UNL A   1      48.035  28.154  30.757  1.00  0.00     0.031 A 
ATOM     67  C   UNL A   1      49.490  27.793  30.789  1.00  0.00     0.074 A 
ATOM     68  C   UNL A   1      47.187  27.544  31.606  1.00  0.00     0.049 A 
ATOM     69  N   UNL A   1      50.093  26.830  31.436  1.00  0.00    -0.248 NA
ATOM     70  C   UNL A   1      50.379  28.632  29.974  1.00  0.00     0.031 C 
ATOM     71  C   UNL A   1      45.779  27.876  31.779  1.00  0.00     0.029 A 
ATOM     72  N   UNL A   1      47.395  26.514  32.493  1.00  0.00    -0.354 N 
ATOM     73  C   UNL A   1      51.435  26.944  31.102  1.00  0.00     0.074 A 
ATOM     74  C   UNL A   1      51.552  28.056  30.183  1.00  0.00     0.031 C 
ATOM     75  C   UNL A   1      45.247  27.077  32.719  1.00  0.00     0.029 A 
ATOM     76  C   UNL A   1      46.260  26.126  33.165  1.00  0.00     0.049 A 
ATOM     77  H   UNL A   1      48.275  26.095  32.634  1.00  0.00     0.167 HD
ATOM     78  C   UNL A   1      52.476  26.180  31.507  1.00  0.00     0.031 A 
ATOM     79  C   UNL A   1      46.054  25.096  34.010  1.00  0.00     0.031 A 
ATOM     80  C   UNL A   1      52.358  25.051  32.390  1.00  0.00     0.049 A 
ATOM     81  C   UNL A   1      47.190  24.151  34.310  1.00  0.00     0.074 A 
ATOM     82  C   UNL A   1      53.347  24.190  32.829  1.00  0.00     0.029 A 
ATOM     83  N   UNL A   1      51.169  24.618  32.959  1.00  0.00    -0.354 N 
ATOM     84  N   UNL A   1      48.450  24.232  33.956  1.00  0.00    -0.248 NA
ATOM     85  C   UNL A   1      46.868  22.959  35.109  1.00  0.00     0.031 C 
ATOM     86  C   UNL A   1      52.745  23.192  33.602  1.00  0.00     0.029 A 
ATOM     87  C   UNL A   1      51.392  23.472  33.704  1.00  0.00     0.049 A 
ATOM     88  H   UNL A   1      50.296  25.060  32.848  1.00  0.00     0.167 HD
ATOM     89  C   UNL A   1      49.073  23.119  34.505  1.00  0.00     0.074 A 
ATOM     90  C   UNL A   1      48.057  22.384  35.229  1.00  0.00     0.031 C 
ATOM     91  C   UNL A   1      50.373  22.742  34.417  1.00  0.00     0.031 A 
BRANCH  78  92
ATOM     92  C   UNL A   1      53.815  26.494  30.903  1.00  0.00    -0.014 A 
ATOM     93  C   UNL A   1      54.831  27.124  31.638  1.00  0.00     0.009 A 
ATOM     94  C   UNL A   1      54.040  26.195  29.549  1.00  0.00     0.009 A 
ATOM     95  C   UNL A   1      56.022  27.500  31.015  1.00  0.00     0.001 A 
ATOM     96  C   UNL A   1      55.245  26.542  28.938  1.00  0.00     0.001 A 
ATOM     97  C   UNL A   1      56.228  27.209  29.667  1.00  0.00     0.000 A 
ENDBRANCH  78  92
BRANCH  79  98
ATOM     98  C   UNL A   1      44.705  24.854  34.595  1.00  0.00    -0.014 A 
ATOM     99  C   UNL A   1      44.250  25.620  35.680  1.00  0.00     0.009 A 
ATOM    100  C   UNL A   1      43.879  23.833  34.097  1.00  0.00     0.009 A 
ATOM    101  C   UNL A   1      43.007  25.359  36.262  1.00  0.00     0.001 A 
ATOM    102  C   UNL A   1      42.624  23.593  34.663  1.00  0.00     0.001 A 
ATOM    103  C   UNL A   1      42.193  24.350  35.750  1.00  0.00     0.000 A 
ENDBRANCH  79  98
BRANCH  91 104
ATOM    104  C   UNL A   1      50.786  21.490  35.141  1.00  0.00    -0.014 A 
ATOM    105  C   UNL A   1      50.957  20.274  34.461  1.00  0.00     0.009 A 
ATOM    106  C   UNL A   1      51.075  21.544  36.514  1.00  0.00     0.009 A 
ATOM    107  C   UNL A   1      51.388  19.135  35.145  1.00  0.00     0.001 A 
ATOM    108  C   UNL A   1      51.535  20.413  37.190  1.00  0.00     0.001 A 
ATOM    109  C   UNL A   1      51.685  19.208  36.506  1.00  0.00     0.000 A 
ENDBRANCH  91 104
ENDBRANCH  65  66
ENDBRANCH  58  60
ENDBRANCH  57  58
ENDBRANCH  56  57
ENDBRANCH  55  56
ENDBRANCH  54  55
ENDBRANCH  53  54
ENDBRANCH  52  53
ENDBRANCH  51  52
ENDBRANCH   1  51
TORSDOF 30
ENDMDL
MODEL 3
REMARK VINA RESULT:      -5.8      1.299      2.443
REMARK SMILES O=C(N[C@@H](Cc1ccc(O)cc1)C(=O)N[C@@H](Cc1c[nH]c2ccccc12)C(=O)N[C@@H](CO)C(=O)OCCOCCOCCOC(=O)c1ccc(-c2c3nc(c(-c4ccccc4)c4ccc([nH]4)c(-c4ccccc4)c4nc(c(-c5ccccc5)c5ccc2[nH]5)C=C4)C=C3)cc1)c1ccc(F)cc1
REMARK SMILES IDX 37 1 36 2 35 3 33 4 34 5 30 6 29 7 27 8 28 9 16 11 15 12
REMARK SMILES IDX 13 13 14 14 4 16 3 17 1 18 2 19 95 21 96 22 101 23 97 24
REMARK SMILES IDX 100 25 98 26 99 27 5 28 6 29 7 30 12 31 8 32 11 33 9 34
REMARK SMILES IDX 10 35 17 37 18 38 19 39 26 40 20 41 21 42 25 43 22 45 24 46
REMARK SMILES IDX 23 47 31 48 32 49 38 51 39 52 40 53 41 54 42 55 43 56 44 57
REMARK SMILES IDX 45 58 46 59 47 60 48 61 94 62 49 63 93 64 50 65 51 66 52 67
REMARK SMILES IDX 87 68 53 69 92 70 86 71 88 72 54 73 91 74 85 75 84 76 55 78
REMARK SMILES IDX 77 79 62 80 76 81 63 82 66 83 75 84 89 85 64 86 65 87 74 89
REMARK SMILES IDX 90 90 67 91 56 92 57 93 61 94 58 95 60 96 59 97 78 98 79 99
REMARK SMILES IDX 83 100 80 101 82 102 81 103 68 104 69 105 73 106 70 107
REMARK SMILES IDX 72 108 71 109
REMARK H PARENT 29 10 15 15 3 20 10 36 20 44 32 50 88 77 66 88
REMARK Flexibility Score: inf
ROOT
ATOM      1  C   UNL A   1      41.958  34.020  31.570  1.00  0.00     0.202 C 
ENDROOT
BRANCH   1   2
ATOM      2  C   UNL A   1      41.053  32.864  31.103  1.00  0.00     0.261 C 
BRANCH   2   3
ATOM      3  O   UNL A   1      40.075  32.550  32.118  1.00  0.00    -0.462 OA
BRANCH   3   4
ATOM      4  C   UNL A   1      39.095  31.661  31.786  1.00  0.00     0.331 C 
ATOM      5  O   UNL A   1      38.317  31.153  32.586  1.00  0.00    -0.250 OA
BRANCH   4   6
ATOM      6  C   UNL A   1      39.164  31.261  30.287  1.00  0.00     0.218 C 
BRANCH   6   7
ATOM      7  N   UNL A   1      38.998  29.816  30.036  1.00  0.00    -0.339 N 
ATOM      8  C   UNL A   1      39.925  28.811  30.079  1.00  0.00     0.243 C 
ATOM      9  O   UNL A   1      39.563  27.735  30.570  1.00  0.00    -0.273 OA
ATOM     10  H   UNL A   1      38.085  29.534  29.803  1.00  0.00     0.164 HD
BRANCH   8  11
ATOM     11  C   UNL A   1      41.390  28.927  29.619  1.00  0.00     0.175 C 
BRANCH  11  12
ATOM     12  N   UNL A   1      41.591  29.555  28.320  1.00  0.00    -0.342 N 
ATOM     13  C   UNL A   1      41.928  29.001  27.118  1.00  0.00     0.243 C 
ATOM     14  O   UNL A   1      41.720  29.710  26.125  1.00  0.00    -0.273 OA
ATOM     15  H   UNL A   1      41.462  30.531  28.305  1.00  0.00     0.164 HD
BRANCH  13  16
ATOM     16  C   UNL A   1      42.461  27.548  26.915  1.00  0.00     0.176 C 
BRANCH  16  17
ATOM     17  N   UNL A   1      41.777  26.489  27.665  1.00  0.00    -0.340 N 
ATOM     18  O   UNL A   1      41.485  24.558  28.751  1.00  0.00    -0.269 OA
ATOM     19  C   UNL A   1      42.280  25.387  28.314  1.00  0.00     0.251 C 
ATOM     20  H   UNL A   1      40.798  26.582  27.711  1.00  0.00     0.164 HD
BRANCH  19  21
ATOM     21  C   UNL A   1      43.740  25.129  28.412  1.00  0.00     0.040 A 
ATOM     22  C   UNL A   1      44.677  26.150  28.619  1.00  0.00     0.017 A 
ATOM     23  C   UNL A   1      44.178  23.799  28.306  1.00  0.00     0.017 A 
ATOM     24  C   UNL A   1      46.044  25.855  28.611  1.00  0.00     0.040 A 
ATOM     25  C   UNL A   1      45.544  23.505  28.322  1.00  0.00     0.040 A 
ATOM     26  C   UNL A   1      46.465  24.539  28.452  1.00  0.00     0.123 A 
ATOM     27  F   UNL A   1      47.775  24.263  28.430  1.00  0.00    -0.207 F 
ENDBRANCH  19  21
ENDBRANCH  16  17
BRANCH  16  28
ATOM     28  C   UNL A   1      42.788  27.151  25.463  1.00  0.00     0.070 C 
BRANCH  28  29
ATOM     29  C   UNL A   1      43.762  26.030  25.216  1.00  0.00    -0.045 A 
ATOM     30  C   UNL A   1      45.148  26.261  25.191  1.00  0.00     0.007 A 
ATOM     31  C   UNL A   1      43.282  24.746  24.921  1.00  0.00     0.007 A 
ATOM     32  C   UNL A   1      46.035  25.221  24.896  1.00  0.00     0.046 A 
ATOM     33  C   UNL A   1      44.167  23.711  24.613  1.00  0.00     0.046 A 
ATOM     34  C   UNL A   1      45.536  23.953  24.618  1.00  0.00     0.115 A 
BRANCH  34  35
ATOM     35  O   UNL A   1      46.369  22.903  24.368  1.00  0.00    -0.508 OA
ATOM     36  H   UNL A   1      47.171  22.818  24.843  1.00  0.00     0.293 HD
ENDBRANCH  34  35
ENDBRANCH  28  29
ENDBRANCH  16  28
ENDBRANCH  13  16
ENDBRANCH  11  12
BRANCH  11  37
ATOM     37  C   UNL A   1      42.385  29.357  30.715  1.00  0.00     0.072 C 
BRANCH  37  38
ATOM     38  C   UNL A   1      43.026  28.283  31.536  1.00  0.00    -0.020 A 
ATOM     39  C   UNL A   1      44.176  27.582  31.238  1.00  0.00     0.087 A 
ATOM     40  C   UNL A   1      42.525  27.732  32.769  1.00  0.00     0.003 A 
ATOM     41  N   UNL A   1      44.485  26.788  32.312  1.00  0.00    -0.361 N 
ATOM     42  C   UNL A   1      43.502  26.875  33.267  1.00  0.00     0.046 A 
ATOM     43  C   UNL A   1      41.350  27.902  33.532  1.00  0.00     0.010 A 
ATOM     44  H   UNL A   1      45.297  26.235  32.387  1.00  0.00     0.166 HD
ATOM     45  C   UNL A   1      43.411  26.268  34.526  1.00  0.00     0.026 A 
ATOM     46  C   UNL A   1      41.221  27.277  34.777  1.00  0.00     0.001 A 
ATOM     47  C   UNL A   1      42.254  26.493  35.278  1.00  0.00     0.002 A 
ENDBRANCH  37  38
ENDBRANCH  11  37
ENDBRANCH   8  11
ENDBRANCH   6   7
BRANCH   6  48
ATOM     48  C   UNL A   1      38.101  32.081  29.553  1.00  0.00     0.193 C 
BRANCH  48  49
ATOM     49  O   UNL A   1      37.614  33.161  30.347  1.00  0.00    -0.394 OA
ATOM     50  H   UNL A   1      37.497  33.946  29.788  1.00  0.00     0.210 HD
ENDBRANCH  48  49
ENDBRANCH   6  48
ENDBRANCH   4   6
ENDBRANCH   3   4
ENDBRANCH   2   3
ENDBRANCH   1   2
BRANCH   1  51
ATOM     51  O   UNL A   1      42.277  34.942  30.531  1.00  0.00    -0.376 OA
BRANCH  51  52
ATOM     52  C   UNL A   1      41.788  34.576  29.249  1.00  0.00     0.188 C 
BRANCH  52  53
ATOM     53  C   UNL A   1      41.108  35.646  28.398  1.00  0.00     0.188 C 
BRANCH  53  54
ATOM     54  O   UNL A   1      41.965  36.489  27.650  1.00  0.00    -0.376 OA
BRANCH  54  55
ATOM     55  C   UNL A   1      42.689  35.845  26.603  1.00  0.00     0.202 C 
BRANCH  55  56
ATOM     56  C   UNL A   1      44.190  35.709  26.876  1.00  0.00     0.261 C 
BRANCH  56  57
ATOM     57  O   UNL A   1      44.906  35.260  25.702  1.00  0.00    -0.460 OA
BRANCH  57  58
ATOM     58  C   UNL A   1      44.772  33.958  25.365  1.00  0.00     0.338 C 
ATOM     59  O   UNL A   1      44.458  33.502  24.268  1.00  0.00    -0.246 OA
BRANCH  58  60
ATOM     60  C   UNL A   1      45.180  33.101  26.498  1.00  0.00     0.060 A 
ATOM     61  C   UNL A   1      46.382  33.393  27.152  1.00  0.00     0.016 A 
ATOM     62  C   UNL A   1      44.428  31.988  26.885  1.00  0.00     0.016 A 
ATOM     63  C   UNL A   1      46.827  32.581  28.199  1.00  0.00     0.010 A 
ATOM     64  C   UNL A   1      44.872  31.180  27.942  1.00  0.00     0.010 A 
ATOM     65  C   UNL A   1      46.071  31.476  28.613  1.00  0.00    -0.014 A 
BRANCH  65  66
ATOM     66  C   UNL A   1      46.600  30.561  29.657  1.00  0.00     0.031 A 
ATOM     67  C   UNL A   1      47.643  29.555  29.271  1.00  0.00     0.074 A 
ATOM     68  C   UNL A   1      46.193  30.628  30.938  1.00  0.00     0.049 A 
ATOM     69  N   UNL A   1      48.155  28.577  29.973  1.00  0.00    -0.248 NA
ATOM     70  C   UNL A   1      48.173  29.670  27.905  1.00  0.00     0.031 C 
ATOM     71  C   UNL A   1      45.287  31.629  31.486  1.00  0.00     0.029 A 
ATOM     72  N   UNL A   1      46.501  29.835  32.018  1.00  0.00    -0.354 N 
ATOM     73  C   UNL A   1      49.065  27.954  29.131  1.00  0.00     0.074 A 
ATOM     74  C   UNL A   1      49.021  28.654  27.865  1.00  0.00     0.031 C 
ATOM     75  C   UNL A   1      45.116  31.401  32.799  1.00  0.00     0.029 A 
ATOM     76  C   UNL A   1      45.846  30.193  33.172  1.00  0.00     0.049 A 
ATOM     77  H   UNL A   1      47.133  29.081  31.969  1.00  0.00     0.167 HD
ATOM     78  C   UNL A   1      49.855  26.884  29.382  1.00  0.00     0.031 A 
ATOM     79  C   UNL A   1      45.807  29.592  34.378  1.00  0.00     0.031 A 
ATOM     80  C   UNL A   1      49.873  26.164  30.626  1.00  0.00     0.049 A 
ATOM     81  C   UNL A   1      46.556  28.300  34.581  1.00  0.00     0.074 A 
ATOM     82  C   UNL A   1      50.609  25.042  30.965  1.00  0.00     0.029 A 
ATOM     83  N   UNL A   1      49.106  26.489  31.735  1.00  0.00    -0.354 N 
ATOM     84  N   UNL A   1      47.382  27.685  33.769  1.00  0.00    -0.248 NA
ATOM     85  C   UNL A   1      46.351  27.607  35.862  1.00  0.00     0.031 C 
ATOM     86  C   UNL A   1      50.231  24.645  32.252  1.00  0.00     0.029 A 
ATOM     87  C   UNL A   1      49.313  25.561  32.742  1.00  0.00     0.049 A 
ATOM     88  H   UNL A   1      48.503  27.265  31.797  1.00  0.00     0.167 HD
ATOM     89  C   UNL A   1      47.809  26.549  34.445  1.00  0.00     0.074 A 
ATOM     90  C   UNL A   1      47.164  26.566  35.742  1.00  0.00     0.031 C 
ATOM     91  C   UNL A   1      48.661  25.581  34.028  1.00  0.00     0.031 A 
BRANCH  78  92
ATOM     92  C   UNL A   1      50.682  26.378  28.235  1.00  0.00    -0.014 A 
ATOM     93  C   UNL A   1      51.981  26.852  27.993  1.00  0.00     0.009 A 
ATOM     94  C   UNL A   1      50.124  25.440  27.351  1.00  0.00     0.009 A 
ATOM     95  C   UNL A   1      52.680  26.441  26.856  1.00  0.00     0.001 A 
ATOM     96  C   UNL A   1      50.838  25.007  26.234  1.00  0.00     0.001 A 
ATOM     97  C   UNL A   1      52.108  25.520  25.978  1.00  0.00     0.000 A 
ENDBRANCH  78  92
BRANCH  79  98
ATOM     98  C   UNL A   1      44.984  30.161  35.482  1.00  0.00    -0.014 A 
ATOM     99  C   UNL A   1      43.605  29.909  35.546  1.00  0.00     0.009 A 
ATOM    100  C   UNL A   1      45.563  30.989  36.458  1.00  0.00     0.009 A 
ATOM    101  C   UNL A   1      42.823  30.485  36.551  1.00  0.00     0.001 A 
ATOM    102  C   UNL A   1      44.785  31.540  37.478  1.00  0.00     0.001 A 
ATOM    103  C   UNL A   1      43.414  31.295  37.519  1.00  0.00     0.000 A 
ENDBRANCH  79  98
BRANCH  91 104
ATOM    104  C   UNL A   1      48.973  24.465  34.988  1.00  0.00    -0.014 A 
ATOM    105  C   UNL A   1      49.993  24.587  35.944  1.00  0.00     0.009 A 
ATOM    106  C   UNL A   1      48.188  23.301  34.978  1.00  0.00     0.009 A 
ATOM    107  C   UNL A   1      50.232  23.557  36.857  1.00  0.00     0.001 A 
ATOM    108  C   UNL A   1      48.409  22.286  35.910  1.00  0.00     0.001 A 
ATOM    109  C   UNL A   1      49.435  22.412  36.845  1.00  0.00     0.000 A 
ENDBRANCH  91 104
ENDBRANCH  65  66
ENDBRANCH  58  60
ENDBRANCH  57  58
ENDBRANCH  56  57
ENDBRANCH  55  56
ENDBRANCH  54  55
ENDBRANCH  53  54
ENDBRANCH  52  53
ENDBRANCH  51  52
ENDBRANCH   1  51
TORSDOF 30
ENDMDL
