MODEL 1
REMARK VINA RESULT:     -10.7      0.000      0.000
REMARK SMILES CCOc1ccc(C(=O)NC(=S)Nc2cccc(C(=O)OCCOCCOCCOC(=O)c3ccc(-c4c5nc(c(-c6ccccc6)c6ccc([nH]6)c(-c6ccccc6)c6nc(c(-c7ccccc7)c7ccc4[nH]7)C=C6)C=C5)cc3)c2C)cc1Br
REMARK SMILES IDX 23 1 22 2 21 3 19 4 20 5 18 6 14 7 15 8 81 9 16 10 82 11
REMARK SMILES IDX 17 12 13 13 11 15 12 16 10 17 8 18 9 19 7 21 4 22 5 23 84 24
REMARK SMILES IDX 6 25 83 26 85 27 3 28 2 29 1 30 24 31 25 32 26 33 27 34
REMARK SMILES IDX 28 35 29 36 30 37 31 38 32 39 33 40 34 41 80 42 35 43 79 44
REMARK SMILES IDX 36 45 37 46 38 47 73 48 39 49 78 50 72 51 74 52 40 53 77 54
REMARK SMILES IDX 71 55 70 56 41 58 63 59 48 60 62 61 49 62 52 63 61 64 75 65
REMARK SMILES IDX 50 66 51 67 60 69 76 70 53 71 42 72 43 73 47 74 44 75 46 76
REMARK SMILES IDX 45 77 64 78 65 79 69 80 66 81 68 82 67 83 54 84 55 85 59 86
REMARK SMILES IDX 56 87 58 88 57 89
REMARK H PARENT 13 14 10 20 74 57 52 68
REMARK Flexibility Score: inf
ROOT
ATOM      1  C   UNL A   1      34.773  22.738  24.855  1.00  0.00     0.202 C 
ENDROOT
BRANCH   1   2
ATOM      2  C   UNL A   1      33.264  22.705  23.945  1.00  0.00     0.261 C 
BRANCH   2   3
ATOM      3  O   UNL A   1      31.500  23.411  24.093  1.00  0.00    -0.460 OA
BRANCH   3   4
ATOM      4  C   UNL A   1      30.660  24.576  25.038  1.00  0.00     0.338 C 
ATOM      5  O   UNL A   1      29.855  24.463  25.972  1.00  0.00    -0.246 OA
BRANCH   4   6
ATOM      6  C   UNL A   1      30.956  25.962  25.001  1.00  0.00     0.065 A 
ATOM      7  C   UNL A   1      32.152  28.870  25.286  1.00  0.00     0.044 A 
ATOM      8  C   UNL A   1      30.888  29.612  24.252  1.00  0.00     0.026 A 
ATOM      9  C   UNL A   1      32.268  27.068  25.536  1.00  0.00    -0.013 A 
ATOM     10  C   UNL A   1      29.646  28.513  23.588  1.00  0.00     0.003 A 
ATOM     11  C   UNL A   1      33.509  26.531  26.177  1.00  0.00     0.047 C 
ATOM     12  C   UNL A   1      29.660  26.603  24.169  1.00  0.00     0.016 A 
BRANCH   7  13
ATOM     13  N   UNL A   1      32.249  29.594  26.498  1.00  0.00    -0.332 N 
ATOM     14  H   UNL A   1      31.443  29.591  27.064  1.00  0.00     0.169 HD
BRANCH  13  15
ATOM     15  C   UNL A   1      33.322  30.305  26.989  1.00  0.00     0.177 C 
ATOM     16  S   UNL A   1      34.736  29.419  27.206  1.00  0.00    -0.040 S 
BRANCH  15  17
ATOM     17  N   UNL A   1      33.324  31.706  27.416  1.00  0.00    -0.299 N 
ATOM     18  C   UNL A   1      33.803  32.950  28.249  1.00  0.00     0.257 C 
ATOM     19  O   UNL A   1      33.295  34.039  27.995  1.00  0.00    -0.269 OA
ATOM     20  H   UNL A   1      32.613  32.093  26.857  1.00  0.00     0.172 HD
BRANCH  18  21
ATOM     21  C   UNL A   1      34.865  32.813  29.338  1.00  0.00     0.041 A 
ATOM     22  C   UNL A   1      38.010  31.173  30.873  1.00  0.00     0.133 A 
ATOM     23  C   UNL A   1      36.561  31.735  31.852  1.00  0.00     0.048 A 
ATOM     24  C   UNL A   1      37.784  31.360  29.077  1.00  0.00     0.060 A 
ATOM     25  C   UNL A   1      35.036  32.490  31.096  1.00  0.00     0.018 A 
ATOM     26  C   UNL A   1      36.190  32.385  28.407  1.00  0.00     0.033 A 
ATOM     27  Br  UNL A   1      38.656  29.526  28.114  1.00  0.00    -0.047 Br
BRANCH  22  28
ATOM     28  O   UNL A   1      39.559  31.914  31.326  1.00  0.00    -0.493 OA
BRANCH  28  29
ATOM     29  C   UNL A   1      40.570  32.575  32.984  1.00  0.00     0.226 C 
ATOM     30  C   UNL A   1      41.466  34.083  33.215  1.00  0.00     0.049 C 
ENDBRANCH  28  29
ENDBRANCH  22  28
ENDBRANCH  18  21
ENDBRANCH  15  17
ENDBRANCH  13  15
ENDBRANCH   7  13
ENDBRANCH   4   6
ENDBRANCH   3   4
ENDBRANCH   2   3
ENDBRANCH   1   2
BRANCH   1  31
ATOM     31  O   UNL A   1      35.591  21.806  25.562  1.00  0.00    -0.376 OA
BRANCH  31  32
ATOM     32  C   UNL A   1      35.942  20.513  25.123  1.00  0.00     0.188 C 
BRANCH  32  33
ATOM     33  C   UNL A   1      37.361  20.177  24.704  1.00  0.00     0.188 C 
BRANCH  33  34
ATOM     34  O   UNL A   1      38.305  20.566  25.673  1.00  0.00    -0.376 OA
BRANCH  34  35
ATOM     35  C   UNL A   1      39.500  19.813  25.746  1.00  0.00     0.202 C 
BRANCH  35  36
ATOM     36  C   UNL A   1      40.775  20.487  26.333  1.00  0.00     0.261 C 
BRANCH  36  37
ATOM     37  O   UNL A   1      41.242  21.970  26.329  1.00  0.00    -0.460 OA
BRANCH  37  38
ATOM     38  C   UNL A   1      42.051  23.091  26.402  1.00  0.00     0.338 C 
ATOM     39  O   UNL A   1      42.772  23.370  25.452  1.00  0.00    -0.246 OA
BRANCH  38  40
ATOM     40  C   UNL A   1      42.215  23.899  27.705  1.00  0.00     0.060 A 
ATOM     41  C   UNL A   1      42.121  25.725  27.744  1.00  0.00     0.016 A 
ATOM     42  C   UNL A   1      43.540  23.146  28.399  1.00  0.00     0.016 A 
ATOM     43  C   UNL A   1      43.621  26.715  28.380  1.00  0.00     0.010 A 
ATOM     44  C   UNL A   1      44.914  24.071  28.842  1.00  0.00     0.010 A 
ATOM     45  C   UNL A   1      45.141  25.851  28.946  1.00  0.00    -0.014 A 
BRANCH  45  46
ATOM     46  C   UNL A   1      46.707  26.301  29.943  1.00  0.00     0.031 A 
ATOM     47  C   UNL A   1      48.515  26.154  29.202  1.00  0.00     0.074 A 
ATOM     48  C   UNL A   1      46.692  26.811  31.189  1.00  0.00     0.049 A 
ATOM     49  N   UNL A   1      49.592  25.532  29.619  1.00  0.00    -0.248 NA
ATOM     50  C   UNL A   1      48.953  26.321  27.538  1.00  0.00     0.031 C 
ATOM     51  C   UNL A   1      47.779  27.520  31.865  1.00  0.00     0.029 A 
ATOM     52  N   UNL A   1      45.650  26.896  32.098  1.00  0.00    -0.354 N 
ATOM     53  C   UNL A   1      50.607  25.603  28.599  1.00  0.00     0.074 A 
ATOM     54  C   UNL A   1      50.029  25.613  27.327  1.00  0.00     0.031 C 
ATOM     55  C   UNL A   1      47.451  27.677  33.163  1.00  0.00     0.029 A 
ATOM     56  C   UNL A   1      46.227  26.929  33.384  1.00  0.00     0.049 A 
ATOM     57  H   UNL A   1      44.690  26.927  31.886  1.00  0.00     0.167 HD
ATOM     58  C   UNL A   1      51.843  26.125  28.845  1.00  0.00     0.031 A 
ATOM     59  C   UNL A   1      46.084  25.803  34.141  1.00  0.00     0.031 A 
ATOM     60  C   UNL A   1      51.883  26.394  30.264  1.00  0.00     0.049 A 
ATOM     61  C   UNL A   1      47.382  24.989  34.111  1.00  0.00     0.074 A 
ATOM     62  C   UNL A   1      51.604  27.507  31.033  1.00  0.00     0.029 A 
ATOM     63  N   UNL A   1      51.576  25.310  31.056  1.00  0.00    -0.354 N 
ATOM     64  N   UNL A   1      48.498  25.363  33.528  1.00  0.00    -0.248 NA
ATOM     65  C   UNL A   1      47.510  23.674  34.723  1.00  0.00     0.031 C 
ATOM     66  C   UNL A   1      51.095  27.032  32.298  1.00  0.00     0.029 A 
ATOM     67  C   UNL A   1      51.101  25.647  32.300  1.00  0.00     0.049 A 
ATOM     68  H   UNL A   1      51.688  24.379  30.758  1.00  0.00     0.167 HD
ATOM     69  C   UNL A   1      49.451  24.390  33.628  1.00  0.00     0.074 A 
ATOM     70  C   UNL A   1      48.761  23.333  34.363  1.00  0.00     0.031 C 
ATOM     71  C   UNL A   1      50.729  24.502  33.131  1.00  0.00     0.031 A 
BRANCH  58  72
ATOM     72  C   UNL A   1      52.827  26.648  27.788  1.00  0.00    -0.014 A 
ATOM     73  C   UNL A   1      52.688  27.980  27.374  1.00  0.00     0.009 A 
ATOM     74  C   UNL A   1      53.882  25.941  27.152  1.00  0.00     0.009 A 
ATOM     75  C   UNL A   1      53.504  28.557  26.381  1.00  0.00     0.001 A 
ATOM     76  C   UNL A   1      54.673  26.494  26.123  1.00  0.00     0.001 A 
ATOM     77  C   UNL A   1      54.486  27.811  25.742  1.00  0.00     0.000 A 
ENDBRANCH  58  72
BRANCH  59  78
ATOM     78  C   UNL A   1      44.649  25.316  33.992  1.00  0.00    -0.014 A 
ATOM     79  C   UNL A   1      44.470  24.044  33.380  1.00  0.00     0.009 A 
ATOM     80  C   UNL A   1      43.698  25.712  34.939  1.00  0.00     0.009 A 
ATOM     81  C   UNL A   1      43.567  23.112  33.909  1.00  0.00     0.001 A 
ATOM     82  C   UNL A   1      42.771  24.784  35.437  1.00  0.00     0.001 A 
ATOM     83  C   UNL A   1      42.755  23.470  34.973  1.00  0.00     0.000 A 
ENDBRANCH  59  78
BRANCH  71  84
ATOM     84  C   UNL A   1      51.798  23.429  33.333  1.00  0.00    -0.014 A 
ATOM     85  C   UNL A   1      51.689  22.171  32.746  1.00  0.00     0.009 A 
ATOM     86  C   UNL A   1      52.894  23.587  34.223  1.00  0.00     0.009 A 
ATOM     87  C   UNL A   1      52.685  21.201  32.909  1.00  0.00     0.001 A 
ATOM     88  C   UNL A   1      53.878  22.623  34.413  1.00  0.00     0.001 A 
ATOM     89  C   UNL A   1      53.786  21.433  33.727  1.00  0.00     0.000 A 
ENDBRANCH  71  84
ENDBRANCH  45  46
ENDBRANCH  38  40
ENDBRANCH  37  38
ENDBRANCH  36  37
ENDBRANCH  35  36
ENDBRANCH  34  35
ENDBRANCH  33  34
ENDBRANCH  32  33
ENDBRANCH  31  32
ENDBRANCH   1  31
TORSDOF 23
ENDMDL
MODEL 2
REMARK VINA RESULT:     -10.5      4.806      7.479
REMARK SMILES CCOc1ccc(C(=O)NC(=S)Nc2cccc(C(=O)OCCOCCOCCOC(=O)c3ccc(-c4c5nc(c(-c6ccccc6)c6ccc([nH]6)c(-c6ccccc6)c6nc(c(-c7ccccc7)c7ccc4[nH]7)C=C6)C=C5)cc3)c2C)cc1Br
REMARK SMILES IDX 23 1 22 2 21 3 19 4 20 5 18 6 14 7 15 8 81 9 16 10 82 11
REMARK SMILES IDX 17 12 13 13 11 15 12 16 10 17 8 18 9 19 7 21 4 22 5 23 84 24
REMARK SMILES IDX 6 25 83 26 85 27 3 28 2 29 1 30 24 31 25 32 26 33 27 34
REMARK SMILES IDX 28 35 29 36 30 37 31 38 32 39 33 40 34 41 80 42 35 43 79 44
REMARK SMILES IDX 36 45 37 46 38 47 73 48 39 49 78 50 72 51 74 52 40 53 77 54
REMARK SMILES IDX 71 55 70 56 41 58 63 59 48 60 62 61 49 62 52 63 61 64 75 65
REMARK SMILES IDX 50 66 51 67 60 69 76 70 53 71 42 72 43 73 47 74 44 75 46 76
REMARK SMILES IDX 45 77 64 78 65 79 69 80 66 81 68 82 67 83 54 84 55 85 59 86
REMARK SMILES IDX 56 87 58 88 57 89
REMARK H PARENT 13 14 10 20 74 57 52 68
REMARK Flexibility Score: inf
ROOT
ATOM      1  C   UNL A   1      34.917  21.969  25.015  1.00  0.00     0.202 C 
ENDROOT
BRANCH   1   2
ATOM      2  C   UNL A   1      33.535  22.174  23.941  1.00  0.00     0.261 C 
BRANCH   2   3
ATOM      3  O   UNL A   1      31.948  23.225  23.852  1.00  0.00    -0.460 OA
BRANCH   3   4
ATOM      4  C   UNL A   1      31.075  24.317  24.854  1.00  0.00     0.338 C 
ATOM      5  O   UNL A   1      30.303  24.135  25.805  1.00  0.00    -0.246 OA
BRANCH   4   6
ATOM      6  C   UNL A   1      31.299  25.717  24.851  1.00  0.00     0.065 A 
ATOM      7  C   UNL A   1      32.338  28.675  25.215  1.00  0.00     0.044 A 
ATOM      8  C   UNL A   1      31.047  29.375  24.185  1.00  0.00     0.026 A 
ATOM      9  C   UNL A   1      32.546  26.877  25.425  1.00  0.00    -0.013 A 
ATOM     10  C   UNL A   1      29.870  28.228  23.484  1.00  0.00     0.003 A 
ATOM     11  C   UNL A   1      33.807  26.391  26.067  1.00  0.00     0.047 C 
ATOM     12  C   UNL A   1      29.979  26.309  24.020  1.00  0.00     0.016 A 
BRANCH   7  13
ATOM     13  N   UNL A   1      32.386  29.376  26.443  1.00  0.00    -0.332 N 
ATOM     14  H   UNL A   1      31.580  29.309  27.005  1.00  0.00     0.169 HD
BRANCH  13  15
ATOM     15  C   UNL A   1      33.412  30.139  26.956  1.00  0.00     0.177 C 
ATOM     16  S   UNL A   1      34.876  29.337  27.162  1.00  0.00    -0.040 S 
BRANCH  15  17
ATOM     17  N   UNL A   1      33.326  31.528  27.415  1.00  0.00    -0.299 N 
ATOM     18  C   UNL A   1      33.825  32.833  28.133  1.00  0.00     0.257 C 
ATOM     19  O   UNL A   1      33.117  33.835  28.059  1.00  0.00    -0.269 OA
ATOM     20  H   UNL A   1      32.444  31.803  27.076  1.00  0.00     0.172 HD
BRANCH  18  21
ATOM     21  C   UNL A   1      35.147  32.861  28.898  1.00  0.00     0.041 A 
ATOM     22  C   UNL A   1      37.400  34.035  31.811  1.00  0.00     0.133 A 
ATOM     23  C   UNL A   1      37.986  33.803  30.086  1.00  0.00     0.048 A 
ATOM     24  C   UNL A   1      35.611  33.765  32.008  1.00  0.00     0.060 A 
ATOM     25  C   UNL A   1      36.882  33.271  28.684  1.00  0.00     0.018 A 
ATOM     26  C   UNL A   1      34.578  32.986  30.468  1.00  0.00     0.033 A 
ATOM     27  Br  UNL A   1      34.861  35.347  33.415  1.00  0.00    -0.047 Br
BRANCH  22  28
ATOM     28  O   UNL A   1      38.253  33.070  33.034  1.00  0.00    -0.493 OA
BRANCH  28  29
ATOM     29  C   UNL A   1      38.383  32.857  35.069  1.00  0.00     0.226 C 
ATOM     30  C   UNL A   1      37.291  33.459  36.324  1.00  0.00     0.049 C 
ENDBRANCH  28  29
ENDBRANCH  22  28
ENDBRANCH  18  21
ENDBRANCH  15  17
ENDBRANCH  13  15
ENDBRANCH   7  13
ENDBRANCH   4   6
ENDBRANCH   3   4
ENDBRANCH   2   3
ENDBRANCH   1   2
BRANCH   1  31
ATOM     31  O   UNL A   1      36.055  21.114  25.106  1.00  0.00    -0.376 OA
BRANCH  31  32
ATOM     32  C   UNL A   1      37.367  21.433  24.696  1.00  0.00     0.188 C 
BRANCH  32  33
ATOM     33  C   UNL A   1      38.489  21.614  25.700  1.00  0.00     0.188 C 
BRANCH  33  34
ATOM     34  O   UNL A   1      39.363  20.510  25.722  1.00  0.00    -0.376 OA
BRANCH  34  35
ATOM     35  C   UNL A   1      40.568  20.659  26.445  1.00  0.00     0.202 C 
BRANCH  35  36
ATOM     36  C   UNL A   1      41.117  22.095  26.698  1.00  0.00     0.261 C 
BRANCH  36  37
ATOM     37  O   UNL A   1      42.498  22.585  27.217  1.00  0.00    -0.460 OA
BRANCH  37  38
ATOM     38  C   UNL A   1      43.488  23.392  27.750  1.00  0.00     0.338 C 
ATOM     39  O   UNL A   1      44.215  22.944  28.628  1.00  0.00    -0.246 OA
BRANCH  38  40
ATOM     40  C   UNL A   1      43.593  24.893  27.411  1.00  0.00     0.060 A 
ATOM     41  C   UNL A   1      45.114  25.862  27.717  1.00  0.00     0.016 A 
ATOM     42  C   UNL A   1      42.137  25.470  28.003  1.00  0.00     0.016 A 
ATOM     43  C   UNL A   1      45.027  27.378  28.870  1.00  0.00     0.010 A 
ATOM     44  C   UNL A   1      42.125  26.759  29.134  1.00  0.00     0.010 A 
ATOM     45  C   UNL A   1      43.442  27.861  29.664  1.00  0.00    -0.014 A 
BRANCH  45  46
ATOM     46  C   UNL A   1      42.752  29.393  30.573  1.00  0.00     0.031 A 
ATOM     47  C   UNL A   1      43.236  31.227  30.081  1.00  0.00     0.074 A 
ATOM     48  C   UNL A   1      41.840  29.340  31.563  1.00  0.00     0.049 A 
ATOM     49  N   UNL A   1      43.727  32.227  30.775  1.00  0.00    -0.248 NA
ATOM     50  C   UNL A   1      43.680  31.777  28.504  1.00  0.00     0.031 C 
ATOM     51  C   UNL A   1      40.995  30.434  32.042  1.00  0.00     0.029 A 
ATOM     52  N   UNL A   1      41.393  28.254  32.297  1.00  0.00    -0.354 N 
ATOM     53  C   UNL A   1      44.065  33.304  29.880  1.00  0.00     0.074 A 
ATOM     54  C   UNL A   1      44.470  32.808  28.638  1.00  0.00     0.031 C 
ATOM     55  C   UNL A   1      40.380  30.041  33.176  1.00  0.00     0.029 A 
ATOM     56  C   UNL A   1      40.944  28.753  33.538  1.00  0.00     0.049 A 
ATOM     57  H   UNL A   1      41.390  27.314  32.008  1.00  0.00     0.167 HD
ATOM     58  C   UNL A   1      43.552  34.559  30.035  1.00  0.00     0.031 A 
ATOM     59  C   UNL A   1      41.728  28.479  34.619  1.00  0.00     0.031 A 
ATOM     60  C   UNL A   1      42.809  34.532  31.273  1.00  0.00     0.049 A 
ATOM     61  C   UNL A   1      42.564  29.712  34.979  1.00  0.00     0.074 A 
ATOM     62  C   UNL A   1      41.485  34.291  31.588  1.00  0.00     0.029 A 
ATOM     63  N   UNL A   1      43.533  34.097  32.360  1.00  0.00    -0.354 N 
ATOM     64  N   UNL A   1      42.472  30.886  34.398  1.00  0.00    -0.248 NA
ATOM     65  C   UNL A   1      43.589  29.703  36.014  1.00  0.00     0.031 C 
ATOM     66  C   UNL A   1      41.464  33.672  32.892  1.00  0.00     0.029 A 
ATOM     67  C   UNL A   1      42.761  33.573  33.369  1.00  0.00     0.049 A 
ATOM     68  H   UNL A   1      44.514  34.157  32.410  1.00  0.00     0.167 HD
ATOM     69  C   UNL A   1      43.395  31.755  34.905  1.00  0.00     0.074 A 
ATOM     70  C   UNL A   1      44.095  30.944  35.897  1.00  0.00     0.031 C 
ATOM     71  C   UNL A   1      43.526  33.066  34.508  1.00  0.00     0.031 A 
BRANCH  58  72
ATOM     72  C   UNL A   1      43.478  35.642  28.947  1.00  0.00    -0.014 A 
ATOM     73  C   UNL A   1      42.309  36.413  28.876  1.00  0.00     0.009 A 
ATOM     74  C   UNL A   1      44.461  35.972  27.976  1.00  0.00     0.009 A 
ATOM     75  C   UNL A   1      42.112  37.404  27.896  1.00  0.00     0.001 A 
ATOM     76  C   UNL A   1      44.253  36.929  26.961  1.00  0.00     0.001 A 
ATOM     77  C   UNL A   1      43.075  37.653  26.927  1.00  0.00     0.000 A 
ENDBRANCH  58  72
BRANCH  59  78
ATOM     78  C   UNL A   1      42.165  27.023  34.528  1.00  0.00    -0.014 A 
ATOM     79  C   UNL A   1      43.565  26.784  34.453  1.00  0.00     0.009 A 
ATOM     80  C   UNL A   1      41.377  26.040  35.137  1.00  0.00     0.009 A 
ATOM     81  C   UNL A   1      44.163  25.768  35.211  1.00  0.00     0.001 A 
ATOM     82  C   UNL A   1      41.982  25.003  35.863  1.00  0.00     0.001 A 
ATOM     83  C   UNL A   1      43.369  24.910  35.956  1.00  0.00     0.000 A 
ENDBRANCH  59  78
BRANCH  71  84
ATOM     84  C   UNL A   1      44.513  34.037  35.154  1.00  0.00    -0.014 A 
ATOM     85  C   UNL A   1      45.890  33.875  35.019  1.00  0.00     0.009 A 
ATOM     86  C   UNL A   1      44.111  35.079  36.032  1.00  0.00     0.009 A 
ATOM     87  C   UNL A   1      46.791  34.784  35.588  1.00  0.00     0.001 A 
ATOM     88  C   UNL A   1      44.996  35.974  36.623  1.00  0.00     0.001 A 
ATOM     89  C   UNL A   1      46.343  35.841  36.374  1.00  0.00     0.000 A 
ENDBRANCH  71  84
ENDBRANCH  45  46
ENDBRANCH  38  40
ENDBRANCH  37  38
ENDBRANCH  36  37
ENDBRANCH  35  36
ENDBRANCH  34  35
ENDBRANCH  33  34
ENDBRANCH  32  33
ENDBRANCH  31  32
ENDBRANCH   1  31
TORSDOF 23
ENDMDL
MODEL 3
REMARK VINA RESULT:     -10.5     10.111     17.224
REMARK SMILES CCOc1ccc(C(=O)NC(=S)Nc2cccc(C(=O)OCCOCCOCCOC(=O)c3ccc(-c4c5nc(c(-c6ccccc6)c6ccc([nH]6)c(-c6ccccc6)c6nc(c(-c7ccccc7)c7ccc4[nH]7)C=C6)C=C5)cc3)c2C)cc1Br
REMARK SMILES IDX 23 1 22 2 21 3 19 4 20 5 18 6 14 7 15 8 81 9 16 10 82 11
REMARK SMILES IDX 17 12 13 13 11 15 12 16 10 17 8 18 9 19 7 21 4 22 5 23 84 24
REMARK SMILES IDX 6 25 83 26 85 27 3 28 2 29 1 30 24 31 25 32 26 33 27 34
REMARK SMILES IDX 28 35 29 36 30 37 31 38 32 39 33 40 34 41 80 42 35 43 79 44
REMARK SMILES IDX 36 45 37 46 38 47 73 48 39 49 78 50 72 51 74 52 40 53 77 54
REMARK SMILES IDX 71 55 70 56 41 58 63 59 48 60 62 61 49 62 52 63 61 64 75 65
REMARK SMILES IDX 50 66 51 67 60 69 76 70 53 71 42 72 43 73 47 74 44 75 46 76
REMARK SMILES IDX 45 77 64 78 65 79 69 80 66 81 68 82 67 83 54 84 55 85 59 86
REMARK SMILES IDX 56 87 58 88 57 89
REMARK H PARENT 13 14 10 20 74 57 52 68
REMARK Flexibility Score: inf
ROOT
ATOM      1  C   UNL A   1      42.349  43.188  32.020  1.00  0.00     0.202 C 
ENDROOT
BRANCH   1   2
ATOM      2  C   UNL A   1      42.215  41.938  30.785  1.00  0.00     0.261 C 
BRANCH   2   3
ATOM      3  O   UNL A   1      43.023  41.496  29.117  1.00  0.00    -0.460 OA
BRANCH   3   4
ATOM      4  C   UNL A   1      44.541  41.697  28.333  1.00  0.00     0.338 C 
ATOM      5  O   UNL A   1      45.638  41.147  28.495  1.00  0.00    -0.246 OA
BRANCH   4   6
ATOM      6  C   UNL A   1      44.705  42.454  27.147  1.00  0.00     0.065 A 
ATOM      7  C   UNL A   1      44.724  43.637  24.220  1.00  0.00     0.044 A 
ATOM      8  C   UNL A   1      45.565  45.143  24.713  1.00  0.00     0.026 A 
ATOM      9  C   UNL A   1      44.177  42.389  25.429  1.00  0.00    -0.013 A 
ATOM     10  C   UNL A   1      45.980  45.300  26.443  1.00  0.00     0.003 A 
ATOM     11  C   UNL A   1      43.246  41.318  24.954  1.00  0.00     0.047 C 
ATOM     12  C   UNL A   1      45.631  43.748  27.649  1.00  0.00     0.016 A 
BRANCH   7  13
ATOM     13  N   UNL A   1      45.399  43.065  23.115  1.00  0.00    -0.332 N 
ATOM     14  H   UNL A   1      46.319  42.760  23.288  1.00  0.00     0.169 HD
BRANCH  13  15
ATOM     15  C   UNL A   1      44.938  42.881  21.830  1.00  0.00     0.177 C 
ATOM     16  S   UNL A   1      46.115  42.497  20.690  1.00  0.00    -0.040 S 
BRANCH  15  17
ATOM     17  N   UNL A   1      43.567  43.073  21.354  1.00  0.00    -0.299 N 
ATOM     18  C   UNL A   1      42.448  43.562  20.365  1.00  0.00     0.257 C 
ATOM     19  O   UNL A   1      41.283  43.274  20.628  1.00  0.00    -0.269 OA
ATOM     20  H   UNL A   1      43.039  42.650  22.069  1.00  0.00     0.172 HD
BRANCH  18  21
ATOM     21  C   UNL A   1      42.794  44.368  19.114  1.00  0.00     0.041 A 
ATOM     22  C   UNL A   1      43.986  47.580  17.326  1.00  0.00     0.133 A 
ATOM     23  C   UNL A   1      42.657  46.483  16.692  1.00  0.00     0.048 A 
ATOM     24  C   UNL A   1      44.626  47.073  18.953  1.00  0.00     0.060 A 
ATOM     25  C   UNL A   1      42.067  44.957  17.581  1.00  0.00     0.018 A 
ATOM     26  C   UNL A   1      44.060  45.294  19.700  1.00  0.00     0.033 A 
ATOM     27  Br  UNL A   1      44.939  48.950  20.147  1.00  0.00    -0.047 Br
BRANCH  22  28
ATOM     28  O   UNL A   1      45.362  47.813  16.228  1.00  0.00    -0.493 OA
BRANCH  28  29
ATOM     29  C   UNL A   1      46.948  49.078  15.927  1.00  0.00     0.226 C 
ATOM     30  C   UNL A   1      47.756  50.145  17.084  1.00  0.00     0.049 C 
ENDBRANCH  28  29
ENDBRANCH  22  28
ENDBRANCH  18  21
ENDBRANCH  15  17
ENDBRANCH  13  15
ENDBRANCH   7  13
ENDBRANCH   4   6
ENDBRANCH   3   4
ENDBRANCH   2   3
ENDBRANCH   1   2
BRANCH   1  31
ATOM     31  O   UNL A   1      43.392  43.930  32.651  1.00  0.00    -0.376 OA
BRANCH  31  32
ATOM     32  C   UNL A   1      44.124  43.526  33.787  1.00  0.00     0.188 C 
BRANCH  32  33
ATOM     33  C   UNL A   1      43.847  42.206  34.481  1.00  0.00     0.188 C 
BRANCH  33  34
ATOM     34  O   UNL A   1      44.705  41.183  34.034  1.00  0.00    -0.376 OA
BRANCH  34  35
ATOM     35  C   UNL A   1      44.106  40.087  33.372  1.00  0.00     0.202 C 
BRANCH  35  36
ATOM     36  C   UNL A   1      44.811  38.699  33.431  1.00  0.00     0.261 C 
BRANCH  36  37
ATOM     37  O   UNL A   1      44.976  37.686  34.598  1.00  0.00    -0.460 OA
BRANCH  37  38
ATOM     38  C   UNL A   1      45.279  37.151  35.839  1.00  0.00     0.338 C 
ATOM     39  O   UNL A   1      46.350  37.428  36.364  1.00  0.00    -0.246 OA
BRANCH  38  40
ATOM     40  C   UNL A   1      44.397  36.073  36.503  1.00  0.00     0.060 A 
ATOM     41  C   UNL A   1      45.006  34.381  36.840  1.00  0.00     0.016 A 
ATOM     42  C   UNL A   1      42.957  36.260  35.668  1.00  0.00     0.016 A 
ATOM     43  C   UNL A   1      44.099  32.900  36.055  1.00  0.00     0.010 A 
ATOM     44  C   UNL A   1      42.248  34.914  34.877  1.00  0.00     0.010 A 
ATOM     45  C   UNL A   1      42.636  33.162  34.976  1.00  0.00    -0.014 A 
BRANCH  45  46
ATOM     46  C   UNL A   1      41.227  32.091  34.257  1.00  0.00     0.031 A 
ATOM     47  C   UNL A   1      41.219  31.448  32.406  1.00  0.00     0.074 A 
ATOM     48  C   UNL A   1      40.177  31.642  34.972  1.00  0.00     0.049 A 
ATOM     49  N   UNL A   1      40.339  31.552  31.439  1.00  0.00    -0.248 NA
ATOM     50  C   UNL A   1      42.610  31.102  31.441  1.00  0.00     0.031 C 
ATOM     51  C   UNL A   1      39.280  30.540  34.623  1.00  0.00     0.029 A 
ATOM     52  N   UNL A   1      39.739  32.014  36.232  1.00  0.00    -0.354 N 
ATOM     53  C   UNL A   1      40.914  31.050  30.218  1.00  0.00     0.074 A 
ATOM     54  C   UNL A   1      42.292  31.282  30.188  1.00  0.00     0.031 C 
ATOM     55  C   UNL A   1      38.237  30.543  35.478  1.00  0.00     0.029 A 
ATOM     56  C   UNL A   1      38.356  31.744  36.285  1.00  0.00     0.049 A 
ATOM     57  H   UNL A   1      40.290  32.395  36.953  1.00  0.00     0.167 HD
ATOM     58  C   UNL A   1      40.325  30.051  29.499  1.00  0.00     0.031 A 
ATOM     59  C   UNL A   1      37.527  32.827  36.265  1.00  0.00     0.031 A 
ATOM     60  C   UNL A   1      39.057  29.798  30.143  1.00  0.00     0.049 A 
ATOM     61  C   UNL A   1      36.944  33.008  34.860  1.00  0.00     0.074 A 
ATOM     62  C   UNL A   1      38.641  28.914  31.120  1.00  0.00     0.029 A 
ATOM     63  N   UNL A   1      38.262  30.912  30.289  1.00  0.00    -0.354 N 
ATOM     64  N   UNL A   1      37.132  32.191  33.850  1.00  0.00    -0.248 NA
ATOM     65  C   UNL A   1      36.115  34.146  34.484  1.00  0.00     0.031 C 
ATOM     66  C   UNL A   1      37.589  29.566  31.863  1.00  0.00     0.029 A 
ATOM     67  C   UNL A   1      37.353  30.816  31.315  1.00  0.00     0.049 A 
ATOM     68  H   UNL A   1      38.337  31.705  29.711  1.00  0.00     0.167 HD
ATOM     69  C   UNL A   1      36.529  32.664  32.720  1.00  0.00     0.074 A 
ATOM     70  C   UNL A   1      35.931  33.918  33.170  1.00  0.00     0.031 C 
ATOM     71  C   UNL A   1      36.535  32.014  31.506  1.00  0.00     0.031 A 
BRANCH  58  72
ATOM     72  C   UNL A   1      41.022  29.153  28.466  1.00  0.00    -0.014 A 
ATOM     73  C   UNL A   1      40.642  29.292  27.123  1.00  0.00     0.009 A 
ATOM     74  C   UNL A   1      42.022  28.171  28.695  1.00  0.00     0.009 A 
ATOM     75  C   UNL A   1      41.180  28.495  26.095  1.00  0.00     0.001 A 
ATOM     76  C   UNL A   1      42.532  27.335  27.680  1.00  0.00     0.001 A 
ATOM     77  C   UNL A   1      42.114  27.505  26.372  1.00  0.00     0.000 A 
ENDBRANCH  58  72
BRANCH  59  78
ATOM     78  C   UNL A   1      38.105  33.880  37.201  1.00  0.00    -0.014 A 
ATOM     79  C   UNL A   1      38.370  33.466  38.536  1.00  0.00     0.009 A 
ATOM     80  C   UNL A   1      38.917  34.887  36.668  1.00  0.00     0.009 A 
ATOM     81  C   UNL A   1      39.562  33.828  39.179  1.00  0.00     0.001 A 
ATOM     82  C   UNL A   1      40.090  35.272  37.335  1.00  0.00     0.001 A 
ATOM     83  C   UNL A   1      40.445  34.692  38.551  1.00  0.00     0.000 A 
ENDBRANCH  59  78
BRANCH  71  84
ATOM     84  C   UNL A   1      35.780  32.529  30.282  1.00  0.00    -0.014 A 
ATOM     85  C   UNL A   1      34.779  31.776  29.673  1.00  0.00     0.009 A 
ATOM     86  C   UNL A   1      36.127  33.730  29.608  1.00  0.00     0.009 A 
ATOM     87  C   UNL A   1      34.070  32.263  28.569  1.00  0.00     0.001 A 
ATOM     88  C   UNL A   1      35.446  34.215  28.496  1.00  0.00     0.001 A 
ATOM     89  C   UNL A   1      34.391  33.488  27.993  1.00  0.00     0.000 A 
ENDBRANCH  71  84
ENDBRANCH  45  46
ENDBRANCH  38  40
ENDBRANCH  37  38
ENDBRANCH  36  37
ENDBRANCH  35  36
ENDBRANCH  34  35
ENDBRANCH  33  34
ENDBRANCH  32  33
ENDBRANCH  31  32
ENDBRANCH   1  31
TORSDOF 23
ENDMDL
