MODEL 1
REMARK VINA RESULT:      -8.9      0.000      0.000
REMARK SMILES C#CCN(CC(=O)OCCOCCOCCOC(=O)c1ccc(-c2c3nc(c(-c4ccccc4)c4ccc([nH]4)c(-c4ccccc4)c4nc(c(-c5ccccc5)c5ccc2[nH]5)C=C4)C=C3)cc1)C(=O)CCc1ccc(Cl)cc1Cl
REMARK SMILES IDX 11 1 10 2 9 3 8 4 6 5 7 6 5 7 4 8 3 9 2 10 1 11 68 12 69 13
REMARK SMILES IDX 70 14 71 15 72 16 73 17 78 18 74 19 77 20 79 21 75 22 76 23
REMARK SMILES IDX 12 24 13 25 14 26 15 27 16 28 17 29 18 30 19 31 20 32 21 33
REMARK SMILES IDX 67 34 22 35 66 36 23 37 24 38 25 39 60 40 26 41 65 42 59 43
REMARK SMILES IDX 61 44 27 45 64 46 58 47 57 48 28 50 50 51 35 52 49 53 36 54
REMARK SMILES IDX 39 55 48 56 62 57 37 58 38 59 47 61 63 62 40 63 29 64 30 65
REMARK SMILES IDX 34 66 31 67 33 68 32 69 51 70 52 71 56 72 53 73 55 74 54 75
REMARK SMILES IDX 41 76 42 77 46 78 43 79 45 80 44 81
REMARK H PARENT 61 49 39 60
REMARK Flexibility Score: inf
ROOT
ATOM      1  O   UNL A   1      39.675  21.867  27.263  1.00  0.00    -0.376 OA
ENDROOT
BRANCH   1   2
ATOM      2  C   UNL A   1      39.259  22.598  26.116  1.00  0.00     0.202 C 
BRANCH   2   3
ATOM      3  C   UNL A   1      37.771  22.484  25.784  1.00  0.00     0.261 C 
BRANCH   3   4
ATOM      4  O   UNL A   1      37.026  23.654  26.185  1.00  0.00    -0.462 OA
BRANCH   4   5
ATOM      5  C   UNL A   1      35.685  23.543  26.008  1.00  0.00     0.325 C 
ATOM      6  O   UNL A   1      34.932  23.001  26.812  1.00  0.00    -0.250 OA
BRANCH   5   7
ATOM      7  C   UNL A   1      35.143  24.410  24.868  1.00  0.00     0.243 C 
BRANCH   7   8
ATOM      8  N   UNL A   1      33.743  24.466  24.425  1.00  0.00    -0.320 N 
BRANCH   8   9
ATOM      9  C   UNL A   1      33.195  25.771  24.071  1.00  0.00     0.210 C 
BRANCH   9  10
ATOM     10  C   UNL A   1      33.514  26.782  25.161  1.00  0.00    -0.085 C 
ATOM     11  C   UNL A   1      33.788  27.648  26.095  1.00  0.00     0.006 C 
ENDBRANCH   9  10
ENDBRANCH   8   9
BRANCH   8  12
ATOM     12  C   UNL A   1      32.885  23.390  24.317  1.00  0.00     0.224 C 
ATOM     13  O   UNL A   1      31.753  23.415  24.811  1.00  0.00    -0.275 OA
BRANCH  12  14
ATOM     14  C   UNL A   1      33.310  22.154  23.546  1.00  0.00     0.105 C 
BRANCH  14  15
ATOM     15  C   UNL A   1      32.237  21.099  23.257  1.00  0.00     0.047 C 
BRANCH  15  16
ATOM     16  C   UNL A   1      32.517  19.729  23.827  1.00  0.00    -0.029 A 
ATOM     17  C   UNL A   1      32.712  19.612  25.214  1.00  0.00     0.007 A 
ATOM     18  C   UNL A   1      32.496  18.553  23.049  1.00  0.00     0.045 A 
ATOM     19  C   UNL A   1      32.795  18.356  25.816  1.00  0.00     0.021 A 
ATOM     20  C   UNL A   1      32.566  17.297  23.655  1.00  0.00     0.041 A 
ATOM     21  Cl  UNL A   1      32.281  18.588  21.337  1.00  0.00    -0.084 Cl
ATOM     22  C   UNL A   1      32.699  17.206  25.037  1.00  0.00     0.042 A 
ATOM     23  Cl  UNL A   1      32.704  15.661  25.790  1.00  0.00    -0.084 Cl
ENDBRANCH  15  16
ENDBRANCH  14  15
ENDBRANCH  12  14
ENDBRANCH   8  12
ENDBRANCH   7   8
ENDBRANCH   5   7
ENDBRANCH   4   5
ENDBRANCH   3   4
ENDBRANCH   2   3
ENDBRANCH   1   2
BRANCH   1  24
ATOM     24  C   UNL A   1      41.066  21.575  27.396  1.00  0.00     0.188 C 
BRANCH  24  25
ATOM     25  C   UNL A   1      41.819  20.985  26.193  1.00  0.00     0.188 C 
BRANCH  25  26
ATOM     26  O   UNL A   1      43.218  20.901  26.447  1.00  0.00    -0.376 OA
BRANCH  26  27
ATOM     27  C   UNL A   1      44.016  20.906  25.271  1.00  0.00     0.202 C 
BRANCH  27  28
ATOM     28  C   UNL A   1      44.943  22.118  25.281  1.00  0.00     0.261 C 
BRANCH  28  29
ATOM     29  O   UNL A   1      44.385  23.172  26.093  1.00  0.00    -0.460 OA
BRANCH  29  30
ATOM     30  C   UNL A   1      44.483  24.427  25.614  1.00  0.00     0.338 C 
ATOM     31  O   UNL A   1      45.108  24.807  24.644  1.00  0.00    -0.246 OA
BRANCH  30  32
ATOM     32  C   UNL A   1      43.727  25.333  26.502  1.00  0.00     0.060 A 
ATOM     33  C   UNL A   1      44.187  26.628  26.736  1.00  0.00     0.016 A 
ATOM     34  C   UNL A   1      42.624  24.842  27.202  1.00  0.00     0.016 A 
ATOM     35  C   UNL A   1      43.568  27.421  27.713  1.00  0.00     0.010 A 
ATOM     36  C   UNL A   1      41.995  25.646  28.163  1.00  0.00     0.010 A 
ATOM     37  C   UNL A   1      42.485  26.929  28.454  1.00  0.00    -0.014 A 
BRANCH  37  38
ATOM     38  C   UNL A   1      42.000  27.675  29.649  1.00  0.00     0.031 A 
ATOM     39  C   UNL A   1      40.730  28.479  29.539  1.00  0.00     0.074 A 
ATOM     40  C   UNL A   1      42.610  27.591  30.847  1.00  0.00     0.049 A 
ATOM     41  N   UNL A   1      40.182  29.290  30.410  1.00  0.00    -0.248 NA
ATOM     42  C   UNL A   1      39.973  28.338  28.285  1.00  0.00     0.031 C 
ATOM     43  C   UNL A   1      43.778  26.769  31.149  1.00  0.00     0.029 A 
ATOM     44  N   UNL A   1      42.310  28.199  32.045  1.00  0.00    -0.354 N 
ATOM     45  C   UNL A   1      39.034  29.777  29.798  1.00  0.00     0.074 A 
ATOM     46  C   UNL A   1      38.964  29.174  28.485  1.00  0.00     0.031 C 
ATOM     47  C   UNL A   1      44.079  26.900  32.454  1.00  0.00     0.029 A 
ATOM     48  C   UNL A   1      43.169  27.867  33.066  1.00  0.00     0.049 A 
ATOM     49  H   UNL A   1      41.552  28.816  32.160  1.00  0.00     0.167 HD
ATOM     50  C   UNL A   1      38.120  30.655  30.278  1.00  0.00     0.031 A 
ATOM     51  C   UNL A   1      43.237  28.313  34.336  1.00  0.00     0.031 A 
ATOM     52  C   UNL A   1      38.171  31.267  31.577  1.00  0.00     0.049 A 
ATOM     53  C   UNL A   1      42.279  29.377  34.806  1.00  0.00     0.074 A 
ATOM     54  C   UNL A   1      37.329  32.226  32.114  1.00  0.00     0.029 A 
ATOM     55  N   UNL A   1      39.110  30.969  32.550  1.00  0.00    -0.354 N 
ATOM     56  N   UNL A   1      41.253  29.904  34.185  1.00  0.00    -0.248 NA
ATOM     57  C   UNL A   1      42.508  29.925  36.154  1.00  0.00     0.031 C 
ATOM     58  C   UNL A   1      37.779  32.532  33.403  1.00  0.00     0.029 A 
ATOM     59  C   UNL A   1      38.872  31.730  33.682  1.00  0.00     0.049 A 
ATOM     60  H   UNL A   1      39.838  30.314  32.451  1.00  0.00     0.167 HD
ATOM     61  C   UNL A   1      40.709  30.830  35.068  1.00  0.00     0.074 A 
ATOM     62  C   UNL A   1      41.499  30.775  36.279  1.00  0.00     0.031 C 
ATOM     63  C   UNL A   1      39.655  31.662  34.886  1.00  0.00     0.031 A 
BRANCH  50  64
ATOM     64  C   UNL A   1      37.004  31.046  29.355  1.00  0.00    -0.014 A 
ATOM     65  C   UNL A   1      35.971  30.151  29.040  1.00  0.00     0.009 A 
ATOM     66  C   UNL A   1      36.980  32.339  28.809  1.00  0.00     0.009 A 
ATOM     67  C   UNL A   1      34.947  30.537  28.174  1.00  0.00     0.001 A 
ATOM     68  C   UNL A   1      35.944  32.728  27.960  1.00  0.00     0.001 A 
ATOM     69  C   UNL A   1      34.932  31.824  27.638  1.00  0.00     0.000 A 
ENDBRANCH  50  64
BRANCH  51  70
ATOM     70  C   UNL A   1      44.291  27.819  35.264  1.00  0.00    -0.014 A 
ATOM     71  C   UNL A   1      44.029  26.753  36.141  1.00  0.00     0.009 A 
ATOM     72  C   UNL A   1      45.536  28.464  35.338  1.00  0.00     0.009 A 
ATOM     73  C   UNL A   1      44.976  26.370  37.093  1.00  0.00     0.001 A 
ATOM     74  C   UNL A   1      46.493  28.057  36.270  1.00  0.00     0.001 A 
ATOM     75  C   UNL A   1      46.208  27.020  37.156  1.00  0.00     0.000 A 
ENDBRANCH  51  70
BRANCH  63  76
ATOM     76  C   UNL A   1      39.271  32.552  36.035  1.00  0.00    -0.014 A 
ATOM     77  C   UNL A   1      38.262  32.180  36.938  1.00  0.00     0.009 A 
ATOM     78  C   UNL A   1      39.948  33.765  36.233  1.00  0.00     0.009 A 
ATOM     79  C   UNL A   1      37.917  33.023  37.995  1.00  0.00     0.001 A 
ATOM     80  C   UNL A   1      39.617  34.594  37.306  1.00  0.00     0.001 A 
ATOM     81  C   UNL A   1      38.595  34.228  38.181  1.00  0.00     0.000 A 
ENDBRANCH  63  76
ENDBRANCH  37  38
ENDBRANCH  30  32
ENDBRANCH  29  30
ENDBRANCH  28  29
ENDBRANCH  27  28
ENDBRANCH  26  27
ENDBRANCH  25  26
ENDBRANCH  24  25
ENDBRANCH   1  24
TORSDOF 24
ENDMDL
MODEL 2
REMARK VINA RESULT:      -8.5      6.111     10.469
REMARK SMILES C#CCN(CC(=O)OCCOCCOCCOC(=O)c1ccc(-c2c3nc(c(-c4ccccc4)c4ccc([nH]4)c(-c4ccccc4)c4nc(c(-c5ccccc5)c5ccc2[nH]5)C=C4)C=C3)cc1)C(=O)CCc1ccc(Cl)cc1Cl
REMARK SMILES IDX 11 1 10 2 9 3 8 4 6 5 7 6 5 7 4 8 3 9 2 10 1 11 68 12 69 13
REMARK SMILES IDX 70 14 71 15 72 16 73 17 78 18 74 19 77 20 79 21 75 22 76 23
REMARK SMILES IDX 12 24 13 25 14 26 15 27 16 28 17 29 18 30 19 31 20 32 21 33
REMARK SMILES IDX 67 34 22 35 66 36 23 37 24 38 25 39 60 40 26 41 65 42 59 43
REMARK SMILES IDX 61 44 27 45 64 46 58 47 57 48 28 50 50 51 35 52 49 53 36 54
REMARK SMILES IDX 39 55 48 56 62 57 37 58 38 59 47 61 63 62 40 63 29 64 30 65
REMARK SMILES IDX 34 66 31 67 33 68 32 69 51 70 52 71 56 72 53 73 55 74 54 75
REMARK SMILES IDX 41 76 42 77 46 78 43 79 45 80 44 81
REMARK H PARENT 61 49 39 60
REMARK Flexibility Score: inf
ROOT
ATOM      1  O   UNL A   1      36.562  22.259  25.851  1.00  0.00    -0.376 OA
ENDROOT
BRANCH   1   2
ATOM      2  C   UNL A   1      35.923  23.527  25.757  1.00  0.00     0.202 C 
BRANCH   2   3
ATOM      3  C   UNL A   1      34.546  23.605  26.416  1.00  0.00     0.261 C 
BRANCH   3   4
ATOM      4  O   UNL A   1      33.880  22.325  26.455  1.00  0.00    -0.462 OA
BRANCH   4   5
ATOM      5  C   UNL A   1      32.553  22.401  26.727  1.00  0.00     0.325 C 
ATOM      6  O   UNL A   1      32.084  23.028  27.673  1.00  0.00    -0.250 OA
BRANCH   5   7
ATOM      7  C   UNL A   1      31.663  21.889  25.591  1.00  0.00     0.243 C 
BRANCH   7   8
ATOM      8  N   UNL A   1      31.810  22.226  24.168  1.00  0.00    -0.320 N 
BRANCH   8   9
ATOM      9  C   UNL A   1      32.267  21.174  23.266  1.00  0.00     0.210 C 
BRANCH   9  10
ATOM     10  C   UNL A   1      32.877  20.034  24.064  1.00  0.00    -0.085 C 
ATOM     11  C   UNL A   1      33.400  19.056  24.748  1.00  0.00     0.006 C 
ENDBRANCH   9  10
ENDBRANCH   8   9
BRANCH   8  12
ATOM     12  C   UNL A   1      31.562  23.459  23.599  1.00  0.00     0.224 C 
ATOM     13  O   UNL A   1      30.460  23.736  23.115  1.00  0.00    -0.275 OA
BRANCH  12  14
ATOM     14  C   UNL A   1      32.642  24.524  23.592  1.00  0.00     0.105 C 
BRANCH  14  15
ATOM     15  C   UNL A   1      32.212  25.964  23.293  1.00  0.00     0.047 C 
BRANCH  15  16
ATOM     16  C   UNL A   1      32.421  26.942  24.425  1.00  0.00    -0.029 A 
ATOM     17  C   UNL A   1      33.504  27.833  24.343  1.00  0.00     0.007 A 
ATOM     18  C   UNL A   1      31.527  27.068  25.508  1.00  0.00     0.045 A 
ATOM     19  C   UNL A   1      33.641  28.871  25.266  1.00  0.00     0.021 A 
ATOM     20  C   UNL A   1      31.658  28.115  26.421  1.00  0.00     0.041 A 
ATOM     21  Cl  UNL A   1      30.175  26.013  25.710  1.00  0.00    -0.084 Cl
ATOM     22  C   UNL A   1      32.705  29.020  26.286  1.00  0.00     0.042 A 
ATOM     23  Cl  UNL A   1      32.819  30.356  27.361  1.00  0.00    -0.084 Cl
ENDBRANCH  15  16
ENDBRANCH  14  15
ENDBRANCH  12  14
ENDBRANCH   8  12
ENDBRANCH   7   8
ENDBRANCH   5   7
ENDBRANCH   4   5
ENDBRANCH   3   4
ENDBRANCH   2   3
ENDBRANCH   1   2
BRANCH   1  24
ATOM     24  C   UNL A   1      37.968  22.204  25.610  1.00  0.00     0.188 C 
BRANCH  24  25
ATOM     25  C   UNL A   1      38.889  23.177  26.363  1.00  0.00     0.188 C 
BRANCH  25  26
ATOM     26  O   UNL A   1      39.769  22.482  27.242  1.00  0.00    -0.376 OA
BRANCH  26  27
ATOM     27  C   UNL A   1      40.177  21.210  26.757  1.00  0.00     0.202 C 
BRANCH  27  28
ATOM     28  C   UNL A   1      41.638  20.963  27.119  1.00  0.00     0.261 C 
BRANCH  28  29
ATOM     29  O   UNL A   1      42.371  22.206  27.134  1.00  0.00    -0.460 OA
BRANCH  29  30
ATOM     30  C   UNL A   1      43.034  22.535  26.009  1.00  0.00     0.338 C 
ATOM     31  O   UNL A   1      43.217  21.847  25.024  1.00  0.00    -0.246 OA
BRANCH  30  32
ATOM     32  C   UNL A   1      43.576  23.900  26.161  1.00  0.00     0.060 A 
ATOM     33  C   UNL A   1      43.579  24.778  25.078  1.00  0.00     0.016 A 
ATOM     34  C   UNL A   1      44.200  24.259  27.357  1.00  0.00     0.016 A 
ATOM     35  C   UNL A   1      44.253  26.003  25.176  1.00  0.00     0.010 A 
ATOM     36  C   UNL A   1      44.855  25.495  27.457  1.00  0.00     0.010 A 
ATOM     37  C   UNL A   1      44.920  26.362  26.354  1.00  0.00    -0.014 A 
BRANCH  37  38
ATOM     38  C   UNL A   1      45.833  27.539  26.365  1.00  0.00     0.031 A 
ATOM     39  C   UNL A   1      47.304  27.321  26.119  1.00  0.00     0.074 A 
ATOM     40  C   UNL A   1      45.381  28.800  26.505  1.00  0.00     0.049 A 
ATOM     41  N   UNL A   1      48.294  28.176  26.190  1.00  0.00    -0.248 NA
ATOM     42  C   UNL A   1      47.707  25.961  25.727  1.00  0.00     0.031 C 
ATOM     43  C   UNL A   1      43.981  29.190  26.636  1.00  0.00     0.029 A 
ATOM     44  N   UNL A   1      46.065  29.994  26.539  1.00  0.00    -0.354 N 
ATOM     45  C   UNL A   1      49.438  27.451  25.883  1.00  0.00     0.074 A 
ATOM     46  C   UNL A   1      49.022  26.089  25.625  1.00  0.00     0.031 C 
ATOM     47  C   UNL A   1      43.906  30.532  26.708  1.00  0.00     0.029 A 
ATOM     48  C   UNL A   1      45.255  31.093  26.696  1.00  0.00     0.049 A 
ATOM     49  H   UNL A   1      47.045  30.055  26.461  1.00  0.00     0.167 HD
ATOM     50  C   UNL A   1      50.724  27.873  25.826  1.00  0.00     0.031 A 
ATOM     51  C   UNL A   1      45.564  32.397  26.846  1.00  0.00     0.031 A 
ATOM     52  C   UNL A   1      51.160  29.219  26.081  1.00  0.00     0.049 A 
ATOM     53  C   UNL A   1      47.009  32.821  26.896  1.00  0.00     0.074 A 
ATOM     54  C   UNL A   1      52.451  29.717  26.121  1.00  0.00     0.029 A 
ATOM     55  N   UNL A   1      50.313  30.287  26.324  1.00  0.00    -0.354 N 
ATOM     56  N   UNL A   1      48.091  32.109  26.701  1.00  0.00    -0.248 NA
ATOM     57  C   UNL A   1      47.273  34.235  27.214  1.00  0.00     0.031 C 
ATOM     58  C   UNL A   1      52.387  31.081  26.421  1.00  0.00     0.029 A 
ATOM     59  C   UNL A   1      51.053  31.440  26.522  1.00  0.00     0.049 A 
ATOM     60  H   UNL A   1      49.330  30.234  26.352  1.00  0.00     0.167 HD
ATOM     61  C   UNL A   1      49.157  32.988  26.857  1.00  0.00     0.074 A 
ATOM     62  C   UNL A   1      48.595  34.292  27.135  1.00  0.00     0.031 C 
ATOM     63  C   UNL A   1      50.487  32.734  26.787  1.00  0.00     0.031 A 
BRANCH  50  64
ATOM     64  C   UNL A   1      51.767  26.838  25.524  1.00  0.00    -0.014 A 
ATOM     65  C   UNL A   1      52.266  26.664  24.225  1.00  0.00     0.009 A 
ATOM     66  C   UNL A   1      52.269  26.038  26.563  1.00  0.00     0.009 A 
ATOM     67  C   UNL A   1      53.232  25.689  23.967  1.00  0.00     0.001 A 
ATOM     68  C   UNL A   1      53.249  25.080  26.306  1.00  0.00     0.001 A 
ATOM     69  C   UNL A   1      53.724  24.901  25.007  1.00  0.00     0.000 A 
ENDBRANCH  50  64
BRANCH  51  70
ATOM     70  C   UNL A   1      44.497  33.418  27.031  1.00  0.00    -0.014 A 
ATOM     71  C   UNL A   1      44.006  34.146  25.935  1.00  0.00     0.009 A 
ATOM     72  C   UNL A   1      44.024  33.731  28.316  1.00  0.00     0.009 A 
ATOM     73  C   UNL A   1      43.093  35.187  26.127  1.00  0.00     0.001 A 
ATOM     74  C   UNL A   1      43.087  34.749  28.500  1.00  0.00     0.001 A 
ATOM     75  C   UNL A   1      42.633  35.486  27.407  1.00  0.00     0.000 A 
ENDBRANCH  51  70
BRANCH  63  76
ATOM     76  C   UNL A   1      51.422  33.895  26.978  1.00  0.00    -0.014 A 
ATOM     77  C   UNL A   1      51.915  34.231  28.249  1.00  0.00     0.009 A 
ATOM     78  C   UNL A   1      51.838  34.644  25.867  1.00  0.00     0.009 A 
ATOM     79  C   UNL A   1      52.778  35.317  28.406  1.00  0.00     0.001 A 
ATOM     80  C   UNL A   1      52.721  35.714  26.024  1.00  0.00     0.001 A 
ATOM     81  C   UNL A   1      53.183  36.056  27.294  1.00  0.00     0.000 A 
ENDBRANCH  63  76
ENDBRANCH  37  38
ENDBRANCH  30  32
ENDBRANCH  29  30
ENDBRANCH  28  29
ENDBRANCH  27  28
ENDBRANCH  26  27
ENDBRANCH  25  26
ENDBRANCH  24  25
ENDBRANCH   1  24
TORSDOF 24
ENDMDL
MODEL 3
REMARK VINA RESULT:      -8.5      7.111     12.152
REMARK SMILES C#CCN(CC(=O)OCCOCCOCCOC(=O)c1ccc(-c2c3nc(c(-c4ccccc4)c4ccc([nH]4)c(-c4ccccc4)c4nc(c(-c5ccccc5)c5ccc2[nH]5)C=C4)C=C3)cc1)C(=O)CCc1ccc(Cl)cc1Cl
REMARK SMILES IDX 11 1 10 2 9 3 8 4 6 5 7 6 5 7 4 8 3 9 2 10 1 11 68 12 69 13
REMARK SMILES IDX 70 14 71 15 72 16 73 17 78 18 74 19 77 20 79 21 75 22 76 23
REMARK SMILES IDX 12 24 13 25 14 26 15 27 16 28 17 29 18 30 19 31 20 32 21 33
REMARK SMILES IDX 67 34 22 35 66 36 23 37 24 38 25 39 60 40 26 41 65 42 59 43
REMARK SMILES IDX 61 44 27 45 64 46 58 47 57 48 28 50 50 51 35 52 49 53 36 54
REMARK SMILES IDX 39 55 48 56 62 57 37 58 38 59 47 61 63 62 40 63 29 64 30 65
REMARK SMILES IDX 34 66 31 67 33 68 32 69 51 70 52 71 56 72 53 73 55 74 54 75
REMARK SMILES IDX 41 76 42 77 46 78 43 79 45 80 44 81
REMARK H PARENT 61 49 39 60
REMARK Flexibility Score: inf
ROOT
ATOM      1  O   UNL A   1      36.655  21.862  25.795  1.00  0.00    -0.376 OA
ENDROOT
BRANCH   1   2
ATOM      2  C   UNL A   1      36.216  23.215  25.820  1.00  0.00     0.202 C 
BRANCH   2   3
ATOM      3  C   UNL A   1      34.778  23.418  26.299  1.00  0.00     0.261 C 
BRANCH   3   4
ATOM      4  O   UNL A   1      34.140  22.176  26.665  1.00  0.00    -0.462 OA
BRANCH   4   5
ATOM      5  C   UNL A   1      32.874  22.322  27.132  1.00  0.00     0.325 C 
ATOM      6  O   UNL A   1      32.605  22.639  28.288  1.00  0.00    -0.250 OA
BRANCH   5   7
ATOM      7  C   UNL A   1      31.812  22.353  26.030  1.00  0.00     0.243 C 
BRANCH   7   8
ATOM      8  N   UNL A   1      31.187  23.561  25.475  1.00  0.00    -0.320 N 
BRANCH   8   9
ATOM      9  C   UNL A   1      30.789  23.536  24.071  1.00  0.00     0.210 C 
BRANCH   9  10
ATOM     10  C   UNL A   1      31.898  22.929  23.227  1.00  0.00    -0.085 C 
ATOM     11  C   UNL A   1      32.849  22.409  22.504  1.00  0.00     0.006 C 
ENDBRANCH   9  10
ENDBRANCH   8   9
BRANCH   8  12
ATOM     12  C   UNL A   1      30.943  24.734  26.161  1.00  0.00     0.224 C 
ATOM     13  O   UNL A   1      29.821  25.002  26.602  1.00  0.00    -0.275 OA
BRANCH  12  14
ATOM     14  C   UNL A   1      32.075  25.710  26.423  1.00  0.00     0.105 C 
BRANCH  14  15
ATOM     15  C   UNL A   1      32.097  27.002  25.599  1.00  0.00     0.047 C 
BRANCH  15  16
ATOM     16  C   UNL A   1      32.235  26.808  24.108  1.00  0.00    -0.029 A 
ATOM     17  C   UNL A   1      33.482  26.401  23.602  1.00  0.00     0.007 A 
ATOM     18  C   UNL A   1      31.151  26.919  23.213  1.00  0.00     0.045 A 
ATOM     19  C   UNL A   1      33.620  26.034  22.263  1.00  0.00     0.021 A 
ATOM     20  C   UNL A   1      31.288  26.539  21.877  1.00  0.00     0.041 A 
ATOM     21  Cl  UNL A   1      29.584  27.426  23.729  1.00  0.00    -0.084 Cl
ATOM     22  C   UNL A   1      32.518  26.083  21.414  1.00  0.00     0.042 A 
ATOM     23  Cl  UNL A   1      32.666  25.538  19.790  1.00  0.00    -0.084 Cl
ENDBRANCH  15  16
ENDBRANCH  14  15
ENDBRANCH  12  14
ENDBRANCH   8  12
ENDBRANCH   7   8
ENDBRANCH   5   7
ENDBRANCH   4   5
ENDBRANCH   3   4
ENDBRANCH   2   3
ENDBRANCH   1   2
BRANCH   1  24
ATOM     24  C   UNL A   1      38.021  21.613  25.466  1.00  0.00     0.188 C 
BRANCH  24  25
ATOM     25  C   UNL A   1      39.110  22.486  26.109  1.00  0.00     0.188 C 
BRANCH  25  26
ATOM     26  O   UNL A   1      40.019  21.701  26.877  1.00  0.00    -0.376 OA
BRANCH  26  27
ATOM     27  C   UNL A   1      41.020  21.059  26.098  1.00  0.00     0.202 C 
BRANCH  27  28
ATOM     28  C   UNL A   1      42.375  21.708  26.362  1.00  0.00     0.261 C 
BRANCH  28  29
ATOM     29  O   UNL A   1      42.757  22.544  25.250  1.00  0.00    -0.460 OA
BRANCH  29  30
ATOM     30  C   UNL A   1      42.725  23.876  25.450  1.00  0.00     0.338 C 
ATOM     31  O   UNL A   1      41.764  24.562  25.739  1.00  0.00    -0.246 OA
BRANCH  30  32
ATOM     32  C   UNL A   1      44.075  24.424  25.214  1.00  0.00     0.060 A 
ATOM     33  C   UNL A   1      45.153  23.564  25.003  1.00  0.00     0.016 A 
ATOM     34  C   UNL A   1      44.286  25.798  25.329  1.00  0.00     0.016 A 
ATOM     35  C   UNL A   1      46.456  24.080  24.958  1.00  0.00     0.010 A 
ATOM     36  C   UNL A   1      45.588  26.312  25.262  1.00  0.00     0.010 A 
ATOM     37  C   UNL A   1      46.690  25.452  25.113  1.00  0.00    -0.014 A 
BRANCH  37  38
ATOM     38  C   UNL A   1      48.078  25.954  25.312  1.00  0.00     0.031 A 
ATOM     39  C   UNL A   1      48.681  25.899  26.692  1.00  0.00     0.074 A 
ATOM     40  C   UNL A   1      48.844  26.379  24.289  1.00  0.00     0.049 A 
ATOM     41  N   UNL A   1      49.824  26.377  27.119  1.00  0.00    -0.248 NA
ATOM     42  C   UNL A   1      47.896  25.200  27.722  1.00  0.00     0.031 C 
ATOM     43  C   UNL A   1      48.452  26.388  22.883  1.00  0.00     0.029 A 
ATOM     44  N   UNL A   1      50.129  26.870  24.281  1.00  0.00    -0.354 N 
ATOM     45  C   UNL A   1      49.879  26.063  28.472  1.00  0.00     0.074 A 
ATOM     46  C   UNL A   1      48.659  25.356  28.794  1.00  0.00     0.031 C 
ATOM     47  C   UNL A   1      49.486  26.833  22.144  1.00  0.00     0.029 A 
ATOM     48  C   UNL A   1      50.587  27.206  23.029  1.00  0.00     0.049 A 
ATOM     49  H   UNL A   1      50.670  26.974  25.097  1.00  0.00     0.167 HD
ATOM     50  C   UNL A   1      50.853  26.342  29.371  1.00  0.00     0.031 A 
ATOM     51  C   UNL A   1      51.746  27.777  22.642  1.00  0.00     0.031 A 
ATOM     52  C   UNL A   1      52.071  27.045  29.073  1.00  0.00     0.049 A 
ATOM     53  C   UNL A   1      52.761  28.184  23.679  1.00  0.00     0.074 A 
ATOM     54  C   UNL A   1      53.076  27.439  29.940  1.00  0.00     0.029 A 
ATOM     55  N   UNL A   1      52.457  27.446  27.805  1.00  0.00    -0.354 N 
ATOM     56  N   UNL A   1      52.760  27.969  24.971  1.00  0.00    -0.248 NA
ATOM     57  C   UNL A   1      53.931  28.938  23.198  1.00  0.00     0.031 C 
ATOM     58  C   UNL A   1      54.057  28.108  29.200  1.00  0.00     0.029 A 
ATOM     59  C   UNL A   1      53.682  28.090  27.868  1.00  0.00     0.049 A 
ATOM     60  H   UNL A   1      51.938  27.297  26.982  1.00  0.00     0.167 HD
ATOM     61  C   UNL A   1      53.930  28.546  25.452  1.00  0.00     0.074 A 
ATOM     62  C   UNL A   1      54.631  29.096  24.312  1.00  0.00     0.031 C 
ATOM     63  C   UNL A   1      54.378  28.624  26.729  1.00  0.00     0.031 A 
BRANCH  50  64
ATOM     64  C   UNL A   1      50.606  25.927  30.791  1.00  0.00    -0.014 A 
ATOM     65  C   UNL A   1      50.098  26.830  31.736  1.00  0.00     0.009 A 
ATOM     66  C   UNL A   1      50.871  24.605  31.181  1.00  0.00     0.009 A 
ATOM     67  C   UNL A   1      49.882  26.421  33.054  1.00  0.00     0.001 A 
ATOM     68  C   UNL A   1      50.634  24.194  32.492  1.00  0.00     0.001 A 
ATOM     69  C   UNL A   1      50.147  25.104  33.429  1.00  0.00     0.000 A 
ENDBRANCH  50  64
BRANCH  51  70
ATOM     70  C   UNL A   1      52.008  28.074  21.207  1.00  0.00    -0.014 A 
ATOM     71  C   UNL A   1      52.702  27.156  20.402  1.00  0.00     0.009 A 
ATOM     72  C   UNL A   1      51.642  29.313  20.657  1.00  0.00     0.009 A 
ATOM     73  C   UNL A   1      53.054  27.487  19.091  1.00  0.00     0.001 A 
ATOM     74  C   UNL A   1      51.966  29.628  19.335  1.00  0.00     0.001 A 
ATOM     75  C   UNL A   1      52.684  28.721  18.558  1.00  0.00     0.000 A 
ENDBRANCH  51  70
BRANCH  63  76
ATOM     76  C   UNL A   1      55.704  29.294  26.956  1.00  0.00    -0.014 A 
ATOM     77  C   UNL A   1      55.787  30.670  27.225  1.00  0.00     0.009 A 
ATOM     78  C   UNL A   1      56.883  28.534  26.927  1.00  0.00     0.009 A 
ATOM     79  C   UNL A   1      57.029  31.275  27.427  1.00  0.00     0.001 A 
ATOM     80  C   UNL A   1      58.121  29.138  27.153  1.00  0.00     0.001 A 
ATOM     81  C   UNL A   1      58.194  30.509  27.394  1.00  0.00     0.000 A 
ENDBRANCH  63  76
ENDBRANCH  37  38
ENDBRANCH  30  32
ENDBRANCH  29  30
ENDBRANCH  28  29
ENDBRANCH  27  28
ENDBRANCH  26  27
ENDBRANCH  25  26
ENDBRANCH  24  25
ENDBRANCH   1  24
TORSDOF 24
ENDMDL
