MODEL 1
REMARK VINA RESULT:     -11.2      0.000      0.000
REMARK SMILES NS(=O)(=O)c1ccc(-n2nc(C(=O)OCCOCCOCCOC(=O)c3ccc(-c4c5nc(c(-c6ccccc6)c6ccc([nH]6)c(-c6ccccc6)c6nc(c(-c7ccccc7)c7ccc4[nH]7)C=C6)C=C5)cc3)c(Cl)c2-c2ccc(Cl)cc2)cc1
REMARK SMILES IDX 18 1 17 2 16 3 15 4 14 5 12 6 13 7 11 8 9 9 10 10 76 11
REMARK SMILES IDX 74 12 75 13 8 14 5 15 6 16 85 17 7 18 84 19 2 20 3 21 4 22
REMARK SMILES IDX 1 23 77 26 78 27 83 28 79 29 82 30 80 31 81 32 19 33 20 34
REMARK SMILES IDX 21 35 22 36 23 37 24 38 25 39 26 40 27 41 73 42 28 43 72 44
REMARK SMILES IDX 29 45 30 46 31 47 66 48 32 49 71 50 65 51 67 52 33 53 70 54
REMARK SMILES IDX 64 55 63 56 34 58 56 59 41 60 55 61 42 62 45 63 54 64 68 65
REMARK SMILES IDX 43 66 44 67 53 69 69 70 46 71 35 72 36 73 40 74 37 75 39 76
REMARK SMILES IDX 38 77 57 78 58 79 62 80 59 81 61 82 60 83 47 84 48 85 52 86
REMARK SMILES IDX 49 87 51 88 50 89
REMARK H PARENT 1 24 1 25 67 57 45 68
REMARK Flexibility Score: inf
ROOT
ATOM      1  C   UNL A   1      36.080  21.241  25.737  1.00  0.00     0.188 C 
ENDROOT
BRANCH   1   2
ATOM      2  O   UNL A   1      34.732  21.352  26.179  1.00  0.00    -0.376 OA
BRANCH   2   3
ATOM      3  C   UNL A   1      33.678  20.852  25.361  1.00  0.00     0.202 C 
BRANCH   3   4
ATOM      4  C   UNL A   1      32.294  21.518  25.431  1.00  0.00     0.261 C 
BRANCH   4   5
ATOM      5  O   UNL A   1      31.774  21.946  24.162  1.00  0.00    -0.458 OA
BRANCH   5   6
ATOM      6  C   UNL A   1      32.499  22.871  23.466  1.00  0.00     0.360 C 
ATOM      7  O   UNL A   1      33.256  22.592  22.543  1.00  0.00    -0.244 OA
BRANCH   6   8
ATOM      8  C   UNL A   1      32.218  24.256  23.887  1.00  0.00     0.190 A 
ATOM      9  N   UNL A   1      31.345  26.217  23.837  1.00  0.00    -0.231 N 
ATOM     10  N   UNL A   1      31.200  24.961  23.350  1.00  0.00    -0.159 NA
ATOM     11  C   UNL A   1      32.326  26.293  24.818  1.00  0.00     0.094 A 
ATOM     12  C   UNL A   1      32.866  25.020  24.887  1.00  0.00     0.102 A 
ATOM     13  Cl  UNL A   1      34.092  24.485  25.944  1.00  0.00    -0.079 Cl
BRANCH   9  14
ATOM     14  C   UNL A   1      30.561  27.275  23.305  1.00  0.00     0.065 A 
ATOM     15  C   UNL A   1      29.075  29.463  22.426  1.00  0.00     0.082 A 
ATOM     16  C   UNL A   1      28.445  28.437  23.145  1.00  0.00     0.024 A 
ATOM     17  C   UNL A   1      30.429  29.373  22.101  1.00  0.00     0.024 A 
ATOM     18  C   UNL A   1      29.184  27.324  23.564  1.00  0.00     0.030 A 
ATOM     19  C   UNL A   1      31.175  28.284  22.551  1.00  0.00     0.030 A 
BRANCH  15  20
ATOM     20  S   UNL A   1      28.124  30.886  21.976  1.00  0.00     0.238 S 
ATOM     21  O   UNL A   1      27.234  31.194  23.068  1.00  0.00    -0.207 OA
ATOM     22  O   UNL A   1      27.672  30.723  20.613  1.00  0.00    -0.207 OA
BRANCH  20  23
ATOM     23  N   UNL A   1      29.235  32.148  21.930  1.00  0.00    -0.225 NA
ATOM     24  H   UNL A   1      30.169  31.774  21.759  1.00  0.00     0.137 HD
ATOM     25  H   UNL A   1      29.225  32.644  22.822  1.00  0.00     0.137 HD
ENDBRANCH  20  23
ENDBRANCH  15  20
ENDBRANCH   9  14
BRANCH  11  26
ATOM     26  C   UNL A   1      32.660  27.481  25.613  1.00  0.00     0.002 A 
ATOM     27  C   UNL A   1      31.752  27.928  26.584  1.00  0.00     0.012 A 
ATOM     28  C   UNL A   1      33.850  28.196  25.417  1.00  0.00     0.012 A 
ATOM     29  C   UNL A   1      32.017  29.073  27.336  1.00  0.00     0.021 A 
ATOM     30  C   UNL A   1      34.123  29.337  26.180  1.00  0.00     0.021 A 
ATOM     31  C   UNL A   1      33.202  29.774  27.131  1.00  0.00     0.041 A 
ATOM     32  Cl  UNL A   1      33.522  31.190  28.053  1.00  0.00    -0.084 Cl
ENDBRANCH  11  26
ENDBRANCH   6   8
ENDBRANCH   5   6
ENDBRANCH   4   5
ENDBRANCH   3   4
ENDBRANCH   2   3
ENDBRANCH   1   2
BRANCH   1  33
ATOM     33  C   UNL A   1      36.939  22.512  25.549  1.00  0.00     0.188 C 
BRANCH  33  34
ATOM     34  O   UNL A   1      38.266  22.262  25.121  1.00  0.00    -0.376 OA
BRANCH  34  35
ATOM     35  C   UNL A   1      39.132  21.592  26.026  1.00  0.00     0.202 C 
BRANCH  35  36
ATOM     36  C   UNL A   1      39.600  20.189  25.644  1.00  0.00     0.261 C 
BRANCH  36  37
ATOM     37  O   UNL A   1      40.688  19.686  26.406  1.00  0.00    -0.460 OA
BRANCH  37  38
ATOM     38  C   UNL A   1      41.911  19.868  25.874  1.00  0.00     0.338 C 
ATOM     39  O   UNL A   1      42.424  19.234  24.968  1.00  0.00    -0.246 OA
BRANCH  38  40
ATOM     40  C   UNL A   1      42.582  20.934  26.627  1.00  0.00     0.060 A 
ATOM     41  C   UNL A   1      42.470  20.911  28.018  1.00  0.00     0.016 A 
ATOM     42  C   UNL A   1      43.064  22.057  25.937  1.00  0.00     0.016 A 
ATOM     43  C   UNL A   1      42.638  22.093  28.706  1.00  0.00     0.010 A 
ATOM     44  C   UNL A   1      43.212  23.239  26.620  1.00  0.00     0.010 A 
ATOM     45  C   UNL A   1      42.904  23.258  27.978  1.00  0.00    -0.014 A 
BRANCH  45  46
ATOM     46  C   UNL A   1      42.770  24.523  28.665  1.00  0.00     0.031 A 
ATOM     47  C   UNL A   1      41.622  25.352  28.261  1.00  0.00     0.074 A 
ATOM     48  C   UNL A   1      43.587  24.855  29.681  1.00  0.00     0.049 A 
ATOM     49  N   UNL A   1      41.648  26.546  27.771  1.00  0.00    -0.248 NA
ATOM     50  C   UNL A   1      40.283  24.751  28.341  1.00  0.00     0.031 C 
ATOM     51  C   UNL A   1      44.559  23.997  30.366  1.00  0.00     0.029 A 
ATOM     52  N   UNL A   1      43.614  26.005  30.408  1.00  0.00    -0.354 N 
ATOM     53  C   UNL A   1      40.318  26.921  27.635  1.00  0.00     0.074 A 
ATOM     54  C   UNL A   1      39.527  25.739  27.868  1.00  0.00     0.031 C 
ATOM     55  C   UNL A   1      44.892  24.571  31.544  1.00  0.00     0.029 A 
ATOM     56  C   UNL A   1      44.247  25.870  31.634  1.00  0.00     0.049 A 
ATOM     57  H   UNL A   1      43.223  26.852  30.093  1.00  0.00     0.167 HD
ATOM     58  C   UNL A   1      39.947  28.227  27.573  1.00  0.00     0.031 A 
ATOM     59  C   UNL A   1      44.151  26.722  32.683  1.00  0.00     0.031 A 
ATOM     60  C   UNL A   1      41.042  29.098  27.241  1.00  0.00     0.049 A 
ATOM     61  C   UNL A   1      43.661  28.025  32.170  1.00  0.00     0.074 A 
ATOM     62  C   UNL A   1      41.932  29.179  26.188  1.00  0.00     0.029 A 
ATOM     63  N   UNL A   1      41.577  29.870  28.244  1.00  0.00    -0.354 N 
ATOM     64  N   UNL A   1      44.370  28.823  31.424  1.00  0.00    -0.248 NA
ATOM     65  C   UNL A   1      42.228  28.272  32.156  1.00  0.00     0.031 C 
ATOM     66  C   UNL A   1      43.162  29.600  26.771  1.00  0.00     0.029 A 
ATOM     67  C   UNL A   1      42.941  29.779  28.137  1.00  0.00     0.049 A 
ATOM     68  H   UNL A   1      41.076  30.391  28.912  1.00  0.00     0.167 HD
ATOM     69  C   UNL A   1      43.461  29.372  30.530  1.00  0.00     0.074 A 
ATOM     70  C   UNL A   1      42.149  29.097  31.108  1.00  0.00     0.031 C 
ATOM     71  C   UNL A   1      43.841  29.734  29.268  1.00  0.00     0.031 A 
BRANCH  58  72
ATOM     72  C   UNL A   1      38.679  28.730  28.205  1.00  0.00    -0.014 A 
ATOM     73  C   UNL A   1      37.935  29.720  27.544  1.00  0.00     0.009 A 
ATOM     74  C   UNL A   1      38.343  28.470  29.549  1.00  0.00     0.009 A 
ATOM     75  C   UNL A   1      36.944  30.448  28.213  1.00  0.00     0.001 A 
ATOM     76  C   UNL A   1      37.324  29.161  30.205  1.00  0.00     0.001 A 
ATOM     77  C   UNL A   1      36.642  30.170  29.543  1.00  0.00     0.000 A 
ENDBRANCH  58  72
BRANCH  59  78
ATOM     78  C   UNL A   1      44.202  26.400  34.126  1.00  0.00    -0.014 A 
ATOM     79  C   UNL A   1      43.155  25.696  34.738  1.00  0.00     0.009 A 
ATOM     80  C   UNL A   1      45.390  26.571  34.864  1.00  0.00     0.009 A 
ATOM     81  C   UNL A   1      43.304  25.157  36.023  1.00  0.00     0.001 A 
ATOM     82  C   UNL A   1      45.534  26.046  36.152  1.00  0.00     0.001 A 
ATOM     83  C   UNL A   1      44.495  25.324  36.725  1.00  0.00     0.000 A 
ENDBRANCH  59  78
BRANCH  71  84
ATOM     84  C   UNL A   1      45.317  29.779  28.954  1.00  0.00    -0.014 A 
ATOM     85  C   UNL A   1      46.045  28.641  28.566  1.00  0.00     0.009 A 
ATOM     86  C   UNL A   1      45.956  31.027  28.897  1.00  0.00     0.009 A 
ATOM     87  C   UNL A   1      47.383  28.742  28.172  1.00  0.00     0.001 A 
ATOM     88  C   UNL A   1      47.285  31.132  28.480  1.00  0.00     0.001 A 
ATOM     89  C   UNL A   1      48.000  29.989  28.125  1.00  0.00     0.000 A 
ENDBRANCH  71  84
ENDBRANCH  45  46
ENDBRANCH  38  40
ENDBRANCH  37  38
ENDBRANCH  36  37
ENDBRANCH  35  36
ENDBRANCH  34  35
ENDBRANCH  33  34
ENDBRANCH   1  33
TORSDOF 21
ENDMDL
MODEL 2
REMARK VINA RESULT:     -10.4      3.728      5.393
REMARK SMILES NS(=O)(=O)c1ccc(-n2nc(C(=O)OCCOCCOCCOC(=O)c3ccc(-c4c5nc(c(-c6ccccc6)c6ccc([nH]6)c(-c6ccccc6)c6nc(c(-c7ccccc7)c7ccc4[nH]7)C=C6)C=C5)cc3)c(Cl)c2-c2ccc(Cl)cc2)cc1
REMARK SMILES IDX 18 1 17 2 16 3 15 4 14 5 12 6 13 7 11 8 9 9 10 10 76 11
REMARK SMILES IDX 74 12 75 13 8 14 5 15 6 16 85 17 7 18 84 19 2 20 3 21 4 22
REMARK SMILES IDX 1 23 77 26 78 27 83 28 79 29 82 30 80 31 81 32 19 33 20 34
REMARK SMILES IDX 21 35 22 36 23 37 24 38 25 39 26 40 27 41 73 42 28 43 72 44
REMARK SMILES IDX 29 45 30 46 31 47 66 48 32 49 71 50 65 51 67 52 33 53 70 54
REMARK SMILES IDX 64 55 63 56 34 58 56 59 41 60 55 61 42 62 45 63 54 64 68 65
REMARK SMILES IDX 43 66 44 67 53 69 69 70 46 71 35 72 36 73 40 74 37 75 39 76
REMARK SMILES IDX 38 77 57 78 58 79 62 80 59 81 61 82 60 83 47 84 48 85 52 86
REMARK SMILES IDX 49 87 51 88 50 89
REMARK H PARENT 1 24 1 25 67 57 45 68
REMARK Flexibility Score: inf
ROOT
ATOM      1  C   UNL A   1      35.824  20.921  25.579  1.00  0.00     0.188 C 
ENDROOT
BRANCH   1   2
ATOM      2  O   UNL A   1      34.995  20.162  24.706  1.00  0.00    -0.376 OA
BRANCH   2   3
ATOM      3  C   UNL A   1      33.615  19.989  25.016  1.00  0.00     0.202 C 
BRANCH   3   4
ATOM      4  C   UNL A   1      32.638  21.146  24.755  1.00  0.00     0.261 C 
BRANCH   4   5
ATOM      5  O   UNL A   1      33.209  22.456  24.908  1.00  0.00    -0.458 OA
BRANCH   5   6
ATOM      6  C   UNL A   1      32.753  23.223  25.943  1.00  0.00     0.360 C 
ATOM      7  O   UNL A   1      32.586  22.802  27.083  1.00  0.00    -0.244 OA
BRANCH   6   8
ATOM      8  C   UNL A   1      32.557  24.635  25.568  1.00  0.00     0.190 A 
ATOM      9  N   UNL A   1      32.669  26.773  25.722  1.00  0.00    -0.231 N 
ATOM     10  N   UNL A   1      33.211  25.629  26.204  1.00  0.00    -0.159 NA
ATOM     11  C   UNL A   1      31.806  26.542  24.657  1.00  0.00     0.094 A 
ATOM     12  C   UNL A   1      31.762  25.165  24.523  1.00  0.00     0.102 A 
ATOM     13  Cl  UNL A   1      30.895  24.279  23.352  1.00  0.00    -0.079 Cl
BRANCH   9  14
ATOM     14  C   UNL A   1      32.980  28.015  26.336  1.00  0.00     0.065 A 
ATOM     15  C   UNL A   1      33.597  30.535  27.354  1.00  0.00     0.082 A 
ATOM     16  C   UNL A   1      34.622  29.605  27.130  1.00  0.00     0.024 A 
ATOM     17  C   UNL A   1      32.264  30.191  27.123  1.00  0.00     0.024 A 
ATOM     18  C   UNL A   1      34.312  28.330  26.644  1.00  0.00     0.030 A 
ATOM     19  C   UNL A   1      31.957  28.935  26.602  1.00  0.00     0.030 A 
BRANCH  15  20
ATOM     20  S   UNL A   1      34.035  32.160  27.901  1.00  0.00     0.238 S 
ATOM     21  O   UNL A   1      32.916  33.035  27.650  1.00  0.00    -0.207 OA
ATOM     22  O   UNL A   1      35.378  32.450  27.450  1.00  0.00    -0.207 OA
BRANCH  20  23
ATOM     23  N   UNL A   1      34.145  32.037  29.575  1.00  0.00    -0.225 NA
ATOM     24  H   UNL A   1      33.505  31.314  29.906  1.00  0.00     0.137 HD
ATOM     25  H   UNL A   1      33.896  32.930  29.999  1.00  0.00     0.137 HD
ENDBRANCH  20  23
ENDBRANCH  15  20
ENDBRANCH   9  14
BRANCH  11  26
ATOM     26  C   UNL A   1      31.137  27.569  23.851  1.00  0.00     0.002 A 
ATOM     27  C   UNL A   1      29.738  27.664  23.890  1.00  0.00     0.012 A 
ATOM     28  C   UNL A   1      31.853  28.448  23.024  1.00  0.00     0.012 A 
ATOM     29  C   UNL A   1      29.064  28.606  23.112  1.00  0.00     0.021 A 
ATOM     30  C   UNL A   1      31.179  29.401  22.254  1.00  0.00     0.021 A 
ATOM     31  C   UNL A   1      29.787  29.471  22.296  1.00  0.00     0.041 A 
ATOM     32  Cl  UNL A   1      28.953  30.624  21.331  1.00  0.00    -0.084 Cl
ENDBRANCH  11  26
ENDBRANCH   6   8
ENDBRANCH   5   6
ENDBRANCH   4   5
ENDBRANCH   3   4
ENDBRANCH   2   3
ENDBRANCH   1   2
BRANCH   1  33
ATOM     33  C   UNL A   1      36.908  21.856  24.998  1.00  0.00     0.188 C 
BRANCH  33  34
ATOM     34  O   UNL A   1      38.224  21.335  25.062  1.00  0.00    -0.376 OA
BRANCH  34  35
ATOM     35  C   UNL A   1      39.114  21.916  26.004  1.00  0.00     0.202 C 
BRANCH  35  36
ATOM     36  C   UNL A   1      38.706  23.248  26.631  1.00  0.00     0.261 C 
BRANCH  36  37
ATOM     37  O   UNL A   1      39.350  24.393  26.091  1.00  0.00    -0.460 OA
BRANCH  37  38
ATOM     38  C   UNL A   1      40.342  24.915  26.837  1.00  0.00     0.338 C 
ATOM     39  O   UNL A   1      41.473  24.482  26.968  1.00  0.00    -0.246 OA
BRANCH  38  40
ATOM     40  C   UNL A   1      39.810  26.083  27.548  1.00  0.00     0.060 A 
ATOM     41  C   UNL A   1      40.045  27.342  26.991  1.00  0.00     0.016 A 
ATOM     42  C   UNL A   1      39.339  25.926  28.861  1.00  0.00     0.016 A 
ATOM     43  C   UNL A   1      40.013  28.439  27.824  1.00  0.00     0.010 A 
ATOM     44  C   UNL A   1      39.326  27.018  29.694  1.00  0.00     0.010 A 
ATOM     45  C   UNL A   1      39.755  28.241  29.184  1.00  0.00    -0.014 A 
BRANCH  45  46
ATOM     46  C   UNL A   1      40.030  29.337  30.085  1.00  0.00     0.031 A 
ATOM     47  C   UNL A   1      38.872  30.171  30.451  1.00  0.00     0.074 A 
ATOM     48  C   UNL A   1      41.249  29.503  30.630  1.00  0.00     0.049 A 
ATOM     49  N   UNL A   1      38.722  31.437  30.254  1.00  0.00    -0.248 NA
ATOM     50  C   UNL A   1      37.705  29.499  31.041  1.00  0.00     0.031 C 
ATOM     51  C   UNL A   1      42.384  28.577  30.584  1.00  0.00     0.029 A 
ATOM     52  N   UNL A   1      41.678  30.488  31.466  1.00  0.00    -0.354 N 
ATOM     53  C   UNL A   1      37.510  31.764  30.846  1.00  0.00     0.074 A 
ATOM     54  C   UNL A   1      36.867  30.521  31.190  1.00  0.00     0.031 C 
ATOM     55  C   UNL A   1      43.269  28.923  31.546  1.00  0.00     0.029 A 
ATOM     56  C   UNL A   1      42.812  30.145  32.187  1.00  0.00     0.049 A 
ATOM     57  H   UNL A   1      41.228  31.359  31.550  1.00  0.00     0.167 HD
ATOM     58  C   UNL A   1      37.222  33.036  31.228  1.00  0.00     0.031 A 
ATOM     59  C   UNL A   1      43.272  30.768  33.299  1.00  0.00     0.031 A 
ATOM     60  C   UNL A   1      38.068  34.009  30.592  1.00  0.00     0.049 A 
ATOM     61  C   UNL A   1      42.664  32.120  33.350  1.00  0.00     0.074 A 
ATOM     62  C   UNL A   1      38.349  34.341  29.281  1.00  0.00     0.029 A 
ATOM     63  N   UNL A   1      39.055  34.595  31.347  1.00  0.00    -0.354 N 
ATOM     64  N   UNL A   1      42.970  33.084  32.530  1.00  0.00    -0.248 NA
ATOM     65  C   UNL A   1      41.412  32.293  34.072  1.00  0.00     0.031 C 
ATOM     66  C   UNL A   1      39.728  34.700  29.276  1.00  0.00     0.029 A 
ATOM     67  C   UNL A   1      40.196  34.596  30.587  1.00  0.00     0.049 A 
ATOM     68  H   UNL A   1      38.961  34.948  32.261  1.00  0.00     0.167 HD
ATOM     69  C   UNL A   1      41.774  33.752  32.306  1.00  0.00     0.074 A 
ATOM     70  C   UNL A   1      40.885  33.303  33.373  1.00  0.00     0.031 C 
ATOM     71  C   UNL A   1      41.523  34.375  31.116  1.00  0.00     0.031 A 
BRANCH  58  72
ATOM     72  C   UNL A   1      36.436  33.341  32.473  1.00  0.00    -0.014 A 
ATOM     73  C   UNL A   1      35.446  34.335  32.429  1.00  0.00     0.009 A 
ATOM     74  C   UNL A   1      36.827  32.886  33.749  1.00  0.00     0.009 A 
ATOM     75  C   UNL A   1      34.916  34.881  33.603  1.00  0.00     0.001 A 
ATOM     76  C   UNL A   1      36.266  33.395  34.921  1.00  0.00     0.001 A 
ATOM     77  C   UNL A   1      35.329  34.414  34.847  1.00  0.00     0.000 A 
ENDBRANCH  58  72
BRANCH  59  78
ATOM     78  C   UNL A   1      43.990  30.171  34.446  1.00  0.00    -0.014 A 
ATOM     79  C   UNL A   1      45.035  30.864  35.074  1.00  0.00     0.009 A 
ATOM     80  C   UNL A   1      43.498  29.016  35.086  1.00  0.00     0.009 A 
ATOM     81  C   UNL A   1      45.542  30.438  36.310  1.00  0.00     0.001 A 
ATOM     82  C   UNL A   1      44.013  28.582  36.311  1.00  0.00     0.001 A 
ATOM     83  C   UNL A   1      45.025  29.303  36.931  1.00  0.00     0.000 A 
ENDBRANCH  59  78
BRANCH  71  84
ATOM     84  C   UNL A   1      42.670  34.554  30.151  1.00  0.00    -0.014 A 
ATOM     85  C   UNL A   1      43.092  33.538  29.276  1.00  0.00     0.009 A 
ATOM     86  C   UNL A   1      43.238  35.830  30.009  1.00  0.00     0.009 A 
ATOM     87  C   UNL A   1      44.081  33.779  28.318  1.00  0.00     0.001 A 
ATOM     88  C   UNL A   1      44.208  36.078  29.035  1.00  0.00     0.001 A 
ATOM     89  C   UNL A   1      44.635  35.051  28.195  1.00  0.00     0.000 A 
ENDBRANCH  71  84
ENDBRANCH  45  46
ENDBRANCH  38  40
ENDBRANCH  37  38
ENDBRANCH  36  37
ENDBRANCH  35  36
ENDBRANCH  34  35
ENDBRANCH  33  34
ENDBRANCH   1  33
TORSDOF 21
ENDMDL
MODEL 3
REMARK VINA RESULT:     -10.2      6.235     10.777
REMARK SMILES NS(=O)(=O)c1ccc(-n2nc(C(=O)OCCOCCOCCOC(=O)c3ccc(-c4c5nc(c(-c6ccccc6)c6ccc([nH]6)c(-c6ccccc6)c6nc(c(-c7ccccc7)c7ccc4[nH]7)C=C6)C=C5)cc3)c(Cl)c2-c2ccc(Cl)cc2)cc1
REMARK SMILES IDX 18 1 17 2 16 3 15 4 14 5 12 6 13 7 11 8 9 9 10 10 76 11
REMARK SMILES IDX 74 12 75 13 8 14 5 15 6 16 85 17 7 18 84 19 2 20 3 21 4 22
REMARK SMILES IDX 1 23 77 26 78 27 83 28 79 29 82 30 80 31 81 32 19 33 20 34
REMARK SMILES IDX 21 35 22 36 23 37 24 38 25 39 26 40 27 41 73 42 28 43 72 44
REMARK SMILES IDX 29 45 30 46 31 47 66 48 32 49 71 50 65 51 67 52 33 53 70 54
REMARK SMILES IDX 64 55 63 56 34 58 56 59 41 60 55 61 42 62 45 63 54 64 68 65
REMARK SMILES IDX 43 66 44 67 53 69 69 70 46 71 35 72 36 73 40 74 37 75 39 76
REMARK SMILES IDX 38 77 57 78 58 79 62 80 59 81 61 82 60 83 47 84 48 85 52 86
REMARK SMILES IDX 49 87 51 88 50 89
REMARK H PARENT 1 24 1 25 67 57 45 68
REMARK Flexibility Score: inf
ROOT
ATOM      1  C   UNL A   1      40.389  34.993  38.207  1.00  0.00     0.188 C 
ENDROOT
BRANCH   1   2
ATOM      2  O   UNL A   1      39.174  34.587  38.828  1.00  0.00    -0.376 OA
BRANCH   2   3
ATOM      3  C   UNL A   1      38.242  33.793  38.101  1.00  0.00     0.202 C 
BRANCH   3   4
ATOM      4  C   UNL A   1      38.004  32.336  38.527  1.00  0.00     0.261 C 
BRANCH   4   5
ATOM      5  O   UNL A   1      37.669  31.446  37.450  1.00  0.00    -0.458 OA
BRANCH   5   6
ATOM      6  C   UNL A   1      38.552  31.356  36.411  1.00  0.00     0.360 C 
ATOM      7  O   UNL A   1      39.723  31.017  36.538  1.00  0.00    -0.244 OA
BRANCH   6   8
ATOM      8  C   UNL A   1      37.930  31.632  35.103  1.00  0.00     0.190 A 
ATOM      9  N   UNL A   1      36.675  32.604  33.658  1.00  0.00    -0.231 N 
ATOM     10  N   UNL A   1      37.231  32.765  34.883  1.00  0.00    -0.159 NA
ATOM     11  C   UNL A   1      37.149  31.470  33.008  1.00  0.00     0.094 A 
ATOM     12  C   UNL A   1      37.994  30.860  33.918  1.00  0.00     0.102 A 
ATOM     13  Cl  UNL A   1      38.906  29.440  33.674  1.00  0.00    -0.079 Cl
BRANCH   9  14
ATOM     14  C   UNL A   1      35.696  33.525  33.200  1.00  0.00     0.065 A 
ATOM     15  C   UNL A   1      33.771  35.411  32.491  1.00  0.00     0.082 A 
ATOM     16  C   UNL A   1      33.374  34.122  32.874  1.00  0.00     0.024 A 
ATOM     17  C   UNL A   1      35.125  35.743  32.411  1.00  0.00     0.024 A 
ATOM     18  C   UNL A   1      34.340  33.165  33.204  1.00  0.00     0.030 A 
ATOM     19  C   UNL A   1      36.087  34.803  32.778  1.00  0.00     0.030 A 
BRANCH  15  20
ATOM     20  S   UNL A   1      32.519  36.614  32.151  1.00  0.00     0.238 S 
ATOM     21  O   UNL A   1      32.079  36.430  30.790  1.00  0.00    -0.207 OA
ATOM     22  O   UNL A   1      32.953  37.890  32.673  1.00  0.00    -0.207 OA
BRANCH  20  23
ATOM     23  N   UNL A   1      31.214  36.161  33.111  1.00  0.00    -0.225 NA
ATOM     24  H   UNL A   1      30.436  36.803  32.954  1.00  0.00     0.137 HD
ATOM     25  H   UNL A   1      31.487  36.193  34.094  1.00  0.00     0.137 HD
ENDBRANCH  20  23
ENDBRANCH  15  20
ENDBRANCH   9  14
BRANCH  11  26
ATOM     26  C   UNL A   1      36.826  31.067  31.634  1.00  0.00     0.002 A 
ATOM     27  C   UNL A   1      36.609  32.057  30.665  1.00  0.00     0.012 A 
ATOM     28  C   UNL A   1      36.705  29.719  31.265  1.00  0.00     0.012 A 
ATOM     29  C   UNL A   1      36.266  31.714  29.357  1.00  0.00     0.021 A 
ATOM     30  C   UNL A   1      36.374  29.373  29.950  1.00  0.00     0.021 A 
ATOM     31  C   UNL A   1      36.149  30.373  29.004  1.00  0.00     0.041 A 
ATOM     32  Cl  UNL A   1      35.717  29.952  27.394  1.00  0.00    -0.084 Cl
ENDBRANCH  11  26
ENDBRANCH   6   8
ENDBRANCH   5   6
ENDBRANCH   4   5
ENDBRANCH   3   4
ENDBRANCH   2   3
ENDBRANCH   1   2
BRANCH   1  33
ATOM     33  C   UNL A   1      40.755  34.462  36.803  1.00  0.00     0.188 C 
BRANCH  33  34
ATOM     34  O   UNL A   1      40.453  35.355  35.745  1.00  0.00    -0.376 OA
BRANCH  34  35
ATOM     35  C   UNL A   1      40.016  34.792  34.516  1.00  0.00     0.202 C 
BRANCH  35  36
ATOM     36  C   UNL A   1      41.081  34.190  33.599  1.00  0.00     0.261 C 
BRANCH  36  37
ATOM     37  O   UNL A   1      40.638  33.118  32.781  1.00  0.00    -0.460 OA
BRANCH  37  38
ATOM     38  C   UNL A   1      40.282  33.446  31.524  1.00  0.00     0.338 C 
ATOM     39  O   UNL A   1      39.651  34.425  31.169  1.00  0.00    -0.246 OA
BRANCH  38  40
ATOM     40  C   UNL A   1      40.721  32.369  30.631  1.00  0.00     0.060 A 
ATOM     41  C   UNL A   1      39.777  31.409  30.260  1.00  0.00     0.016 A 
ATOM     42  C   UNL A   1      42.095  32.186  30.406  1.00  0.00     0.016 A 
ATOM     43  C   UNL A   1      40.228  30.171  29.860  1.00  0.00     0.010 A 
ATOM     44  C   UNL A   1      42.544  30.945  30.025  1.00  0.00     0.010 A 
ATOM     45  C   UNL A   1      41.606  29.931  29.851  1.00  0.00    -0.014 A 
BRANCH  45  46
ATOM     46  C   UNL A   1      42.047  28.559  29.734  1.00  0.00     0.031 A 
ATOM     47  C   UNL A   1      42.771  28.018  30.897  1.00  0.00     0.074 A 
ATOM     48  C   UNL A   1      41.713  27.807  28.669  1.00  0.00     0.049 A 
ATOM     49  N   UNL A   1      43.973  27.550  30.926  1.00  0.00    -0.248 NA
ATOM     50  C   UNL A   1      42.103  28.076  32.205  1.00  0.00     0.031 C 
ATOM     51  C   UNL A   1      40.756  28.133  27.608  1.00  0.00     0.029 A 
ATOM     52  N   UNL A   1      42.065  26.522  28.394  1.00  0.00    -0.354 N 
ATOM     53  C   UNL A   1      44.163  27.093  32.223  1.00  0.00     0.074 A 
ATOM     54  C   UNL A   1      43.042  27.562  32.997  1.00  0.00     0.031 C 
ATOM     55  C   UNL A   1      40.425  26.996  26.956  1.00  0.00     0.029 A 
ATOM     56  C   UNL A   1      41.225  25.902  27.482  1.00  0.00     0.049 A 
ATOM     57  H   UNL A   1      42.842  26.076  28.802  1.00  0.00     0.167 HD
ATOM     58  C   UNL A   1      45.106  26.161  32.521  1.00  0.00     0.031 A 
ATOM     59  C   UNL A   1      41.128  24.569  27.260  1.00  0.00     0.031 A 
ATOM     60  C   UNL A   1      46.108  26.041  31.497  1.00  0.00     0.049 A 
ATOM     61  C   UNL A   1      42.356  23.927  27.787  1.00  0.00     0.074 A 
ATOM     62  C   UNL A   1      46.993  26.916  30.898  1.00  0.00     0.029 A 
ATOM     63  N   UNL A   1      46.066  24.935  30.682  1.00  0.00    -0.354 N 
ATOM     64  N   UNL A   1      43.533  24.058  27.245  1.00  0.00    -0.248 NA
ATOM     65  C   UNL A   1      42.357  23.449  29.161  1.00  0.00     0.031 C 
ATOM     66  C   UNL A   1      47.069  26.497  29.538  1.00  0.00     0.029 A 
ATOM     67  C   UNL A   1      46.252  25.374  29.397  1.00  0.00     0.049 A 
ATOM     68  H   UNL A   1      45.930  24.003  30.969  1.00  0.00     0.167 HD
ATOM     69  C   UNL A   1      44.414  24.104  28.315  1.00  0.00     0.074 A 
ATOM     70  C   UNL A   1      43.653  23.598  29.453  1.00  0.00     0.031 C 
ATOM     71  C   UNL A   1      45.577  24.818  28.246  1.00  0.00     0.031 A 
BRANCH  58  72
ATOM     72  C   UNL A   1      44.881  25.096  33.558  1.00  0.00    -0.014 A 
ATOM     73  C   UNL A   1      44.420  23.834  33.151  1.00  0.00     0.009 A 
ATOM     74  C   UNL A   1      44.838  25.376  34.940  1.00  0.00     0.009 A 
ATOM     75  C   UNL A   1      43.892  22.924  34.074  1.00  0.00     0.001 A 
ATOM     76  C   UNL A   1      44.357  24.453  35.868  1.00  0.00     0.001 A 
ATOM     77  C   UNL A   1      43.858  23.236  35.431  1.00  0.00     0.000 A 
ENDBRANCH  58  72
BRANCH  59  78
ATOM     78  C   UNL A   1      39.929  23.797  26.866  1.00  0.00    -0.014 A 
ATOM     79  C   UNL A   1      38.713  24.447  26.611  1.00  0.00     0.009 A 
ATOM     80  C   UNL A   1      40.029  22.439  26.504  1.00  0.00     0.009 A 
ATOM     81  C   UNL A   1      37.653  23.774  25.988  1.00  0.00     0.001 A 
ATOM     82  C   UNL A   1      38.967  21.763  25.896  1.00  0.00     0.001 A 
ATOM     83  C   UNL A   1      37.784  22.436  25.623  1.00  0.00     0.000 A 
ENDBRANCH  59  78
BRANCH  71  84
ATOM     84  C   UNL A   1      46.015  25.335  26.896  1.00  0.00    -0.014 A 
ATOM     85  C   UNL A   1      45.553  26.550  26.362  1.00  0.00     0.009 A 
ATOM     86  C   UNL A   1      47.038  24.657  26.215  1.00  0.00     0.009 A 
ATOM     87  C   UNL A   1      46.069  27.051  25.163  1.00  0.00     0.001 A 
ATOM     88  C   UNL A   1      47.571  25.169  25.030  1.00  0.00     0.001 A 
ATOM     89  C   UNL A   1      47.081  26.362  24.500  1.00  0.00     0.000 A 
ENDBRANCH  71  84
ENDBRANCH  45  46
ENDBRANCH  38  40
ENDBRANCH  37  38
ENDBRANCH  36  37
ENDBRANCH  35  36
ENDBRANCH  34  35
ENDBRANCH  33  34
ENDBRANCH   1  33
TORSDOF 21
ENDMDL
