MODEL 1
REMARK VINA RESULT:      -9.8      0.000      0.000
REMARK SMILES CC(C)[C@H](NC(=O)c1cc2cc(Cl)ccc2n1C)C(=O)N[C@@H](C(=O)OCCOCCOCCOC(=O)c1ccc(-c2c3nc(c(-c4ccccc4)c4ccc([nH]4)c(-c4ccccc4)c4nc(c(-c5ccccc5)c5ccc2[nH]5)C=C4)C=C3)cc1)c1ccccc1
REMARK SMILES IDX 29 1 28 2 27 3 26 4 25 5 23 6 24 7 22 8 21 9 19 10 20 11
REMARK SMILES IDX 4 13 2 14 1 15 3 16 5 17 6 18 7 20 8 21 9 22 17 23 10 24
REMARK SMILES IDX 16 25 18 26 11 27 15 28 12 29 14 30 13 31 85 32 86 33 90 34
REMARK SMILES IDX 87 35 89 36 88 37 30 38 31 39 32 40 33 41 34 42 35 43 36 44
REMARK SMILES IDX 37 45 38 46 84 47 39 48 83 49 40 50 41 51 42 52 77 53 43 54
REMARK SMILES IDX 82 55 76 56 78 57 44 58 81 59 75 60 74 61 45 63 67 64 52 65
REMARK SMILES IDX 66 66 53 67 56 68 65 69 79 70 54 71 55 72 64 74 80 75 57 76
REMARK SMILES IDX 46 77 47 78 51 79 48 80 50 81 49 82 68 83 69 84 73 85 70 86
REMARK SMILES IDX 72 87 71 88 58 89 59 90 63 91 60 92 62 93 61 94
REMARK H PARENT 21 12 5 19 78 62 56 73
REMARK Flexibility Score: inf
ROOT
ATOM      1  C   UNL A   1      38.465  28.941  29.450  1.00  0.00     0.188 C 
ENDROOT
BRANCH   1   2
ATOM      2  O   UNL A   1      39.589  29.002  28.574  1.00  0.00    -0.376 OA
BRANCH   2   3
ATOM      3  C   UNL A   1      39.839  28.587  27.212  1.00  0.00     0.202 C 
BRANCH   3   4
ATOM      4  C   UNL A   1      40.710  27.405  26.592  1.00  0.00     0.261 C 
BRANCH   4   5
ATOM      5  O   UNL A   1      41.410  26.563  27.529  1.00  0.00    -0.461 OA
BRANCH   5   6
ATOM      6  C   UNL A   1      41.335  25.360  26.952  1.00  0.00     0.333 C 
ATOM      7  O   UNL A   1      41.258  25.366  25.730  1.00  0.00    -0.249 OA
BRANCH   6   8
ATOM      8  C   UNL A   1      41.032  24.104  27.726  1.00  0.00     0.223 C 
BRANCH   8   9
ATOM      9  N   UNL A   1      41.871  23.280  28.622  1.00  0.00    -0.337 N 
ATOM     10  C   UNL A   1      43.257  23.325  28.578  1.00  0.00     0.243 C 
ATOM     11  O   UNL A   1      43.888  23.130  29.624  1.00  0.00    -0.273 OA
ATOM     12  H   UNL A   1      41.433  22.682  29.270  1.00  0.00     0.164 HD
BRANCH  10  13
ATOM     13  C   UNL A   1      44.013  23.605  27.206  1.00  0.00     0.174 C 
BRANCH  13  14
ATOM     14  C   UNL A   1      43.400  22.924  25.954  1.00  0.00     0.015 C 
ATOM     15  C   UNL A   1      43.621  23.262  24.485  1.00  0.00     0.010 C 
ATOM     16  C   UNL A   1      43.620  21.390  26.095  1.00  0.00     0.010 C 
ENDBRANCH  13  14
BRANCH  13  17
ATOM     17  N   UNL A   1      45.558  23.539  27.177  1.00  0.00    -0.339 N 
ATOM     18  C   UNL A   1      46.648  24.381  27.509  1.00  0.00     0.268 C 
ATOM     19  H   UNL A   1      45.871  22.671  26.833  1.00  0.00     0.164 HD
ATOM     20  O   UNL A   1      47.772  24.013  27.178  1.00  0.00    -0.268 OA
BRANCH  18  21
ATOM     21  C   UNL A   1      46.392  25.772  27.904  1.00  0.00     0.107 A 
ATOM     22  C   UNL A   1      45.869  26.886  26.832  1.00  0.00     0.042 A 
ATOM     23  N   UNL A   1      45.846  26.045  29.446  1.00  0.00    -0.340 N 
ATOM     24  C   UNL A   1      44.382  27.916  27.531  1.00  0.00     0.002 A 
ATOM     25  C   UNL A   1      44.445  27.214  29.443  1.00  0.00     0.048 A 
ATOM     26  C   UNL A   1      46.767  26.438  30.532  1.00  0.00     0.150 C 
ATOM     27  C   UNL A   1      43.849  29.023  26.882  1.00  0.00     0.030 A 
ATOM     28  C   UNL A   1      43.827  27.318  30.402  1.00  0.00     0.028 A 
ATOM     29  C   UNL A   1      43.462  29.610  27.946  1.00  0.00     0.041 A 
ATOM     30  C   UNL A   1      43.169  28.516  29.027  1.00  0.00     0.023 A 
ATOM     31  Cl  UNL A   1      44.422  31.147  27.995  1.00  0.00    -0.084 Cl
ENDBRANCH  18  21
ENDBRANCH  13  17
ENDBRANCH  10  13
ENDBRANCH   8   9
BRANCH   8  32
ATOM     32  C   UNL A   1      40.154  23.135  26.856  1.00  0.00    -0.014 A 
ATOM     33  C   UNL A   1      40.012  21.157  25.904  1.00  0.00     0.006 A 
ATOM     34  C   UNL A   1      38.497  24.203  26.817  1.00  0.00     0.006 A 
ATOM     35  C   UNL A   1      38.195  20.850  25.238  1.00  0.00     0.000 A 
ATOM     36  C   UNL A   1      36.808  23.862  25.986  1.00  0.00     0.000 A 
ATOM     37  C   UNL A   1      36.664  22.135  25.176  1.00  0.00     0.000 A 
ENDBRANCH   8  32
ENDBRANCH   6   8
ENDBRANCH   5   6
ENDBRANCH   4   5
ENDBRANCH   3   4
ENDBRANCH   2   3
ENDBRANCH   1   2
BRANCH   1  38
ATOM     38  C   UNL A   1      37.107  29.716  29.359  1.00  0.00     0.188 C 
BRANCH  38  39
ATOM     39  O   UNL A   1      36.800  30.321  28.149  1.00  0.00    -0.376 OA
BRANCH  39  40
ATOM     40  C   UNL A   1      35.877  29.438  27.552  1.00  0.00     0.202 C 
BRANCH  40  41
ATOM     41  C   UNL A   1      34.270  29.834  27.636  1.00  0.00     0.261 C 
BRANCH  41  42
ATOM     42  O   UNL A   1      33.613  31.340  27.301  1.00  0.00    -0.460 OA
BRANCH  42  43
ATOM     43  C   UNL A   1      33.825  32.646  27.867  1.00  0.00     0.338 C 
ATOM     44  O   UNL A   1      32.945  33.489  27.674  1.00  0.00    -0.246 OA
BRANCH  43  45
ATOM     45  C   UNL A   1      34.981  33.041  29.097  1.00  0.00     0.060 A 
ATOM     46  C   UNL A   1      36.095  33.887  29.272  1.00  0.00     0.016 A 
ATOM     47  C   UNL A   1      34.848  32.391  30.343  1.00  0.00     0.016 A 
ATOM     48  C   UNL A   1      37.148  33.794  30.515  1.00  0.00     0.010 A 
ATOM     49  C   UNL A   1      35.748  32.529  31.666  1.00  0.00     0.010 A 
ATOM     50  C   UNL A   1      37.148  32.829  31.664  1.00  0.00    -0.014 A 
BRANCH  50  51
ATOM     51  C   UNL A   1      38.555  32.193  32.808  1.00  0.00     0.031 A 
ATOM     52  C   UNL A   1      37.966  33.080  33.796  1.00  0.00     0.074 A 
ATOM     53  C   UNL A   1      39.599  30.933  33.273  1.00  0.00     0.049 A 
ATOM     54  N   UNL A   1      38.175  34.362  33.855  1.00  0.00    -0.248 NA
ATOM     55  C   UNL A   1      36.613  32.771  34.368  1.00  0.00     0.031 C 
ATOM     56  C   UNL A   1      39.793  29.373  32.614  1.00  0.00     0.029 A 
ATOM     57  N   UNL A   1      41.082  30.654  33.667  1.00  0.00    -0.354 N 
ATOM     58  C   UNL A   1      37.726  34.532  35.127  1.00  0.00     0.074 A 
ATOM     59  C   UNL A   1      36.445  33.862  35.125  1.00  0.00     0.031 C 
ATOM     60  C   UNL A   1      40.716  28.460  32.884  1.00  0.00     0.029 A 
ATOM     61  C   UNL A   1      41.670  29.144  33.614  1.00  0.00     0.049 A 
ATOM     62  H   UNL A   1      41.663  31.397  33.949  1.00  0.00     0.167 HD
ATOM     63  C   UNL A   1      38.738  34.293  36.015  1.00  0.00     0.031 A 
ATOM     64  C   UNL A   1      42.639  28.289  34.184  1.00  0.00     0.031 A 
ATOM     65  C   UNL A   1      40.084  34.424  35.420  1.00  0.00     0.049 A 
ATOM     66  C   UNL A   1      43.147  29.161  35.258  1.00  0.00     0.074 A 
ATOM     67  C   UNL A   1      40.630  35.254  34.450  1.00  0.00     0.029 A 
ATOM     68  N   UNL A   1      40.884  33.309  35.424  1.00  0.00    -0.354 N 
ATOM     69  N   UNL A   1      43.904  30.194  35.001  1.00  0.00    -0.248 NA
ATOM     70  C   UNL A   1      42.072  29.319  36.253  1.00  0.00     0.031 C 
ATOM     71  C   UNL A   1      41.722  34.569  33.857  1.00  0.00     0.029 A 
ATOM     72  C   UNL A   1      41.971  33.411  34.584  1.00  0.00     0.049 A 
ATOM     73  H   UNL A   1      40.699  32.514  35.974  1.00  0.00     0.167 HD
ATOM     74  C   UNL A   1      43.063  31.265  35.278  1.00  0.00     0.074 A 
ATOM     75  C   UNL A   1      41.975  30.658  36.154  1.00  0.00     0.031 C 
ATOM     76  C   UNL A   1      43.020  32.388  34.457  1.00  0.00     0.031 A 
BRANCH  63  77
ATOM     77  C   UNL A   1      38.449  33.501  37.241  1.00  0.00    -0.014 A 
ATOM     78  C   UNL A   1      37.990  32.163  37.338  1.00  0.00     0.009 A 
ATOM     79  C   UNL A   1      38.659  34.218  38.403  1.00  0.00     0.009 A 
ATOM     80  C   UNL A   1      37.553  31.649  38.553  1.00  0.00     0.001 A 
ATOM     81  C   UNL A   1      38.269  33.691  39.620  1.00  0.00     0.001 A 
ATOM     82  C   UNL A   1      37.671  32.433  39.690  1.00  0.00     0.000 A 
ENDBRANCH  63  77
BRANCH  64  83
ATOM     83  C   UNL A   1      42.574  26.668  34.311  1.00  0.00    -0.014 A 
ATOM     84  C   UNL A   1      41.628  26.037  35.166  1.00  0.00     0.009 A 
ATOM     85  C   UNL A   1      43.509  25.732  33.800  1.00  0.00     0.009 A 
ATOM     86  C   UNL A   1      41.730  24.744  35.703  1.00  0.00     0.001 A 
ATOM     87  C   UNL A   1      43.597  24.385  34.305  1.00  0.00     0.001 A 
ATOM     88  C   UNL A   1      42.760  23.926  35.318  1.00  0.00     0.000 A 
ENDBRANCH  64  83
BRANCH  76  89
ATOM     89  C   UNL A   1      43.990  32.610  33.216  1.00  0.00    -0.014 A 
ATOM     90  C   UNL A   1      45.078  33.462  33.468  1.00  0.00     0.009 A 
ATOM     91  C   UNL A   1      43.762  32.334  31.830  1.00  0.00     0.009 A 
ATOM     92  C   UNL A   1      45.895  33.993  32.451  1.00  0.00     0.001 A 
ATOM     93  C   UNL A   1      44.609  32.848  30.800  1.00  0.00     0.001 A 
ATOM     94  C   UNL A   1      45.680  33.675  31.117  1.00  0.00     0.000 A 
ENDBRANCH  76  89
ENDBRANCH  50  51
ENDBRANCH  43  45
ENDBRANCH  42  43
ENDBRANCH  41  42
ENDBRANCH  40  41
ENDBRANCH  39  40
ENDBRANCH  38  39
ENDBRANCH   1  38
TORSDOF 23
ENDMDL
MODEL 2
REMARK VINA RESULT:      -9.0      3.965     12.893
REMARK SMILES CC(C)[C@H](NC(=O)c1cc2cc(Cl)ccc2n1C)C(=O)N[C@@H](C(=O)OCCOCCOCCOC(=O)c1ccc(-c2c3nc(c(-c4ccccc4)c4ccc([nH]4)c(-c4ccccc4)c4nc(c(-c5ccccc5)c5ccc2[nH]5)C=C4)C=C3)cc1)c1ccccc1
REMARK SMILES IDX 29 1 28 2 27 3 26 4 25 5 23 6 24 7 22 8 21 9 19 10 20 11
REMARK SMILES IDX 4 13 2 14 1 15 3 16 5 17 6 18 7 20 8 21 9 22 17 23 10 24
REMARK SMILES IDX 16 25 18 26 11 27 15 28 12 29 14 30 13 31 85 32 86 33 90 34
REMARK SMILES IDX 87 35 89 36 88 37 30 38 31 39 32 40 33 41 34 42 35 43 36 44
REMARK SMILES IDX 37 45 38 46 84 47 39 48 83 49 40 50 41 51 42 52 77 53 43 54
REMARK SMILES IDX 82 55 76 56 78 57 44 58 81 59 75 60 74 61 45 63 67 64 52 65
REMARK SMILES IDX 66 66 53 67 56 68 65 69 79 70 54 71 55 72 64 74 80 75 57 76
REMARK SMILES IDX 46 77 47 78 51 79 48 80 50 81 49 82 68 83 69 84 73 85 70 86
REMARK SMILES IDX 72 87 71 88 58 89 59 90 63 91 60 92 62 93 61 94
REMARK H PARENT 21 12 5 19 78 62 56 73
REMARK Flexibility Score: inf
ROOT
ATOM      1  C   UNL A   1      42.035  25.508  35.983  1.00  0.00     0.188 C 
ENDROOT
BRANCH   1   2
ATOM      2  O   UNL A   1      41.276  26.712  35.887  1.00  0.00    -0.376 OA
BRANCH   2   3
ATOM      3  C   UNL A   1      41.543  28.044  35.391  1.00  0.00     0.202 C 
BRANCH   3   4
ATOM      4  C   UNL A   1      40.851  29.452  35.669  1.00  0.00     0.261 C 
BRANCH   4   5
ATOM      5  O   UNL A   1      41.060  30.478  34.678  1.00  0.00    -0.461 OA
BRANCH   5   6
ATOM      6  C   UNL A   1      39.811  30.818  34.344  1.00  0.00     0.333 C 
ATOM      7  O   UNL A   1      38.948  29.996  34.623  1.00  0.00    -0.249 OA
BRANCH   6   8
ATOM      8  C   UNL A   1      39.500  31.955  33.407  1.00  0.00     0.223 C 
BRANCH   8   9
ATOM      9  N   UNL A   1      40.341  33.057  32.892  1.00  0.00    -0.337 N 
ATOM     10  C   UNL A   1      41.201  33.771  33.715  1.00  0.00     0.243 C 
ATOM     11  O   UNL A   1      42.243  34.225  33.227  1.00  0.00    -0.273 OA
ATOM     12  H   UNL A   1      40.289  33.292  31.937  1.00  0.00     0.164 HD
BRANCH  10  13
ATOM     13  C   UNL A   1      40.842  34.010  35.246  1.00  0.00     0.174 C 
BRANCH  13  14
ATOM     14  C   UNL A   1      40.888  35.486  35.720  1.00  0.00     0.015 C 
ATOM     15  C   UNL A   1      39.941  36.209  36.669  1.00  0.00     0.010 C 
ATOM     16  C   UNL A   1      42.330  35.775  36.228  1.00  0.00     0.010 C 
ENDBRANCH  13  14
BRANCH  13  17
ATOM     17  N   UNL A   1      41.442  33.063  36.311  1.00  0.00    -0.339 N 
ATOM     18  C   UNL A   1      41.059  32.517  37.561  1.00  0.00     0.268 C 
ATOM     19  H   UNL A   1      42.339  32.754  36.048  1.00  0.00     0.164 HD
ATOM     20  O   UNL A   1      41.912  31.908  38.202  1.00  0.00    -0.268 OA
BRANCH  18  21
ATOM     21  C   UNL A   1      39.814  32.969  38.196  1.00  0.00     0.107 A 
ATOM     22  C   UNL A   1      38.376  32.280  37.852  1.00  0.00     0.042 A 
ATOM     23  N   UNL A   1      39.907  33.541  39.750  1.00  0.00    -0.340 N 
ATOM     24  C   UNL A   1      37.367  31.874  39.458  1.00  0.00     0.002 A 
ATOM     25  C   UNL A   1      38.583  32.830  40.785  1.00  0.00     0.048 A 
ATOM     26  C   UNL A   1      39.984  34.988  40.037  1.00  0.00     0.150 C 
ATOM     27  C   UNL A   1      36.053  31.423  39.440  1.00  0.00     0.030 A 
ATOM     28  C   UNL A   1      38.660  32.956  41.921  1.00  0.00     0.028 A 
ATOM     29  C   UNL A   1      35.739  31.928  40.567  1.00  0.00     0.041 A 
ATOM     30  C   UNL A   1      37.035  32.013  41.442  1.00  0.00     0.023 A 
ATOM     31  Cl  UNL A   1      34.446  33.140  40.181  1.00  0.00    -0.084 Cl
ENDBRANCH  18  21
ENDBRANCH  13  17
ENDBRANCH  10  13
ENDBRANCH   8   9
BRANCH   8  32
ATOM     32  C   UNL A   1      38.076  32.536  33.720  1.00  0.00    -0.014 A 
ATOM     33  C   UNL A   1      36.880  33.833  35.035  1.00  0.00     0.006 A 
ATOM     34  C   UNL A   1      37.133  31.868  32.122  1.00  0.00     0.006 A 
ATOM     35  C   UNL A   1      35.087  34.092  34.289  1.00  0.00     0.000 A 
ATOM     36  C   UNL A   1      35.311  32.059  31.574  1.00  0.00     0.000 A 
ATOM     37  C   UNL A   1      34.267  33.204  32.696  1.00  0.00     0.000 A 
ENDBRANCH   8  32
ENDBRANCH   6   8
ENDBRANCH   5   6
ENDBRANCH   4   5
ENDBRANCH   3   4
ENDBRANCH   2   3
ENDBRANCH   1   2
BRANCH   1  38
ATOM     38  C   UNL A   1      43.225  25.172  36.943  1.00  0.00     0.188 C 
BRANCH  38  39
ATOM     39  O   UNL A   1      44.165  26.169  37.164  1.00  0.00    -0.376 OA
BRANCH  39  40
ATOM     40  C   UNL A   1      44.990  25.639  38.178  1.00  0.00     0.202 C 
BRANCH  40  41
ATOM     41  C   UNL A   1      44.986  23.996  38.390  1.00  0.00     0.261 C 
BRANCH  41  42
ATOM     42  O   UNL A   1      45.875  22.890  37.497  1.00  0.00    -0.460 OA
BRANCH  42  43
ATOM     43  C   UNL A   1      45.756  22.401  36.148  1.00  0.00     0.338 C 
ATOM     44  O   UNL A   1      45.667  21.180  36.002  1.00  0.00    -0.246 OA
BRANCH  43  45
ATOM     45  C   UNL A   1      45.342  23.354  34.759  1.00  0.00     0.060 A 
ATOM     46  C   UNL A   1      44.319  23.430  33.793  1.00  0.00     0.016 A 
ATOM     47  C   UNL A   1      46.215  24.410  34.416  1.00  0.00     0.016 A 
ATOM     48  C   UNL A   1      44.399  24.309  32.421  1.00  0.00     0.010 A 
ATOM     49  C   UNL A   1      46.121  25.456  33.201  1.00  0.00     0.010 A 
ATOM     50  C   UNL A   1      45.528  25.167  31.930  1.00  0.00    -0.014 A 
BRANCH  50  51
ATOM     51  C   UNL A   1      46.036  25.739  30.167  1.00  0.00     0.031 A 
ATOM     52  C   UNL A   1      45.090  26.817  30.393  1.00  0.00     0.074 A 
ATOM     53  C   UNL A   1      47.228  25.858  28.959  1.00  0.00     0.049 A 
ATOM     54  N   UNL A   1      43.802  26.712  30.246  1.00  0.00    -0.248 NA
ATOM     55  C   UNL A   1      45.387  27.873  31.418  1.00  0.00     0.031 C 
ATOM     56  C   UNL A   1      48.829  25.275  28.941  1.00  0.00     0.029 A 
ATOM     57  N   UNL A   1      47.437  25.685  27.423  1.00  0.00    -0.354 N 
ATOM     58  C   UNL A   1      43.544  28.047  30.198  1.00  0.00     0.074 A 
ATOM     59  C   UNL A   1      44.245  28.567  31.350  1.00  0.00     0.031 C 
ATOM     60  C   UNL A   1      49.694  25.236  27.936  1.00  0.00     0.029 A 
ATOM     61  C   UNL A   1      48.930  25.511  26.817  1.00  0.00     0.049 A 
ATOM     62  H   UNL A   1      46.659  25.681  26.819  1.00  0.00     0.167 HD
ATOM     63  C   UNL A   1      43.686  28.505  28.918  1.00  0.00     0.031 A 
ATOM     64  C   UNL A   1      49.712  25.730  25.662  1.00  0.00     0.031 A 
ATOM     65  C   UNL A   1      43.567  27.442  27.899  1.00  0.00     0.049 A 
ATOM     66  C   UNL A   1      48.746  26.478  24.838  1.00  0.00     0.074 A 
ATOM     67  C   UNL A   1      42.803  26.288  27.797  1.00  0.00     0.029 A 
ATOM     68  N   UNL A   1      44.658  27.217  27.096  1.00  0.00    -0.354 N 
ATOM     69  N   UNL A   1      47.717  25.891  24.287  1.00  0.00    -0.248 NA
ATOM     70  C   UNL A   1      48.538  27.791  25.474  1.00  0.00     0.031 C 
ATOM     71  C   UNL A   1      43.504  25.374  26.969  1.00  0.00     0.029 A 
ATOM     72  C   UNL A   1      44.594  26.026  26.406  1.00  0.00     0.049 A 
ATOM     73  H   UNL A   1      45.412  27.845  27.021  1.00  0.00     0.167 HD
ATOM     74  C   UNL A   1      46.649  26.395  25.021  1.00  0.00     0.074 A 
ATOM     75  C   UNL A   1      47.213  27.651  25.671  1.00  0.00     0.031 C 
ATOM     76  C   UNL A   1      45.596  25.581  25.426  1.00  0.00     0.031 A 
BRANCH  63  77
ATOM     77  C   UNL A   1      44.386  29.797  28.688  1.00  0.00    -0.014 A 
ATOM     78  C   UNL A   1      45.750  30.112  28.913  1.00  0.00     0.009 A 
ATOM     79  C   UNL A   1      43.546  30.782  28.206  1.00  0.00     0.009 A 
ATOM     80  C   UNL A   1      46.192  31.429  28.862  1.00  0.00     0.001 A 
ATOM     81  C   UNL A   1      43.996  32.086  28.108  1.00  0.00     0.001 A 
ATOM     82  C   UNL A   1      45.298  32.418  28.483  1.00  0.00     0.000 A 
ENDBRANCH  63  77
BRANCH  64  83
ATOM     83  C   UNL A   1      51.319  25.974  25.588  1.00  0.00    -0.014 A 
ATOM     84  C   UNL A   1      51.854  27.273  25.364  1.00  0.00     0.009 A 
ATOM     85  C   UNL A   1      52.333  24.985  25.527  1.00  0.00     0.009 A 
ATOM     86  C   UNL A   1      53.129  27.569  24.854  1.00  0.00     0.001 A 
ATOM     87  C   UNL A   1      53.662  25.278  25.051  1.00  0.00     0.001 A 
ATOM     88  C   UNL A   1      54.025  26.556  24.635  1.00  0.00     0.000 A 
ENDBRANCH  64  83
BRANCH  76  89
ATOM     89  C   UNL A   1      45.447  24.055  25.000  1.00  0.00    -0.014 A 
ATOM     90  C   UNL A   1      44.169  23.697  24.543  1.00  0.00     0.009 A 
ATOM     91  C   UNL A   1      46.303  22.947  25.295  1.00  0.00     0.009 A 
ATOM     92  C   UNL A   1      43.756  22.361  24.369  1.00  0.00     0.001 A 
ATOM     93  C   UNL A   1      45.896  21.592  25.090  1.00  0.00     0.001 A 
ATOM     94  C   UNL A   1      44.619  21.304  24.621  1.00  0.00     0.000 A 
ENDBRANCH  76  89
ENDBRANCH  50  51
ENDBRANCH  43  45
ENDBRANCH  42  43
ENDBRANCH  41  42
ENDBRANCH  40  41
ENDBRANCH  39  40
ENDBRANCH  38  39
ENDBRANCH   1  38
TORSDOF 23
ENDMDL
MODEL 3
REMARK VINA RESULT:      -8.8      2.156      3.399
REMARK SMILES CC(C)[C@H](NC(=O)c1cc2cc(Cl)ccc2n1C)C(=O)N[C@@H](C(=O)OCCOCCOCCOC(=O)c1ccc(-c2c3nc(c(-c4ccccc4)c4ccc([nH]4)c(-c4ccccc4)c4nc(c(-c5ccccc5)c5ccc2[nH]5)C=C4)C=C3)cc1)c1ccccc1
REMARK SMILES IDX 29 1 28 2 27 3 26 4 25 5 23 6 24 7 22 8 21 9 19 10 20 11
REMARK SMILES IDX 4 13 2 14 1 15 3 16 5 17 6 18 7 20 8 21 9 22 17 23 10 24
REMARK SMILES IDX 16 25 18 26 11 27 15 28 12 29 14 30 13 31 85 32 86 33 90 34
REMARK SMILES IDX 87 35 89 36 88 37 30 38 31 39 32 40 33 41 34 42 35 43 36 44
REMARK SMILES IDX 37 45 38 46 84 47 39 48 83 49 40 50 41 51 42 52 77 53 43 54
REMARK SMILES IDX 82 55 76 56 78 57 44 58 81 59 75 60 74 61 45 63 67 64 52 65
REMARK SMILES IDX 66 66 53 67 56 68 65 69 79 70 54 71 55 72 64 74 80 75 57 76
REMARK SMILES IDX 46 77 47 78 51 79 48 80 50 81 49 82 68 83 69 84 73 85 70 86
REMARK SMILES IDX 72 87 71 88 58 89 59 90 63 91 60 92 62 93 61 94
REMARK H PARENT 21 12 5 19 78 62 56 73
REMARK Flexibility Score: inf
ROOT
ATOM      1  C   UNL A   1      39.327  27.975  29.135  1.00  0.00     0.188 C 
ENDROOT
BRANCH   1   2
ATOM      2  O   UNL A   1      40.221  28.652  28.255  1.00  0.00    -0.376 OA
BRANCH   2   3
ATOM      3  C   UNL A   1      40.248  28.906  26.832  1.00  0.00     0.202 C 
BRANCH   3   4
ATOM      4  C   UNL A   1      41.302  28.536  25.695  1.00  0.00     0.261 C 
BRANCH   4   5
ATOM      5  O   UNL A   1      42.694  28.632  26.054  1.00  0.00    -0.461 OA
BRANCH   5   6
ATOM      6  C   UNL A   1      43.168  27.432  25.703  1.00  0.00     0.333 C 
ATOM      7  O   UNL A   1      42.918  27.081  24.557  1.00  0.00    -0.249 OA
BRANCH   6   8
ATOM      8  C   UNL A   1      43.681  26.434  26.707  1.00  0.00     0.223 C 
BRANCH   8   9
ATOM      9  N   UNL A   1      44.961  26.355  27.443  1.00  0.00    -0.337 N 
ATOM     10  C   UNL A   1      45.900  27.375  27.395  1.00  0.00     0.243 C 
ATOM     11  O   UNL A   1      46.613  27.568  28.387  1.00  0.00    -0.273 OA
ATOM     12  H   UNL A   1      45.152  25.554  27.984  1.00  0.00     0.164 HD
BRANCH  10  13
ATOM     13  C   UNL A   1      46.063  28.263  26.084  1.00  0.00     0.174 C 
BRANCH  13  14
ATOM     14  C   UNL A   1      46.509  27.498  24.811  1.00  0.00     0.015 C 
ATOM     15  C   UNL A   1      46.939  28.065  23.464  1.00  0.00     0.010 C 
ATOM     16  C   UNL A   1      47.605  26.477  25.232  1.00  0.00     0.010 C 
ENDBRANCH  13  14
BRANCH  13  17
ATOM     17  N   UNL A   1      46.776  29.631  26.193  1.00  0.00    -0.339 N 
ATOM     18  C   UNL A   1      46.450  30.953  26.584  1.00  0.00     0.268 C 
ATOM     19  H   UNL A   1      47.717  29.565  25.911  1.00  0.00     0.164 HD
ATOM     20  O   UNL A   1      47.280  31.832  26.368  1.00  0.00    -0.268 OA
BRANCH  18  21
ATOM     21  C   UNL A   1      45.056  31.289  26.901  1.00  0.00     0.107 A 
ATOM     22  C   UNL A   1      44.246  30.543  28.106  1.00  0.00     0.042 A 
ATOM     23  N   UNL A   1      44.570  32.856  26.663  1.00  0.00    -0.340 N 
ATOM     24  C   UNL A   1      43.309  31.809  29.237  1.00  0.00     0.002 A 
ATOM     25  C   UNL A   1      43.620  33.468  28.096  1.00  0.00     0.048 A 
ATOM     26  C   UNL A   1      43.858  33.266  25.435  1.00  0.00     0.150 C 
ATOM     27  C   UNL A   1      42.427  31.428  30.241  1.00  0.00     0.030 A 
ATOM     28  C   UNL A   1      43.419  34.593  28.169  1.00  0.00     0.028 A 
ATOM     29  C   UNL A   1      41.705  32.476  30.169  1.00  0.00     0.041 A 
ATOM     30  C   UNL A   1      42.603  33.651  29.654  1.00  0.00     0.023 A 
ATOM     31  Cl  UNL A   1      40.072  31.875  29.659  1.00  0.00    -0.084 Cl
ENDBRANCH  18  21
ENDBRANCH  13  17
ENDBRANCH  10  13
ENDBRANCH   8   9
BRANCH   8  32
ATOM     32  C   UNL A   1      43.280  24.979  26.272  1.00  0.00    -0.014 A 
ATOM     33  C   UNL A   1      43.812  23.223  25.059  1.00  0.00     0.006 A 
ATOM     34  C   UNL A   1      41.767  24.715  27.509  1.00  0.00     0.006 A 
ATOM     35  C   UNL A   1      42.658  21.706  25.514  1.00  0.00     0.000 A 
ATOM     36  C   UNL A   1      40.599  23.221  27.754  1.00  0.00     0.000 A 
ATOM     37  C   UNL A   1      41.065  21.679  26.723  1.00  0.00     0.000 A 
ENDBRANCH   8  32
ENDBRANCH   6   8
ENDBRANCH   5   6
ENDBRANCH   4   5
ENDBRANCH   3   4
ENDBRANCH   2   3
ENDBRANCH   1   2
BRANCH   1  38
ATOM     38  C   UNL A   1      37.881  28.386  29.573  1.00  0.00     0.188 C 
BRANCH  38  39
ATOM     39  O   UNL A   1      37.447  29.657  29.222  1.00  0.00    -0.376 OA
BRANCH  39  40
ATOM     40  C   UNL A   1      36.848  29.474  27.959  1.00  0.00     0.202 C 
BRANCH  40  41
ATOM     41  C   UNL A   1      35.243  29.854  27.808  1.00  0.00     0.261 C 
BRANCH  41  42
ATOM     42  O   UNL A   1      34.613  31.399  27.635  1.00  0.00    -0.460 OA
BRANCH  42  43
ATOM     43  C   UNL A   1      34.514  32.520  28.533  1.00  0.00     0.338 C 
ATOM     44  O   UNL A   1      33.452  33.146  28.530  1.00  0.00    -0.246 OA
BRANCH  43  45
ATOM     45  C   UNL A   1      35.569  32.841  29.870  1.00  0.00     0.060 A 
ATOM     46  C   UNL A   1      36.428  33.864  30.321  1.00  0.00     0.016 A 
ATOM     47  C   UNL A   1      35.654  31.856  30.879  1.00  0.00     0.016 A 
ATOM     48  C   UNL A   1      37.512  33.704  31.530  1.00  0.00     0.010 A 
ATOM     49  C   UNL A   1      36.532  31.847  32.223  1.00  0.00     0.010 A 
ATOM     50  C   UNL A   1      37.804  32.490  32.363  1.00  0.00    -0.014 A 
BRANCH  50  51
ATOM     51  C   UNL A   1      39.367  31.948  33.341  1.00  0.00     0.031 A 
ATOM     52  C   UNL A   1      38.968  32.978  34.283  1.00  0.00     0.074 A 
ATOM     53  C   UNL A   1      40.448  30.717  33.796  1.00  0.00     0.049 A 
ATOM     54  N   UNL A   1      39.209  34.248  34.135  1.00  0.00    -0.248 NA
ATOM     55  C   UNL A   1      37.721  32.802  35.101  1.00  0.00     0.031 C 
ATOM     56  C   UNL A   1      40.500  29.078  33.328  1.00  0.00     0.029 A 
ATOM     57  N   UNL A   1      41.970  30.429  33.980  1.00  0.00    -0.354 N 
ATOM     58  C   UNL A   1      38.980  34.598  35.430  1.00  0.00     0.074 A 
ATOM     59  C   UNL A   1      37.703  33.988  35.722  1.00  0.00     0.031 C 
ATOM     60  C   UNL A   1      41.437  28.170  33.566  1.00  0.00     0.029 A 
ATOM     61  C   UNL A   1      42.511  28.902  34.034  1.00  0.00     0.049 A 
ATOM     62  H   UNL A   1      42.605  31.177  34.063  1.00  0.00     0.167 HD
ATOM     63  C   UNL A   1      40.119  34.434  36.167  1.00  0.00     0.031 A 
ATOM     64  C   UNL A   1      43.543  28.087  34.550  1.00  0.00     0.031 A 
ATOM     65  C   UNL A   1      41.350  34.431  35.351  1.00  0.00     0.049 A 
ATOM     66  C   UNL A   1      44.239  29.068  35.403  1.00  0.00     0.074 A 
ATOM     67  C   UNL A   1      41.746  35.106  34.204  1.00  0.00     0.029 A 
ATOM     68  N   UNL A   1      42.118  33.293  35.375  1.00  0.00    -0.354 N 
ATOM     69  N   UNL A   1      44.964  30.027  34.891  1.00  0.00    -0.248 NA
ATOM     70  C   UNL A   1      43.346  29.397  36.527  1.00  0.00     0.031 C 
ATOM     71  C   UNL A   1      42.711  34.306  33.540  1.00  0.00     0.029 A 
ATOM     72  C   UNL A   1      43.053  33.241  34.366  1.00  0.00     0.049 A 
ATOM     73  H   UNL A   1      42.010  32.584  36.049  1.00  0.00     0.167 HD
ATOM     74  C   UNL A   1      44.202  31.159  35.155  1.00  0.00     0.074 A 
ATOM     75  C   UNL A   1      43.261  30.716  36.268  1.00  0.00     0.031 C 
ATOM     76  C   UNL A   1      44.046  32.168  34.209  1.00  0.00     0.031 A 
BRANCH  63  77
ATOM     77  C   UNL A   1      40.020  33.819  37.517  1.00  0.00    -0.014 A 
ATOM     78  C   UNL A   1      38.900  33.772  38.385  1.00  0.00     0.009 A 
ATOM     79  C   UNL A   1      41.208  33.247  37.933  1.00  0.00     0.009 A 
ATOM     80  C   UNL A   1      39.041  33.360  39.706  1.00  0.00     0.001 A 
ATOM     81  C   UNL A   1      41.338  32.792  39.232  1.00  0.00     0.001 A 
ATOM     82  C   UNL A   1      40.275  32.894  40.130  1.00  0.00     0.000 A 
ENDBRANCH  63  77
BRANCH  64  83
ATOM     83  C   UNL A   1      43.468  26.500  34.902  1.00  0.00    -0.014 A 
ATOM     84  C   UNL A   1      43.974  25.524  33.999  1.00  0.00     0.009 A 
ATOM     85  C   UNL A   1      42.757  25.893  35.968  1.00  0.00     0.009 A 
ATOM     86  C   UNL A   1      43.604  24.171  33.948  1.00  0.00     0.001 A 
ATOM     87  C   UNL A   1      42.408  24.494  35.957  1.00  0.00     0.001 A 
ATOM     88  C   UNL A   1      42.762  23.660  34.900  1.00  0.00     0.000 A 
ENDBRANCH  64  83
BRANCH  76  89
ATOM     89  C   UNL A   1      44.803  32.188  32.810  1.00  0.00    -0.014 A 
ATOM     90  C   UNL A   1      45.223  30.929  32.353  1.00  0.00     0.009 A 
ATOM     91  C   UNL A   1      45.380  33.296  32.111  1.00  0.00     0.009 A 
ATOM     92  C   UNL A   1      46.126  30.756  31.285  1.00  0.00     0.001 A 
ATOM     93  C   UNL A   1      46.272  33.121  31.008  1.00  0.00     0.001 A 
ATOM     94  C   UNL A   1      46.640  31.846  30.594  1.00  0.00     0.000 A 
ENDBRANCH  76  89
ENDBRANCH  50  51
ENDBRANCH  43  45
ENDBRANCH  42  43
ENDBRANCH  41  42
ENDBRANCH  40  41
ENDBRANCH  39  40
ENDBRANCH  38  39
ENDBRANCH   1  38
TORSDOF 23
ENDMDL
