MODEL 1
REMARK VINA RESULT:      -9.9      0.000      0.000
REMARK SMILES COc1cc(Cl)c2c(c1)C=C(C(=O)OCCOCCOCCOC(=O)c1ccc(-c3c4nc(c(-c5ccccc5)c5ccc([nH]5)c(-c5ccccc5)c5nc(c(-c6ccccc6)c6ccc3[nH]6)C=C5)C=C4)cc1)[C@@H](C(F)(F)F)O2
REMARK SMILES IDX 19 1 18 2 17 3 16 4 15 5 14 6 12 7 13 8 11 9 3 10 4 11 9 12
REMARK SMILES IDX 5 13 8 14 6 15 7 16 10 17 79 18 74 19 2 20 1 21 75 22 76 23
REMARK SMILES IDX 77 24 78 25 20 26 21 27 22 28 23 29 24 30 25 31 26 32 27 33
REMARK SMILES IDX 73 34 28 35 72 36 29 37 30 38 31 39 66 40 32 41 71 42 65 43
REMARK SMILES IDX 67 44 33 45 70 46 64 47 63 48 34 50 56 51 41 52 55 53 42 54
REMARK SMILES IDX 45 55 54 56 68 57 43 58 44 59 53 61 69 62 46 63 35 64 36 65
REMARK SMILES IDX 40 66 37 67 39 68 38 69 57 70 58 71 62 72 59 73 61 74 60 75
REMARK SMILES IDX 47 76 48 77 52 78 49 79 51 80 50 81
REMARK H PARENT 67 49 45 60
REMARK Flexibility Score: inf
ROOT
ATOM      1  C   UNL A   1      40.690  21.577  27.233  1.00  0.00     0.188 C 
ENDROOT
BRANCH   1   2
ATOM      2  C   UNL A   1      39.967  20.876  26.063  1.00  0.00     0.188 C 
BRANCH   2   3
ATOM      3  O   UNL A   1      38.700  21.350  25.677  1.00  0.00    -0.376 OA
BRANCH   3   4
ATOM      4  C   UNL A   1      37.762  20.507  25.032  1.00  0.00     0.202 C 
BRANCH   4   5
ATOM      5  C   UNL A   1      36.239  20.725  24.998  1.00  0.00     0.261 C 
BRANCH   5   6
ATOM      6  O   UNL A   1      35.698  21.719  25.872  1.00  0.00    -0.460 OA
BRANCH   6   7
ATOM      7  C   UNL A   1      34.367  21.941  25.747  1.00  0.00     0.338 C 
ATOM      8  O   UNL A   1      33.480  21.458  26.429  1.00  0.00    -0.246 OA
BRANCH   7   9
ATOM      9  C   UNL A   1      34.135  22.998  24.740  1.00  0.00     0.087 C 
ATOM     10  C   UNL A   1      33.400  27.649  23.780  1.00  0.00     0.121 A 
ATOM     11  C   UNL A   1      33.050  27.337  22.469  1.00  0.00     0.070 A 
ATOM     12  C   UNL A   1      33.849  26.653  24.645  1.00  0.00     0.058 A 
ATOM     13  C   UNL A   1      33.137  26.013  22.031  1.00  0.00     0.087 A 
ATOM     14  C   UNL A   1      33.890  25.319  24.222  1.00  0.00     0.022 A 
ATOM     15  Cl  UNL A   1      32.684  25.663  20.401  1.00  0.00    -0.080 Cl
ATOM     16  C   UNL A   1      33.554  24.997  22.903  1.00  0.00     0.146 A 
ATOM     17  C   UNL A   1      34.211  24.265  25.168  1.00  0.00     0.027 C 
ATOM     18  O   UNL A   1      33.627  23.722  22.412  1.00  0.00    -0.474 OA
ATOM     19  C   UNL A   1      33.833  22.609  23.319  1.00  0.00     0.316 C 
BRANCH  10  20
ATOM     20  O   UNL A   1      33.376  28.927  24.269  1.00  0.00    -0.497 OA
ATOM     21  C   UNL A   1      32.051  29.394  24.524  1.00  0.00     0.278 C 
ENDBRANCH  10  20
BRANCH  19  22
ATOM     22  C   UNL A   1      32.625  21.668  23.223  1.00  0.00     0.430 C 
ATOM     23  F   UNL A   1      32.133  21.619  21.962  1.00  0.00    -0.167 F 
ATOM     24  F   UNL A   1      32.951  20.399  23.563  1.00  0.00    -0.167 F 
ATOM     25  F   UNL A   1      31.619  22.059  24.038  1.00  0.00    -0.167 F 
ENDBRANCH  19  22
ENDBRANCH   7   9
ENDBRANCH   6   7
ENDBRANCH   5   6
ENDBRANCH   4   5
ENDBRANCH   3   4
ENDBRANCH   2   3
ENDBRANCH   1   2
BRANCH   1  26
ATOM     26  O   UNL A   1      42.089  21.450  27.384  1.00  0.00    -0.376 OA
BRANCH  26  27
ATOM     27  C   UNL A   1      42.889  21.286  26.222  1.00  0.00     0.202 C 
BRANCH  27  28
ATOM     28  C   UNL A   1      44.129  22.155  25.941  1.00  0.00     0.261 C 
BRANCH  28  29
ATOM     29  O   UNL A   1      44.177  23.428  26.603  1.00  0.00    -0.460 OA
BRANCH  29  30
ATOM     30  C   UNL A   1      43.634  24.471  25.921  1.00  0.00     0.338 C 
ATOM     31  O   UNL A   1      43.504  24.589  24.719  1.00  0.00    -0.246 OA
BRANCH  30  32
ATOM     32  C   UNL A   1      43.035  25.408  26.893  1.00  0.00     0.060 A 
ATOM     33  C   UNL A   1      43.525  26.721  26.969  1.00  0.00     0.016 A 
ATOM     34  C   UNL A   1      42.013  24.982  27.739  1.00  0.00     0.016 A 
ATOM     35  C   UNL A   1      42.970  27.623  27.873  1.00  0.00     0.010 A 
ATOM     36  C   UNL A   1      41.491  25.872  28.681  1.00  0.00     0.010 A 
ATOM     37  C   UNL A   1      41.978  27.190  28.760  1.00  0.00    -0.014 A 
BRANCH  37  38
ATOM     38  C   UNL A   1      41.613  28.048  29.909  1.00  0.00     0.031 A 
ATOM     39  C   UNL A   1      40.450  28.984  29.746  1.00  0.00     0.074 A 
ATOM     40  C   UNL A   1      42.273  27.983  31.078  1.00  0.00     0.049 A 
ATOM     41  N   UNL A   1      39.952  29.838  30.601  1.00  0.00    -0.248 NA
ATOM     42  C   UNL A   1      39.749  28.947  28.451  1.00  0.00     0.031 C 
ATOM     43  C   UNL A   1      43.378  27.075  31.380  1.00  0.00     0.029 A 
ATOM     44  N   UNL A   1      42.099  28.703  32.235  1.00  0.00    -0.354 N 
ATOM     45  C   UNL A   1      38.879  30.432  29.951  1.00  0.00     0.074 A 
ATOM     46  C   UNL A   1      38.811  29.866  28.623  1.00  0.00     0.031 C 
ATOM     47  C   UNL A   1      43.785  27.294  32.644  1.00  0.00     0.029 A 
ATOM     48  C   UNL A   1      42.989  28.375  33.227  1.00  0.00     0.049 A 
ATOM     49  H   UNL A   1      41.402  29.388  32.343  1.00  0.00     0.167 HD
ATOM     50  C   UNL A   1      38.020  31.360  30.424  1.00  0.00     0.031 A 
ATOM     51  C   UNL A   1      43.151  28.894  34.461  1.00  0.00     0.031 A 
ATOM     52  C   UNL A   1      38.092  31.936  31.735  1.00  0.00     0.049 A 
ATOM     53  C   UNL A   1      42.247  30.005  34.929  1.00  0.00     0.074 A 
ATOM     54  C   UNL A   1      37.257  32.884  32.299  1.00  0.00     0.029 A 
ATOM     55  N   UNL A   1      39.053  31.626  32.681  1.00  0.00    -0.354 N 
ATOM     56  N   UNL A   1      41.227  30.549  34.310  1.00  0.00    -0.248 NA
ATOM     57  C   UNL A   1      42.513  30.573  36.260  1.00  0.00     0.031 C 
ATOM     58  C   UNL A   1      37.745  33.187  33.569  1.00  0.00     0.029 A 
ATOM     59  C   UNL A   1      38.849  32.387  33.817  1.00  0.00     0.049 A 
ATOM     60  H   UNL A   1      39.772  30.963  32.565  1.00  0.00     0.167 HD
ATOM     61  C   UNL A   1      40.720  31.506  35.181  1.00  0.00     0.074 A 
ATOM     62  C   UNL A   1      41.538  31.469  36.374  1.00  0.00     0.031 C 
ATOM     63  C   UNL A   1      39.665  32.338  35.002  1.00  0.00     0.031 A 
BRANCH  50  64
ATOM     64  C   UNL A   1      36.921  31.825  29.516  1.00  0.00    -0.014 A 
ATOM     65  C   UNL A   1      35.680  31.173  29.502  1.00  0.00     0.009 A 
ATOM     66  C   UNL A   1      37.097  32.985  28.745  1.00  0.00     0.009 A 
ATOM     67  C   UNL A   1      34.631  31.675  28.730  1.00  0.00     0.001 A 
ATOM     68  C   UNL A   1      36.041  33.495  27.992  1.00  0.00     0.001 A 
ATOM     69  C   UNL A   1      34.810  32.841  27.985  1.00  0.00     0.000 A 
ENDBRANCH  50  64
BRANCH  51  70
ATOM     70  C   UNL A   1      44.217  28.358  35.346  1.00  0.00    -0.014 A 
ATOM     71  C   UNL A   1      43.945  27.296  36.222  1.00  0.00     0.009 A 
ATOM     72  C   UNL A   1      45.521  28.876  35.292  1.00  0.00     0.009 A 
ATOM     73  C   UNL A   1      44.958  26.763  37.022  1.00  0.00     0.001 A 
ATOM     74  C   UNL A   1      46.536  28.328  36.079  1.00  0.00     0.001 A 
ATOM     75  C   UNL A   1      46.254  27.272  36.944  1.00  0.00     0.000 A 
ENDBRANCH  51  70
BRANCH  63  76
ATOM     76  C   UNL A   1      39.297  33.286  36.106  1.00  0.00    -0.014 A 
ATOM     77  C   UNL A   1      38.511  32.856  37.184  1.00  0.00     0.009 A 
ATOM     78  C   UNL A   1      39.896  34.556  36.158  1.00  0.00     0.009 A 
ATOM     79  C   UNL A   1      38.339  33.678  38.300  1.00  0.00     0.001 A 
ATOM     80  C   UNL A   1      39.740  35.365  37.284  1.00  0.00     0.001 A 
ATOM     81  C   UNL A   1      38.964  34.924  38.355  1.00  0.00     0.000 A 
ENDBRANCH  63  76
ENDBRANCH  37  38
ENDBRANCH  30  32
ENDBRANCH  29  30
ENDBRANCH  28  29
ENDBRANCH  27  28
ENDBRANCH  26  27
ENDBRANCH   1  26
TORSDOF 19
ENDMDL
MODEL 2
REMARK VINA RESULT:      -9.4      2.114      6.848
REMARK SMILES COc1cc(Cl)c2c(c1)C=C(C(=O)OCCOCCOCCOC(=O)c1ccc(-c3c4nc(c(-c5ccccc5)c5ccc([nH]5)c(-c5ccccc5)c5nc(c(-c6ccccc6)c6ccc3[nH]6)C=C5)C=C4)cc1)[C@@H](C(F)(F)F)O2
REMARK SMILES IDX 19 1 18 2 17 3 16 4 15 5 14 6 12 7 13 8 11 9 3 10 4 11 9 12
REMARK SMILES IDX 5 13 8 14 6 15 7 16 10 17 79 18 74 19 2 20 1 21 75 22 76 23
REMARK SMILES IDX 77 24 78 25 20 26 21 27 22 28 23 29 24 30 25 31 26 32 27 33
REMARK SMILES IDX 73 34 28 35 72 36 29 37 30 38 31 39 66 40 32 41 71 42 65 43
REMARK SMILES IDX 67 44 33 45 70 46 64 47 63 48 34 50 56 51 41 52 55 53 42 54
REMARK SMILES IDX 45 55 54 56 68 57 43 58 44 59 53 61 69 62 46 63 35 64 36 65
REMARK SMILES IDX 40 66 37 67 39 68 38 69 57 70 58 71 62 72 59 73 61 74 60 75
REMARK SMILES IDX 47 76 48 77 52 78 49 79 51 80 50 81
REMARK H PARENT 67 49 45 60
REMARK Flexibility Score: inf
ROOT
ATOM      1  C   UNL A   1      43.408  19.016  25.791  1.00  0.00     0.188 C 
ENDROOT
BRANCH   1   2
ATOM      2  C   UNL A   1      41.980  19.066  26.375  1.00  0.00     0.188 C 
BRANCH   2   3
ATOM      3  O   UNL A   1      41.472  20.306  26.804  1.00  0.00    -0.376 OA
BRANCH   3   4
ATOM      4  C   UNL A   1      40.759  21.156  25.923  1.00  0.00     0.202 C 
BRANCH   4   5
ATOM      5  C   UNL A   1      39.440  21.878  26.250  1.00  0.00     0.261 C 
BRANCH   5   6
ATOM      6  O   UNL A   1      38.352  21.702  25.339  1.00  0.00    -0.460 OA
BRANCH   6   7
ATOM      7  C   UNL A   1      37.205  22.341  25.674  1.00  0.00     0.338 C 
ATOM      8  O   UNL A   1      37.106  23.443  26.187  1.00  0.00    -0.246 OA
BRANCH   7   9
ATOM      9  C   UNL A   1      36.047  21.567  25.180  1.00  0.00     0.087 C 
ATOM     10  C   UNL A   1      34.123  17.288  24.139  1.00  0.00     0.121 A 
ATOM     11  C   UNL A   1      33.063  17.910  23.483  1.00  0.00     0.070 A 
ATOM     12  C   UNL A   1      35.081  18.050  24.806  1.00  0.00     0.058 A 
ATOM     13  C   UNL A   1      32.975  19.303  23.486  1.00  0.00     0.087 A 
ATOM     14  C   UNL A   1      35.020  19.448  24.768  1.00  0.00     0.022 A 
ATOM     15  Cl  UNL A   1      31.652  20.038  22.653  1.00  0.00    -0.080 Cl
ATOM     16  C   UNL A   1      33.952  20.081  24.125  1.00  0.00     0.146 A 
ATOM     17  C   UNL A   1      36.100  20.238  25.333  1.00  0.00     0.027 C 
ATOM     18  O   UNL A   1      33.806  21.441  24.100  1.00  0.00    -0.474 OA
ATOM     19  C   UNL A   1      34.892  22.293  24.545  1.00  0.00     0.316 C 
BRANCH  10  20
ATOM     20  O   UNL A   1      34.255  15.928  24.210  1.00  0.00    -0.497 OA
ATOM     21  C   UNL A   1      33.294  15.327  25.078  1.00  0.00     0.278 C 
ENDBRANCH  10  20
BRANCH  19  22
ATOM     22  C   UNL A   1      35.339  23.171  23.369  1.00  0.00     0.430 C 
ATOM     23  F   UNL A   1      34.444  23.133  22.353  1.00  0.00    -0.167 F 
ATOM     24  F   UNL A   1      35.459  24.470  23.733  1.00  0.00    -0.167 F 
ATOM     25  F   UNL A   1      36.535  22.777  22.875  1.00  0.00    -0.167 F 
ENDBRANCH  19  22
ENDBRANCH   7   9
ENDBRANCH   6   7
ENDBRANCH   5   6
ENDBRANCH   4   5
ENDBRANCH   3   4
ENDBRANCH   2   3
ENDBRANCH   1   2
BRANCH   1  26
ATOM     26  O   UNL A   1      43.790  19.911  24.767  1.00  0.00    -0.376 OA
BRANCH  26  27
ATOM     27  C   UNL A   1      45.136  20.361  24.719  1.00  0.00     0.202 C 
BRANCH  27  28
ATOM     28  C   UNL A   1      45.509  21.852  24.616  1.00  0.00     0.261 C 
BRANCH  28  29
ATOM     29  O   UNL A   1      45.035  22.700  25.673  1.00  0.00    -0.460 OA
BRANCH  29  30
ATOM     30  C   UNL A   1      43.891  23.387  25.413  1.00  0.00     0.338 C 
ATOM     31  O   UNL A   1      43.122  23.231  24.486  1.00  0.00    -0.246 OA
BRANCH  30  32
ATOM     32  C   UNL A   1      43.603  24.274  26.558  1.00  0.00     0.060 A 
ATOM     33  C   UNL A   1      42.760  23.817  27.583  1.00  0.00     0.016 A 
ATOM     34  C   UNL A   1      44.146  25.557  26.605  1.00  0.00     0.016 A 
ATOM     35  C   UNL A   1      42.482  24.634  28.676  1.00  0.00     0.010 A 
ATOM     36  C   UNL A   1      43.826  26.394  27.676  1.00  0.00     0.010 A 
ATOM     37  C   UNL A   1      42.982  25.941  28.707  1.00  0.00    -0.014 A 
BRANCH  37  38
ATOM     38  C   UNL A   1      42.443  26.897  29.698  1.00  0.00     0.031 A 
ATOM     39  C   UNL A   1      43.177  27.049  31.000  1.00  0.00     0.074 A 
ATOM     40  C   UNL A   1      41.348  27.634  29.446  1.00  0.00     0.049 A 
ATOM     41  N   UNL A   1      42.891  27.810  32.024  1.00  0.00    -0.248 NA
ATOM     42  C   UNL A   1      44.399  26.244  31.167  1.00  0.00     0.031 C 
ATOM     43  C   UNL A   1      40.583  27.622  28.201  1.00  0.00     0.029 A 
ATOM     44  N   UNL A   1      40.692  28.545  30.238  1.00  0.00    -0.354 N 
ATOM     45  C   UNL A   1      43.900  27.580  32.949  1.00  0.00     0.074 A 
ATOM     46  C   UNL A   1      44.789  26.592  32.383  1.00  0.00     0.031 C 
ATOM     47  C   UNL A   1      39.558  28.487  28.314  1.00  0.00     0.029 A 
ATOM     48  C   UNL A   1      39.580  29.090  29.646  1.00  0.00     0.049 A 
ATOM     49  H   UNL A   1      40.991  28.786  31.144  1.00  0.00     0.167 HD
ATOM     50  C   UNL A   1      44.074  28.151  34.161  1.00  0.00     0.031 A 
ATOM     51  C   UNL A   1      38.675  29.967  30.128  1.00  0.00     0.031 A 
ATOM     52  C   UNL A   1      43.187  29.121  34.733  1.00  0.00     0.049 A 
ATOM     53  C   UNL A   1      38.832  30.511  31.524  1.00  0.00     0.074 A 
ATOM     54  C   UNL A   1      43.291  29.755  35.958  1.00  0.00     0.029 A 
ATOM     55  N   UNL A   1      42.034  29.590  34.128  1.00  0.00    -0.354 N 
ATOM     56  N   UNL A   1      39.797  30.296  32.385  1.00  0.00    -0.248 NA
ATOM     57  C   UNL A   1      37.780  31.414  32.016  1.00  0.00     0.031 C 
ATOM     58  C   UNL A   1      42.171  30.571  36.117  1.00  0.00     0.029 A 
ATOM     59  C   UNL A   1      41.401  30.486  34.968  1.00  0.00     0.049 A 
ATOM     60  H   UNL A   1      41.715  29.327  33.234  1.00  0.00     0.167 HD
ATOM     61  C   UNL A   1      39.480  31.051  33.509  1.00  0.00     0.074 A 
ATOM     62  C   UNL A   1      38.236  31.733  33.223  1.00  0.00     0.031 C 
ATOM     63  C   UNL A   1      40.166  31.165  34.671  1.00  0.00     0.031 A 
BRANCH  50  64
ATOM     64  C   UNL A   1      45.271  27.739  34.964  1.00  0.00    -0.014 A 
ATOM     65  C   UNL A   1      45.160  26.767  35.969  1.00  0.00     0.009 A 
ATOM     66  C   UNL A   1      46.537  28.253  34.643  1.00  0.00     0.009 A 
ATOM     67  C   UNL A   1      46.298  26.317  36.640  1.00  0.00     0.001 A 
ATOM     68  C   UNL A   1      47.674  27.786  35.300  1.00  0.00     0.001 A 
ATOM     69  C   UNL A   1      47.553  26.818  36.297  1.00  0.00     0.000 A 
ENDBRANCH  50  64
BRANCH  51  70
ATOM     70  C   UNL A   1      37.538  30.390  29.271  1.00  0.00    -0.014 A 
ATOM     71  C   UNL A   1      36.452  29.528  29.056  1.00  0.00     0.009 A 
ATOM     72  C   UNL A   1      37.512  31.671  28.697  1.00  0.00     0.009 A 
ATOM     73  C   UNL A   1      35.363  29.942  28.286  1.00  0.00     0.001 A 
ATOM     74  C   UNL A   1      36.412  32.089  27.944  1.00  0.00     0.001 A 
ATOM     75  C   UNL A   1      35.339  31.224  27.739  1.00  0.00     0.000 A 
ENDBRANCH  51  70
BRANCH  63  76
ATOM     76  C   UNL A   1      39.623  32.062  35.746  1.00  0.00    -0.014 A 
ATOM     77  C   UNL A   1      38.540  31.654  36.537  1.00  0.00     0.009 A 
ATOM     78  C   UNL A   1      40.317  33.236  36.086  1.00  0.00     0.009 A 
ATOM     79  C   UNL A   1      38.169  32.400  37.658  1.00  0.00     0.001 A 
ATOM     80  C   UNL A   1      39.956  33.966  37.220  1.00  0.00     0.001 A 
ATOM     81  C   UNL A   1      38.885  33.545  38.006  1.00  0.00     0.000 A 
ENDBRANCH  63  76
ENDBRANCH  37  38
ENDBRANCH  30  32
ENDBRANCH  29  30
ENDBRANCH  28  29
ENDBRANCH  27  28
ENDBRANCH  26  27
ENDBRANCH   1  26
TORSDOF 19
ENDMDL
MODEL 3
REMARK VINA RESULT:      -9.4      1.697      2.128
REMARK SMILES COc1cc(Cl)c2c(c1)C=C(C(=O)OCCOCCOCCOC(=O)c1ccc(-c3c4nc(c(-c5ccccc5)c5ccc([nH]5)c(-c5ccccc5)c5nc(c(-c6ccccc6)c6ccc3[nH]6)C=C5)C=C4)cc1)[C@@H](C(F)(F)F)O2
REMARK SMILES IDX 19 1 18 2 17 3 16 4 15 5 14 6 12 7 13 8 11 9 3 10 4 11 9 12
REMARK SMILES IDX 5 13 8 14 6 15 7 16 10 17 79 18 74 19 2 20 1 21 75 22 76 23
REMARK SMILES IDX 77 24 78 25 20 26 21 27 22 28 23 29 24 30 25 31 26 32 27 33
REMARK SMILES IDX 73 34 28 35 72 36 29 37 30 38 31 39 66 40 32 41 71 42 65 43
REMARK SMILES IDX 67 44 33 45 70 46 64 47 63 48 34 50 56 51 41 52 55 53 42 54
REMARK SMILES IDX 45 55 54 56 68 57 43 58 44 59 53 61 69 62 46 63 35 64 36 65
REMARK SMILES IDX 40 66 37 67 39 68 38 69 57 70 58 71 62 72 59 73 61 74 60 75
REMARK SMILES IDX 47 76 48 77 52 78 49 79 51 80 50 81
REMARK H PARENT 67 49 45 60
REMARK Flexibility Score: inf
ROOT
ATOM      1  C   UNL A   1      42.019  21.659  26.124  1.00  0.00     0.188 C 
ENDROOT
BRANCH   1   2
ATOM      2  C   UNL A   1      40.888  21.866  27.153  1.00  0.00     0.188 C 
BRANCH   2   3
ATOM      3  O   UNL A   1      39.593  21.424  26.826  1.00  0.00    -0.376 OA
BRANCH   3   4
ATOM      4  C   UNL A   1      38.625  22.307  26.290  1.00  0.00     0.202 C 
BRANCH   4   5
ATOM      5  C   UNL A   1      37.812  22.071  25.004  1.00  0.00     0.261 C 
BRANCH   5   6
ATOM      6  O   UNL A   1      36.635  22.861  24.818  1.00  0.00    -0.460 OA
BRANCH   6   7
ATOM      7  C   UNL A   1      35.475  22.165  24.738  1.00  0.00     0.338 C 
ATOM      8  O   UNL A   1      35.349  20.952  24.750  1.00  0.00    -0.246 OA
BRANCH   7   9
ATOM      9  C   UNL A   1      34.333  23.101  24.791  1.00  0.00     0.087 C 
ATOM     10  C   UNL A   1      32.583  27.483  23.881  1.00  0.00     0.121 A 
ATOM     11  C   UNL A   1      31.454  27.206  24.648  1.00  0.00     0.070 A 
ATOM     12  C   UNL A   1      33.536  26.494  23.649  1.00  0.00     0.058 A 
ATOM     13  C   UNL A   1      31.292  25.932  25.197  1.00  0.00     0.087 A 
ATOM     14  C   UNL A   1      33.399  25.232  24.240  1.00  0.00     0.022 A 
ATOM     15  Cl  UNL A   1      29.883  25.629  26.150  1.00  0.00    -0.080 Cl
ATOM     16  C   UNL A   1      32.262  24.939  24.999  1.00  0.00     0.146 A 
ATOM     17  C   UNL A   1      34.466  24.254  24.122  1.00  0.00     0.027 C 
ATOM     18  O   UNL A   1      32.042  23.709  25.555  1.00  0.00    -0.474 OA
ATOM     19  C   UNL A   1      33.105  22.722  25.573  1.00  0.00     0.316 C 
BRANCH  10  20
ATOM     20  O   UNL A   1      32.792  28.695  23.282  1.00  0.00    -0.497 OA
ATOM     21  C   UNL A   1      33.928  28.693  22.417  1.00  0.00     0.278 C 
ENDBRANCH  10  20
BRANCH  19  22
ATOM     22  C   UNL A   1      33.433  22.382  27.032  1.00  0.00     0.430 C 
ATOM     23  F   UNL A   1      34.654  22.849  27.388  1.00  0.00    -0.167 F 
ATOM     24  F   UNL A   1      32.541  22.934  27.888  1.00  0.00    -0.167 F 
ATOM     25  F   UNL A   1      33.428  21.047  27.249  1.00  0.00    -0.167 F 
ENDBRANCH  19  22
ENDBRANCH   7   9
ENDBRANCH   6   7
ENDBRANCH   5   6
ENDBRANCH   4   5
ENDBRANCH   3   4
ENDBRANCH   2   3
ENDBRANCH   1   2
BRANCH   1  26
ATOM     26  O   UNL A   1      42.494  22.748  25.359  1.00  0.00    -0.376 OA
BRANCH  26  27
ATOM     27  C   UNL A   1      43.571  22.532  24.459  1.00  0.00     0.202 C 
BRANCH  27  28
ATOM     28  C   UNL A   1      45.045  22.562  24.908  1.00  0.00     0.261 C 
BRANCH  28  29
ATOM     29  O   UNL A   1      45.361  23.444  25.995  1.00  0.00    -0.460 OA
BRANCH  29  30
ATOM     30  C   UNL A   1      45.402  24.768  25.690  1.00  0.00     0.338 C 
ATOM     31  O   UNL A   1      45.877  25.291  24.703  1.00  0.00    -0.246 OA
BRANCH  30  32
ATOM     32  C   UNL A   1      44.597  25.506  26.685  1.00  0.00     0.060 A 
ATOM     33  C   UNL A   1      44.687  26.905  26.738  1.00  0.00     0.016 A 
ATOM     34  C   UNL A   1      43.778  24.814  27.575  1.00  0.00     0.016 A 
ATOM     35  C   UNL A   1      43.931  27.621  27.663  1.00  0.00     0.010 A 
ATOM     36  C   UNL A   1      43.059  25.528  28.537  1.00  0.00     0.010 A 
ATOM     37  C   UNL A   1      43.145  26.931  28.593  1.00  0.00    -0.014 A 
BRANCH  37  38
ATOM     38  C   UNL A   1      42.594  27.663  29.754  1.00  0.00     0.031 A 
ATOM     39  C   UNL A   1      41.297  28.398  29.572  1.00  0.00     0.074 A 
ATOM     40  C   UNL A   1      43.207  27.655  30.951  1.00  0.00     0.049 A 
ATOM     41  N   UNL A   1      40.628  29.118  30.434  1.00  0.00    -0.248 NA
ATOM     42  C   UNL A   1      40.666  28.305  28.243  1.00  0.00     0.031 C 
ATOM     43  C   UNL A   1      44.435  26.931  31.271  1.00  0.00     0.029 A 
ATOM     44  N   UNL A   1      42.866  28.282  32.124  1.00  0.00    -0.354 N 
ATOM     45  C   UNL A   1      39.498  29.554  29.756  1.00  0.00     0.074 A 
ATOM     46  C   UNL A   1      39.581  29.046  28.406  1.00  0.00     0.031 C 
ATOM     47  C   UNL A   1      44.747  27.157  32.560  1.00  0.00     0.029 A 
ATOM     48  C   UNL A   1      43.757  28.061  33.146  1.00  0.00     0.049 A 
ATOM     49  H   UNL A   1      42.059  28.836  32.225  1.00  0.00     0.167 HD
ATOM     50  C   UNL A   1      38.476  30.304  30.221  1.00  0.00     0.031 A 
ATOM     51  C   UNL A   1      43.778  28.544  34.405  1.00  0.00     0.031 A 
ATOM     52  C   UNL A   1      38.397  30.823  31.556  1.00  0.00     0.049 A 
ATOM     53  C   UNL A   1      42.682  29.466  34.871  1.00  0.00     0.074 A 
ATOM     54  C   UNL A   1      37.391  31.592  32.114  1.00  0.00     0.029 A 
ATOM     55  N   UNL A   1      39.356  30.634  32.535  1.00  0.00    -0.354 N 
ATOM     56  N   UNL A   1      41.611  29.860  34.225  1.00  0.00    -0.248 NA
ATOM     57  C   UNL A   1      42.793  30.009  36.234  1.00  0.00     0.031 C 
ATOM     58  C   UNL A   1      37.768  31.914  33.417  1.00  0.00     0.029 A 
ATOM     59  C   UNL A   1      38.980  31.298  33.687  1.00  0.00     0.049 A 
ATOM     60  H   UNL A   1      40.180  30.106  32.428  1.00  0.00     0.167 HD
ATOM     61  C   UNL A   1      40.914  30.679  35.106  1.00  0.00     0.074 A 
ATOM     62  C   UNL A   1      41.678  30.723  36.334  1.00  0.00     0.031 C 
ATOM     63  C   UNL A   1      39.743  31.331  34.908  1.00  0.00     0.031 A 
BRANCH  50  64
ATOM     64  C   UNL A   1      37.354  30.621  29.280  1.00  0.00    -0.014 A 
ATOM     65  C   UNL A   1      36.418  29.638  28.925  1.00  0.00     0.009 A 
ATOM     66  C   UNL A   1      37.173  31.937  28.827  1.00  0.00     0.009 A 
ATOM     67  C   UNL A   1      35.320  29.969  28.130  1.00  0.00     0.001 A 
ATOM     68  C   UNL A   1      36.063  32.268  28.051  1.00  0.00     0.001 A 
ATOM     69  C   UNL A   1      35.138  31.284  27.704  1.00  0.00     0.000 A 
ENDBRANCH  50  64
BRANCH  51  70
ATOM     70  C   UNL A   1      44.882  28.152  35.319  1.00  0.00    -0.014 A 
ATOM     71  C   UNL A   1      46.050  28.925  35.392  1.00  0.00     0.009 A 
ATOM     72  C   UNL A   1      44.756  27.030  36.154  1.00  0.00     0.009 A 
ATOM     73  C   UNL A   1      47.070  28.581  36.283  1.00  0.00     0.001 A 
ATOM     74  C   UNL A   1      45.768  26.701  37.058  1.00  0.00     0.001 A 
ATOM     75  C   UNL A   1      46.925  27.477  37.122  1.00  0.00     0.000 A 
ENDBRANCH  51  70
BRANCH  63  76
ATOM     76  C   UNL A   1      39.176  32.153  36.028  1.00  0.00    -0.014 A 
ATOM     77  C   UNL A   1      39.431  33.530  36.104  1.00  0.00     0.009 A 
ATOM     78  C   UNL A   1      38.233  31.582  36.900  1.00  0.00     0.009 A 
ATOM     79  C   UNL A   1      38.744  34.322  37.026  1.00  0.00     0.001 A 
ATOM     80  C   UNL A   1      37.533  32.381  37.804  1.00  0.00     0.001 A 
ATOM     81  C   UNL A   1      37.787  33.750  37.864  1.00  0.00     0.000 A 
ENDBRANCH  63  76
ENDBRANCH  37  38
ENDBRANCH  30  32
ENDBRANCH  29  30
ENDBRANCH  28  29
ENDBRANCH  27  28
ENDBRANCH  26  27
ENDBRANCH   1  26
TORSDOF 19
ENDMDL
