MODEL 1
REMARK VINA RESULT:      -8.0      0.000      0.000
REMARK SMILES CC(C)[C@@H](CO)NC(=O)CC(C)(C)CC(=O)OCCOCCOCCOC(=O)c1ccc(-c2c3nc(c(-c4ccccc4)c4ccc([nH]4)c(-c4ccccc4)c4nc(c(-c5ccccc5)c5ccc2[nH]5)C=C4)C=C3)cc1
REMARK SMILES IDX 19 1 18 2 17 3 15 4 16 5 14 6 11 7 12 8 13 9 10 10 8 11 7 12
REMARK SMILES IDX 9 14 4 15 2 16 1 17 3 18 5 19 6 20 20 22 21 23 22 24 23 25
REMARK SMILES IDX 24 26 25 27 26 28 27 29 28 30 29 31 30 32 76 33 31 34 75 35
REMARK SMILES IDX 32 36 33 37 34 38 69 39 35 40 74 41 68 42 70 43 36 44 73 45
REMARK SMILES IDX 67 46 66 47 37 49 59 50 44 51 58 52 45 53 48 54 57 55 71 56
REMARK SMILES IDX 46 57 47 58 56 60 72 61 49 62 38 63 39 64 43 65 40 66 42 67
REMARK SMILES IDX 41 68 60 69 61 70 65 71 62 72 64 73 63 74 50 75 51 76 55 77
REMARK SMILES IDX 52 78 54 79 53 80
REMARK H PARENT 7 13 6 21 70 48 48 59
REMARK Flexibility Score: inf
ROOT
ATOM      1  C   UNL A   1      34.899  32.772  27.929  1.00  0.00     0.202 C 
ENDROOT
BRANCH   1   2
ATOM      2  C   UNL A   1      33.920  31.588  28.078  1.00  0.00     0.261 C 
BRANCH   2   3
ATOM      3  O   UNL A   1      33.461  31.059  26.807  1.00  0.00    -0.463 OA
BRANCH   3   4
ATOM      4  C   UNL A   1      32.148  30.719  26.707  1.00  0.00     0.306 C 
ATOM      5  O   UNL A   1      31.293  31.422  26.178  1.00  0.00    -0.252 OA
BRANCH   4   6
ATOM      6  C   UNL A   1      31.866  29.271  27.128  1.00  0.00     0.129 C 
BRANCH   6   7
ATOM      7  C   UNL A   1      32.379  28.060  26.295  1.00  0.00    -0.016 C 
ATOM      8  C   UNL A   1      33.911  27.968  26.405  1.00  0.00     0.012 C 
ATOM      9  C   UNL A   1      32.096  28.210  24.783  1.00  0.00     0.012 C 
BRANCH   7  10
ATOM     10  C   UNL A   1      31.751  26.697  26.730  1.00  0.00     0.107 C 
BRANCH  10  11
ATOM     11  C   UNL A   1      30.972  25.760  25.814  1.00  0.00     0.220 C 
ATOM     12  N   UNL A   1      31.499  24.631  25.278  1.00  0.00    -0.351 N 
ATOM     13  H   UNL A   1      31.171  23.749  25.569  1.00  0.00     0.163 HD
ATOM     14  O   UNL A   1      29.850  26.075  25.416  1.00  0.00    -0.275 OA
BRANCH  12  15
ATOM     15  C   UNL A   1      32.551  24.723  24.272  1.00  0.00     0.110 C 
BRANCH  15  16
ATOM     16  C   UNL A   1      33.822  23.924  24.670  1.00  0.00     0.007 C 
ATOM     17  C   UNL A   1      34.375  23.235  23.420  1.00  0.00     0.009 C 
ATOM     18  C   UNL A   1      34.930  24.734  25.358  1.00  0.00     0.009 C 
ENDBRANCH  15  16
BRANCH  15  19
ATOM     19  C   UNL A   1      31.992  24.254  22.897  1.00  0.00     0.181 C 
BRANCH  19  20
ATOM     20  O   UNL A   1      30.565  24.213  22.903  1.00  0.00    -0.394 OA
ATOM     21  H   UNL A   1      30.268  23.298  22.781  1.00  0.00     0.210 HD
ENDBRANCH  19  20
ENDBRANCH  15  19
ENDBRANCH  12  15
ENDBRANCH  10  11
ENDBRANCH   7  10
ENDBRANCH   6   7
ENDBRANCH   4   6
ENDBRANCH   3   4
ENDBRANCH   2   3
ENDBRANCH   1   2
BRANCH   1  22
ATOM     22  O   UNL A   1      35.162  33.528  29.116  1.00  0.00    -0.376 OA
BRANCH  22  23
ATOM     23  C   UNL A   1      34.023  34.056  29.779  1.00  0.00     0.188 C 
BRANCH  23  24
ATOM     24  C   UNL A   1      34.256  34.585  31.201  1.00  0.00     0.188 C 
BRANCH  24  25
ATOM     25  O   UNL A   1      33.597  33.882  32.243  1.00  0.00    -0.376 OA
BRANCH  25  26
ATOM     26  C   UNL A   1      34.419  33.098  33.108  1.00  0.00     0.202 C 
BRANCH  26  27
ATOM     27  C   UNL A   1      35.432  32.173  32.407  1.00  0.00     0.261 C 
BRANCH  27  28
ATOM     28  O   UNL A   1      36.583  31.799  33.193  1.00  0.00    -0.460 OA
BRANCH  28  29
ATOM     29  C   UNL A   1      37.665  32.606  33.106  1.00  0.00     0.338 C 
ATOM     30  O   UNL A   1      37.880  33.592  33.793  1.00  0.00    -0.246 OA
BRANCH  29  31
ATOM     31  C   UNL A   1      38.643  31.968  32.191  1.00  0.00     0.060 A 
ATOM     32  C   UNL A   1      39.597  31.095  32.722  1.00  0.00     0.016 A 
ATOM     33  C   UNL A   1      38.626  32.202  30.821  1.00  0.00     0.016 A 
ATOM     34  C   UNL A   1      40.596  30.535  31.936  1.00  0.00     0.010 A 
ATOM     35  C   UNL A   1      39.607  31.611  30.013  1.00  0.00     0.010 A 
ATOM     36  C   UNL A   1      40.621  30.806  30.571  1.00  0.00    -0.014 A 
BRANCH  36  37
ATOM     37  C   UNL A   1      41.779  30.372  29.752  1.00  0.00     0.031 A 
ATOM     38  C   UNL A   1      41.777  28.977  29.198  1.00  0.00     0.074 A 
ATOM     39  C   UNL A   1      42.798  31.205  29.470  1.00  0.00     0.049 A 
ATOM     40  N   UNL A   1      42.755  28.290  28.671  1.00  0.00    -0.248 NA
ATOM     41  C   UNL A   1      40.494  28.256  29.257  1.00  0.00     0.031 C 
ATOM     42  C   UNL A   1      42.867  32.624  29.823  1.00  0.00     0.029 A 
ATOM     43  N   UNL A   1      43.987  30.963  28.825  1.00  0.00    -0.354 N 
ATOM     44  C   UNL A   1      42.224  27.037  28.393  1.00  0.00     0.074 A 
ATOM     45  C   UNL A   1      40.838  27.059  28.808  1.00  0.00     0.031 C 
ATOM     46  C   UNL A   1      44.042  33.123  29.402  1.00  0.00     0.029 A 
ATOM     47  C   UNL A   1      44.839  32.042  28.830  1.00  0.00     0.049 A 
ATOM     48  H   UNL A   1      44.206  30.103  28.401  1.00  0.00     0.167 HD
ATOM     49  C   UNL A   1      42.844  25.964  27.849  1.00  0.00     0.031 A 
ATOM     50  C   UNL A   1      46.136  32.130  28.475  1.00  0.00     0.031 A 
ATOM     51  C   UNL A   1      44.217  25.968  27.420  1.00  0.00     0.049 A 
ATOM     52  C   UNL A   1      46.842  30.895  27.980  1.00  0.00     0.074 A 
ATOM     53  C   UNL A   1      44.950  24.935  26.865  1.00  0.00     0.029 A 
ATOM     54  N   UNL A   1      45.061  27.066  27.496  1.00  0.00    -0.354 N 
ATOM     55  N   UNL A   1      46.360  29.691  27.781  1.00  0.00    -0.248 NA
ATOM     56  C   UNL A   1      48.274  31.027  27.675  1.00  0.00     0.031 C 
ATOM     57  C   UNL A   1      46.256  25.390  26.662  1.00  0.00     0.029 A 
ATOM     58  C   UNL A   1      46.316  26.727  27.021  1.00  0.00     0.049 A 
ATOM     59  H   UNL A   1      44.805  27.954  27.834  1.00  0.00     0.167 HD
ATOM     60  C   UNL A   1      47.419  28.933  27.297  1.00  0.00     0.074 A 
ATOM     61  C   UNL A   1      48.566  29.814  27.223  1.00  0.00     0.031 C 
ATOM     62  C   UNL A   1      47.440  27.624  26.944  1.00  0.00     0.031 A 
BRANCH  49  63
ATOM     63  C   UNL A   1      42.063  24.683  27.756  1.00  0.00    -0.014 A 
ATOM     64  C   UNL A   1      42.245  23.633  28.668  1.00  0.00     0.009 A 
ATOM     65  C   UNL A   1      41.106  24.538  26.737  1.00  0.00     0.009 A 
ATOM     66  C   UNL A   1      41.512  22.449  28.538  1.00  0.00     0.001 A 
ATOM     67  C   UNL A   1      40.352  23.369  26.630  1.00  0.00     0.001 A 
ATOM     68  C   UNL A   1      40.564  22.322  27.524  1.00  0.00     0.000 A 
ENDBRANCH  49  63
BRANCH  50  69
ATOM     69  C   UNL A   1      46.874  33.412  28.643  1.00  0.00    -0.014 A 
ATOM     70  C   UNL A   1      47.520  33.717  29.850  1.00  0.00     0.009 A 
ATOM     71  C   UNL A   1      46.921  34.349  27.597  1.00  0.00     0.009 A 
ATOM     72  C   UNL A   1      48.179  34.939  30.013  1.00  0.00     0.001 A 
ATOM     73  C   UNL A   1      47.609  35.555  27.750  1.00  0.00     0.001 A 
ATOM     74  C   UNL A   1      48.228  35.854  28.961  1.00  0.00     0.000 A 
ENDBRANCH  50  69
BRANCH  62  75
ATOM     75  C   UNL A   1      48.724  27.077  26.384  1.00  0.00    -0.014 A 
ATOM     76  C   UNL A   1      49.652  26.407  27.193  1.00  0.00     0.009 A 
ATOM     77  C   UNL A   1      48.969  27.175  25.004  1.00  0.00     0.009 A 
ATOM     78  C   UNL A   1      50.812  25.868  26.635  1.00  0.00     0.001 A 
ATOM     79  C   UNL A   1      50.112  26.608  24.444  1.00  0.00     0.001 A 
ATOM     80  C   UNL A   1      51.038  25.961  25.261  1.00  0.00     0.000 A 
ENDBRANCH  62  75
ENDBRANCH  36  37
ENDBRANCH  29  31
ENDBRANCH  28  29
ENDBRANCH  27  28
ENDBRANCH  26  27
ENDBRANCH  25  26
ENDBRANCH  24  25
ENDBRANCH  23  24
ENDBRANCH  22  23
ENDBRANCH   1  22
TORSDOF 24
ENDMDL
MODEL 2
REMARK VINA RESULT:      -7.9      3.709      5.767
REMARK SMILES CC(C)[C@@H](CO)NC(=O)CC(C)(C)CC(=O)OCCOCCOCCOC(=O)c1ccc(-c2c3nc(c(-c4ccccc4)c4ccc([nH]4)c(-c4ccccc4)c4nc(c(-c5ccccc5)c5ccc2[nH]5)C=C4)C=C3)cc1
REMARK SMILES IDX 19 1 18 2 17 3 15 4 16 5 14 6 11 7 12 8 13 9 10 10 8 11 7 12
REMARK SMILES IDX 9 14 4 15 2 16 1 17 3 18 5 19 6 20 20 22 21 23 22 24 23 25
REMARK SMILES IDX 24 26 25 27 26 28 27 29 28 30 29 31 30 32 76 33 31 34 75 35
REMARK SMILES IDX 32 36 33 37 34 38 69 39 35 40 74 41 68 42 70 43 36 44 73 45
REMARK SMILES IDX 67 46 66 47 37 49 59 50 44 51 58 52 45 53 48 54 57 55 71 56
REMARK SMILES IDX 46 57 47 58 56 60 72 61 49 62 38 63 39 64 43 65 40 66 42 67
REMARK SMILES IDX 41 68 60 69 61 70 65 71 62 72 64 73 63 74 50 75 51 76 55 77
REMARK SMILES IDX 52 78 54 79 53 80
REMARK H PARENT 7 13 6 21 70 48 48 59
REMARK Flexibility Score: inf
ROOT
ATOM      1  C   UNL A   1      37.027  31.177  29.458  1.00  0.00     0.202 C 
ENDROOT
BRANCH   1   2
ATOM      2  C   UNL A   1      37.907  30.434  28.432  1.00  0.00     0.261 C 
BRANCH   2   3
ATOM      3  O   UNL A   1      39.019  29.724  29.039  1.00  0.00    -0.463 OA
BRANCH   3   4
ATOM      4  C   UNL A   1      39.425  28.569  28.444  1.00  0.00     0.306 C 
ATOM      5  O   UNL A   1      39.048  27.452  28.784  1.00  0.00    -0.252 OA
BRANCH   4   6
ATOM      6  C   UNL A   1      40.236  28.802  27.164  1.00  0.00     0.129 C 
BRANCH   6   7
ATOM      7  C   UNL A   1      41.541  28.007  26.864  1.00  0.00    -0.016 C 
ATOM      8  C   UNL A   1      42.093  27.408  28.169  1.00  0.00     0.012 C 
ATOM      9  C   UNL A   1      42.678  28.903  26.323  1.00  0.00     0.012 C 
BRANCH   7  10
ATOM     10  C   UNL A   1      41.343  26.863  25.819  1.00  0.00     0.107 C 
BRANCH  10  11
ATOM     11  C   UNL A   1      42.235  25.633  25.687  1.00  0.00     0.220 C 
ATOM     12  N   UNL A   1      41.802  24.369  25.923  1.00  0.00    -0.351 N 
ATOM     13  H   UNL A   1      41.725  23.729  25.178  1.00  0.00     0.163 HD
ATOM     14  O   UNL A   1      43.442  25.763  25.486  1.00  0.00    -0.275 OA
BRANCH  12  15
ATOM     15  C   UNL A   1      41.452  23.958  27.277  1.00  0.00     0.110 C 
BRANCH  15  16
ATOM     16  C   UNL A   1      40.026  23.348  27.360  1.00  0.00     0.007 C 
ATOM     17  C   UNL A   1      39.010  24.435  26.999  1.00  0.00     0.009 C 
ATOM     18  C   UNL A   1      39.784  22.097  26.504  1.00  0.00     0.009 C 
ENDBRANCH  15  16
BRANCH  15  19
ATOM     19  C   UNL A   1      42.527  22.965  27.809  1.00  0.00     0.181 C 
BRANCH  19  20
ATOM     20  O   UNL A   1      42.310  22.654  29.186  1.00  0.00    -0.394 OA
ATOM     21  H   UNL A   1      42.098  23.467  29.670  1.00  0.00     0.210 HD
ENDBRANCH  19  20
ENDBRANCH  15  19
ENDBRANCH  12  15
ENDBRANCH  10  11
ENDBRANCH   7  10
ENDBRANCH   6   7
ENDBRANCH   4   6
ENDBRANCH   3   4
ENDBRANCH   2   3
ENDBRANCH   1   2
BRANCH   1  22
ATOM     22  O   UNL A   1      35.628  31.245  29.159  1.00  0.00    -0.376 OA
BRANCH  22  23
ATOM     23  C   UNL A   1      34.931  32.357  29.704  1.00  0.00     0.188 C 
BRANCH  23  24
ATOM     24  C   UNL A   1      34.778  32.373  31.231  1.00  0.00     0.188 C 
BRANCH  24  25
ATOM     25  O   UNL A   1      34.308  33.587  31.797  1.00  0.00    -0.376 OA
BRANCH  25  26
ATOM     26  C   UNL A   1      34.129  33.608  33.213  1.00  0.00     0.202 C 
BRANCH  26  27
ATOM     27  C   UNL A   1      35.408  33.826  34.043  1.00  0.00     0.261 C 
BRANCH  27  28
ATOM     28  O   UNL A   1      36.127  32.628  34.406  1.00  0.00    -0.460 OA
BRANCH  28  29
ATOM     29  C   UNL A   1      37.270  32.797  35.109  1.00  0.00     0.338 C 
ATOM     30  O   UNL A   1      37.368  33.342  36.196  1.00  0.00    -0.246 OA
BRANCH  29  31
ATOM     31  C   UNL A   1      38.341  32.016  34.441  1.00  0.00     0.060 A 
ATOM     32  C   UNL A   1      39.675  32.279  34.767  1.00  0.00     0.016 A 
ATOM     33  C   UNL A   1      38.053  31.022  33.513  1.00  0.00     0.016 A 
ATOM     34  C   UNL A   1      40.727  31.649  34.115  1.00  0.00     0.010 A 
ATOM     35  C   UNL A   1      39.108  30.354  32.876  1.00  0.00     0.010 A 
ATOM     36  C   UNL A   1      40.451  30.691  33.145  1.00  0.00    -0.014 A 
BRANCH  36  37
ATOM     37  C   UNL A   1      41.549  30.145  32.310  1.00  0.00     0.031 A 
ATOM     38  C   UNL A   1      42.188  28.854  32.731  1.00  0.00     0.074 A 
ATOM     39  C   UNL A   1      41.951  30.756  31.181  1.00  0.00     0.049 A 
ATOM     40  N   UNL A   1      43.302  28.306  32.322  1.00  0.00    -0.248 NA
ATOM     41  C   UNL A   1      41.476  28.081  33.763  1.00  0.00     0.031 C 
ATOM     42  C   UNL A   1      41.329  31.937  30.579  1.00  0.00     0.029 A 
ATOM     43  N   UNL A   1      42.999  30.467  30.342  1.00  0.00    -0.354 N 
ATOM     44  C   UNL A   1      43.455  27.157  33.089  1.00  0.00     0.074 A 
ATOM     45  C   UNL A   1      42.323  27.087  33.986  1.00  0.00     0.031 C 
ATOM     46  C   UNL A   1      42.016  32.279  29.476  1.00  0.00     0.029 A 
ATOM     47  C   UNL A   1      43.171  31.396  29.343  1.00  0.00     0.049 A 
ATOM     48  H   UNL A   1      43.570  29.672  30.445  1.00  0.00     0.167 HD
ATOM     49  C   UNL A   1      44.460  26.251  33.052  1.00  0.00     0.031 A 
ATOM     50  C   UNL A   1      44.180  31.555  28.465  1.00  0.00     0.031 A 
ATOM     51  C   UNL A   1      45.568  26.324  32.137  1.00  0.00     0.049 A 
ATOM     52  C   UNL A   1      45.348  30.604  28.516  1.00  0.00     0.074 A 
ATOM     53  C   UNL A   1      46.646  25.467  32.018  1.00  0.00     0.029 A 
ATOM     54  N   UNL A   1      45.732  27.314  31.179  1.00  0.00    -0.354 N 
ATOM     55  N   UNL A   1      45.529  29.558  29.285  1.00  0.00    -0.248 NA
ATOM     56  C   UNL A   1      46.456  30.864  27.585  1.00  0.00     0.031 C 
ATOM     57  C   UNL A   1      47.495  25.972  31.030  1.00  0.00     0.029 A 
ATOM     58  C   UNL A   1      46.909  27.103  30.482  1.00  0.00     0.049 A 
ATOM     59  H   UNL A   1      45.105  28.055  31.018  1.00  0.00     0.167 HD
ATOM     60  C   UNL A   1      46.753  29.017  28.911  1.00  0.00     0.074 A 
ATOM     61  C   UNL A   1      47.265  29.844  27.838  1.00  0.00     0.031 C 
ATOM     62  C   UNL A   1      47.394  27.932  29.409  1.00  0.00     0.031 A 
BRANCH  49  63
ATOM     63  C   UNL A   1      44.440  25.149  34.074  1.00  0.00    -0.014 A 
ATOM     64  C   UNL A   1      43.911  23.881  33.790  1.00  0.00     0.009 A 
ATOM     65  C   UNL A   1      44.987  25.386  35.346  1.00  0.00     0.009 A 
ATOM     66  C   UNL A   1      43.895  22.886  34.772  1.00  0.00     0.001 A 
ATOM     67  C   UNL A   1      45.000  24.381  36.313  1.00  0.00     0.001 A 
ATOM     68  C   UNL A   1      44.445  23.135  36.029  1.00  0.00     0.000 A 
ENDBRANCH  49  63
BRANCH  50  69
ATOM     69  C   UNL A   1      44.173  32.699  27.513  1.00  0.00    -0.014 A 
ATOM     70  C   UNL A   1      43.855  32.508  26.160  1.00  0.00     0.009 A 
ATOM     71  C   UNL A   1      44.503  33.993  27.951  1.00  0.00     0.009 A 
ATOM     72  C   UNL A   1      43.889  33.580  25.265  1.00  0.00     0.001 A 
ATOM     73  C   UNL A   1      44.501  35.070  27.062  1.00  0.00     0.001 A 
ATOM     74  C   UNL A   1      44.204  34.861  25.717  1.00  0.00     0.000 A 
ENDBRANCH  50  69
BRANCH  62  75
ATOM     75  C   UNL A   1      48.690  27.534  28.760  1.00  0.00    -0.014 A 
ATOM     76  C   UNL A   1      48.723  26.700  27.633  1.00  0.00     0.009 A 
ATOM     77  C   UNL A   1      49.896  28.065  29.249  1.00  0.00     0.009 A 
ATOM     78  C   UNL A   1      49.940  26.387  27.024  1.00  0.00     0.001 A 
ATOM     79  C   UNL A   1      51.105  27.778  28.620  1.00  0.00     0.001 A 
ATOM     80  C   UNL A   1      51.128  26.932  27.512  1.00  0.00     0.000 A 
ENDBRANCH  62  75
ENDBRANCH  36  37
ENDBRANCH  29  31
ENDBRANCH  28  29
ENDBRANCH  27  28
ENDBRANCH  26  27
ENDBRANCH  25  26
ENDBRANCH  24  25
ENDBRANCH  23  24
ENDBRANCH  22  23
ENDBRANCH   1  22
TORSDOF 24
ENDMDL
MODEL 3
REMARK VINA RESULT:      -7.9      3.898      9.677
REMARK SMILES CC(C)[C@@H](CO)NC(=O)CC(C)(C)CC(=O)OCCOCCOCCOC(=O)c1ccc(-c2c3nc(c(-c4ccccc4)c4ccc([nH]4)c(-c4ccccc4)c4nc(c(-c5ccccc5)c5ccc2[nH]5)C=C4)C=C3)cc1
REMARK SMILES IDX 19 1 18 2 17 3 15 4 16 5 14 6 11 7 12 8 13 9 10 10 8 11 7 12
REMARK SMILES IDX 9 14 4 15 2 16 1 17 3 18 5 19 6 20 20 22 21 23 22 24 23 25
REMARK SMILES IDX 24 26 25 27 26 28 27 29 28 30 29 31 30 32 76 33 31 34 75 35
REMARK SMILES IDX 32 36 33 37 34 38 69 39 35 40 74 41 68 42 70 43 36 44 73 45
REMARK SMILES IDX 67 46 66 47 37 49 59 50 44 51 58 52 45 53 48 54 57 55 71 56
REMARK SMILES IDX 46 57 47 58 56 60 72 61 49 62 38 63 39 64 43 65 40 66 42 67
REMARK SMILES IDX 41 68 60 69 61 70 65 71 62 72 64 73 63 74 50 75 51 76 55 77
REMARK SMILES IDX 52 78 54 79 53 80
REMARK H PARENT 7 13 6 21 70 48 48 59
REMARK Flexibility Score: inf
ROOT
ATOM      1  C   UNL A   1      41.235  32.668  36.630  1.00  0.00     0.202 C 
ENDROOT
BRANCH   1   2
ATOM      2  C   UNL A   1      41.839  31.253  36.752  1.00  0.00     0.261 C 
BRANCH   2   3
ATOM      3  O   UNL A   1      42.141  30.646  35.468  1.00  0.00    -0.463 OA
BRANCH   3   4
ATOM      4  C   UNL A   1      41.380  29.586  35.082  1.00  0.00     0.306 C 
ATOM      5  O   UNL A   1      40.413  29.167  35.710  1.00  0.00    -0.252 OA
BRANCH   4   6
ATOM      6  C   UNL A   1      41.712  29.089  33.669  1.00  0.00     0.129 C 
BRANCH   6   7
ATOM      7  C   UNL A   1      42.847  28.056  33.408  1.00  0.00    -0.016 C 
ATOM      8  C   UNL A   1      44.208  28.774  33.399  1.00  0.00     0.012 C 
ATOM      9  C   UNL A   1      42.740  27.385  32.020  1.00  0.00     0.012 C 
BRANCH   7  10
ATOM     10  C   UNL A   1      42.886  26.899  34.457  1.00  0.00     0.107 C 
BRANCH  10  11
ATOM     11  C   UNL A   1      43.844  26.821  35.641  1.00  0.00     0.220 C 
ATOM     12  N   UNL A   1      44.807  25.873  35.761  1.00  0.00    -0.351 N 
ATOM     13  H   UNL A   1      45.756  26.125  35.698  1.00  0.00     0.163 HD
ATOM     14  O   UNL A   1      43.685  27.557  36.615  1.00  0.00    -0.275 OA
BRANCH  12  15
ATOM     15  C   UNL A   1      44.435  24.480  35.982  1.00  0.00     0.110 C 
BRANCH  15  16
ATOM     16  C   UNL A   1      44.712  23.589  34.740  1.00  0.00     0.007 C 
ATOM     17  C   UNL A   1      43.372  23.219  34.099  1.00  0.00     0.009 C 
ATOM     18  C   UNL A   1      45.653  24.188  33.686  1.00  0.00     0.009 C 
ENDBRANCH  15  16
BRANCH  15  19
ATOM     19  C   UNL A   1      45.174  23.944  37.244  1.00  0.00     0.181 C 
BRANCH  19  20
ATOM     20  O   UNL A   1      44.371  24.087  38.415  1.00  0.00    -0.394 OA
ATOM     21  H   UNL A   1      44.895  23.852  39.197  1.00  0.00     0.210 HD
ENDBRANCH  19  20
ENDBRANCH  15  19
ENDBRANCH  12  15
ENDBRANCH  10  11
ENDBRANCH   7  10
ENDBRANCH   6   7
ENDBRANCH   4   6
ENDBRANCH   3   4
ENDBRANCH   2   3
ENDBRANCH   1   2
BRANCH   1  22
ATOM     22  O   UNL A   1      40.438  32.917  35.466  1.00  0.00    -0.376 OA
BRANCH  22  23
ATOM     23  C   UNL A   1      39.055  32.613  35.586  1.00  0.00     0.188 C 
BRANCH  23  24
ATOM     24  C   UNL A   1      38.092  33.804  35.486  1.00  0.00     0.188 C 
BRANCH  24  25
ATOM     25  O   UNL A   1      36.735  33.535  35.801  1.00  0.00    -0.376 OA
BRANCH  25  26
ATOM     26  C   UNL A   1      35.757  33.991  34.867  1.00  0.00     0.202 C 
BRANCH  26  27
ATOM     27  C   UNL A   1      35.988  33.575  33.402  1.00  0.00     0.261 C 
BRANCH  27  28
ATOM     28  O   UNL A   1      35.546  32.246  33.055  1.00  0.00    -0.460 OA
BRANCH  28  29
ATOM     29  C   UNL A   1      35.273  32.020  31.749  1.00  0.00     0.338 C 
ATOM     30  O   UNL A   1      34.342  32.495  31.120  1.00  0.00    -0.246 OA
BRANCH  29  31
ATOM     31  C   UNL A   1      36.416  31.278  31.162  1.00  0.00     0.060 A 
ATOM     32  C   UNL A   1      37.189  30.457  31.989  1.00  0.00     0.016 A 
ATOM     33  C   UNL A   1      36.729  31.364  29.810  1.00  0.00     0.016 A 
ATOM     34  C   UNL A   1      38.324  29.806  31.523  1.00  0.00     0.010 A 
ATOM     35  C   UNL A   1      37.851  30.681  29.322  1.00  0.00     0.010 A 
ATOM     36  C   UNL A   1      38.678  29.930  30.183  1.00  0.00    -0.014 A 
BRANCH  36  37
ATOM     37  C   UNL A   1      39.980  29.400  29.710  1.00  0.00     0.031 A 
ATOM     38  C   UNL A   1      41.153  30.335  29.664  1.00  0.00     0.074 A 
ATOM     39  C   UNL A   1      40.135  28.109  29.362  1.00  0.00     0.049 A 
ATOM     40  N   UNL A   1      42.310  30.187  29.074  1.00  0.00    -0.248 NA
ATOM     41  C   UNL A   1      40.995  31.614  30.374  1.00  0.00     0.031 C 
ATOM     42  C   UNL A   1      39.122  27.061  29.489  1.00  0.00     0.029 A 
ATOM     43  N   UNL A   1      41.216  27.464  28.813  1.00  0.00    -0.354 N 
ATOM     44  C   UNL A   1      42.992  31.379  29.288  1.00  0.00     0.074 A 
ATOM     45  C   UNL A   1      42.122  32.236  30.062  1.00  0.00     0.031 C 
ATOM     46  C   UNL A   1      39.624  25.907  29.018  1.00  0.00     0.029 A 
ATOM     47  C   UNL A   1      40.958  26.154  28.481  1.00  0.00     0.049 A 
ATOM     48  H   UNL A   1      42.089  27.895  28.672  1.00  0.00     0.167 HD
ATOM     49  C   UNL A   1      44.230  31.726  28.865  1.00  0.00     0.031 A 
ATOM     50  C   UNL A   1      41.688  25.277  27.765  1.00  0.00     0.031 A 
ATOM     51  C   UNL A   1      45.091  30.851  28.115  1.00  0.00     0.049 A 
ATOM     52  C   UNL A   1      43.015  25.719  27.204  1.00  0.00     0.074 A 
ATOM     53  C   UNL A   1      46.361  31.101  27.628  1.00  0.00     0.029 A 
ATOM     54  N   UNL A   1      44.769  29.552  27.751  1.00  0.00    -0.354 N 
ATOM     55  N   UNL A   1      43.632  26.868  27.347  1.00  0.00    -0.248 NA
ATOM     56  C   UNL A   1      43.739  24.748  26.370  1.00  0.00     0.031 C 
ATOM     57  C   UNL A   1      46.782  29.975  26.914  1.00  0.00     0.029 A 
ATOM     58  C   UNL A   1      45.805  28.997  27.022  1.00  0.00     0.049 A 
ATOM     59  H   UNL A   1      43.929  29.093  27.979  1.00  0.00     0.167 HD
ATOM     60  C   UNL A   1      44.828  26.746  26.650  1.00  0.00     0.074 A 
ATOM     61  C   UNL A   1      44.855  25.409  26.095  1.00  0.00     0.031 C 
ATOM     62  C   UNL A   1      45.817  27.659  26.488  1.00  0.00     0.031 A 
BRANCH  49  63
ATOM     63  C   UNL A   1      44.692  33.129  29.143  1.00  0.00    -0.014 A 
ATOM     64  C   UNL A   1      45.416  33.458  30.299  1.00  0.00     0.009 A 
ATOM     65  C   UNL A   1      44.411  34.138  28.208  1.00  0.00     0.009 A 
ATOM     66  C   UNL A   1      45.814  34.778  30.531  1.00  0.00     0.001 A 
ATOM     67  C   UNL A   1      44.839  35.449  28.426  1.00  0.00     0.001 A 
ATOM     68  C   UNL A   1      45.530  35.769  29.592  1.00  0.00     0.000 A 
ENDBRANCH  49  63
BRANCH  50  69
ATOM     69  C   UNL A   1      41.154  23.919  27.474  1.00  0.00    -0.014 A 
ATOM     70  C   UNL A   1      40.125  23.736  26.538  1.00  0.00     0.009 A 
ATOM     71  C   UNL A   1      41.661  22.794  28.146  1.00  0.00     0.009 A 
ATOM     72  C   UNL A   1      39.602  22.463  26.298  1.00  0.00     0.001 A 
ATOM     73  C   UNL A   1      41.162  21.518  27.879  1.00  0.00     0.001 A 
ATOM     74  C   UNL A   1      40.125  21.354  26.963  1.00  0.00     0.000 A 
ENDBRANCH  50  69
BRANCH  62  75
ATOM     75  C   UNL A   1      47.042  27.228  25.732  1.00  0.00    -0.014 A 
ATOM     76  C   UNL A   1      47.189  27.487  24.361  1.00  0.00     0.009 A 
ATOM     77  C   UNL A   1      48.098  26.613  26.426  1.00  0.00     0.009 A 
ATOM     78  C   UNL A   1      48.360  27.117  23.697  1.00  0.00     0.001 A 
ATOM     79  C   UNL A   1      49.278  26.274  25.766  1.00  0.00     0.001 A 
ATOM     80  C   UNL A   1      49.406  26.518  24.401  1.00  0.00     0.000 A 
ENDBRANCH  62  75
ENDBRANCH  36  37
ENDBRANCH  29  31
ENDBRANCH  28  29
ENDBRANCH  27  28
ENDBRANCH  26  27
ENDBRANCH  25  26
ENDBRANCH  24  25
ENDBRANCH  23  24
ENDBRANCH  22  23
ENDBRANCH   1  22
TORSDOF 24
ENDMDL
