MODEL 1
REMARK VINA RESULT:     -10.5      0.000      0.000
REMARK SMILES Cc1cc(C)c2c(c1)C=C(C(=O)OCCOCCOCCOC(=O)c1ccc(-c3c4nc(c(-c5ccccc5)c5ccc([nH]5)c(-c5ccccc5)c5nc(c(-c6ccccc6)c6ccc3[nH]6)C=C5)C=C4)cc1)[C@@H](C(F)(F)F)O2
REMARK SMILES IDX 18 1 17 2 16 3 15 4 14 5 13 6 11 7 12 8 10 9 1 10 2 11 3 12
REMARK SMILES IDX 8 13 4 14 7 15 5 16 6 17 9 18 78 19 73 20 74 21 75 22 76 23
REMARK SMILES IDX 77 24 19 25 20 26 21 27 22 28 23 29 24 30 25 31 26 32 72 33
REMARK SMILES IDX 27 34 71 35 28 36 29 37 30 38 65 39 31 40 70 41 64 42 66 43
REMARK SMILES IDX 32 44 69 45 63 46 62 47 33 49 55 50 40 51 54 52 41 53 44 54
REMARK SMILES IDX 53 55 67 56 42 57 43 58 52 60 68 61 45 62 34 63 35 64 39 65
REMARK SMILES IDX 36 66 38 67 37 68 56 69 57 70 61 71 58 72 60 73 59 74 46 75
REMARK SMILES IDX 47 76 51 77 48 78 50 79 49 80
REMARK H PARENT 66 48 44 59
REMARK Flexibility Score: inf
ROOT
ATOM      1  C   UNL A   1      40.771  21.138  27.369  1.00  0.00     0.188 C 
ENDROOT
BRANCH   1   2
ATOM      2  C   UNL A   1      39.955  21.494  26.108  1.00  0.00     0.188 C 
BRANCH   2   3
ATOM      3  O   UNL A   1      38.535  21.517  26.153  1.00  0.00    -0.376 OA
BRANCH   3   4
ATOM      4  C   UNL A   1      37.778  21.562  24.951  1.00  0.00     0.202 C 
BRANCH   4   5
ATOM      5  C   UNL A   1      37.010  22.833  24.557  1.00  0.00     0.261 C 
BRANCH   5   6
ATOM      6  O   UNL A   1      35.625  22.629  24.240  1.00  0.00    -0.460 OA
BRANCH   6   7
ATOM      7  C   UNL A   1      34.759  22.816  25.263  1.00  0.00     0.338 C 
ATOM      8  O   UNL A   1      34.771  22.252  26.344  1.00  0.00    -0.246 OA
BRANCH   7   9
ATOM      9  C   UNL A   1      33.854  23.939  24.947  1.00  0.00     0.087 C 
ATOM     10  C   UNL A   1      32.004  29.346  27.238  1.00  0.00     0.044 C 
ATOM     11  C   UNL A   1      32.026  28.198  26.272  1.00  0.00    -0.050 A 
ATOM     12  C   UNL A   1      31.067  28.089  25.258  1.00  0.00     0.010 A 
ATOM     13  C   UNL A   1      32.991  27.193  26.403  1.00  0.00     0.015 A 
ATOM     14  C   UNL A   1      31.074  27.001  24.370  1.00  0.00    -0.008 A 
ATOM     15  C   UNL A   1      32.995  26.092  25.539  1.00  0.00     0.018 A 
ATOM     16  C   UNL A   1      30.014  26.893  23.310  1.00  0.00     0.048 C 
ATOM     17  C   UNL A   1      32.059  26.011  24.506  1.00  0.00     0.130 A 
ATOM     18  C   UNL A   1      33.921  24.997  25.765  1.00  0.00     0.027 C 
ATOM     19  O   UNL A   1      32.038  24.989  23.597  1.00  0.00    -0.475 OA
ATOM     20  C   UNL A   1      32.930  23.854  23.764  1.00  0.00     0.316 C 
BRANCH  20  21
ATOM     21  C   UNL A   1      32.078  22.579  23.774  1.00  0.00     0.430 C 
ATOM     22  F   UNL A   1      31.261  22.524  22.694  1.00  0.00    -0.167 F 
ATOM     23  F   UNL A   1      32.843  21.462  23.734  1.00  0.00    -0.167 F 
ATOM     24  F   UNL A   1      31.299  22.495  24.876  1.00  0.00    -0.167 F 
ENDBRANCH  20  21
ENDBRANCH   7   9
ENDBRANCH   6   7
ENDBRANCH   5   6
ENDBRANCH   4   5
ENDBRANCH   3   4
ENDBRANCH   2   3
ENDBRANCH   1   2
BRANCH   1  25
ATOM     25  O   UNL A   1      41.892  20.323  27.139  1.00  0.00    -0.376 OA
BRANCH  25  26
ATOM     26  C   UNL A   1      42.619  20.439  25.928  1.00  0.00     0.202 C 
BRANCH  26  27
ATOM     27  C   UNL A   1      43.610  21.571  25.581  1.00  0.00     0.261 C 
BRANCH  27  28
ATOM     28  O   UNL A   1      43.114  22.739  24.922  1.00  0.00    -0.460 OA
BRANCH  28  29
ATOM     29  C   UNL A   1      43.895  23.843  24.983  1.00  0.00     0.338 C 
ATOM     30  O   UNL A   1      44.871  24.098  24.304  1.00  0.00    -0.246 OA
BRANCH  29  31
ATOM     31  C   UNL A   1      43.260  24.803  25.910  1.00  0.00     0.060 A 
ATOM     32  C   UNL A   1      43.789  26.096  26.010  1.00  0.00     0.016 A 
ATOM     33  C   UNL A   1      42.165  24.419  26.685  1.00  0.00     0.016 A 
ATOM     34  C   UNL A   1      43.234  27.008  26.910  1.00  0.00     0.010 A 
ATOM     35  C   UNL A   1      41.627  25.325  27.602  1.00  0.00     0.010 A 
ATOM     36  C   UNL A   1      42.176  26.612  27.738  1.00  0.00    -0.014 A 
BRANCH  36  37
ATOM     37  C   UNL A   1      41.747  27.473  28.866  1.00  0.00     0.031 A 
ATOM     38  C   UNL A   1      42.498  27.379  30.166  1.00  0.00     0.074 A 
ATOM     39  C   UNL A   1      40.711  28.320  28.742  1.00  0.00     0.049 A 
ATOM     40  N   UNL A   1      42.246  27.959  31.311  1.00  0.00    -0.248 NA
ATOM     41  C   UNL A   1      43.694  26.521  30.172  1.00  0.00     0.031 C 
ATOM     42  C   UNL A   1      39.944  28.551  27.520  1.00  0.00     0.029 A 
ATOM     43  N   UNL A   1      40.119  29.138  29.674  1.00  0.00    -0.354 N 
ATOM     44  C   UNL A   1      43.247  27.531  32.174  1.00  0.00     0.074 A 
ATOM     45  C   UNL A   1      44.096  26.629  31.429  1.00  0.00     0.031 C 
ATOM     46  C   UNL A   1      38.974  29.446  27.780  1.00  0.00     0.029 A 
ATOM     47  C   UNL A   1      39.025  29.815  29.193  1.00  0.00     0.049 A 
ATOM     48  H   UNL A   1      40.448  29.230  30.597  1.00  0.00     0.167 HD
ATOM     49  C   UNL A   1      43.441  27.864  33.472  1.00  0.00     0.031 A 
ATOM     50  C   UNL A   1      38.150  30.618  29.829  1.00  0.00     0.031 A 
ATOM     51  C   UNL A   1      42.581  28.740  34.220  1.00  0.00     0.049 A 
ATOM     52  C   UNL A   1      38.327  30.889  31.301  1.00  0.00     0.074 A 
ATOM     53  C   UNL A   1      42.689  29.123  35.545  1.00  0.00     0.029 A 
ATOM     54  N   UNL A   1      41.458  29.368  33.710  1.00  0.00    -0.354 N 
ATOM     55  N   UNL A   1      39.269  30.471  32.112  1.00  0.00    -0.248 NA
ATOM     56  C   UNL A   1      37.323  31.752  31.942  1.00  0.00     0.031 C 
ATOM     57  C   UNL A   1      41.597  29.942  35.852  1.00  0.00     0.029 A 
ATOM     58  C   UNL A   1      40.851  30.123  34.699  1.00  0.00     0.049 A 
ATOM     59  H   UNL A   1      41.137  29.289  32.782  1.00  0.00     0.167 HD
ATOM     60  C   UNL A   1      38.992  31.047  33.346  1.00  0.00     0.074 A 
ATOM     61  C   UNL A   1      37.800  31.851  33.176  1.00  0.00     0.031 C 
ATOM     62  C   UNL A   1      39.670  30.926  34.514  1.00  0.00     0.031 A 
BRANCH  49  63
ATOM     63  C   UNL A   1      44.617  27.253  34.180  1.00  0.00    -0.014 A 
ATOM     64  C   UNL A   1      45.864  27.899  34.206  1.00  0.00     0.009 A 
ATOM     65  C   UNL A   1      44.459  26.052  34.889  1.00  0.00     0.009 A 
ATOM     66  C   UNL A   1      46.931  27.345  34.917  1.00  0.00     0.001 A 
ATOM     67  C   UNL A   1      45.519  25.516  35.621  1.00  0.00     0.001 A 
ATOM     68  C   UNL A   1      46.755  26.160  35.631  1.00  0.00     0.000 A 
ENDBRANCH  49  63
BRANCH  50  69
ATOM     69  C   UNL A   1      37.014  31.219  29.083  1.00  0.00    -0.014 A 
ATOM     70  C   UNL A   1      37.056  32.562  28.680  1.00  0.00     0.009 A 
ATOM     71  C   UNL A   1      35.876  30.456  28.775  1.00  0.00     0.009 A 
ATOM     72  C   UNL A   1      35.977  33.132  27.999  1.00  0.00     0.001 A 
ATOM     73  C   UNL A   1      34.812  31.020  28.067  1.00  0.00     0.001 A 
ATOM     74  C   UNL A   1      34.861  32.360  27.687  1.00  0.00     0.000 A 
ENDBRANCH  50  69
BRANCH  62  75
ATOM     75  C   UNL A   1      39.180  31.723  35.693  1.00  0.00    -0.014 A 
ATOM     76  C   UNL A   1      39.588  33.049  35.906  1.00  0.00     0.009 A 
ATOM     77  C   UNL A   1      38.244  31.151  36.570  1.00  0.00     0.009 A 
ATOM     78  C   UNL A   1      39.092  33.773  36.992  1.00  0.00     0.001 A 
ATOM     79  C   UNL A   1      37.725  31.888  37.635  1.00  0.00     0.001 A 
ATOM     80  C   UNL A   1      38.157  33.196  37.851  1.00  0.00     0.000 A 
ENDBRANCH  62  75
ENDBRANCH  36  37
ENDBRANCH  29  31
ENDBRANCH  28  29
ENDBRANCH  27  28
ENDBRANCH  26  27
ENDBRANCH  25  26
ENDBRANCH   1  25
TORSDOF 18
ENDMDL
MODEL 2
REMARK VINA RESULT:     -10.3      3.406      4.615
REMARK SMILES Cc1cc(C)c2c(c1)C=C(C(=O)OCCOCCOCCOC(=O)c1ccc(-c3c4nc(c(-c5ccccc5)c5ccc([nH]5)c(-c5ccccc5)c5nc(c(-c6ccccc6)c6ccc3[nH]6)C=C5)C=C4)cc1)[C@@H](C(F)(F)F)O2
REMARK SMILES IDX 18 1 17 2 16 3 15 4 14 5 13 6 11 7 12 8 10 9 1 10 2 11 3 12
REMARK SMILES IDX 8 13 4 14 7 15 5 16 6 17 9 18 78 19 73 20 74 21 75 22 76 23
REMARK SMILES IDX 77 24 19 25 20 26 21 27 22 28 23 29 24 30 25 31 26 32 72 33
REMARK SMILES IDX 27 34 71 35 28 36 29 37 30 38 65 39 31 40 70 41 64 42 66 43
REMARK SMILES IDX 32 44 69 45 63 46 62 47 33 49 55 50 40 51 54 52 41 53 44 54
REMARK SMILES IDX 53 55 67 56 42 57 43 58 52 60 68 61 45 62 34 63 35 64 39 65
REMARK SMILES IDX 36 66 38 67 37 68 56 69 57 70 61 71 58 72 60 73 59 74 46 75
REMARK SMILES IDX 47 76 51 77 48 78 50 79 49 80
REMARK H PARENT 66 48 44 59
REMARK Flexibility Score: inf
ROOT
ATOM      1  C   UNL A   1      36.182  20.366  24.981  1.00  0.00     0.188 C 
ENDROOT
BRANCH   1   2
ATOM      2  C   UNL A   1      35.068  21.241  25.593  1.00  0.00     0.188 C 
BRANCH   2   3
ATOM      3  O   UNL A   1      35.373  22.193  26.602  1.00  0.00    -0.376 OA
BRANCH   3   4
ATOM      4  C   UNL A   1      34.380  22.595  27.536  1.00  0.00     0.202 C 
BRANCH   4   5
ATOM      5  C   UNL A   1      32.924  22.129  27.378  1.00  0.00     0.261 C 
BRANCH   5   6
ATOM      6  O   UNL A   1      31.935  23.113  27.717  1.00  0.00    -0.460 OA
BRANCH   6   7
ATOM      7  C   UNL A   1      31.156  23.532  26.692  1.00  0.00     0.338 C 
ATOM      8  O   UNL A   1      30.055  23.102  26.387  1.00  0.00    -0.246 OA
BRANCH   7   9
ATOM      9  C   UNL A   1      31.765  24.718  26.058  1.00  0.00     0.087 C 
ATOM     10  C   UNL A   1      31.899  30.850  26.582  1.00  0.00     0.044 C 
ATOM     11  C   UNL A   1      32.212  29.517  25.970  1.00  0.00    -0.050 A 
ATOM     12  C   UNL A   1      32.848  29.424  24.727  1.00  0.00     0.010 A 
ATOM     13  C   UNL A   1      31.829  28.341  26.626  1.00  0.00     0.015 A 
ATOM     14  C   UNL A   1      33.117  28.175  24.144  1.00  0.00    -0.008 A 
ATOM     15  C   UNL A   1      32.070  27.090  26.045  1.00  0.00     0.018 A 
ATOM     16  C   UNL A   1      33.773  28.104  22.794  1.00  0.00     0.048 C 
ATOM     17  C   UNL A   1      32.740  27.005  24.823  1.00  0.00     0.130 A 
ATOM     18  C   UNL A   1      31.556  25.888  26.675  1.00  0.00     0.027 C 
ATOM     19  O   UNL A   1      33.053  25.815  24.224  1.00  0.00    -0.475 OA
ATOM     20  C   UNL A   1      32.564  24.570  24.794  1.00  0.00     0.316 C 
BRANCH  20  21
ATOM     21  C   UNL A   1      31.799  23.817  23.698  1.00  0.00     0.430 C 
ATOM     22  F   UNL A   1      30.505  24.215  23.639  1.00  0.00    -0.167 F 
ATOM     23  F   UNL A   1      32.327  24.040  22.471  1.00  0.00    -0.167 F 
ATOM     24  F   UNL A   1      31.803  22.480  23.902  1.00  0.00    -0.167 F 
ENDBRANCH  20  21
ENDBRANCH   7   9
ENDBRANCH   6   7
ENDBRANCH   5   6
ENDBRANCH   4   5
ENDBRANCH   3   4
ENDBRANCH   2   3
ENDBRANCH   1   2
BRANCH   1  25
ATOM     25  O   UNL A   1      37.343  21.062  24.604  1.00  0.00    -0.376 OA
BRANCH  25  26
ATOM     26  C   UNL A   1      38.512  20.979  25.402  1.00  0.00     0.202 C 
BRANCH  26  27
ATOM     27  C   UNL A   1      39.406  19.730  25.557  1.00  0.00     0.261 C 
BRANCH  27  28
ATOM     28  O   UNL A   1      40.450  19.751  26.535  1.00  0.00    -0.460 OA
BRANCH  28  29
ATOM     29  C   UNL A   1      41.706  19.954  26.072  1.00  0.00     0.338 C 
ATOM     30  O   UNL A   1      42.333  19.257  25.298  1.00  0.00    -0.246 OA
BRANCH  29  31
ATOM     31  C   UNL A   1      42.152  21.286  26.531  1.00  0.00     0.060 A 
ATOM     32  C   UNL A   1      42.165  21.558  27.905  1.00  0.00     0.016 A 
ATOM     33  C   UNL A   1      42.535  22.260  25.608  1.00  0.00     0.016 A 
ATOM     34  C   UNL A   1      42.541  22.823  28.361  1.00  0.00     0.010 A 
ATOM     35  C   UNL A   1      42.888  23.532  26.065  1.00  0.00     0.010 A 
ATOM     36  C   UNL A   1      42.866  23.827  27.440  1.00  0.00    -0.014 A 
BRANCH  36  37
ATOM     37  C   UNL A   1      43.017  25.232  27.888  1.00  0.00     0.031 A 
ATOM     38  C   UNL A   1      44.392  25.732  28.230  1.00  0.00     0.074 A 
ATOM     39  C   UNL A   1      41.954  26.049  27.992  1.00  0.00     0.049 A 
ATOM     40  N   UNL A   1      44.753  26.885  28.733  1.00  0.00    -0.248 NA
ATOM     41  C   UNL A   1      45.510  24.811  27.967  1.00  0.00     0.031 C 
ATOM     42  C   UNL A   1      40.581  25.706  27.629  1.00  0.00     0.029 A 
ATOM     43  N   UNL A   1      41.871  27.341  28.449  1.00  0.00    -0.354 N 
ATOM     44  C   UNL A   1      46.136  26.825  28.851  1.00  0.00     0.074 A 
ATOM     45  C   UNL A   1      46.548  25.518  28.389  1.00  0.00     0.031 C 
ATOM     46  C   UNL A   1      39.788  26.761  27.888  1.00  0.00     0.029 A 
ATOM     47  C   UNL A   1      40.589  27.833  28.474  1.00  0.00     0.049 A 
ATOM     48  H   UNL A   1      42.656  27.864  28.731  1.00  0.00     0.167 HD
ATOM     49  C   UNL A   1      46.987  27.776  29.302  1.00  0.00     0.031 A 
ATOM     50  C   UNL A   1      40.116  29.004  28.942  1.00  0.00     0.031 A 
ATOM     51  C   UNL A   1      46.576  29.066  29.786  1.00  0.00     0.049 A 
ATOM     52  C   UNL A   1      41.072  30.006  29.537  1.00  0.00     0.074 A 
ATOM     53  C   UNL A   1      47.364  30.090  30.279  1.00  0.00     0.029 A 
ATOM     54  N   UNL A   1      45.264  29.508  29.838  1.00  0.00    -0.354 N 
ATOM     55  N   UNL A   1      42.376  29.936  29.657  1.00  0.00    -0.248 NA
ATOM     56  C   UNL A   1      40.488  31.254  30.055  1.00  0.00     0.031 C 
ATOM     57  C   UNL A   1      46.523  31.133  30.681  1.00  0.00     0.029 A 
ATOM     58  C   UNL A   1      45.219  30.784  30.372  1.00  0.00     0.049 A 
ATOM     59  H   UNL A   1      44.480  28.991  29.541  1.00  0.00     0.167 HD
ATOM     60  C   UNL A   1      42.772  31.140  30.227  1.00  0.00     0.074 A 
ATOM     61  C   UNL A   1      41.571  31.926  30.422  1.00  0.00     0.031 C 
ATOM     62  C   UNL A   1      44.019  31.559  30.553  1.00  0.00     0.031 A 
BRANCH  49  63
ATOM     63  C   UNL A   1      48.453  27.448  29.323  1.00  0.00    -0.014 A 
ATOM     64  C   UNL A   1      49.285  27.774  28.239  1.00  0.00     0.009 A 
ATOM     65  C   UNL A   1      49.023  26.869  30.468  1.00  0.00     0.009 A 
ATOM     66  C   UNL A   1      50.656  27.513  28.299  1.00  0.00     0.001 A 
ATOM     67  C   UNL A   1      50.397  26.636  30.534  1.00  0.00     0.001 A 
ATOM     68  C   UNL A   1      51.211  26.954  29.449  1.00  0.00     0.000 A 
ENDBRANCH  49  63
BRANCH  50  69
ATOM     69  C   UNL A   1      38.660  29.296  28.880  1.00  0.00    -0.014 A 
ATOM     70  C   UNL A   1      38.078  29.778  27.697  1.00  0.00     0.009 A 
ATOM     71  C   UNL A   1      37.842  29.101  30.005  1.00  0.00     0.009 A 
ATOM     72  C   UNL A   1      36.713  30.073  27.647  1.00  0.00     0.001 A 
ATOM     73  C   UNL A   1      36.473  29.369  29.943  1.00  0.00     0.001 A 
ATOM     74  C   UNL A   1      35.911  29.863  28.767  1.00  0.00     0.000 A 
ENDBRANCH  50  69
BRANCH  62  75
ATOM     75  C   UNL A   1      44.167  32.952  31.103  1.00  0.00    -0.014 A 
ATOM     76  C   UNL A   1      44.292  34.067  30.259  1.00  0.00     0.009 A 
ATOM     77  C   UNL A   1      44.119  33.154  32.492  1.00  0.00     0.009 A 
ATOM     78  C   UNL A   1      44.397  35.350  30.798  1.00  0.00     0.001 A 
ATOM     79  C   UNL A   1      44.191  34.440  33.026  1.00  0.00     0.001 A 
ATOM     80  C   UNL A   1      44.340  35.538  32.179  1.00  0.00     0.000 A 
ENDBRANCH  62  75
ENDBRANCH  36  37
ENDBRANCH  29  31
ENDBRANCH  28  29
ENDBRANCH  27  28
ENDBRANCH  26  27
ENDBRANCH  25  26
ENDBRANCH   1  25
TORSDOF 18
ENDMDL
MODEL 3
REMARK VINA RESULT:     -10.2      3.542      7.081
REMARK SMILES Cc1cc(C)c2c(c1)C=C(C(=O)OCCOCCOCCOC(=O)c1ccc(-c3c4nc(c(-c5ccccc5)c5ccc([nH]5)c(-c5ccccc5)c5nc(c(-c6ccccc6)c6ccc3[nH]6)C=C5)C=C4)cc1)[C@@H](C(F)(F)F)O2
REMARK SMILES IDX 18 1 17 2 16 3 15 4 14 5 13 6 11 7 12 8 10 9 1 10 2 11 3 12
REMARK SMILES IDX 8 13 4 14 7 15 5 16 6 17 9 18 78 19 73 20 74 21 75 22 76 23
REMARK SMILES IDX 77 24 19 25 20 26 21 27 22 28 23 29 24 30 25 31 26 32 72 33
REMARK SMILES IDX 27 34 71 35 28 36 29 37 30 38 65 39 31 40 70 41 64 42 66 43
REMARK SMILES IDX 32 44 69 45 63 46 62 47 33 49 55 50 40 51 54 52 41 53 44 54
REMARK SMILES IDX 53 55 67 56 42 57 43 58 52 60 68 61 45 62 34 63 35 64 39 65
REMARK SMILES IDX 36 66 38 67 37 68 56 69 57 70 61 71 58 72 60 73 59 74 46 75
REMARK SMILES IDX 47 76 51 77 48 78 50 79 49 80
REMARK H PARENT 66 48 44 59
REMARK Flexibility Score: inf
ROOT
ATOM      1  C   UNL A   1      33.952  18.764  24.249  1.00  0.00     0.188 C 
ENDROOT
BRANCH   1   2
ATOM      2  C   UNL A   1      32.813  18.973  25.269  1.00  0.00     0.188 C 
BRANCH   2   3
ATOM      3  O   UNL A   1      31.904  20.055  25.120  1.00  0.00    -0.376 OA
BRANCH   3   4
ATOM      4  C   UNL A   1      32.334  21.392  25.337  1.00  0.00     0.202 C 
BRANCH   4   5
ATOM      5  C   UNL A   1      33.080  22.162  24.236  1.00  0.00     0.261 C 
BRANCH   5   6
ATOM      6  O   UNL A   1      34.065  23.091  24.711  1.00  0.00    -0.460 OA
BRANCH   6   7
ATOM      7  C   UNL A   1      34.658  23.849  23.759  1.00  0.00     0.338 C 
ATOM      8  O   UNL A   1      35.517  23.493  22.969  1.00  0.00    -0.246 OA
BRANCH   7   9
ATOM      9  C   UNL A   1      34.003  25.171  23.699  1.00  0.00     0.087 C 
ATOM     10  C   UNL A   1      31.995  29.659  27.405  1.00  0.00     0.044 C 
ATOM     11  C   UNL A   1      32.225  28.954  26.100  1.00  0.00    -0.050 A 
ATOM     12  C   UNL A   1      31.636  29.414  24.917  1.00  0.00     0.010 A 
ATOM     13  C   UNL A   1      33.006  27.793  26.062  1.00  0.00     0.015 A 
ATOM     14  C   UNL A   1      31.831  28.738  23.701  1.00  0.00    -0.008 A 
ATOM     15  C   UNL A   1      33.190  27.097  24.862  1.00  0.00     0.018 A 
ATOM     16  C   UNL A   1      31.162  29.236  22.451  1.00  0.00     0.048 C 
ATOM     17  C   UNL A   1      32.631  27.585  23.679  1.00  0.00     0.130 A 
ATOM     18  C   UNL A   1      33.896  25.829  24.860  1.00  0.00     0.027 C 
ATOM     19  O   UNL A   1      32.813  26.983  22.463  1.00  0.00    -0.475 OA
ATOM     20  C   UNL A   1      33.503  25.706  22.386  1.00  0.00     0.316 C 
BRANCH  20  21
ATOM     21  C   UNL A   1      32.585  24.715  21.659  1.00  0.00     0.430 C 
ATOM     22  F   UNL A   1      33.290  23.683  21.135  1.00  0.00    -0.167 F 
ATOM     23  F   UNL A   1      31.669  24.170  22.495  1.00  0.00    -0.167 F 
ATOM     24  F   UNL A   1      31.908  25.299  20.645  1.00  0.00    -0.167 F 
ENDBRANCH  20  21
ENDBRANCH   7   9
ENDBRANCH   6   7
ENDBRANCH   5   6
ENDBRANCH   4   5
ENDBRANCH   3   4
ENDBRANCH   2   3
ENDBRANCH   1   2
BRANCH   1  25
ATOM     25  O   UNL A   1      35.249  18.833  24.786  1.00  0.00    -0.376 OA
BRANCH  25  26
ATOM     26  C   UNL A   1      35.902  20.085  24.904  1.00  0.00     0.202 C 
BRANCH  26  27
ATOM     27  C   UNL A   1      37.426  20.314  24.817  1.00  0.00     0.261 C 
BRANCH  27  28
ATOM     28  O   UNL A   1      38.002  21.392  25.560  1.00  0.00    -0.460 OA
BRANCH  28  29
ATOM     29  C   UNL A   1      39.202  21.153  26.139  1.00  0.00     0.338 C 
ATOM     30  O   UNL A   1      39.831  20.112  26.139  1.00  0.00    -0.246 OA
BRANCH  29  31
ATOM     31  C   UNL A   1      39.731  22.438  26.641  1.00  0.00     0.060 A 
ATOM     32  C   UNL A   1      39.227  23.631  26.108  1.00  0.00     0.016 A 
ATOM     33  C   UNL A   1      40.730  22.459  27.615  1.00  0.00     0.016 A 
ATOM     34  C   UNL A   1      39.741  24.857  26.535  1.00  0.00     0.010 A 
ATOM     35  C   UNL A   1      41.260  23.686  28.023  1.00  0.00     0.010 A 
ATOM     36  C   UNL A   1      40.788  24.886  27.465  1.00  0.00    -0.014 A 
BRANCH  36  37
ATOM     37  C   UNL A   1      41.513  26.151  27.734  1.00  0.00     0.031 A 
ATOM     38  C   UNL A   1      40.847  27.191  28.592  1.00  0.00     0.074 A 
ATOM     39  C   UNL A   1      42.737  26.376  27.226  1.00  0.00     0.049 A 
ATOM     40  N   UNL A   1      41.244  28.404  28.882  1.00  0.00    -0.248 NA
ATOM     41  C   UNL A   1      39.565  26.811  29.209  1.00  0.00     0.031 C 
ATOM     42  C   UNL A   1      43.515  25.425  26.435  1.00  0.00     0.029 A 
ATOM     43  N   UNL A   1      43.534  27.492  27.295  1.00  0.00    -0.354 N 
ATOM     44  C   UNL A   1      40.260  28.932  29.708  1.00  0.00     0.074 A 
ATOM     45  C   UNL A   1      39.238  27.919  29.857  1.00  0.00     0.031 C 
ATOM     46  C   UNL A   1      44.677  26.003  26.083  1.00  0.00     0.029 A 
ATOM     47  C   UNL A   1      44.704  27.376  26.585  1.00  0.00     0.049 A 
ATOM     48  H   UNL A   1      43.291  28.297  27.806  1.00  0.00     0.167 HD
ATOM     49  C   UNL A   1      40.213  30.152  30.293  1.00  0.00     0.031 A 
ATOM     50  C   UNL A   1      45.670  28.283  26.346  1.00  0.00     0.031 A 
ATOM     51  C   UNL A   1      41.216  31.168  30.124  1.00  0.00     0.049 A 
ATOM     52  C   UNL A   1      45.544  29.670  26.921  1.00  0.00     0.074 A 
ATOM     53  C   UNL A   1      41.247  32.442  30.664  1.00  0.00     0.029 A 
ATOM     54  N   UNL A   1      42.362  31.028  29.359  1.00  0.00    -0.354 N 
ATOM     55  N   UNL A   1      44.604  30.165  27.690  1.00  0.00    -0.248 NA
ATOM     56  C   UNL A   1      46.620  30.622  26.601  1.00  0.00     0.031 C 
ATOM     57  C   UNL A   1      42.387  33.092  30.180  1.00  0.00     0.029 A 
ATOM     58  C   UNL A   1      43.099  32.198  29.398  1.00  0.00     0.049 A 
ATOM     59  H   UNL A   1      42.614  30.216  28.861  1.00  0.00     0.167 HD
ATOM     60  C   UNL A   1      44.992  31.469  27.976  1.00  0.00     0.074 A 
ATOM     61  C   UNL A   1      46.256  31.686  27.304  1.00  0.00     0.031 C 
ATOM     62  C   UNL A   1      44.360  32.399  28.732  1.00  0.00     0.031 A 
BRANCH  49  63
ATOM     63  C   UNL A   1      39.021  30.469  31.151  1.00  0.00    -0.014 A 
ATOM     64  C   UNL A   1      37.879  31.081  30.608  1.00  0.00     0.009 A 
ATOM     65  C   UNL A   1      39.013  30.089  32.502  1.00  0.00     0.009 A 
ATOM     66  C   UNL A   1      36.758  31.317  31.408  1.00  0.00     0.001 A 
ATOM     67  C   UNL A   1      37.881  30.301  33.290  1.00  0.00     0.001 A 
ATOM     68  C   UNL A   1      36.757  30.919  32.744  1.00  0.00     0.000 A 
ENDBRANCH  49  63
BRANCH  50  69
ATOM     69  C   UNL A   1      46.844  27.917  25.510  1.00  0.00    -0.014 A 
ATOM     70  C   UNL A   1      48.037  27.482  26.107  1.00  0.00     0.009 A 
ATOM     71  C   UNL A   1      46.781  28.007  24.110  1.00  0.00     0.009 A 
ATOM     72  C   UNL A   1      49.147  27.161  25.321  1.00  0.00     0.001 A 
ATOM     73  C   UNL A   1      47.882  27.656  23.325  1.00  0.00     0.001 A 
ATOM     74  C   UNL A   1      49.066  27.241  23.932  1.00  0.00     0.000 A 
ENDBRANCH  50  69
BRANCH  62  75
ATOM     75  C   UNL A   1      45.046  33.725  28.928  1.00  0.00    -0.014 A 
ATOM     76  C   UNL A   1      44.796  34.815  28.081  1.00  0.00     0.009 A 
ATOM     77  C   UNL A   1      45.911  33.898  30.021  1.00  0.00     0.009 A 
ATOM     78  C   UNL A   1      45.424  36.041  28.306  1.00  0.00     0.001 A 
ATOM     79  C   UNL A   1      46.511  35.134  30.263  1.00  0.00     0.001 A 
ATOM     80  C   UNL A   1      46.275  36.203  29.400  1.00  0.00     0.000 A 
ENDBRANCH  62  75
ENDBRANCH  36  37
ENDBRANCH  29  31
ENDBRANCH  28  29
ENDBRANCH  27  28
ENDBRANCH  26  27
ENDBRANCH  25  26
ENDBRANCH   1  25
TORSDOF 18
ENDMDL
