MODEL 1
REMARK VINA RESULT:     -11.8      0.000      0.000
REMARK SMILES CC(=O)O[C@@H]1CC[C@@]23C(=O)O[C@]4(CC[C@]2(O)C1)[C@H]3CC[C@]1(C)[C@H](C(=O)OCCOCCOCCOC(=O)c2ccc(-c3c5nc(c(-c6ccccc6)c6ccc([nH]6)c(-c6ccccc6)c6nc(c(-c7ccccc7)c7ccc3[nH]7)C=C6)C=C5)cc2)CC[C@@H]14
REMARK SMILES IDX 30 1 29 2 28 3 27 4 26 5 24 6 25 7 23 8 5 9 6 10 17 11 7 12
REMARK SMILES IDX 15 13 8 14 14 15 9 16 18 17 13 18 10 19 11 20 12 21 19 22
REMARK SMILES IDX 88 23 20 24 21 25 87 26 22 27 86 28 4 29 2 30 1 31 3 32
REMARK SMILES IDX 16 33 31 35 32 36 33 37 34 38 35 39 36 40 37 41 38 42 39 43
REMARK SMILES IDX 85 44 40 45 84 46 41 47 42 48 43 49 78 50 44 51 83 52 77 53
REMARK SMILES IDX 79 54 45 55 82 56 76 57 75 58 46 60 68 61 53 62 67 63 54 64
REMARK SMILES IDX 57 65 66 66 80 67 55 68 56 69 65 71 81 72 58 73 47 74 48 75
REMARK SMILES IDX 52 76 49 77 51 78 50 79 69 80 70 81 74 82 71 83 73 84 72 85
REMARK SMILES IDX 59 86 60 87 64 88 61 89 63 90 62 91
REMARK H PARENT 16 34 79 59 57 70
REMARK Flexibility Score: inf
ROOT
ATOM      1  C   UNL A   1      41.100  19.454  26.512  1.00  0.00     0.188 C 
ENDROOT
BRANCH   1   2
ATOM      2  O   UNL A   1      40.246  19.469  25.373  1.00  0.00    -0.376 OA
BRANCH   2   3
ATOM      3  C   UNL A   1      38.858  19.223  25.540  1.00  0.00     0.202 C 
BRANCH   3   4
ATOM      4  C   UNL A   1      37.926  20.327  25.026  1.00  0.00     0.261 C 
BRANCH   4   5
ATOM      5  O   UNL A   1      38.000  21.551  25.788  1.00  0.00    -0.463 OA
BRANCH   5   6
ATOM      6  C   UNL A   1      37.171  22.539  25.387  1.00  0.00     0.309 C 
ATOM      7  O   UNL A   1      37.395  23.731  25.589  1.00  0.00    -0.252 OA
BRANCH   6   8
ATOM      8  C   UNL A   1      35.953  22.108  24.557  1.00  0.00     0.105 C 
ATOM      9  C   UNL A   1      30.840  28.277  23.919  1.00  0.00     0.179 C 
ATOM     10  C   UNL A   1      32.286  27.916  23.680  1.00  0.00     0.047 C 
ATOM     11  C   UNL A   1      29.951  27.215  24.585  1.00  0.00     0.081 C 
ATOM     12  C   UNL A   1      32.450  26.420  23.573  1.00  0.00     0.026 C 
ATOM     13  C   UNL A   1      30.485  25.775  24.829  1.00  0.00     0.085 C 
ATOM     14  C   UNL A   1      31.942  25.580  25.014  1.00  0.00     0.103 C 
ATOM     15  C   UNL A   1      30.239  24.757  23.604  1.00  0.00     0.041 C 
ATOM     16  C   UNL A   1      33.317  25.633  25.468  1.00  0.00     0.316 C 
ATOM     17  C   UNL A   1      32.006  23.883  25.322  1.00  0.00     0.054 C 
ATOM     18  C   UNL A   1      31.574  23.899  23.078  1.00  0.00     0.052 C 
ATOM     19  O   UNL A   1      33.905  26.352  26.238  1.00  0.00    -0.251 OA
ATOM     20  O   UNL A   1      33.843  24.700  24.547  1.00  0.00    -0.458 OA
ATOM     21  C   UNL A   1      32.804  23.716  24.119  1.00  0.00     0.120 C 
ATOM     22  C   UNL A   1      32.648  23.192  26.550  1.00  0.00     0.009 C 
ATOM     23  C   UNL A   1      33.603  22.482  23.803  1.00  0.00     0.040 C 
ATOM     24  C   UNL A   1      34.087  22.654  26.371  1.00  0.00     0.008 C 
ATOM     25  C   UNL A   1      34.439  21.958  25.017  1.00  0.00    -0.013 C 
ATOM     26  C   UNL A   1      34.612  22.801  22.686  1.00  0.00     0.009 C 
ATOM     27  C   UNL A   1      34.032  20.463  25.083  1.00  0.00     0.013 C 
ATOM     28  C   UNL A   1      35.908  23.108  23.396  1.00  0.00     0.016 C 
BRANCH   9  29
ATOM     29  O   UNL A   1      30.231  28.990  22.799  1.00  0.00    -0.462 OA
BRANCH  29  30
ATOM     30  C   UNL A   1      29.443  30.087  22.801  1.00  0.00     0.302 C 
ATOM     31  C   UNL A   1      28.587  30.325  21.604  1.00  0.00     0.139 C 
ATOM     32  O   UNL A   1      29.353  30.807  23.790  1.00  0.00    -0.253 OA
ENDBRANCH  29  30
ENDBRANCH   9  29
BRANCH  13  33
ATOM     33  O   UNL A   1      29.764  25.275  25.962  1.00  0.00    -0.389 OA
ATOM     34  H   UNL A   1      28.880  25.673  25.983  1.00  0.00     0.211 HD
ENDBRANCH  13  33
ENDBRANCH   6   8
ENDBRANCH   5   6
ENDBRANCH   4   5
ENDBRANCH   3   4
ENDBRANCH   2   3
ENDBRANCH   1   2
BRANCH   1  35
ATOM     35  C   UNL A   1      42.599  19.198  26.355  1.00  0.00     0.188 C 
BRANCH  35  36
ATOM     36  O   UNL A   1      43.060  19.350  25.023  1.00  0.00    -0.376 OA
BRANCH  36  37
ATOM     37  C   UNL A   1      44.166  20.237  24.907  1.00  0.00     0.202 C 
BRANCH  37  38
ATOM     38  C   UNL A   1      43.924  21.438  25.825  1.00  0.00     0.261 C 
BRANCH  38  39
ATOM     39  O   UNL A   1      43.142  22.493  25.223  1.00  0.00    -0.460 OA
BRANCH  39  40
ATOM     40  C   UNL A   1      43.752  23.692  25.075  1.00  0.00     0.338 C 
ATOM     41  O   UNL A   1      44.602  23.984  24.251  1.00  0.00    -0.246 OA
BRANCH  40  42
ATOM     42  C   UNL A   1      43.079  24.682  25.948  1.00  0.00     0.060 A 
ATOM     43  C   UNL A   1      43.575  25.991  25.991  1.00  0.00     0.016 A 
ATOM     44  C   UNL A   1      41.993  24.319  26.744  1.00  0.00     0.016 A 
ATOM     45  C   UNL A   1      43.013  26.933  26.857  1.00  0.00     0.010 A 
ATOM     46  C   UNL A   1      41.442  25.256  27.626  1.00  0.00     0.010 A 
ATOM     47  C   UNL A   1      41.968  26.558  27.711  1.00  0.00    -0.014 A 
BRANCH  47  48
ATOM     48  C   UNL A   1      41.550  27.450  28.823  1.00  0.00     0.031 A 
ATOM     49  C   UNL A   1      42.297  27.368  30.129  1.00  0.00     0.074 A 
ATOM     50  C   UNL A   1      40.539  28.329  28.687  1.00  0.00     0.049 A 
ATOM     51  N   UNL A   1      42.042  27.954  31.272  1.00  0.00    -0.248 NA
ATOM     52  C   UNL A   1      43.493  26.510  30.144  1.00  0.00     0.031 C 
ATOM     53  C   UNL A   1      39.778  28.571  27.463  1.00  0.00     0.029 A 
ATOM     54  N   UNL A   1      39.977  29.181  29.608  1.00  0.00    -0.354 N 
ATOM     55  C   UNL A   1      43.040  27.528  32.141  1.00  0.00     0.074 A 
ATOM     56  C   UNL A   1      43.887  26.616  31.405  1.00  0.00     0.031 C 
ATOM     57  C   UNL A   1      38.836  29.499  27.712  1.00  0.00     0.029 A 
ATOM     58  C   UNL A   1      38.900  29.883  29.122  1.00  0.00     0.049 A 
ATOM     59  H   UNL A   1      40.313  29.278  30.528  1.00  0.00     0.167 HD
ATOM     60  C   UNL A   1      43.240  27.870  33.436  1.00  0.00     0.031 A 
ATOM     61  C   UNL A   1      38.044  30.713  29.751  1.00  0.00     0.031 A 
ATOM     62  C   UNL A   1      42.395  28.764  34.181  1.00  0.00     0.049 A 
ATOM     63  C   UNL A   1      38.221  30.985  31.225  1.00  0.00     0.074 A 
ATOM     64  C   UNL A   1      42.502  29.146  35.508  1.00  0.00     0.029 A 
ATOM     65  N   UNL A   1      41.290  29.418  33.663  1.00  0.00    -0.354 N 
ATOM     66  N   UNL A   1      39.156  30.565  32.042  1.00  0.00    -0.248 NA
ATOM     67  C   UNL A   1      37.216  31.852  31.863  1.00  0.00     0.031 C 
ATOM     68  C   UNL A   1      41.435  30.000  35.803  1.00  0.00     0.029 A 
ATOM     69  C   UNL A   1      40.699  30.193  34.646  1.00  0.00     0.049 A 
ATOM     70  H   UNL A   1      40.973  29.344  32.734  1.00  0.00     0.167 HD
ATOM     71  C   UNL A   1      38.875  31.146  33.274  1.00  0.00     0.074 A 
ATOM     72  C   UNL A   1      37.692  31.959  33.095  1.00  0.00     0.031 C 
ATOM     73  C   UNL A   1      39.535  31.015  34.450  1.00  0.00     0.031 A 
BRANCH  60  74
ATOM     74  C   UNL A   1      44.414  27.254  34.142  1.00  0.00    -0.014 A 
ATOM     75  C   UNL A   1      45.657  27.904  34.180  1.00  0.00     0.009 A 
ATOM     76  C   UNL A   1      44.263  26.033  34.816  1.00  0.00     0.009 A 
ATOM     77  C   UNL A   1      46.733  27.332  34.863  1.00  0.00     0.001 A 
ATOM     78  C   UNL A   1      45.331  25.476  35.520  1.00  0.00     0.001 A 
ATOM     79  C   UNL A   1      46.567  26.123  35.537  1.00  0.00     0.000 A 
ENDBRANCH  60  74
BRANCH  61  80
ATOM     80  C   UNL A   1      36.897  31.321  29.021  1.00  0.00    -0.014 A 
ATOM     81  C   UNL A   1      36.935  32.666  28.619  1.00  0.00     0.009 A 
ATOM     82  C   UNL A   1      35.726  30.581  28.793  1.00  0.00     0.009 A 
ATOM     83  C   UNL A   1      35.812  33.265  28.043  1.00  0.00     0.001 A 
ATOM     84  C   UNL A   1      34.618  31.174  28.186  1.00  0.00     0.001 A 
ATOM     85  C   UNL A   1      34.655  32.520  27.826  1.00  0.00     0.000 A 
ENDBRANCH  61  80
BRANCH  73  86
ATOM     86  C   UNL A   1      39.034  31.815  35.620  1.00  0.00    -0.014 A 
ATOM     87  C   UNL A   1      38.146  31.267  36.558  1.00  0.00     0.009 A 
ATOM     88  C   UNL A   1      39.492  33.129  35.806  1.00  0.00     0.009 A 
ATOM     89  C   UNL A   1      37.701  32.031  37.639  1.00  0.00     0.001 A 
ATOM     90  C   UNL A   1      39.069  33.881  36.903  1.00  0.00     0.001 A 
ATOM     91  C   UNL A   1      38.166  33.335  37.813  1.00  0.00     0.000 A 
ENDBRANCH  73  86
ENDBRANCH  47  48
ENDBRANCH  40  42
ENDBRANCH  39  40
ENDBRANCH  38  39
ENDBRANCH  37  38
ENDBRANCH  36  37
ENDBRANCH  35  36
ENDBRANCH   1  35
TORSDOF 20
ENDMDL
MODEL 2
REMARK VINA RESULT:     -11.7      3.953     10.111
REMARK SMILES CC(=O)O[C@@H]1CC[C@@]23C(=O)O[C@]4(CC[C@]2(O)C1)[C@H]3CC[C@]1(C)[C@H](C(=O)OCCOCCOCCOC(=O)c2ccc(-c3c5nc(c(-c6ccccc6)c6ccc([nH]6)c(-c6ccccc6)c6nc(c(-c7ccccc7)c7ccc3[nH]7)C=C6)C=C5)cc2)CC[C@@H]14
REMARK SMILES IDX 30 1 29 2 28 3 27 4 26 5 24 6 25 7 23 8 5 9 6 10 17 11 7 12
REMARK SMILES IDX 15 13 8 14 14 15 9 16 18 17 13 18 10 19 11 20 12 21 19 22
REMARK SMILES IDX 88 23 20 24 21 25 87 26 22 27 86 28 4 29 2 30 1 31 3 32
REMARK SMILES IDX 16 33 31 35 32 36 33 37 34 38 35 39 36 40 37 41 38 42 39 43
REMARK SMILES IDX 85 44 40 45 84 46 41 47 42 48 43 49 78 50 44 51 83 52 77 53
REMARK SMILES IDX 79 54 45 55 82 56 76 57 75 58 46 60 68 61 53 62 67 63 54 64
REMARK SMILES IDX 57 65 66 66 80 67 55 68 56 69 65 71 81 72 58 73 47 74 48 75
REMARK SMILES IDX 52 76 49 77 51 78 50 79 69 80 70 81 74 82 71 83 73 84 72 85
REMARK SMILES IDX 59 86 60 87 64 88 61 89 63 90 62 91
REMARK H PARENT 16 34 79 59 57 70
REMARK Flexibility Score: inf
ROOT
ATOM      1  C   UNL A   1      33.239  35.397  28.767  1.00  0.00     0.188 C 
ENDROOT
BRANCH   1   2
ATOM      2  O   UNL A   1      32.924  34.065  28.376  1.00  0.00    -0.376 OA
BRANCH   2   3
ATOM      3  C   UNL A   1      33.947  33.235  27.845  1.00  0.00     0.202 C 
BRANCH   3   4
ATOM      4  C   UNL A   1      33.759  31.731  28.073  1.00  0.00     0.261 C 
BRANCH   4   5
ATOM      5  O   UNL A   1      33.268  31.024  26.913  1.00  0.00    -0.463 OA
BRANCH   5   6
ATOM      6  C   UNL A   1      33.253  29.678  27.013  1.00  0.00     0.309 C 
ATOM      7  O   UNL A   1      34.084  29.039  27.656  1.00  0.00    -0.252 OA
BRANCH   6   8
ATOM      8  C   UNL A   1      32.062  28.962  26.358  1.00  0.00     0.105 C 
ATOM      9  C   UNL A   1      34.041  21.319  24.848  1.00  0.00     0.179 C 
ATOM     10  C   UNL A   1      34.000  22.326  25.973  1.00  0.00     0.047 C 
ATOM     11  C   UNL A   1      33.683  21.823  23.441  1.00  0.00     0.081 C 
ATOM     12  C   UNL A   1      33.055  23.455  25.642  1.00  0.00     0.026 C 
ATOM     13  C   UNL A   1      33.130  23.261  23.231  1.00  0.00     0.085 C 
ATOM     14  C   UNL A   1      33.513  24.317  24.198  1.00  0.00     0.103 C 
ATOM     15  C   UNL A   1      31.527  23.380  23.337  1.00  0.00     0.041 C 
ATOM     16  C   UNL A   1      34.230  25.250  25.043  1.00  0.00     0.316 C 
ATOM     17  C   UNL A   1      32.738  25.692  23.501  1.00  0.00     0.054 C 
ATOM     18  C   UNL A   1      30.941  24.569  24.356  1.00  0.00     0.052 C 
ATOM     19  O   UNL A   1      35.393  25.371  25.341  1.00  0.00    -0.251 OA
ATOM     20  O   UNL A   1      33.098  25.872  25.617  1.00  0.00    -0.458 OA
ATOM     21  C   UNL A   1      31.923  25.813  24.698  1.00  0.00     0.120 C 
ATOM     22  C   UNL A   1      33.409  27.032  23.113  1.00  0.00     0.009 C 
ATOM     23  C   UNL A   1      31.135  27.041  25.061  1.00  0.00     0.040 C 
ATOM     24  C   UNL A   1      33.304  28.185  24.140  1.00  0.00     0.008 C 
ATOM     25  C   UNL A   1      31.945  28.369  24.889  1.00  0.00    -0.013 C 
ATOM     26  C   UNL A   1      30.732  26.968  26.544  1.00  0.00     0.009 C 
ATOM     27  C   UNL A   1      30.991  29.233  24.023  1.00  0.00     0.013 C 
ATOM     28  C   UNL A   1      31.776  27.771  27.281  1.00  0.00     0.016 C 
BRANCH   9  29
ATOM     29  O   UNL A   1      33.473  20.024  25.213  1.00  0.00    -0.462 OA
BRANCH  29  30
ATOM     30  C   UNL A   1      33.640  18.815  24.634  1.00  0.00     0.302 C 
ATOM     31  C   UNL A   1      32.441  18.162  24.038  1.00  0.00     0.139 C 
ATOM     32  O   UNL A   1      34.754  18.316  24.507  1.00  0.00    -0.253 OA
ENDBRANCH  29  30
ENDBRANCH   9  29
BRANCH  13  33
ATOM     33  O   UNL A   1      33.508  23.638  21.901  1.00  0.00    -0.389 OA
ATOM     34  H   UNL A   1      33.268  22.928  21.285  1.00  0.00     0.211 HD
ENDBRANCH  13  33
ENDBRANCH   6   8
ENDBRANCH   5   6
ENDBRANCH   4   5
ENDBRANCH   3   4
ENDBRANCH   2   3
ENDBRANCH   1   2
BRANCH   1  35
ATOM     35  C   UNL A   1      32.834  35.917  30.147  1.00  0.00     0.188 C 
BRANCH  35  36
ATOM     36  O   UNL A   1      33.072  34.987  31.191  1.00  0.00    -0.376 OA
BRANCH  36  37
ATOM     37  C   UNL A   1      34.405  34.491  31.212  1.00  0.00     0.202 C 
BRANCH  37  38
ATOM     38  C   UNL A   1      35.108  35.044  32.454  1.00  0.00     0.261 C 
BRANCH  38  39
ATOM     39  O   UNL A   1      36.377  34.417  32.743  1.00  0.00    -0.460 OA
BRANCH  39  40
ATOM     40  C   UNL A   1      36.335  33.154  33.227  1.00  0.00     0.338 C 
ATOM     41  O   UNL A   1      35.570  32.720  34.071  1.00  0.00    -0.246 OA
BRANCH  40  42
ATOM     42  C   UNL A   1      37.240  32.303  32.422  1.00  0.00     0.060 A 
ATOM     43  C   UNL A   1      38.131  31.450  33.085  1.00  0.00     0.016 A 
ATOM     44  C   UNL A   1      37.240  32.366  31.028  1.00  0.00     0.016 A 
ATOM     45  C   UNL A   1      39.050  30.684  32.362  1.00  0.00     0.010 A 
ATOM     46  C   UNL A   1      38.173  31.616  30.305  1.00  0.00     0.010 A 
ATOM     47  C   UNL A   1      39.105  30.796  30.967  1.00  0.00    -0.014 A 
BRANCH  47  48
ATOM     48  C   UNL A   1      40.244  30.216  30.210  1.00  0.00     0.031 A 
ATOM     49  C   UNL A   1      41.469  31.066  29.994  1.00  0.00     0.074 A 
ATOM     50  C   UNL A   1      40.213  28.959  29.731  1.00  0.00     0.049 A 
ATOM     51  N   UNL A   1      42.532  30.826  29.270  1.00  0.00    -0.248 NA
ATOM     52  C   UNL A   1      41.496  32.363  30.692  1.00  0.00     0.031 C 
ATOM     53  C   UNL A   1      39.129  27.998  29.927  1.00  0.00     0.029 A 
ATOM     54  N   UNL A   1      41.131  28.279  28.967  1.00  0.00    -0.354 N 
ATOM     55  C   UNL A   1      43.348  31.941  29.418  1.00  0.00     0.074 A 
ATOM     56  C   UNL A   1      42.648  32.870  30.278  1.00  0.00     0.031 C 
ATOM     57  C   UNL A   1      39.438  26.856  29.287  1.00  0.00     0.029 A 
ATOM     58  C   UNL A   1      40.718  27.021  28.599  1.00  0.00     0.049 A 
ATOM     59  H   UNL A   1      42.002  28.657  28.706  1.00  0.00     0.167 HD
ATOM     60  C   UNL A   1      44.575  32.172  28.893  1.00  0.00     0.031 A 
ATOM     61  C   UNL A   1      41.291  26.121  27.775  1.00  0.00     0.031 A 
ATOM     62  C   UNL A   1      45.273  31.262  28.026  1.00  0.00     0.049 A 
ATOM     63  C   UNL A   1      42.604  26.453  27.110  1.00  0.00     0.074 A 
ATOM     64  C   UNL A   1      46.508  31.425  27.420  1.00  0.00     0.029 A 
ATOM     65  N   UNL A   1      44.798  30.019  27.644  1.00  0.00    -0.354 N 
ATOM     66  N   UNL A   1      43.359  27.516  27.243  1.00  0.00    -0.248 NA
ATOM     67  C   UNL A   1      43.145  25.451  26.176  1.00  0.00     0.031 C 
ATOM     68  C   UNL A   1      46.761  30.295  26.637  1.00  0.00     0.029 A 
ATOM     69  C   UNL A   1      45.710  29.407  26.802  1.00  0.00     0.049 A 
ATOM     70  H   UNL A   1      43.941  29.629  27.929  1.00  0.00     0.167 HD
ATOM     71  C   UNL A   1      44.475  27.294  26.444  1.00  0.00     0.074 A 
ATOM     72  C   UNL A   1      44.308  25.989  25.841  1.00  0.00     0.031 C 
ATOM     73  C   UNL A   1      45.542  28.099  26.225  1.00  0.00     0.031 A 
BRANCH  60  74
ATOM     74  C   UNL A   1      45.236  33.479  29.227  1.00  0.00    -0.014 A 
ATOM     75  C   UNL A   1      44.946  34.643  28.499  1.00  0.00     0.009 A 
ATOM     76  C   UNL A   1      46.122  33.557  30.312  1.00  0.00     0.009 A 
ATOM     77  C   UNL A   1      45.549  35.857  28.838  1.00  0.00     0.001 A 
ATOM     78  C   UNL A   1      46.702  34.776  30.666  1.00  0.00     0.001 A 
ATOM     79  C   UNL A   1      46.420  35.923  29.925  1.00  0.00     0.000 A 
ENDBRANCH  60  74
BRANCH  61  80
ATOM     80  C   UNL A   1      40.618  24.826  27.475  1.00  0.00    -0.014 A 
ATOM     81  C   UNL A   1      41.149  23.615  27.947  1.00  0.00     0.009 A 
ATOM     82  C   UNL A   1      39.485  24.790  26.647  1.00  0.00     0.009 A 
ATOM     83  C   UNL A   1      40.584  22.396  27.563  1.00  0.00     0.001 A 
ATOM     84  C   UNL A   1      38.902  23.571  26.294  1.00  0.00     0.001 A 
ATOM     85  C   UNL A   1      39.462  22.375  26.738  1.00  0.00     0.000 A 
ENDBRANCH  61  80
BRANCH  73  86
ATOM     86  C   UNL A   1      46.643  27.571  25.348  1.00  0.00    -0.014 A 
ATOM     87  C   UNL A   1      46.757  27.952  24.003  1.00  0.00     0.009 A 
ATOM     88  C   UNL A   1      47.606  26.705  25.893  1.00  0.00     0.009 A 
ATOM     89  C   UNL A   1      47.793  27.449  23.212  1.00  0.00     0.001 A 
ATOM     90  C   UNL A   1      48.657  26.229  25.109  1.00  0.00     0.001 A 
ATOM     91  C   UNL A   1      48.744  26.593  23.766  1.00  0.00     0.000 A 
ENDBRANCH  73  86
ENDBRANCH  47  48
ENDBRANCH  40  42
ENDBRANCH  39  40
ENDBRANCH  38  39
ENDBRANCH  37  38
ENDBRANCH  36  37
ENDBRANCH  35  36
ENDBRANCH   1  35
TORSDOF 20
ENDMDL
MODEL 3
REMARK VINA RESULT:     -11.6      3.341      9.381
REMARK SMILES CC(=O)O[C@@H]1CC[C@@]23C(=O)O[C@]4(CC[C@]2(O)C1)[C@H]3CC[C@]1(C)[C@H](C(=O)OCCOCCOCCOC(=O)c2ccc(-c3c5nc(c(-c6ccccc6)c6ccc([nH]6)c(-c6ccccc6)c6nc(c(-c7ccccc7)c7ccc3[nH]7)C=C6)C=C5)cc2)CC[C@@H]14
REMARK SMILES IDX 30 1 29 2 28 3 27 4 26 5 24 6 25 7 23 8 5 9 6 10 17 11 7 12
REMARK SMILES IDX 15 13 8 14 14 15 9 16 18 17 13 18 10 19 11 20 12 21 19 22
REMARK SMILES IDX 88 23 20 24 21 25 87 26 22 27 86 28 4 29 2 30 1 31 3 32
REMARK SMILES IDX 16 33 31 35 32 36 33 37 34 38 35 39 36 40 37 41 38 42 39 43
REMARK SMILES IDX 85 44 40 45 84 46 41 47 42 48 43 49 78 50 44 51 83 52 77 53
REMARK SMILES IDX 79 54 45 55 82 56 76 57 75 58 46 60 68 61 53 62 67 63 54 64
REMARK SMILES IDX 57 65 66 66 80 67 55 68 56 69 65 71 81 72 58 73 47 74 48 75
REMARK SMILES IDX 52 76 49 77 51 78 50 79 69 80 70 81 74 82 71 83 73 84 72 85
REMARK SMILES IDX 59 86 60 87 64 88 61 89 63 90 62 91
REMARK H PARENT 16 34 79 59 57 70
REMARK Flexibility Score: inf
ROOT
ATOM      1  C   UNL A   1      29.752  32.005  24.267  1.00  0.00     0.188 C 
ENDROOT
BRANCH   1   2
ATOM      2  O   UNL A   1      28.695  31.142  23.862  1.00  0.00    -0.376 OA
BRANCH   2   3
ATOM      3  C   UNL A   1      28.635  30.701  22.513  1.00  0.00     0.202 C 
BRANCH   3   4
ATOM      4  C   UNL A   1      29.853  29.911  22.023  1.00  0.00     0.261 C 
BRANCH   4   5
ATOM      5  O   UNL A   1      29.640  28.483  21.977  1.00  0.00    -0.463 OA
BRANCH   5   6
ATOM      6  C   UNL A   1      30.358  27.758  22.861  1.00  0.00     0.309 C 
ATOM      7  O   UNL A   1      29.912  27.380  23.943  1.00  0.00    -0.252 OA
BRANCH   6   8
ATOM      8  C   UNL A   1      31.759  27.325  22.406  1.00  0.00     0.105 C 
ATOM      9  C   UNL A   1      33.428  20.067  25.429  1.00  0.00     0.179 C 
ATOM     10  C   UNL A   1      32.383  20.793  24.617  1.00  0.00     0.047 C 
ATOM     11  C   UNL A   1      34.579  20.906  26.004  1.00  0.00     0.081 C 
ATOM     12  C   UNL A   1      32.958  22.052  24.015  1.00  0.00     0.026 C 
ATOM     13  C   UNL A   1      34.746  22.401  25.607  1.00  0.00     0.085 C 
ATOM     14  C   UNL A   1      33.540  23.170  25.219  1.00  0.00     0.103 C 
ATOM     15  C   UNL A   1      35.645  22.644  24.293  1.00  0.00     0.041 C 
ATOM     16  C   UNL A   1      32.244  23.816  25.173  1.00  0.00     0.316 C 
ATOM     17  C   UNL A   1      34.223  24.734  24.961  1.00  0.00     0.054 C 
ATOM     18  C   UNL A   1      34.978  23.623  23.113  1.00  0.00     0.052 C 
ATOM     19  O   UNL A   1      31.266  23.755  25.876  1.00  0.00    -0.251 OA
ATOM     20  O   UNL A   1      32.382  24.397  23.893  1.00  0.00    -0.458 OA
ATOM     21  C   UNL A   1      33.817  24.659  23.568  1.00  0.00     0.120 C 
ATOM     22  C   UNL A   1      33.775  26.057  25.630  1.00  0.00     0.009 C 
ATOM     23  C   UNL A   1      33.754  25.843  22.644  1.00  0.00     0.040 C 
ATOM     24  C   UNL A   1      32.809  26.953  24.819  1.00  0.00     0.008 C 
ATOM     25  C   UNL A   1      33.062  27.092  23.284  1.00  0.00    -0.013 C 
ATOM     26  C   UNL A   1      32.923  25.476  21.402  1.00  0.00     0.009 C 
ATOM     27  C   UNL A   1      34.102  28.215  23.031  1.00  0.00     0.013 C 
ATOM     28  C   UNL A   1      31.533  25.989  21.687  1.00  0.00     0.016 C 
BRANCH   9  29
ATOM     29  O   UNL A   1      33.818  18.782  24.852  1.00  0.00    -0.462 OA
BRANCH  29  30
ATOM     30  C   UNL A   1      33.061  17.701  24.564  1.00  0.00     0.302 C 
ATOM     31  C   UNL A   1      33.570  16.758  23.528  1.00  0.00     0.139 C 
ATOM     32  O   UNL A   1      32.044  17.445  25.201  1.00  0.00    -0.253 OA
ENDBRANCH  29  30
ENDBRANCH   9  29
BRANCH  13  33
ATOM     33  O   UNL A   1      35.408  23.030  26.712  1.00  0.00    -0.389 OA
ATOM     34  H   UNL A   1      34.781  23.139  27.444  1.00  0.00     0.211 HD
ENDBRANCH  13  33
ENDBRANCH   6   8
ENDBRANCH   5   6
ENDBRANCH   4   5
ENDBRANCH   3   4
ENDBRANCH   2   3
ENDBRANCH   1   2
BRANCH   1  35
ATOM     35  C   UNL A   1      30.676  31.613  25.421  1.00  0.00     0.188 C 
BRANCH  35  36
ATOM     36  O   UNL A   1      31.147  30.278  25.336  1.00  0.00    -0.376 OA
BRANCH  36  37
ATOM     37  C   UNL A   1      32.529  30.147  25.646  1.00  0.00     0.202 C 
BRANCH  37  38
ATOM     38  C   UNL A   1      32.810  30.915  26.940  1.00  0.00     0.261 C 
BRANCH  38  39
ATOM     39  O   UNL A   1      33.770  30.276  27.810  1.00  0.00    -0.460 OA
BRANCH  39  40
ATOM     40  C   UNL A   1      34.700  31.075  28.381  1.00  0.00     0.338 C 
ATOM     41  O   UNL A   1      34.516  32.175  28.874  1.00  0.00    -0.246 OA
BRANCH  40  42
ATOM     42  C   UNL A   1      35.969  30.322  28.504  1.00  0.00     0.060 A 
ATOM     43  C   UNL A   1      36.260  29.683  29.716  1.00  0.00     0.016 A 
ATOM     44  C   UNL A   1      36.882  30.271  27.450  1.00  0.00     0.016 A 
ATOM     45  C   UNL A   1      37.479  29.022  29.894  1.00  0.00     0.010 A 
ATOM     46  C   UNL A   1      38.111  29.628  27.635  1.00  0.00     0.010 A 
ATOM     47  C   UNL A   1      38.431  29.028  28.866  1.00  0.00    -0.014 A 
BRANCH  47  48
ATOM     48  C   UNL A   1      39.824  28.584  29.129  1.00  0.00     0.031 A 
ATOM     49  C   UNL A   1      40.767  29.543  29.808  1.00  0.00     0.074 A 
ATOM     50  C   UNL A   1      40.253  27.354  28.791  1.00  0.00     0.049 A 
ATOM     51  N   UNL A   1      42.051  29.428  30.034  1.00  0.00    -0.248 NA
ATOM     52  C   UNL A   1      40.179  30.800  30.299  1.00  0.00     0.031 C 
ATOM     53  C   UNL A   1      39.435  26.298  28.199  1.00  0.00     0.029 A 
ATOM     54  N   UNL A   1      41.503  26.792  28.897  1.00  0.00    -0.354 N 
ATOM     55  C   UNL A   1      42.424  30.599  30.684  1.00  0.00     0.074 A 
ATOM     56  C   UNL A   1      41.239  31.421  30.793  1.00  0.00     0.031 C 
ATOM     57  C   UNL A   1      40.209  25.219  27.979  1.00  0.00     0.029 A 
ATOM     58  C   UNL A   1      41.583  25.524  28.373  1.00  0.00     0.049 A 
ATOM     59  H   UNL A   1      42.269  27.254  29.308  1.00  0.00     0.167 HD
ATOM     60  C   UNL A   1      43.642  30.957  31.156  1.00  0.00     0.031 A 
ATOM     61  C   UNL A   1      42.649  24.717  28.200  1.00  0.00     0.031 A 
ATOM     62  C   UNL A   1      44.828  30.153  31.040  1.00  0.00     0.049 A 
ATOM     63  C   UNL A   1      44.017  25.190  28.630  1.00  0.00     0.074 A 
ATOM     64  C   UNL A   1      46.114  30.447  31.461  1.00  0.00     0.029 A 
ATOM     65  N   UNL A   1      44.872  28.895  30.462  1.00  0.00    -0.354 N 
ATOM     66  N   UNL A   1      44.361  26.304  29.228  1.00  0.00    -0.248 NA
ATOM     67  C   UNL A   1      45.146  24.285  28.358  1.00  0.00     0.031 C 
ATOM     68  C   UNL A   1      46.945  29.383  31.100  1.00  0.00     0.029 A 
ATOM     69  C   UNL A   1      46.166  28.404  30.506  1.00  0.00     0.049 A 
ATOM     70  H   UNL A   1      44.100  28.421  30.079  1.00  0.00     0.167 HD
ATOM     71  C   UNL A   1      45.734  26.216  29.436  1.00  0.00     0.074 A 
ATOM     72  C   UNL A   1      46.157  24.934  28.916  1.00  0.00     0.031 C 
ATOM     73  C   UNL A   1      46.570  27.118  30.005  1.00  0.00     0.031 A 
BRANCH  60  74
ATOM     74  C   UNL A   1      43.758  32.296  31.828  1.00  0.00    -0.014 A 
ATOM     75  C   UNL A   1      44.018  33.457  31.085  1.00  0.00     0.009 A 
ATOM     76  C   UNL A   1      43.556  32.403  33.212  1.00  0.00     0.009 A 
ATOM     77  C   UNL A   1      44.097  34.699  31.720  1.00  0.00     0.001 A 
ATOM     78  C   UNL A   1      43.609  33.648  33.840  1.00  0.00     0.001 A 
ATOM     79  C   UNL A   1      43.885  34.794  33.094  1.00  0.00     0.000 A 
ENDBRANCH  60  74
BRANCH  61  80
ATOM     80  C   UNL A   1      42.500  23.388  27.545  1.00  0.00    -0.014 A 
ATOM     81  C   UNL A   1      42.701  23.244  26.162  1.00  0.00     0.009 A 
ATOM     82  C   UNL A   1      42.079  22.273  28.286  1.00  0.00     0.009 A 
ATOM     83  C   UNL A   1      42.443  22.023  25.533  1.00  0.00     0.001 A 
ATOM     84  C   UNL A   1      41.855  21.046  27.659  1.00  0.00     0.001 A 
ATOM     85  C   UNL A   1      42.021  20.926  26.280  1.00  0.00     0.000 A 
ENDBRANCH  61  80
BRANCH  73  86
ATOM     86  C   UNL A   1      48.015  26.727  30.153  1.00  0.00    -0.014 A 
ATOM     87  C   UNL A   1      48.444  25.879  31.185  1.00  0.00     0.009 A 
ATOM     88  C   UNL A   1      48.955  27.188  29.217  1.00  0.00     0.009 A 
ATOM     89  C   UNL A   1      49.791  25.529  31.296  1.00  0.00     0.001 A 
ATOM     90  C   UNL A   1      50.295  26.813  29.312  1.00  0.00     0.001 A 
ATOM     91  C   UNL A   1      50.714  25.992  30.358  1.00  0.00     0.000 A 
ENDBRANCH  73  86
ENDBRANCH  47  48
ENDBRANCH  40  42
ENDBRANCH  39  40
ENDBRANCH  38  39
ENDBRANCH  37  38
ENDBRANCH  36  37
ENDBRANCH  35  36
ENDBRANCH   1  35
TORSDOF 20
ENDMDL
