MODEL 1
REMARK VINA RESULT:     -10.5      0.000      0.000
REMARK SMILES Cc1nn(CC(=O)OCCOCCOCCOC(=O)c2ccc(-c3c4nc(c(-c5ccccc5)c5ccc([nH]5)c(-c5ccccc5)c5nc(c(-c6ccccc6)c6ccc3[nH]6)C=C5)C=C4)cc2)c(C)c1S(=O)(=O)N1CCC(C)(C)C1
REMARK SMILES IDX 12 1 11 2 10 3 9 4 8 5 6 6 7 7 5 8 4 9 1 10 2 11 3 12 70 13
REMARK SMILES IDX 68 14 69 15 71 16 72 17 73 18 74 19 75 20 80 21 76 22 77 23
REMARK SMILES IDX 78 24 79 25 13 26 14 27 15 28 16 29 17 30 18 31 19 32 20 33
REMARK SMILES IDX 21 34 67 35 22 36 66 37 23 38 24 39 25 40 60 41 26 42 65 43
REMARK SMILES IDX 59 44 61 45 27 46 64 47 58 48 57 49 28 51 50 52 35 53 49 54
REMARK SMILES IDX 36 55 39 56 48 57 62 58 37 59 38 60 47 62 63 63 40 64 29 65
REMARK SMILES IDX 30 66 34 67 31 68 33 69 32 70 51 71 52 72 56 73 53 74 55 75
REMARK SMILES IDX 54 76 41 77 42 78 46 79 43 80 45 81 44 82
REMARK H PARENT 61 50 39 61
REMARK Flexibility Score: inf
ROOT
ATOM      1  C   UNL A   1      33.545  30.482  27.019  1.00  0.00     0.188 C 
ENDROOT
BRANCH   1   2
ATOM      2  O   UNL A   1      32.203  30.061  27.127  1.00  0.00    -0.376 OA
BRANCH   2   3
ATOM      3  C   UNL A   1      31.898  28.760  26.637  1.00  0.00     0.202 C 
BRANCH   3   4
ATOM      4  C   UNL A   1      32.764  28.125  25.517  1.00  0.00     0.261 C 
BRANCH   4   5
ATOM      5  O   UNL A   1      32.193  28.164  24.182  1.00  0.00    -0.462 OA
BRANCH   5   6
ATOM      6  C   UNL A   1      32.942  27.710  23.150  1.00  0.00     0.327 C 
ATOM      7  O   UNL A   1      33.910  28.330  22.712  1.00  0.00    -0.250 OA
BRANCH   6   8
ATOM      8  C   UNL A   1      32.652  26.305  22.668  1.00  0.00     0.266 C 
BRANCH   8   9
ATOM      9  N   UNL A   1      33.265  25.167  23.348  1.00  0.00    -0.257 N 
ATOM     10  C   UNL A   1      35.949  22.912  23.286  1.00  0.00     0.070 C 
ATOM     11  C   UNL A   1      34.648  23.556  23.556  1.00  0.00     0.080 A 
ATOM     12  N   UNL A   1      34.290  24.547  22.734  1.00  0.00    -0.176 NA
ATOM     13  C   UNL A   1      33.641  23.326  24.514  1.00  0.00     0.126 A 
ATOM     14  C   UNL A   1      32.734  24.374  24.340  1.00  0.00     0.056 A 
ATOM     15  C   UNL A   1      31.438  24.669  24.994  1.00  0.00     0.068 C 
BRANCH  13  16
ATOM     16  S   UNL A   1      33.480  22.022  25.637  1.00  0.00     0.246 S 
ATOM     17  O   UNL A   1      34.628  22.191  26.503  1.00  0.00    -0.207 OA
ATOM     18  O   UNL A   1      32.129  22.194  26.129  1.00  0.00    -0.207 OA
BRANCH  16  19
ATOM     19  N   UNL A   1      33.567  20.508  24.955  1.00  0.00    -0.197 NA
ATOM     20  C   UNL A   1      34.830  19.849  24.632  1.00  0.00     0.103 C 
ATOM     21  C   UNL A   1      32.423  19.592  24.912  1.00  0.00     0.109 C 
ATOM     22  C   UNL A   1      34.515  18.360  24.726  1.00  0.00     0.024 C 
ATOM     23  C   UNL A   1      33.008  18.242  24.439  1.00  0.00    -0.020 C 
ATOM     24  C   UNL A   1      32.767  18.030  22.937  1.00  0.00     0.012 C 
ATOM     25  C   UNL A   1      32.391  17.074  25.217  1.00  0.00     0.012 C 
ENDBRANCH  16  19
ENDBRANCH  13  16
ENDBRANCH   8   9
ENDBRANCH   6   8
ENDBRANCH   5   6
ENDBRANCH   4   5
ENDBRANCH   3   4
ENDBRANCH   2   3
ENDBRANCH   1   2
BRANCH   1  26
ATOM     26  C   UNL A   1      34.057  31.552  27.988  1.00  0.00     0.188 C 
BRANCH  26  27
ATOM     27  O   UNL A   1      33.733  32.906  27.764  1.00  0.00    -0.376 OA
BRANCH  27  28
ATOM     28  C   UNL A   1      34.417  34.062  28.219  1.00  0.00     0.202 C 
BRANCH  28  29
ATOM     29  C   UNL A   1      33.954  34.983  29.343  1.00  0.00     0.261 C 
BRANCH  29  30
ATOM     30  O   UNL A   1      33.541  34.299  30.494  1.00  0.00    -0.460 OA
BRANCH  30  31
ATOM     31  C   UNL A   1      33.413  35.069  31.584  1.00  0.00     0.338 C 
ATOM     32  O   UNL A   1      32.691  36.054  31.731  1.00  0.00    -0.246 OA
BRANCH  31  33
ATOM     33  C   UNL A   1      34.323  34.520  32.593  1.00  0.00     0.060 A 
ATOM     34  C   UNL A   1      35.416  35.313  32.920  1.00  0.00     0.016 A 
ATOM     35  C   UNL A   1      34.291  33.132  32.804  1.00  0.00     0.016 A 
ATOM     36  C   UNL A   1      36.619  34.673  32.991  1.00  0.00     0.010 A 
ATOM     37  C   UNL A   1      35.491  32.494  32.832  1.00  0.00     0.010 A 
ATOM     38  C   UNL A   1      36.626  33.292  32.772  1.00  0.00    -0.014 A 
BRANCH  38  39
ATOM     39  C   UNL A   1      37.879  32.673  32.456  1.00  0.00     0.031 A 
ATOM     40  C   UNL A   1      38.761  32.633  33.626  1.00  0.00     0.074 A 
ATOM     41  C   UNL A   1      38.119  32.155  31.239  1.00  0.00     0.049 A 
ATOM     42  N   UNL A   1      39.785  33.383  33.847  1.00  0.00    -0.248 NA
ATOM     43  C   UNL A   1      38.301  31.859  34.792  1.00  0.00     0.031 C 
ATOM     44  C   UNL A   1      37.187  31.920  30.130  1.00  0.00     0.029 A 
ATOM     45  N   UNL A   1      39.270  31.614  30.781  1.00  0.00    -0.354 N 
ATOM     46  C   UNL A   1      40.236  33.006  35.102  1.00  0.00     0.074 A 
ATOM     47  C   UNL A   1      39.160  32.277  35.720  1.00  0.00     0.031 C 
ATOM     48  C   UNL A   1      37.754  31.054  29.254  1.00  0.00     0.029 A 
ATOM     49  C   UNL A   1      39.121  30.791  29.675  1.00  0.00     0.049 A 
ATOM     50  H   UNL A   1      40.144  31.791  31.198  1.00  0.00     0.167 HD
ATOM     51  C   UNL A   1      41.563  33.026  35.392  1.00  0.00     0.031 A 
ATOM     52  C   UNL A   1      40.042  29.899  29.231  1.00  0.00     0.031 A 
ATOM     53  C   UNL A   1      42.296  33.828  34.444  1.00  0.00     0.049 A 
ATOM     54  C   UNL A   1      41.346  30.270  29.841  1.00  0.00     0.074 A 
ATOM     55  C   UNL A   1      42.262  35.155  34.065  1.00  0.00     0.029 A 
ATOM     56  N   UNL A   1      42.942  33.157  33.431  1.00  0.00    -0.354 N 
ATOM     57  N   UNL A   1      41.990  31.362  29.541  1.00  0.00    -0.248 NA
ATOM     58  C   UNL A   1      41.680  29.690  31.137  1.00  0.00     0.031 C 
ATOM     59  C   UNL A   1      42.481  35.145  32.656  1.00  0.00     0.029 A 
ATOM     60  C   UNL A   1      42.705  33.825  32.257  1.00  0.00     0.049 A 
ATOM     61  H   UNL A   1      43.480  32.339  33.531  1.00  0.00     0.167 HD
ATOM     62  C   UNL A   1      42.462  31.845  30.756  1.00  0.00     0.074 A 
ATOM     63  C   UNL A   1      42.317  30.727  31.689  1.00  0.00     0.031 C 
ATOM     64  C   UNL A   1      42.635  33.185  30.961  1.00  0.00     0.031 A 
BRANCH  51  65
ATOM     65  C   UNL A   1      42.219  31.944  36.211  1.00  0.00    -0.014 A 
ATOM     66  C   UNL A   1      43.019  32.332  37.296  1.00  0.00     0.009 A 
ATOM     67  C   UNL A   1      42.323  30.598  35.800  1.00  0.00     0.009 A 
ATOM     68  C   UNL A   1      43.937  31.448  37.871  1.00  0.00     0.001 A 
ATOM     69  C   UNL A   1      43.207  29.702  36.398  1.00  0.00     0.001 A 
ATOM     70  C   UNL A   1      44.040  30.138  37.414  1.00  0.00     0.000 A 
ENDBRANCH  51  65
BRANCH  52  71
ATOM     71  C   UNL A   1      39.810  28.569  28.622  1.00  0.00    -0.014 A 
ATOM     72  C   UNL A   1      40.415  28.221  27.404  1.00  0.00     0.009 A 
ATOM     73  C   UNL A   1      39.215  27.538  29.372  1.00  0.00     0.009 A 
ATOM     74  C   UNL A   1      40.453  26.886  26.972  1.00  0.00     0.001 A 
ATOM     75  C   UNL A   1      39.251  26.207  28.942  1.00  0.00     0.001 A 
ATOM     76  C   UNL A   1      39.884  25.879  27.748  1.00  0.00     0.000 A 
ENDBRANCH  52  71
BRANCH  64  77
ATOM     77  C   UNL A   1      42.509  34.102  29.769  1.00  0.00    -0.014 A 
ATOM     78  C   UNL A   1      41.336  34.815  29.462  1.00  0.00     0.009 A 
ATOM     79  C   UNL A   1      43.666  34.378  29.026  1.00  0.00     0.009 A 
ATOM     80  C   UNL A   1      41.319  35.756  28.425  1.00  0.00     0.001 A 
ATOM     81  C   UNL A   1      43.655  35.330  28.005  1.00  0.00     0.001 A 
ATOM     82  C   UNL A   1      42.480  36.016  27.701  1.00  0.00     0.000 A 
ENDBRANCH  64  77
ENDBRANCH  38  39
ENDBRANCH  31  33
ENDBRANCH  30  31
ENDBRANCH  29  30
ENDBRANCH  28  29
ENDBRANCH  27  28
ENDBRANCH  26  27
ENDBRANCH   1  26
TORSDOF 20
ENDMDL
MODEL 2
REMARK VINA RESULT:     -10.2      1.468      1.953
REMARK SMILES Cc1nn(CC(=O)OCCOCCOCCOC(=O)c2ccc(-c3c4nc(c(-c5ccccc5)c5ccc([nH]5)c(-c5ccccc5)c5nc(c(-c6ccccc6)c6ccc3[nH]6)C=C5)C=C4)cc2)c(C)c1S(=O)(=O)N1CCC(C)(C)C1
REMARK SMILES IDX 12 1 11 2 10 3 9 4 8 5 6 6 7 7 5 8 4 9 1 10 2 11 3 12 70 13
REMARK SMILES IDX 68 14 69 15 71 16 72 17 73 18 74 19 75 20 80 21 76 22 77 23
REMARK SMILES IDX 78 24 79 25 13 26 14 27 15 28 16 29 17 30 18 31 19 32 20 33
REMARK SMILES IDX 21 34 67 35 22 36 66 37 23 38 24 39 25 40 60 41 26 42 65 43
REMARK SMILES IDX 59 44 61 45 27 46 64 47 58 48 57 49 28 51 50 52 35 53 49 54
REMARK SMILES IDX 36 55 39 56 48 57 62 58 37 59 38 60 47 62 63 63 40 64 29 65
REMARK SMILES IDX 30 66 34 67 31 68 33 69 32 70 51 71 52 72 56 73 53 74 55 75
REMARK SMILES IDX 54 76 41 77 42 78 46 79 43 80 45 81 44 82
REMARK H PARENT 61 50 39 61
REMARK Flexibility Score: inf
ROOT
ATOM      1  C   UNL A   1      33.293  30.610  27.098  1.00  0.00     0.188 C 
ENDROOT
BRANCH   1   2
ATOM      2  O   UNL A   1      32.372  31.344  26.321  1.00  0.00    -0.376 OA
BRANCH   2   3
ATOM      3  C   UNL A   1      31.169  30.677  25.954  1.00  0.00     0.202 C 
BRANCH   3   4
ATOM      4  C   UNL A   1      31.210  29.478  24.970  1.00  0.00     0.261 C 
BRANCH   4   5
ATOM      5  O   UNL A   1      30.977  29.803  23.574  1.00  0.00    -0.462 OA
BRANCH   5   6
ATOM      6  C   UNL A   1      30.108  29.037  22.873  1.00  0.00     0.327 C 
ATOM      7  O   UNL A   1      29.742  29.324  21.734  1.00  0.00    -0.250 OA
BRANCH   6   8
ATOM      8  C   UNL A   1      29.741  27.700  23.480  1.00  0.00     0.266 C 
BRANCH   8   9
ATOM      9  N   UNL A   1      30.786  26.712  23.737  1.00  0.00    -0.257 N 
ATOM     10  C   UNL A   1      33.670  25.202  22.434  1.00  0.00     0.070 C 
ATOM     11  C   UNL A   1      32.456  25.486  23.224  1.00  0.00     0.080 A 
ATOM     12  N   UNL A   1      31.620  26.403  22.726  1.00  0.00    -0.176 NA
ATOM     13  C   UNL A   1      31.944  24.958  24.425  1.00  0.00     0.126 A 
ATOM     14  C   UNL A   1      30.837  25.756  24.726  1.00  0.00     0.056 A 
ATOM     15  C   UNL A   1      29.842  25.681  25.821  1.00  0.00     0.068 C 
BRANCH  13  16
ATOM     16  S   UNL A   1      32.485  23.592  25.335  1.00  0.00     0.246 S 
ATOM     17  O   UNL A   1      32.300  24.018  26.708  1.00  0.00    -0.207 OA
ATOM     18  O   UNL A   1      31.711  22.507  24.769  1.00  0.00    -0.207 OA
BRANCH  16  19
ATOM     19  N   UNL A   1      34.091  23.214  25.126  1.00  0.00    -0.197 NA
ATOM     20  C   UNL A   1      35.171  23.898  25.832  1.00  0.00     0.103 C 
ATOM     21  C   UNL A   1      34.535  21.980  24.471  1.00  0.00     0.109 C 
ATOM     22  C   UNL A   1      36.286  22.861  25.916  1.00  0.00     0.024 C 
ATOM     23  C   UNL A   1      36.059  21.919  24.720  1.00  0.00    -0.020 C 
ATOM     24  C   UNL A   1      36.841  22.417  23.496  1.00  0.00     0.012 C 
ATOM     25  C   UNL A   1      36.503  20.490  25.054  1.00  0.00     0.012 C 
ENDBRANCH  16  19
ENDBRANCH  13  16
ENDBRANCH   8   9
ENDBRANCH   6   8
ENDBRANCH   5   6
ENDBRANCH   4   5
ENDBRANCH   3   4
ENDBRANCH   2   3
ENDBRANCH   1   2
BRANCH   1  26
ATOM     26  C   UNL A   1      34.355  31.377  27.891  1.00  0.00     0.188 C 
BRANCH  26  27
ATOM     27  O   UNL A   1      34.587  32.739  27.609  1.00  0.00    -0.376 OA
BRANCH  27  28
ATOM     28  C   UNL A   1      34.719  33.817  28.521  1.00  0.00     0.202 C 
BRANCH  28  29
ATOM     29  C   UNL A   1      33.568  34.570  29.181  1.00  0.00     0.261 C 
BRANCH  29  30
ATOM     30  O   UNL A   1      33.349  34.199  30.514  1.00  0.00    -0.460 OA
BRANCH  30  31
ATOM     31  C   UNL A   1      33.704  35.127  31.416  1.00  0.00     0.338 C 
ATOM     32  O   UNL A   1      33.413  36.321  31.423  1.00  0.00    -0.246 OA
BRANCH  31  33
ATOM     33  C   UNL A   1      34.536  34.444  32.411  1.00  0.00     0.060 A 
ATOM     34  C   UNL A   1      35.625  35.165  32.887  1.00  0.00     0.016 A 
ATOM     35  C   UNL A   1      34.460  33.043  32.465  1.00  0.00     0.016 A 
ATOM     36  C   UNL A   1      36.805  34.486  32.960  1.00  0.00     0.010 A 
ATOM     37  C   UNL A   1      35.640  32.371  32.496  1.00  0.00     0.010 A 
ATOM     38  C   UNL A   1      36.794  33.137  32.591  1.00  0.00    -0.014 A 
BRANCH  38  39
ATOM     39  C   UNL A   1      38.050  32.518  32.285  1.00  0.00     0.031 A 
ATOM     40  C   UNL A   1      38.897  32.418  33.478  1.00  0.00     0.074 A 
ATOM     41  C   UNL A   1      38.321  32.052  31.054  1.00  0.00     0.049 A 
ATOM     42  N   UNL A   1      39.921  33.147  33.760  1.00  0.00    -0.248 NA
ATOM     43  C   UNL A   1      38.396  31.598  34.594  1.00  0.00     0.031 C 
ATOM     44  C   UNL A   1      37.420  31.875  29.909  1.00  0.00     0.029 A 
ATOM     45  N   UNL A   1      39.480  31.519  30.606  1.00  0.00    -0.354 N 
ATOM     46  C   UNL A   1      40.332  32.710  35.010  1.00  0.00     0.074 A 
ATOM     47  C   UNL A   1      39.231  31.966  35.564  1.00  0.00     0.031 C 
ATOM     48  C   UNL A   1      38.005  31.043  29.013  1.00  0.00     0.029 A 
ATOM     49  C   UNL A   1      39.356  30.746  29.462  1.00  0.00     0.049 A 
ATOM     50  H   UNL A   1      40.343  31.668  31.056  1.00  0.00     0.167 HD
ATOM     51  C   UNL A   1      41.649  32.703  35.340  1.00  0.00     0.031 A 
ATOM     52  C   UNL A   1      40.281  29.865  29.005  1.00  0.00     0.031 A 
ATOM     53  C   UNL A   1      42.418  33.538  34.449  1.00  0.00     0.049 A 
ATOM     54  C   UNL A   1      41.570  30.195  29.669  1.00  0.00     0.074 A 
ATOM     55  C   UNL A   1      42.408  34.881  34.128  1.00  0.00     0.029 A 
ATOM     56  N   UNL A   1      43.087  32.905  33.427  1.00  0.00    -0.354 N 
ATOM     57  N   UNL A   1      42.233  31.292  29.436  1.00  0.00    -0.248 NA
ATOM     58  C   UNL A   1      41.861  29.555  30.947  1.00  0.00     0.031 C 
ATOM     59  C   UNL A   1      42.668  34.929  32.727  1.00  0.00     0.029 A 
ATOM     60  C   UNL A   1      42.891  33.626  32.277  1.00  0.00     0.049 A 
ATOM     61  H   UNL A   1      43.614  32.077  33.506  1.00  0.00     0.167 HD
ATOM     62  C   UNL A   1      42.673  31.716  30.684  1.00  0.00     0.074 A 
ATOM     63  C   UNL A   1      42.490  30.560  31.563  1.00  0.00     0.031 C 
ATOM     64  C   UNL A   1      42.853  33.044  30.953  1.00  0.00     0.031 A 
BRANCH  51  65
ATOM     65  C   UNL A   1      42.271  31.580  36.128  1.00  0.00    -0.014 A 
ATOM     66  C   UNL A   1      43.109  31.914  37.203  1.00  0.00     0.009 A 
ATOM     67  C   UNL A   1      42.305  30.237  35.695  1.00  0.00     0.009 A 
ATOM     68  C   UNL A   1      43.997  30.980  37.747  1.00  0.00     0.001 A 
ATOM     69  C   UNL A   1      43.158  29.292  36.262  1.00  0.00     0.001 A 
ATOM     70  C   UNL A   1      44.030  29.674  37.268  1.00  0.00     0.000 A 
ENDBRANCH  51  65
BRANCH  52  71
ATOM     71  C   UNL A   1      40.054  28.565  28.332  1.00  0.00    -0.014 A 
ATOM     72  C   UNL A   1      40.658  28.280  27.097  1.00  0.00     0.009 A 
ATOM     73  C   UNL A   1      39.467  27.495  29.032  1.00  0.00     0.009 A 
ATOM     74  C   UNL A   1      40.702  26.969  26.600  1.00  0.00     0.001 A 
ATOM     75  C   UNL A   1      39.509  26.187  28.536  1.00  0.00     0.001 A 
ATOM     76  C   UNL A   1      40.140  25.922  27.327  1.00  0.00     0.000 A 
ENDBRANCH  52  71
BRANCH  64  77
ATOM     77  C   UNL A   1      42.771  34.014  29.799  1.00  0.00    -0.014 A 
ATOM     78  C   UNL A   1      43.812  34.204  28.871  1.00  0.00     0.009 A 
ATOM     79  C   UNL A   1      41.539  34.636  29.550  1.00  0.00     0.009 A 
ATOM     80  C   UNL A   1      43.628  35.014  27.744  1.00  0.00     0.001 A 
ATOM     81  C   UNL A   1      41.350  35.427  28.415  1.00  0.00     0.001 A 
ATOM     82  C   UNL A   1      42.396  35.620  27.515  1.00  0.00     0.000 A 
ENDBRANCH  64  77
ENDBRANCH  38  39
ENDBRANCH  31  33
ENDBRANCH  30  31
ENDBRANCH  29  30
ENDBRANCH  28  29
ENDBRANCH  27  28
ENDBRANCH  26  27
ENDBRANCH   1  26
TORSDOF 20
ENDMDL
MODEL 3
REMARK VINA RESULT:     -10.1      4.812     10.438
REMARK SMILES Cc1nn(CC(=O)OCCOCCOCCOC(=O)c2ccc(-c3c4nc(c(-c5ccccc5)c5ccc([nH]5)c(-c5ccccc5)c5nc(c(-c6ccccc6)c6ccc3[nH]6)C=C5)C=C4)cc2)c(C)c1S(=O)(=O)N1CCC(C)(C)C1
REMARK SMILES IDX 12 1 11 2 10 3 9 4 8 5 6 6 7 7 5 8 4 9 1 10 2 11 3 12 70 13
REMARK SMILES IDX 68 14 69 15 71 16 72 17 73 18 74 19 75 20 80 21 76 22 77 23
REMARK SMILES IDX 78 24 79 25 13 26 14 27 15 28 16 29 17 30 18 31 19 32 20 33
REMARK SMILES IDX 21 34 67 35 22 36 66 37 23 38 24 39 25 40 60 41 26 42 65 43
REMARK SMILES IDX 59 44 61 45 27 46 64 47 58 48 57 49 28 51 50 52 35 53 49 54
REMARK SMILES IDX 36 55 39 56 48 57 62 58 37 59 38 60 47 62 63 63 40 64 29 65
REMARK SMILES IDX 30 66 34 67 31 68 33 69 32 70 51 71 52 72 56 73 53 74 55 75
REMARK SMILES IDX 54 76 41 77 42 78 46 79 43 80 45 81 44 82
REMARK H PARENT 61 50 39 61
REMARK Flexibility Score: inf
ROOT
ATOM      1  C   UNL A   1      37.587  22.331  25.127  1.00  0.00     0.188 C 
ENDROOT
BRANCH   1   2
ATOM      2  O   UNL A   1      37.054  22.515  23.834  1.00  0.00    -0.376 OA
BRANCH   2   3
ATOM      3  C   UNL A   1      35.659  22.782  23.748  1.00  0.00     0.202 C 
BRANCH   3   4
ATOM      4  C   UNL A   1      34.663  22.039  24.678  1.00  0.00     0.261 C 
BRANCH   4   5
ATOM      5  O   UNL A   1      33.265  22.121  24.295  1.00  0.00    -0.462 OA
BRANCH   5   6
ATOM      6  C   UNL A   1      32.347  22.365  25.260  1.00  0.00     0.327 C 
ATOM      7  O   UNL A   1      32.517  22.035  26.433  1.00  0.00    -0.250 OA
BRANCH   6   8
ATOM      8  C   UNL A   1      31.171  23.234  24.873  1.00  0.00     0.266 C 
BRANCH   8   9
ATOM      9  N   UNL A   1      31.400  24.476  24.138  1.00  0.00    -0.257 N 
ATOM     10  C   UNL A   1      32.680  25.844  21.174  1.00  0.00     0.070 C 
ATOM     11  C   UNL A   1      32.199  25.668  22.559  1.00  0.00     0.080 A 
ATOM     12  N   UNL A   1      32.142  24.413  23.016  1.00  0.00    -0.176 NA
ATOM     13  C   UNL A   1      31.798  26.573  23.560  1.00  0.00     0.126 A 
ATOM     14  C   UNL A   1      31.306  25.771  24.593  1.00  0.00     0.056 A 
ATOM     15  C   UNL A   1      30.793  26.112  25.941  1.00  0.00     0.068 C 
BRANCH  13  16
ATOM     16  S   UNL A   1      31.920  28.297  23.587  1.00  0.00     0.246 S 
ATOM     17  O   UNL A   1      32.468  28.567  24.900  1.00  0.00    -0.207 OA
ATOM     18  O   UNL A   1      32.672  28.579  22.381  1.00  0.00    -0.207 OA
BRANCH  16  19
ATOM     19  N   UNL A   1      30.466  29.095  23.460  1.00  0.00    -0.197 NA
ATOM     20  C   UNL A   1      30.121  30.258  24.273  1.00  0.00     0.103 C 
ATOM     21  C   UNL A   1      29.554  28.902  22.330  1.00  0.00     0.109 C 
ATOM     22  C   UNL A   1      29.139  31.044  23.411  1.00  0.00     0.024 C 
ATOM     23  C   UNL A   1      28.480  30.003  22.489  1.00  0.00    -0.020 C 
ATOM     24  C   UNL A   1      27.207  29.445  23.140  1.00  0.00     0.012 C 
ATOM     25  C   UNL A   1      28.123  30.620  21.132  1.00  0.00     0.012 C 
ENDBRANCH  16  19
ENDBRANCH  13  16
ENDBRANCH   8   9
ENDBRANCH   6   8
ENDBRANCH   5   6
ENDBRANCH   4   5
ENDBRANCH   3   4
ENDBRANCH   2   3
ENDBRANCH   1   2
BRANCH   1  26
ATOM     26  C   UNL A   1      38.451  21.094  25.394  1.00  0.00     0.188 C 
BRANCH  26  27
ATOM     27  O   UNL A   1      39.485  21.161  26.349  1.00  0.00    -0.376 OA
BRANCH  27  28
ATOM     28  C   UNL A   1      40.885  21.214  26.130  1.00  0.00     0.202 C 
BRANCH  28  29
ATOM     29  C   UNL A   1      41.833  20.019  26.139  1.00  0.00     0.261 C 
BRANCH  29  30
ATOM     30  O   UNL A   1      43.185  20.377  26.225  1.00  0.00    -0.460 OA
BRANCH  30  31
ATOM     31  C   UNL A   1      43.857  20.297  25.067  1.00  0.00     0.338 C 
ATOM     32  O   UNL A   1      43.921  19.340  24.298  1.00  0.00    -0.246 OA
BRANCH  31  33
ATOM     33  C   UNL A   1      44.531  21.586  24.885  1.00  0.00     0.060 A 
ATOM     34  C   UNL A   1      45.605  21.833  25.732  1.00  0.00     0.016 A 
ATOM     35  C   UNL A   1      43.813  22.604  24.238  1.00  0.00     0.016 A 
ATOM     36  C   UNL A   1      45.642  23.071  26.302  1.00  0.00     0.010 A 
ATOM     37  C   UNL A   1      43.821  23.825  24.833  1.00  0.00     0.010 A 
ATOM     38  C   UNL A   1      44.632  23.972  25.950  1.00  0.00    -0.014 A 
BRANCH  38  39
ATOM     39  C   UNL A   1      44.421  25.105  26.802  1.00  0.00     0.031 A 
ATOM     40  C   UNL A   1      45.515  26.073  26.678  1.00  0.00     0.074 A 
ATOM     41  C   UNL A   1      43.305  25.228  27.542  1.00  0.00     0.049 A 
ATOM     42  N   UNL A   1      46.466  26.276  27.523  1.00  0.00    -0.248 NA
ATOM     43  C   UNL A   1      45.720  26.695  25.359  1.00  0.00     0.031 C 
ATOM     44  C   UNL A   1      42.069  24.440  27.495  1.00  0.00     0.029 A 
ATOM     45  N   UNL A   1      43.009  26.195  28.439  1.00  0.00    -0.354 N 
ATOM     46  C   UNL A   1      47.273  27.231  26.926  1.00  0.00     0.074 A 
ATOM     47  C   UNL A   1      46.918  27.250  25.532  1.00  0.00     0.031 C 
ATOM     48  C   UNL A   1      41.085  25.125  28.128  1.00  0.00     0.029 A 
ATOM     49  C   UNL A   1      41.659  26.319  28.728  1.00  0.00     0.049 A 
ATOM     50  H   UNL A   1      43.696  26.765  28.853  1.00  0.00     0.167 HD
ATOM     51  C   UNL A   1      47.916  28.160  27.681  1.00  0.00     0.031 A 
ATOM     52  C   UNL A   1      41.080  27.389  29.332  1.00  0.00     0.031 A 
ATOM     53  C   UNL A   1      47.971  27.764  29.067  1.00  0.00     0.049 A 
ATOM     54  C   UNL A   1      42.164  28.160  29.996  1.00  0.00     0.074 A 
ATOM     55  C   UNL A   1      48.515  26.694  29.749  1.00  0.00     0.029 A 
ATOM     56  N   UNL A   1      47.035  28.320  29.909  1.00  0.00    -0.354 N 
ATOM     57  N   UNL A   1      42.834  27.714  31.020  1.00  0.00    -0.248 NA
ATOM     58  C   UNL A   1      42.836  29.195  29.220  1.00  0.00     0.031 C 
ATOM     59  C   UNL A   1      47.570  26.388  30.773  1.00  0.00     0.029 A 
ATOM     60  C   UNL A   1      46.536  27.325  30.709  1.00  0.00     0.049 A 
ATOM     61  H   UNL A   1      46.770  29.268  29.932  1.00  0.00     0.167 HD
ATOM     62  C   UNL A   1      44.153  28.068  30.768  1.00  0.00     0.074 A 
ATOM     63  C   UNL A   1      44.079  29.056  29.690  1.00  0.00     0.031 C 
ATOM     64  C   UNL A   1      45.189  27.310  31.237  1.00  0.00     0.031 A 
BRANCH  51  65
ATOM     65  C   UNL A   1      48.038  29.598  27.248  1.00  0.00    -0.014 A 
ATOM     66  C   UNL A   1      49.319  30.170  27.214  1.00  0.00     0.009 A 
ATOM     67  C   UNL A   1      46.947  30.487  27.151  1.00  0.00     0.009 A 
ATOM     68  C   UNL A   1      49.492  31.557  27.184  1.00  0.00     0.001 A 
ATOM     69  C   UNL A   1      47.115  31.869  27.077  1.00  0.00     0.001 A 
ATOM     70  C   UNL A   1      48.390  32.406  27.128  1.00  0.00     0.000 A 
ENDBRANCH  51  65
BRANCH  52  71
ATOM     71  C   UNL A   1      39.744  27.972  29.075  1.00  0.00    -0.014 A 
ATOM     72  C   UNL A   1      38.814  28.124  30.116  1.00  0.00     0.009 A 
ATOM     73  C   UNL A   1      39.479  28.637  27.864  1.00  0.00     0.009 A 
ATOM     74  C   UNL A   1      37.681  28.938  29.960  1.00  0.00     0.001 A 
ATOM     75  C   UNL A   1      38.349  29.447  27.706  1.00  0.00     0.001 A 
ATOM     76  C   UNL A   1      37.458  29.610  28.761  1.00  0.00     0.000 A 
ENDBRANCH  52  71
BRANCH  64  77
ATOM     77  C   UNL A   1      44.866  26.206  32.214  1.00  0.00    -0.014 A 
ATOM     78  C   UNL A   1      44.561  24.890  31.822  1.00  0.00     0.009 A 
ATOM     79  C   UNL A   1      45.036  26.468  33.581  1.00  0.00     0.009 A 
ATOM     80  C   UNL A   1      44.405  23.876  32.775  1.00  0.00     0.001 A 
ATOM     81  C   UNL A   1      44.901  25.452  34.530  1.00  0.00     0.001 A 
ATOM     82  C   UNL A   1      44.581  24.157  34.127  1.00  0.00     0.000 A 
ENDBRANCH  64  77
ENDBRANCH  38  39
ENDBRANCH  31  33
ENDBRANCH  30  31
ENDBRANCH  29  30
ENDBRANCH  28  29
ENDBRANCH  27  28
ENDBRANCH  26  27
ENDBRANCH   1  26
TORSDOF 20
ENDMDL
