MODEL 1
REMARK VINA RESULT:     -10.5      0.000      0.000
REMARK SMILES CC[C@@](C)(NC(=O)Nc1c(C)cccc1Cl)C(=O)OCCOCCOCCOC(=O)c1ccc(-c2c3nc(c(-c4ccccc4)c4ccc([nH]4)c(-c4ccccc4)c4nc(c(-c5ccccc5)c5ccc2[nH]5)C=C4)C=C3)cc1
REMARK SMILES IDX 23 1 22 2 21 3 20 4 19 5 17 6 18 7 3 8 4 9 2 10 1 11 5 12
REMARK SMILES IDX 6 13 7 15 8 16 9 18 10 19 15 20 11 21 12 22 14 23 16 24
REMARK SMILES IDX 13 25 24 26 25 27 26 28 27 29 28 30 29 31 30 32 31 33 32 34
REMARK SMILES IDX 78 35 33 36 77 37 34 38 35 39 36 40 71 41 37 42 76 43 70 44
REMARK SMILES IDX 72 45 38 46 75 47 69 48 68 49 39 51 61 52 46 53 60 54 47 55
REMARK SMILES IDX 50 56 59 57 73 58 48 59 49 60 58 62 74 63 51 64 40 65 41 66
REMARK SMILES IDX 45 67 42 68 44 69 43 70 62 71 63 72 67 73 64 74 66 75 65 76
REMARK SMILES IDX 52 77 53 78 57 79 54 80 56 81 55 82
REMARK H PARENT 5 14 8 17 72 50 50 61
REMARK Flexibility Score: inf
ROOT
ATOM      1  C   UNL A   1      35.143  31.375  27.885  1.00  0.00     0.188 C 
ENDROOT
BRANCH   1   2
ATOM      2  O   UNL A   1      34.459  30.196  27.404  1.00  0.00    -0.376 OA
BRANCH   2   3
ATOM      3  C   UNL A   1      33.023  30.117  27.296  1.00  0.00     0.202 C 
BRANCH   3   4
ATOM      4  C   UNL A   1      32.135  30.171  25.825  1.00  0.00     0.261 C 
BRANCH   4   5
ATOM      5  O   UNL A   1      32.247  29.499  24.330  1.00  0.00    -0.462 OA
BRANCH   5   6
ATOM      6  C   UNL A   1      33.034  28.545  23.566  1.00  0.00     0.331 C 
ATOM      7  O   UNL A   1      33.627  28.836  22.524  1.00  0.00    -0.249 OA
BRANCH   6   8
ATOM      8  C   UNL A   1      32.788  26.992  23.907  1.00  0.00     0.136 C 
ATOM      9  C   UNL A   1      33.872  26.636  24.929  1.00  0.00     0.047 C 
BRANCH   8  10
ATOM     10  C   UNL A   1      31.507  26.165  24.250  1.00  0.00     0.037 C 
ATOM     11  C   UNL A   1      30.134  26.765  24.141  1.00  0.00     0.007 C 
ENDBRANCH   8  10
BRANCH   8  12
ATOM     12  N   UNL A   1      33.083  26.508  22.632  1.00  0.00    -0.322 N 
ATOM     13  C   UNL A   1      33.458  25.227  22.547  1.00  0.00     0.320 C 
ATOM     14  H   UNL A   1      33.018  27.079  21.833  1.00  0.00     0.166 HD
ATOM     15  O   UNL A   1      33.280  24.862  21.388  1.00  0.00    -0.248 OA
ATOM     16  N   UNL A   1      33.929  24.490  23.641  1.00  0.00    -0.306 N 
ATOM     17  H   UNL A   1      34.906  24.424  23.529  1.00  0.00     0.171 HD
BRANCH  16  18
ATOM     18  C   UNL A   1      33.598  23.743  24.930  1.00  0.00     0.064 A 
ATOM     19  C   UNL A   1      32.417  23.285  25.629  1.00  0.00    -0.026 A 
ATOM     20  C   UNL A   1      34.815  23.378  25.619  1.00  0.00     0.064 A 
ATOM     21  C   UNL A   1      31.015  22.826  25.211  1.00  0.00     0.046 C 
ATOM     22  C   UNL A   1      32.534  22.852  26.999  1.00  0.00     0.005 A 
ATOM     23  C   UNL A   1      34.878  22.779  26.892  1.00  0.00     0.023 A 
ATOM     24  Cl  UNL A   1      36.393  23.683  24.941  1.00  0.00    -0.082 Cl
ATOM     25  C   UNL A   1      33.734  22.597  27.622  1.00  0.00     0.002 A 
ENDBRANCH  16  18
ENDBRANCH   8  12
ENDBRANCH   6   8
ENDBRANCH   5   6
ENDBRANCH   4   5
ENDBRANCH   3   4
ENDBRANCH   2   3
ENDBRANCH   1   2
BRANCH   1  26
ATOM     26  C   UNL A   1      34.407  32.576  28.532  1.00  0.00     0.188 C 
BRANCH  26  27
ATOM     27  O   UNL A   1      34.270  33.760  27.757  1.00  0.00    -0.376 OA
BRANCH  27  28
ATOM     28  C   UNL A   1      34.397  34.966  28.489  1.00  0.00     0.202 C 
BRANCH  28  29
ATOM     29  C   UNL A   1      33.102  35.558  29.079  1.00  0.00     0.261 C 
BRANCH  29  30
ATOM     30  O   UNL A   1      32.636  34.978  30.312  1.00  0.00    -0.460 OA
BRANCH  30  31
ATOM     31  C   UNL A   1      32.877  35.697  31.443  1.00  0.00     0.338 C 
ATOM     32  O   UNL A   1      32.265  36.684  31.837  1.00  0.00    -0.246 OA
BRANCH  31  33
ATOM     33  C   UNL A   1      33.896  34.982  32.255  1.00  0.00     0.060 A 
ATOM     34  C   UNL A   1      35.186  35.528  32.400  1.00  0.00     0.016 A 
ATOM     35  C   UNL A   1      33.566  33.786  32.893  1.00  0.00     0.016 A 
ATOM     36  C   UNL A   1      36.165  34.847  33.134  1.00  0.00     0.010 A 
ATOM     37  C   UNL A   1      34.549  33.093  33.600  1.00  0.00     0.010 A 
ATOM     38  C   UNL A   1      35.863  33.591  33.675  1.00  0.00    -0.014 A 
BRANCH  38  39
ATOM     39  C   UNL A   1      36.935  32.606  33.968  1.00  0.00     0.031 A 
ATOM     40  C   UNL A   1      37.734  32.848  35.221  1.00  0.00     0.074 A 
ATOM     41  C   UNL A   1      37.284  31.626  33.118  1.00  0.00     0.049 A 
ATOM     42  N   UNL A   1      38.887  32.357  35.589  1.00  0.00    -0.248 NA
ATOM     43  C   UNL A   1      37.158  33.816  36.171  1.00  0.00     0.031 C 
ATOM     44  C   UNL A   1      36.563  31.250  31.906  1.00  0.00     0.029 A 
ATOM     45  N   UNL A   1      38.378  30.795  33.139  1.00  0.00    -0.354 N 
ATOM     46  C   UNL A   1      39.192  32.991  36.787  1.00  0.00     0.074 A 
ATOM     47  C   UNL A   1      38.116  33.909  37.075  1.00  0.00     0.031 C 
ATOM     48  C   UNL A   1      37.257  30.286  31.274  1.00  0.00     0.029 A 
ATOM     49  C   UNL A   1      38.496  30.023  32.009  1.00  0.00     0.049 A 
ATOM     50  H   UNL A   1      39.015  30.757  33.889  1.00  0.00     0.167 HD
ATOM     51  C   UNL A   1      40.282  32.838  37.573  1.00  0.00     0.031 A 
ATOM     52  C   UNL A   1      39.513  29.240  31.594  1.00  0.00     0.031 A 
ATOM     53  C   UNL A   1      41.366  31.950  37.262  1.00  0.00     0.049 A 
ATOM     54  C   UNL A   1      40.756  29.129  32.442  1.00  0.00     0.074 A 
ATOM     55  C   UNL A   1      42.514  31.700  37.990  1.00  0.00     0.029 A 
ATOM     56  N   UNL A   1      41.437  31.177  36.112  1.00  0.00    -0.354 N 
ATOM     57  N   UNL A   1      41.039  29.719  33.579  1.00  0.00    -0.248 NA
ATOM     58  C   UNL A   1      41.822  28.245  31.947  1.00  0.00     0.031 C 
ATOM     59  C   UNL A   1      43.312  30.826  37.245  1.00  0.00     0.029 A 
ATOM     60  C   UNL A   1      42.624  30.470  36.095  1.00  0.00     0.049 A 
ATOM     61  H   UNL A   1      40.744  31.138  35.412  1.00  0.00     0.167 HD
ATOM     62  C   UNL A   1      42.294  29.253  33.954  1.00  0.00     0.074 A 
ATOM     63  C   UNL A   1      42.719  28.329  32.922  1.00  0.00     0.031 C 
ATOM     64  C   UNL A   1      43.024  29.551  35.058  1.00  0.00     0.031 A 
BRANCH  51  65
ATOM     65  C   UNL A   1      40.372  33.714  38.793  1.00  0.00    -0.014 A 
ATOM     66  C   UNL A   1      40.860  35.030  38.725  1.00  0.00     0.009 A 
ATOM     67  C   UNL A   1      40.002  33.194  40.043  1.00  0.00     0.009 A 
ATOM     68  C   UNL A   1      41.030  35.784  39.889  1.00  0.00     0.001 A 
ATOM     69  C   UNL A   1      40.135  33.964  41.200  1.00  0.00     0.001 A 
ATOM     70  C   UNL A   1      40.665  35.251  41.124  1.00  0.00     0.000 A 
ENDBRANCH  51  65
BRANCH  52  71
ATOM     71  C   UNL A   1      39.408  28.527  30.293  1.00  0.00    -0.014 A 
ATOM     72  C   UNL A   1      39.732  29.176  29.092  1.00  0.00     0.009 A 
ATOM     73  C   UNL A   1      39.004  27.182  30.245  1.00  0.00     0.009 A 
ATOM     74  C   UNL A   1      39.650  28.496  27.872  1.00  0.00     0.001 A 
ATOM     75  C   UNL A   1      38.950  26.497  29.028  1.00  0.00     0.001 A 
ATOM     76  C   UNL A   1      39.269  27.156  27.843  1.00  0.00     0.000 A 
ENDBRANCH  52  71
BRANCH  64  77
ATOM     77  C   UNL A   1      44.332  28.833  35.251  1.00  0.00    -0.014 A 
ATOM     78  C   UNL A   1      45.545  29.372  34.796  1.00  0.00     0.009 A 
ATOM     79  C   UNL A   1      44.353  27.636  35.987  1.00  0.00     0.009 A 
ATOM     80  C   UNL A   1      46.749  28.713  35.056  1.00  0.00     0.001 A 
ATOM     81  C   UNL A   1      45.560  26.998  36.273  1.00  0.00     0.001 A 
ATOM     82  C   UNL A   1      46.756  27.533  35.802  1.00  0.00     0.000 A 
ENDBRANCH  64  77
ENDBRANCH  38  39
ENDBRANCH  31  33
ENDBRANCH  30  31
ENDBRANCH  29  30
ENDBRANCH  28  29
ENDBRANCH  27  28
ENDBRANCH  26  27
ENDBRANCH   1  26
TORSDOF 20
ENDMDL
MODEL 2
REMARK VINA RESULT:     -10.5      3.572      8.643
REMARK SMILES CC[C@@](C)(NC(=O)Nc1c(C)cccc1Cl)C(=O)OCCOCCOCCOC(=O)c1ccc(-c2c3nc(c(-c4ccccc4)c4ccc([nH]4)c(-c4ccccc4)c4nc(c(-c5ccccc5)c5ccc2[nH]5)C=C4)C=C3)cc1
REMARK SMILES IDX 23 1 22 2 21 3 20 4 19 5 17 6 18 7 3 8 4 9 2 10 1 11 5 12
REMARK SMILES IDX 6 13 7 15 8 16 9 18 10 19 15 20 11 21 12 22 14 23 16 24
REMARK SMILES IDX 13 25 24 26 25 27 26 28 27 29 28 30 29 31 30 32 31 33 32 34
REMARK SMILES IDX 78 35 33 36 77 37 34 38 35 39 36 40 71 41 37 42 76 43 70 44
REMARK SMILES IDX 72 45 38 46 75 47 69 48 68 49 39 51 61 52 46 53 60 54 47 55
REMARK SMILES IDX 50 56 59 57 73 58 48 59 49 60 58 62 74 63 51 64 40 65 41 66
REMARK SMILES IDX 45 67 42 68 44 69 43 70 62 71 63 72 67 73 64 74 66 75 65 76
REMARK SMILES IDX 52 77 53 78 57 79 54 80 56 81 55 82
REMARK H PARENT 5 14 8 17 72 50 50 61
REMARK Flexibility Score: inf
ROOT
ATOM      1  C   UNL A   1      35.647  21.233  24.987  1.00  0.00     0.188 C 
ENDROOT
BRANCH   1   2
ATOM      2  O   UNL A   1      34.593  21.060  25.960  1.00  0.00    -0.376 OA
BRANCH   2   3
ATOM      3  C   UNL A   1      34.433  21.929  27.101  1.00  0.00     0.202 C 
BRANCH   3   4
ATOM      4  C   UNL A   1      32.928  22.419  27.770  1.00  0.00     0.261 C 
BRANCH   4   5
ATOM      5  O   UNL A   1      31.879  23.668  27.578  1.00  0.00    -0.462 OA
BRANCH   5   6
ATOM      6  C   UNL A   1      30.654  24.030  26.883  1.00  0.00     0.331 C 
ATOM      7  O   UNL A   1      29.539  23.620  27.215  1.00  0.00    -0.249 OA
BRANCH   6   8
ATOM      8  C   UNL A   1      30.835  24.674  25.419  1.00  0.00     0.136 C 
ATOM      9  C   UNL A   1      31.874  25.784  25.602  1.00  0.00     0.047 C 
BRANCH   8  10
ATOM     10  C   UNL A   1      31.033  24.053  23.998  1.00  0.00     0.037 C 
ATOM     11  C   UNL A   1      32.120  23.053  23.724  1.00  0.00     0.007 C 
ENDBRANCH   8  10
BRANCH   8  12
ATOM     12  N   UNL A   1      29.537  25.174  25.311  1.00  0.00    -0.322 N 
ATOM     13  C   UNL A   1      29.381  26.283  24.581  1.00  0.00     0.320 C 
ATOM     14  H   UNL A   1      28.775  24.734  25.750  1.00  0.00     0.166 HD
ATOM     15  O   UNL A   1      28.198  26.350  24.252  1.00  0.00    -0.248 OA
ATOM     16  N   UNL A   1      30.434  27.149  24.260  1.00  0.00    -0.306 N 
ATOM     17  H   UNL A   1      30.332  27.935  24.845  1.00  0.00     0.171 HD
BRANCH  16  18
ATOM     18  C   UNL A   1      31.670  27.413  23.405  1.00  0.00     0.064 A 
ATOM     19  C   UNL A   1      32.374  26.774  22.314  1.00  0.00    -0.026 A 
ATOM     20  C   UNL A   1      32.281  28.665  23.788  1.00  0.00     0.064 A 
ATOM     21  C   UNL A   1      31.973  25.870  21.142  1.00  0.00     0.046 C 
ATOM     22  C   UNL A   1      33.698  27.226  21.971  1.00  0.00     0.005 A 
ATOM     23  C   UNL A   1      33.498  29.162  23.284  1.00  0.00     0.023 A 
ATOM     24  Cl  UNL A   1      31.571  29.717  24.986  1.00  0.00    -0.082 Cl
ATOM     25  C   UNL A   1      34.254  28.396  22.437  1.00  0.00     0.002 A 
ENDBRANCH  16  18
ENDBRANCH   8  12
ENDBRANCH   6   8
ENDBRANCH   5   6
ENDBRANCH   4   5
ENDBRANCH   3   4
ENDBRANCH   2   3
ENDBRANCH   1   2
BRANCH   1  26
ATOM     26  C   UNL A   1      36.960  20.411  25.007  1.00  0.00     0.188 C 
BRANCH  26  27
ATOM     27  O   UNL A   1      38.152  21.081  25.395  1.00  0.00    -0.376 OA
BRANCH  27  28
ATOM     28  C   UNL A   1      39.264  20.232  25.620  1.00  0.00     0.202 C 
BRANCH  28  29
ATOM     29  C   UNL A   1      40.403  20.801  26.488  1.00  0.00     0.261 C 
BRANCH  29  30
ATOM     30  O   UNL A   1      40.259  22.167  26.920  1.00  0.00    -0.460 OA
BRANCH  30  31
ATOM     31  C   UNL A   1      41.184  23.048  26.447  1.00  0.00     0.338 C 
ATOM     32  O   UNL A   1      42.103  22.811  25.670  1.00  0.00    -0.246 OA
BRANCH  31  33
ATOM     33  C   UNL A   1      40.797  24.418  26.870  1.00  0.00     0.060 A 
ATOM     34  C   UNL A   1      41.391  25.537  26.254  1.00  0.00     0.016 A 
ATOM     35  C   UNL A   1      39.826  24.597  27.856  1.00  0.00     0.016 A 
ATOM     36  C   UNL A   1      41.059  26.833  26.667  1.00  0.00     0.010 A 
ATOM     37  C   UNL A   1      39.517  25.886  28.288  1.00  0.00     0.010 A 
ATOM     38  C   UNL A   1      40.172  27.004  27.736  1.00  0.00    -0.014 A 
BRANCH  38  39
ATOM     39  C   UNL A   1      40.193  28.240  28.559  1.00  0.00     0.031 A 
ATOM     40  C   UNL A   1      41.224  28.289  29.655  1.00  0.00     0.074 A 
ATOM     41  C   UNL A   1      39.275  29.214  28.445  1.00  0.00     0.049 A 
ATOM     42  N   UNL A   1      41.304  29.073  30.697  1.00  0.00    -0.248 NA
ATOM     43  C   UNL A   1      42.294  27.279  29.575  1.00  0.00     0.031 C 
ATOM     44  C   UNL A   1      38.264  29.316  27.397  1.00  0.00     0.029 A 
ATOM     45  N   UNL A   1      39.028  30.287  29.267  1.00  0.00    -0.354 N 
ATOM     46  C   UNL A   1      42.403  28.619  31.416  1.00  0.00     0.074 A 
ATOM     47  C   UNL A   1      42.947  27.487  30.704  1.00  0.00     0.031 C 
ATOM     48  C   UNL A   1      37.476  30.374  27.661  1.00  0.00     0.029 A 
ATOM     49  C   UNL A   1      37.894  30.984  28.925  1.00  0.00     0.049 A 
ATOM     50  H   UNL A   1      39.606  30.532  30.025  1.00  0.00     0.167 HD
ATOM     51  C   UNL A   1      42.907  29.089  32.580  1.00  0.00     0.031 A 
ATOM     52  C   UNL A   1      37.243  31.962  29.587  1.00  0.00     0.031 A 
ATOM     53  C   UNL A   1      42.340  30.192  33.302  1.00  0.00     0.049 A 
ATOM     54  C   UNL A   1      37.772  32.433  30.920  1.00  0.00     0.074 A 
ATOM     55  C   UNL A   1      42.773  30.767  34.481  1.00  0.00     0.029 A 
ATOM     56  N   UNL A   1      41.198  30.877  32.911  1.00  0.00    -0.354 N 
ATOM     57  N   UNL A   1      38.816  32.011  31.593  1.00  0.00    -0.248 NA
ATOM     58  C   UNL A   1      37.030  33.515  31.584  1.00  0.00     0.031 C 
ATOM     59  C   UNL A   1      41.852  31.755  34.841  1.00  0.00     0.029 A 
ATOM     60  C   UNL A   1      40.893  31.851  33.843  1.00  0.00     0.049 A 
ATOM     61  H   UNL A   1      40.681  30.695  32.092  1.00  0.00     0.167 HD
ATOM     62  C   UNL A   1      38.879  32.797  32.739  1.00  0.00     0.074 A 
ATOM     63  C   UNL A   1      37.766  33.721  32.669  1.00  0.00     0.031 C 
ATOM     64  C   UNL A   1      39.782  32.764  33.751  1.00  0.00     0.031 A 
BRANCH  51  65
ATOM     65  C   UNL A   1      44.081  28.349  33.164  1.00  0.00    -0.014 A 
ATOM     66  C   UNL A   1      45.402  28.639  32.782  1.00  0.00     0.009 A 
ATOM     67  C   UNL A   1      43.853  27.313  34.082  1.00  0.00     0.009 A 
ATOM     68  C   UNL A   1      46.463  27.868  33.263  1.00  0.00     0.001 A 
ATOM     69  C   UNL A   1      44.920  26.569  34.591  1.00  0.00     0.001 A 
ATOM     70  C   UNL A   1      46.220  26.835  34.168  1.00  0.00     0.000 A 
ENDBRANCH  51  65
BRANCH  52  71
ATOM     71  C   UNL A   1      35.996  32.534  29.013  1.00  0.00    -0.014 A 
ATOM     72  C   UNL A   1      34.826  31.765  28.931  1.00  0.00     0.009 A 
ATOM     73  C   UNL A   1      35.962  33.864  28.563  1.00  0.00     0.009 A 
ATOM     74  C   UNL A   1      33.651  32.313  28.407  1.00  0.00     0.001 A 
ATOM     75  C   UNL A   1      34.779  34.419  28.066  1.00  0.00     0.001 A 
ATOM     76  C   UNL A   1      33.626  33.641  27.985  1.00  0.00     0.000 A 
ENDBRANCH  52  71
BRANCH  64  77
ATOM     77  C   UNL A   1      39.653  33.793  34.841  1.00  0.00    -0.014 A 
ATOM     78  C   UNL A   1      39.063  33.490  36.077  1.00  0.00     0.009 A 
ATOM     79  C   UNL A   1      40.220  35.065  34.652  1.00  0.00     0.009 A 
ATOM     80  C   UNL A   1      39.025  34.449  37.093  1.00  0.00     0.001 A 
ATOM     81  C   UNL A   1      40.210  36.008  35.679  1.00  0.00     0.001 A 
ATOM     82  C   UNL A   1      39.606  35.702  36.896  1.00  0.00     0.000 A 
ENDBRANCH  64  77
ENDBRANCH  38  39
ENDBRANCH  31  33
ENDBRANCH  30  31
ENDBRANCH  29  30
ENDBRANCH  28  29
ENDBRANCH  27  28
ENDBRANCH  26  27
ENDBRANCH   1  26
TORSDOF 20
ENDMDL
MODEL 3
REMARK VINA RESULT:     -10.1      5.096     10.433
REMARK SMILES CC[C@@](C)(NC(=O)Nc1c(C)cccc1Cl)C(=O)OCCOCCOCCOC(=O)c1ccc(-c2c3nc(c(-c4ccccc4)c4ccc([nH]4)c(-c4ccccc4)c4nc(c(-c5ccccc5)c5ccc2[nH]5)C=C4)C=C3)cc1
REMARK SMILES IDX 23 1 22 2 21 3 20 4 19 5 17 6 18 7 3 8 4 9 2 10 1 11 5 12
REMARK SMILES IDX 6 13 7 15 8 16 9 18 10 19 15 20 11 21 12 22 14 23 16 24
REMARK SMILES IDX 13 25 24 26 25 27 26 28 27 29 28 30 29 31 30 32 31 33 32 34
REMARK SMILES IDX 78 35 33 36 77 37 34 38 35 39 36 40 71 41 37 42 76 43 70 44
REMARK SMILES IDX 72 45 38 46 75 47 69 48 68 49 39 51 61 52 46 53 60 54 47 55
REMARK SMILES IDX 50 56 59 57 73 58 48 59 49 60 58 62 74 63 51 64 40 65 41 66
REMARK SMILES IDX 45 67 42 68 44 69 43 70 62 71 63 72 67 73 64 74 66 75 65 76
REMARK SMILES IDX 52 77 53 78 57 79 54 80 56 81 55 82
REMARK H PARENT 5 14 8 17 72 50 50 61
REMARK Flexibility Score: inf
ROOT
ATOM      1  C   UNL A   1      35.448  21.253  25.060  1.00  0.00     0.188 C 
ENDROOT
BRANCH   1   2
ATOM      2  O   UNL A   1      34.277  21.702  25.779  1.00  0.00    -0.376 OA
BRANCH   2   3
ATOM      3  C   UNL A   1      34.240  22.942  26.514  1.00  0.00     0.202 C 
BRANCH   3   4
ATOM      4  C   UNL A   1      34.411  24.507  25.826  1.00  0.00     0.261 C 
BRANCH   4   5
ATOM      5  O   UNL A   1      34.104  25.223  24.379  1.00  0.00    -0.462 OA
BRANCH   5   6
ATOM      6  C   UNL A   1      33.528  24.950  23.072  1.00  0.00     0.331 C 
ATOM      7  O   UNL A   1      34.078  25.255  22.011  1.00  0.00    -0.249 OA
BRANCH   6   8
ATOM      8  C   UNL A   1      31.959  24.589  23.053  1.00  0.00     0.136 C 
ATOM      9  C   UNL A   1      31.884  23.134  23.524  1.00  0.00     0.047 C 
BRANCH   8  10
ATOM     10  C   UNL A   1      30.687  25.334  23.573  1.00  0.00     0.037 C 
ATOM     11  C   UNL A   1      30.326  25.347  25.031  1.00  0.00     0.007 C 
ENDBRANCH   8  10
BRANCH   8  12
ATOM     12  N   UNL A   1      31.792  24.709  21.673  1.00  0.00    -0.322 N 
ATOM     13  C   UNL A   1      31.685  25.950  21.187  1.00  0.00     0.320 C 
ATOM     14  H   UNL A   1      31.754  23.921  21.086  1.00  0.00     0.166 HD
ATOM     15  O   UNL A   1      31.954  25.906  19.989  1.00  0.00    -0.248 OA
ATOM     16  N   UNL A   1      31.353  27.059  21.976  1.00  0.00    -0.306 N 
ATOM     17  H   UNL A   1      30.412  27.270  21.773  1.00  0.00     0.171 HD
BRANCH  16  18
ATOM     18  C   UNL A   1      31.805  28.086  23.010  1.00  0.00     0.064 A 
ATOM     19  C   UNL A   1      33.048  28.548  23.588  1.00  0.00    -0.026 A 
ATOM     20  C   UNL A   1      30.663  28.805  23.528  1.00  0.00     0.064 A 
ATOM     21  C   UNL A   1      34.498  28.662  23.102  1.00  0.00     0.046 C 
ATOM     22  C   UNL A   1      33.012  29.366  24.774  1.00  0.00     0.005 A 
ATOM     23  C   UNL A   1      30.703  29.744  24.576  1.00  0.00     0.023 A 
ATOM     24  Cl  UNL A   1      29.050  28.551  22.915  1.00  0.00    -0.082 Cl
ATOM     25  C   UNL A   1      31.869  29.959  25.261  1.00  0.00     0.002 A 
ENDBRANCH  16  18
ENDBRANCH   8  12
ENDBRANCH   6   8
ENDBRANCH   5   6
ENDBRANCH   4   5
ENDBRANCH   3   4
ENDBRANCH   2   3
ENDBRANCH   1   2
BRANCH   1  26
ATOM     26  C   UNL A   1      36.893  21.477  25.572  1.00  0.00     0.188 C 
BRANCH  26  27
ATOM     27  O   UNL A   1      37.959  20.974  24.779  1.00  0.00    -0.376 OA
BRANCH  27  28
ATOM     28  C   UNL A   1      38.284  19.616  25.013  1.00  0.00     0.202 C 
BRANCH  28  29
ATOM     29  C   UNL A   1      39.651  19.335  25.668  1.00  0.00     0.261 C 
BRANCH  29  30
ATOM     30  O   UNL A   1      39.950  20.071  26.868  1.00  0.00    -0.460 OA
BRANCH  30  31
ATOM     31  C   UNL A   1      41.212  20.575  26.967  1.00  0.00     0.338 C 
ATOM     32  O   UNL A   1      42.256  20.026  26.632  1.00  0.00    -0.246 OA
BRANCH  31  33
ATOM     33  C   UNL A   1      41.125  22.001  27.373  1.00  0.00     0.060 A 
ATOM     34  C   UNL A   1      40.104  22.818  26.851  1.00  0.00     0.016 A 
ATOM     35  C   UNL A   1      42.039  22.523  28.289  1.00  0.00     0.016 A 
ATOM     36  C   UNL A   1      40.031  24.173  27.200  1.00  0.00     0.010 A 
ATOM     37  C   UNL A   1      41.985  23.879  28.614  1.00  0.00     0.010 A 
ATOM     38  C   UNL A   1      41.019  24.718  28.028  1.00  0.00    -0.014 A 
BRANCH  38  39
ATOM     39  C   UNL A   1      41.326  26.171  27.999  1.00  0.00     0.031 A 
ATOM     40  C   UNL A   1      42.609  26.564  27.316  1.00  0.00     0.074 A 
ATOM     41  C   UNL A   1      40.593  27.090  28.649  1.00  0.00     0.049 A 
ATOM     42  N   UNL A   1      43.283  27.681  27.377  1.00  0.00    -0.248 NA
ATOM     43  C   UNL A   1      43.232  25.526  26.477  1.00  0.00     0.031 C 
ATOM     44  C   UNL A   1      39.307  26.854  29.298  1.00  0.00     0.029 A 
ATOM     45  N   UNL A   1      40.868  28.412  28.904  1.00  0.00    -0.354 N 
ATOM     46  C   UNL A   1      44.429  27.460  26.623  1.00  0.00     0.074 A 
ATOM     47  C   UNL A   1      44.367  26.105  26.130  1.00  0.00     0.031 C 
ATOM     48  C   UNL A   1      38.920  27.986  29.912  1.00  0.00     0.029 A 
ATOM     49  C   UNL A   1      39.960  29.004  29.747  1.00  0.00     0.049 A 
ATOM     50  H   UNL A   1      41.639  28.888  28.519  1.00  0.00     0.167 HD
ATOM     51  C   UNL A   1      45.457  28.305  26.375  1.00  0.00     0.031 A 
ATOM     52  C   UNL A   1      39.996  30.206  30.358  1.00  0.00     0.031 A 
ATOM     53  C   UNL A   1      45.530  29.639  26.899  1.00  0.00     0.049 A 
ATOM     54  C   UNL A   1      41.180  31.115  30.133  1.00  0.00     0.074 A 
ATOM     55  C   UNL A   1      46.512  30.591  26.703  1.00  0.00     0.029 A 
ATOM     56  N   UNL A   1      44.580  30.202  27.740  1.00  0.00    -0.354 N 
ATOM     57  N   UNL A   1      42.257  30.910  29.412  1.00  0.00    -0.248 NA
ATOM     58  C   UNL A   1      41.153  32.421  30.810  1.00  0.00     0.031 C 
ATOM     59  C   UNL A   1      46.191  31.706  27.483  1.00  0.00     0.029 A 
ATOM     60  C   UNL A   1      44.968  31.479  28.097  1.00  0.00     0.049 A 
ATOM     61  H   UNL A   1      43.753  29.757  28.038  1.00  0.00     0.167 HD
ATOM     62  C   UNL A   1      43.017  32.070  29.516  1.00  0.00     0.074 A 
ATOM     63  C   UNL A   1      42.277  32.975  30.373  1.00  0.00     0.031 C 
ATOM     64  C   UNL A   1      44.213  32.365  28.947  1.00  0.00     0.031 A 
BRANCH  51  65
ATOM     65  C   UNL A   1      46.606  27.764  25.568  1.00  0.00    -0.014 A 
ATOM     66  C   UNL A   1      46.689  27.957  24.179  1.00  0.00     0.009 A 
ATOM     67  C   UNL A   1      47.602  27.010  26.207  1.00  0.00     0.009 A 
ATOM     68  C   UNL A   1      47.711  27.356  23.440  1.00  0.00     0.001 A 
ATOM     69  C   UNL A   1      48.646  26.444  25.472  1.00  0.00     0.001 A 
ATOM     70  C   UNL A   1      48.689  26.603  24.089  1.00  0.00     0.000 A 
ENDBRANCH  51  65
BRANCH  52  71
ATOM     71  C   UNL A   1      38.889  30.602  31.269  1.00  0.00    -0.014 A 
ATOM     72  C   UNL A   1      38.950  30.311  32.640  1.00  0.00     0.009 A 
ATOM     73  C   UNL A   1      37.771  31.296  30.775  1.00  0.00     0.009 A 
ATOM     74  C   UNL A   1      37.916  30.702  33.496  1.00  0.00     0.001 A 
ATOM     75  C   UNL A   1      36.752  31.710  31.637  1.00  0.00     0.001 A 
ATOM     76  C   UNL A   1      36.823  31.409  32.996  1.00  0.00     0.000 A 
ENDBRANCH  52  71
BRANCH  64  77
ATOM     77  C   UNL A   1      44.778  33.741  29.172  1.00  0.00    -0.014 A 
ATOM     78  C   UNL A   1      44.432  34.825  28.350  1.00  0.00     0.009 A 
ATOM     79  C   UNL A   1      45.601  33.969  30.288  1.00  0.00     0.009 A 
ATOM     80  C   UNL A   1      44.919  36.104  28.631  1.00  0.00     0.001 A 
ATOM     81  C   UNL A   1      46.058  35.253  30.584  1.00  0.00     0.001 A 
ATOM     82  C   UNL A   1      45.723  36.318  29.752  1.00  0.00     0.000 A 
ENDBRANCH  64  77
ENDBRANCH  38  39
ENDBRANCH  31  33
ENDBRANCH  30  31
ENDBRANCH  29  30
ENDBRANCH  28  29
ENDBRANCH  27  28
ENDBRANCH  26  27
ENDBRANCH   1  26
TORSDOF 20
ENDMDL
