MODEL 1
REMARK VINA RESULT:      -9.8      0.000      0.000
REMARK SMILES CC1(C)CCC[C@@]1(CC(=O)OCCOCCOCCOC(=O)c1ccc(-c2c3nc(c(-c4ccccc4)c4ccc([nH]4)c(-c4ccccc4)c4nc(c(-c5ccccc5)c5ccc2[nH]5)C=C4)C=C3)cc1)[NH+]1CCCCC1
REMARK SMILES IDX 15 1 14 2 13 3 12 4 11 5 9 6 10 7 8 8 7 9 1 10 2 11 3 12
REMARK SMILES IDX 4 13 5 14 6 15 71 16 72 17 76 18 73 20 75 21 74 22 16 23
REMARK SMILES IDX 17 24 18 25 19 26 20 27 21 28 22 29 23 30 24 31 70 32 25 33
REMARK SMILES IDX 69 34 26 35 27 36 28 37 63 38 29 39 68 40 62 41 64 42 30 43
REMARK SMILES IDX 67 44 61 45 60 46 31 48 53 49 38 50 52 51 39 52 42 53 51 54
REMARK SMILES IDX 65 55 40 56 41 57 50 59 66 60 43 61 32 62 33 63 37 64 34 65
REMARK SMILES IDX 36 66 35 67 54 68 55 69 59 70 56 71 58 72 57 73 44 74 45 75
REMARK SMILES IDX 49 76 46 77 48 78 47 79
REMARK H PARENT 71 19 64 47 42 58
REMARK Flexibility Score: inf
ROOT
ATOM      1  C   UNL A   1      38.928  21.790  26.056  1.00  0.00     0.188 C 
ENDROOT
BRANCH   1   2
ATOM      2  O   UNL A   1      37.897  21.676  25.077  1.00  0.00    -0.376 OA
BRANCH   2   3
ATOM      3  C   UNL A   1      36.552  21.864  25.515  1.00  0.00     0.202 C 
BRANCH   3   4
ATOM      4  C   UNL A   1      36.173  23.326  25.764  1.00  0.00     0.261 C 
BRANCH   4   5
ATOM      5  O   UNL A   1      34.742  23.456  25.723  1.00  0.00    -0.463 OA
BRANCH   5   6
ATOM      6  C   UNL A   1      34.252  24.719  25.780  1.00  0.00     0.312 C 
ATOM      7  O   UNL A   1      34.925  25.706  26.037  1.00  0.00    -0.252 OA
BRANCH   6   8
ATOM      8  C   UNL A   1      32.807  24.748  25.303  1.00  0.00     0.191 C 
BRANCH   8   9
ATOM      9  C   UNL A   1      32.332  25.748  24.176  1.00  0.00     0.113 C 
ATOM     10  C   UNL A   1      30.277  24.370  23.232  1.00  0.00     0.018 C 
ATOM     11  C   UNL A   1      31.696  24.903  22.964  1.00  0.00     0.020 C 
ATOM     12  C   UNL A   1      32.527  23.651  22.559  1.00  0.00     0.018 C 
ATOM     13  C   UNL A   1      31.782  25.852  21.751  1.00  0.00     0.013 C 
ATOM     14  C   UNL A   1      33.062  26.653  21.962  1.00  0.00     0.007 C 
ATOM     15  C   UNL A   1      33.481  26.476  23.427  1.00  0.00     0.070 C 
BRANCH   9  16
ATOM     16  N   UNL A   1      31.405  26.759  24.827  1.00  0.00    -0.329 N 
ATOM     17  C   UNL A   1      31.240  28.137  24.357  1.00  0.00     0.262 C 
ATOM     18  C   UNL A   1      31.200  26.725  26.286  1.00  0.00     0.262 C 
ATOM     19  H   UNL A   1      30.672  26.245  24.337  1.00  0.00     0.348 HD
ATOM     20  C   UNL A   1      32.095  29.182  25.077  1.00  0.00     0.062 C 
ATOM     21  C   UNL A   1      31.979  27.761  27.109  1.00  0.00     0.062 C 
ATOM     22  C   UNL A   1      31.825  29.168  26.570  1.00  0.00     0.012 C 
ENDBRANCH   9  16
ENDBRANCH   8   9
ENDBRANCH   6   8
ENDBRANCH   5   6
ENDBRANCH   4   5
ENDBRANCH   3   4
ENDBRANCH   2   3
ENDBRANCH   1   2
BRANCH   1  23
ATOM     23  C   UNL A   1      39.943  20.644  26.151  1.00  0.00     0.188 C 
BRANCH  23  24
ATOM     24  O   UNL A   1      40.593  20.612  27.416  1.00  0.00    -0.376 OA
BRANCH  24  25
ATOM     25  C   UNL A   1      41.890  20.015  27.364  1.00  0.00     0.202 C 
BRANCH  25  26
ATOM     26  C   UNL A   1      42.682  20.647  26.221  1.00  0.00     0.261 C 
BRANCH  26  27
ATOM     27  O   UNL A   1      43.242  21.917  26.613  1.00  0.00    -0.460 OA
BRANCH  27  28
ATOM     28  C   UNL A   1      42.993  22.941  25.772  1.00  0.00     0.338 C 
ATOM     29  O   UNL A   1      43.122  22.954  24.559  1.00  0.00    -0.246 OA
BRANCH  28  30
ATOM     30  C   UNL A   1      42.467  24.076  26.542  1.00  0.00     0.060 A 
ATOM     31  C   UNL A   1      43.001  25.349  26.331  1.00  0.00     0.016 A 
ATOM     32  C   UNL A   1      41.539  23.862  27.557  1.00  0.00     0.016 A 
ATOM     33  C   UNL A   1      42.677  26.399  27.184  1.00  0.00     0.010 A 
ATOM     34  C   UNL A   1      41.161  24.934  28.371  1.00  0.00     0.010 A 
ATOM     35  C   UNL A   1      41.754  26.203  28.216  1.00  0.00    -0.014 A 
BRANCH  35  36
ATOM     36  C   UNL A   1      41.469  27.282  29.196  1.00  0.00     0.031 A 
ATOM     37  C   UNL A   1      42.326  27.400  30.426  1.00  0.00     0.074 A 
ATOM     38  C   UNL A   1      40.470  28.164  29.000  1.00  0.00     0.049 A 
ATOM     39  N   UNL A   1      42.104  28.068  31.529  1.00  0.00    -0.248 NA
ATOM     40  C   UNL A   1      43.598  26.658  30.414  1.00  0.00     0.031 C 
ATOM     41  C   UNL A   1      39.623  28.245  27.810  1.00  0.00     0.029 A 
ATOM     42  N   UNL A   1      39.999  29.164  29.815  1.00  0.00    -0.354 N 
ATOM     43  C   UNL A   1      43.175  27.775  32.365  1.00  0.00     0.074 A 
ATOM     44  C   UNL A   1      44.052  26.883  31.638  1.00  0.00     0.031 C 
ATOM     45  C   UNL A   1      38.744  29.250  27.966  1.00  0.00     0.029 A 
ATOM     46  C   UNL A   1      38.908  29.819  29.300  1.00  0.00     0.049 A 
ATOM     47  H   UNL A   1      40.403  29.389  30.683  1.00  0.00     0.167 HD
ATOM     48  C   UNL A   1      43.394  28.200  33.633  1.00  0.00     0.031 A 
ATOM     49  C   UNL A   1      38.091  30.732  29.860  1.00  0.00     0.031 A 
ATOM     50  C   UNL A   1      42.539  29.113  34.339  1.00  0.00     0.049 A 
ATOM     51  C   UNL A   1      38.314  31.138  31.290  1.00  0.00     0.074 A 
ATOM     52  C   UNL A   1      42.653  29.577  35.638  1.00  0.00     0.029 A 
ATOM     53  N   UNL A   1      41.421  29.722  33.793  1.00  0.00    -0.354 N 
ATOM     54  N   UNL A   1      39.259  30.767  32.118  1.00  0.00    -0.248 NA
ATOM     55  C   UNL A   1      37.335  32.071  31.870  1.00  0.00     0.031 C 
ATOM     56  C   UNL A   1      41.586  30.448  35.885  1.00  0.00     0.029 A 
ATOM     57  C   UNL A   1      40.832  30.554  34.727  1.00  0.00     0.049 A 
ATOM     58  H   UNL A   1      41.093  29.581  32.874  1.00  0.00     0.167 HD
ATOM     59  C   UNL A   1      38.991  31.421  33.313  1.00  0.00     0.074 A 
ATOM     60  C   UNL A   1      37.810  32.231  33.096  1.00  0.00     0.031 C 
ATOM     61  C   UNL A   1      39.659  31.350  34.490  1.00  0.00     0.031 A 
BRANCH  48  62
ATOM     62  C   UNL A   1      44.580  27.628  34.353  1.00  0.00    -0.014 A 
ATOM     63  C   UNL A   1      45.807  28.304  34.399  1.00  0.00     0.009 A 
ATOM     64  C   UNL A   1      44.452  26.398  35.016  1.00  0.00     0.009 A 
ATOM     65  C   UNL A   1      46.893  27.744  35.076  1.00  0.00     0.001 A 
ATOM     66  C   UNL A   1      45.532  25.851  35.710  1.00  0.00     0.001 A 
ATOM     67  C   UNL A   1      46.755  26.520  35.733  1.00  0.00     0.000 A 
ENDBRANCH  48  62
BRANCH  49  68
ATOM     68  C   UNL A   1      36.930  31.260  29.098  1.00  0.00    -0.014 A 
ATOM     69  C   UNL A   1      36.900  32.598  28.679  1.00  0.00     0.009 A 
ATOM     70  C   UNL A   1      35.837  30.429  28.802  1.00  0.00     0.009 A 
ATOM     71  C   UNL A   1      35.790  33.097  27.994  1.00  0.00     0.001 A 
ATOM     72  C   UNL A   1      34.742  30.924  28.094  1.00  0.00     0.001 A 
ATOM     73  C   UNL A   1      34.715  32.260  27.697  1.00  0.00     0.000 A 
ENDBRANCH  49  68
BRANCH  61  74
ATOM     74  C   UNL A   1      39.141  32.192  35.618  1.00  0.00    -0.014 A 
ATOM     75  C   UNL A   1      38.247  31.665  36.562  1.00  0.00     0.009 A 
ATOM     76  C   UNL A   1      39.579  33.518  35.755  1.00  0.00     0.009 A 
ATOM     77  C   UNL A   1      37.779  32.462  37.609  1.00  0.00     0.001 A 
ATOM     78  C   UNL A   1      39.126  34.305  36.814  1.00  0.00     0.001 A 
ATOM     79  C   UNL A   1      38.221  33.778  37.735  1.00  0.00     0.000 A 
ENDBRANCH  61  74
ENDBRANCH  35  36
ENDBRANCH  28  30
ENDBRANCH  27  28
ENDBRANCH  26  27
ENDBRANCH  25  26
ENDBRANCH  24  25
ENDBRANCH  23  24
ENDBRANCH   1  23
TORSDOF 19
ENDMDL
MODEL 2
REMARK VINA RESULT:      -9.7      0.658      2.068
REMARK SMILES CC1(C)CCC[C@@]1(CC(=O)OCCOCCOCCOC(=O)c1ccc(-c2c3nc(c(-c4ccccc4)c4ccc([nH]4)c(-c4ccccc4)c4nc(c(-c5ccccc5)c5ccc2[nH]5)C=C4)C=C3)cc1)[NH+]1CCCCC1
REMARK SMILES IDX 15 1 14 2 13 3 12 4 11 5 9 6 10 7 8 8 7 9 1 10 2 11 3 12
REMARK SMILES IDX 4 13 5 14 6 15 71 16 72 17 76 18 73 20 75 21 74 22 16 23
REMARK SMILES IDX 17 24 18 25 19 26 20 27 21 28 22 29 23 30 24 31 70 32 25 33
REMARK SMILES IDX 69 34 26 35 27 36 28 37 63 38 29 39 68 40 62 41 64 42 30 43
REMARK SMILES IDX 67 44 61 45 60 46 31 48 53 49 38 50 52 51 39 52 42 53 51 54
REMARK SMILES IDX 65 55 40 56 41 57 50 59 66 60 43 61 32 62 33 63 37 64 34 65
REMARK SMILES IDX 36 66 35 67 54 68 55 69 59 70 56 71 58 72 57 73 44 74 45 75
REMARK SMILES IDX 49 76 46 77 48 78 47 79
REMARK H PARENT 71 19 64 47 42 58
REMARK Flexibility Score: inf
ROOT
ATOM      1  C   UNL A   1      39.084  21.993  26.120  1.00  0.00     0.188 C 
ENDROOT
BRANCH   1   2
ATOM      2  O   UNL A   1      38.043  22.061  25.146  1.00  0.00    -0.376 OA
BRANCH   2   3
ATOM      3  C   UNL A   1      36.701  22.141  25.624  1.00  0.00     0.202 C 
BRANCH   3   4
ATOM      4  C   UNL A   1      36.282  23.541  26.083  1.00  0.00     0.261 C 
BRANCH   4   5
ATOM      5  O   UNL A   1      35.444  24.135  25.078  1.00  0.00    -0.463 OA
BRANCH   5   6
ATOM      6  C   UNL A   1      34.244  24.606  25.498  1.00  0.00     0.312 C 
ATOM      7  O   UNL A   1      33.509  24.018  26.279  1.00  0.00    -0.252 OA
BRANCH   6   8
ATOM      8  C   UNL A   1      34.035  26.033  25.011  1.00  0.00     0.191 C 
BRANCH   8   9
ATOM      9  C   UNL A   1      32.723  26.839  25.361  1.00  0.00     0.113 C 
ATOM     10  C   UNL A   1      33.211  29.050  23.987  1.00  0.00     0.018 C 
ATOM     11  C   UNL A   1      33.067  28.411  25.380  1.00  0.00     0.020 C 
ATOM     12  C   UNL A   1      34.388  28.762  26.122  1.00  0.00     0.018 C 
ATOM     13  C   UNL A   1      31.947  29.037  26.235  1.00  0.00     0.013 C 
ATOM     14  C   UNL A   1      31.616  27.986  27.289  1.00  0.00     0.007 C 
ATOM     15  C   UNL A   1      32.216  26.654  26.818  1.00  0.00     0.070 C 
BRANCH   9  16
ATOM     16  N   UNL A   1      31.651  26.415  24.373  1.00  0.00    -0.329 N 
ATOM     17  C   UNL A   1      30.403  25.749  24.758  1.00  0.00     0.262 C 
ATOM     18  C   UNL A   1      32.041  25.956  23.029  1.00  0.00     0.262 C 
ATOM     19  H   UNL A   1      31.408  27.407  24.372  1.00  0.00     0.348 HD
ATOM     20  C   UNL A   1      30.416  24.223  24.658  1.00  0.00     0.062 C 
ATOM     21  C   UNL A   1      32.049  24.438  22.801  1.00  0.00     0.062 C 
ATOM     22  C   UNL A   1      30.764  23.774  23.251  1.00  0.00     0.012 C 
ENDBRANCH   9  16
ENDBRANCH   8   9
ENDBRANCH   6   8
ENDBRANCH   5   6
ENDBRANCH   4   5
ENDBRANCH   3   4
ENDBRANCH   2   3
ENDBRANCH   1   2
BRANCH   1  23
ATOM     23  C   UNL A   1      39.944  20.723  26.145  1.00  0.00     0.188 C 
BRANCH  23  24
ATOM     24  O   UNL A   1      40.587  20.541  27.402  1.00  0.00    -0.376 OA
BRANCH  24  25
ATOM     25  C   UNL A   1      41.914  20.026  27.282  1.00  0.00     0.202 C 
BRANCH  25  26
ATOM     26  C   UNL A   1      42.636  20.770  26.160  1.00  0.00     0.261 C 
BRANCH  26  27
ATOM     27  O   UNL A   1      43.193  22.014  26.631  1.00  0.00    -0.460 OA
BRANCH  27  28
ATOM     28  C   UNL A   1      43.007  23.073  25.819  1.00  0.00     0.338 C 
ATOM     29  O   UNL A   1      43.182  23.125  24.612  1.00  0.00    -0.246 OA
BRANCH  28  30
ATOM     30  C   UNL A   1      42.485  24.197  26.610  1.00  0.00     0.060 A 
ATOM     31  C   UNL A   1      42.929  25.491  26.330  1.00  0.00     0.016 A 
ATOM     32  C   UNL A   1      41.659  23.958  27.704  1.00  0.00     0.016 A 
ATOM     33  C   UNL A   1      42.621  26.542  27.188  1.00  0.00     0.010 A 
ATOM     34  C   UNL A   1      41.292  25.026  28.527  1.00  0.00     0.010 A 
ATOM     35  C   UNL A   1      41.800  26.321  28.299  1.00  0.00    -0.014 A 
BRANCH  35  36
ATOM     36  C   UNL A   1      41.539  27.405  29.279  1.00  0.00     0.031 A 
ATOM     37  C   UNL A   1      42.415  27.519  30.496  1.00  0.00     0.074 A 
ATOM     38  C   UNL A   1      40.546  28.296  29.094  1.00  0.00     0.049 A 
ATOM     39  N   UNL A   1      42.215  28.193  31.600  1.00  0.00    -0.248 NA
ATOM     40  C   UNL A   1      43.679  26.766  30.468  1.00  0.00     0.031 C 
ATOM     41  C   UNL A   1      39.682  28.382  27.916  1.00  0.00     0.029 A 
ATOM     42  N   UNL A   1      40.095  29.303  29.912  1.00  0.00    -0.354 N 
ATOM     43  C   UNL A   1      43.294  27.893  32.422  1.00  0.00     0.074 A 
ATOM     44  C   UNL A   1      44.153  26.990  31.685  1.00  0.00     0.031 C 
ATOM     45  C   UNL A   1      38.816  29.395  28.082  1.00  0.00     0.029 A 
ATOM     46  C   UNL A   1      39.004  29.967  29.411  1.00  0.00     0.049 A 
ATOM     47  H   UNL A   1      40.515  29.527  30.774  1.00  0.00     0.167 HD
ATOM     48  C   UNL A   1      43.536  28.319  33.685  1.00  0.00     0.031 A 
ATOM     49  C   UNL A   1      38.204  30.889  29.980  1.00  0.00     0.031 A 
ATOM     50  C   UNL A   1      42.699  29.243  34.400  1.00  0.00     0.049 A 
ATOM     51  C   UNL A   1      38.450  31.299  31.405  1.00  0.00     0.074 A 
ATOM     52  C   UNL A   1      42.837  29.710  35.695  1.00  0.00     0.029 A 
ATOM     53  N   UNL A   1      41.579  29.860  33.868  1.00  0.00    -0.354 N 
ATOM     54  N   UNL A   1      39.404  30.921  32.220  1.00  0.00    -0.248 NA
ATOM     55  C   UNL A   1      37.489  32.242  31.996  1.00  0.00     0.031 C 
ATOM     56  C   UNL A   1      41.781  30.592  35.955  1.00  0.00     0.029 A 
ATOM     57  C   UNL A   1      41.012  30.701  34.808  1.00  0.00     0.049 A 
ATOM     58  H   UNL A   1      41.237  29.720  32.954  1.00  0.00     0.167 HD
ATOM     59  C   UNL A   1      39.160  31.581  33.417  1.00  0.00     0.074 A 
ATOM     60  C   UNL A   1      37.983  32.402  33.215  1.00  0.00     0.031 C 
ATOM     61  C   UNL A   1      39.843  31.507  34.585  1.00  0.00     0.031 A 
BRANCH  48  62
ATOM     62  C   UNL A   1      44.726  27.739  34.389  1.00  0.00    -0.014 A 
ATOM     63  C   UNL A   1      45.962  28.400  34.411  1.00  0.00     0.009 A 
ATOM     64  C   UNL A   1      44.594  26.515  35.064  1.00  0.00     0.009 A 
ATOM     65  C   UNL A   1      47.053  27.832  35.074  1.00  0.00     0.001 A 
ATOM     66  C   UNL A   1      45.679  25.960  35.744  1.00  0.00     0.001 A 
ATOM     67  C   UNL A   1      46.910  26.615  35.743  1.00  0.00     0.000 A 
ENDBRANCH  48  62
BRANCH  49  68
ATOM     68  C   UNL A   1      37.037  31.426  29.233  1.00  0.00    -0.014 A 
ATOM     69  C   UNL A   1      37.105  32.680  28.608  1.00  0.00     0.009 A 
ATOM     70  C   UNL A   1      35.843  30.691  29.157  1.00  0.00     0.009 A 
ATOM     71  C   UNL A   1      35.992  33.195  27.938  1.00  0.00     0.001 A 
ATOM     72  C   UNL A   1      34.743  31.196  28.463  1.00  0.00     0.001 A 
ATOM     73  C   UNL A   1      34.815  32.451  27.861  1.00  0.00     0.000 A 
ENDBRANCH  49  68
BRANCH  61  74
ATOM     74  C   UNL A   1      39.350  32.358  35.717  1.00  0.00    -0.014 A 
ATOM     75  C   UNL A   1      39.884  33.634  35.949  1.00  0.00     0.009 A 
ATOM     76  C   UNL A   1      38.316  31.888  36.542  1.00  0.00     0.009 A 
ATOM     77  C   UNL A   1      39.409  34.415  37.005  1.00  0.00     0.001 A 
ATOM     78  C   UNL A   1      37.829  32.679  37.583  1.00  0.00     0.001 A 
ATOM     79  C   UNL A   1      38.382  33.938  37.818  1.00  0.00     0.000 A 
ENDBRANCH  61  74
ENDBRANCH  35  36
ENDBRANCH  28  30
ENDBRANCH  27  28
ENDBRANCH  26  27
ENDBRANCH  25  26
ENDBRANCH  24  25
ENDBRANCH  23  24
ENDBRANCH   1  23
TORSDOF 19
ENDMDL
MODEL 3
REMARK VINA RESULT:      -9.6      4.612      6.877
REMARK SMILES CC1(C)CCC[C@@]1(CC(=O)OCCOCCOCCOC(=O)c1ccc(-c2c3nc(c(-c4ccccc4)c4ccc([nH]4)c(-c4ccccc4)c4nc(c(-c5ccccc5)c5ccc2[nH]5)C=C4)C=C3)cc1)[NH+]1CCCCC1
REMARK SMILES IDX 15 1 14 2 13 3 12 4 11 5 9 6 10 7 8 8 7 9 1 10 2 11 3 12
REMARK SMILES IDX 4 13 5 14 6 15 71 16 72 17 76 18 73 20 75 21 74 22 16 23
REMARK SMILES IDX 17 24 18 25 19 26 20 27 21 28 22 29 23 30 24 31 70 32 25 33
REMARK SMILES IDX 69 34 26 35 27 36 28 37 63 38 29 39 68 40 62 41 64 42 30 43
REMARK SMILES IDX 67 44 61 45 60 46 31 48 53 49 38 50 52 51 39 52 42 53 51 54
REMARK SMILES IDX 65 55 40 56 41 57 50 59 66 60 43 61 32 62 33 63 37 64 34 65
REMARK SMILES IDX 36 66 35 67 54 68 55 69 59 70 56 71 58 72 57 73 44 74 45 75
REMARK SMILES IDX 49 76 46 77 48 78 47 79
REMARK H PARENT 71 19 64 47 42 58
REMARK Flexibility Score: inf
ROOT
ATOM      1  C   UNL A   1      40.680  21.525  27.063  1.00  0.00     0.188 C 
ENDROOT
BRANCH   1   2
ATOM      2  O   UNL A   1      39.524  21.265  26.268  1.00  0.00    -0.376 OA
BRANCH   2   3
ATOM      3  C   UNL A   1      38.549  22.303  26.169  1.00  0.00     0.202 C 
BRANCH   3   4
ATOM      4  C   UNL A   1      37.332  21.939  25.316  1.00  0.00     0.261 C 
BRANCH   4   5
ATOM      5  O   UNL A   1      36.857  23.117  24.644  1.00  0.00    -0.463 OA
BRANCH   5   6
ATOM      6  C   UNL A   1      36.157  22.916  23.500  1.00  0.00     0.312 C 
ATOM      7  O   UNL A   1      36.643  22.970  22.379  1.00  0.00    -0.252 OA
BRANCH   6   8
ATOM      8  C   UNL A   1      34.748  22.439  23.818  1.00  0.00     0.191 C 
BRANCH   8   9
ATOM      9  C   UNL A   1      33.546  23.454  23.955  1.00  0.00     0.113 C 
ATOM     10  C   UNL A   1      31.775  21.853  25.101  1.00  0.00     0.018 C 
ATOM     11  C   UNL A   1      32.162  22.641  23.837  1.00  0.00     0.020 C 
ATOM     12  C   UNL A   1      32.137  21.595  22.686  1.00  0.00     0.018 C 
ATOM     13  C   UNL A   1      31.126  23.709  23.431  1.00  0.00     0.013 C 
ATOM     14  C   UNL A   1      31.888  24.688  22.546  1.00  0.00     0.007 C 
ATOM     15  C   UNL A   1      33.386  24.437  22.763  1.00  0.00     0.070 C 
BRANCH   9  16
ATOM     16  N   UNL A   1      33.745  24.223  25.248  1.00  0.00    -0.329 N 
ATOM     17  C   UNL A   1      32.838  24.139  26.396  1.00  0.00     0.262 C 
ATOM     18  C   UNL A   1      34.341  25.570  25.210  1.00  0.00     0.262 C 
ATOM     19  H   UNL A   1      34.450  23.510  25.441  1.00  0.00     0.348 HD
ATOM     20  C   UNL A   1      31.775  25.236  26.474  1.00  0.00     0.062 C 
ATOM     21  C   UNL A   1      33.367  26.752  25.323  1.00  0.00     0.062 C 
ATOM     22  C   UNL A   1      32.414  26.612  26.492  1.00  0.00     0.012 C 
ENDBRANCH   9  16
ENDBRANCH   8   9
ENDBRANCH   6   8
ENDBRANCH   5   6
ENDBRANCH   4   5
ENDBRANCH   3   4
ENDBRANCH   2   3
ENDBRANCH   1   2
BRANCH   1  23
ATOM     23  C   UNL A   1      41.816  20.495  27.014  1.00  0.00     0.188 C 
BRANCH  23  24
ATOM     24  O   UNL A   1      41.734  19.668  25.858  1.00  0.00    -0.376 OA
BRANCH  24  25
ATOM     25  C   UNL A   1      42.322  18.380  26.049  1.00  0.00     0.202 C 
BRANCH  25  26
ATOM     26  C   UNL A   1      43.826  18.480  25.803  1.00  0.00     0.261 C 
BRANCH  26  27
ATOM     27  O   UNL A   1      44.127  18.476  24.393  1.00  0.00    -0.460 OA
BRANCH  27  28
ATOM     28  C   UNL A   1      45.201  19.204  24.030  1.00  0.00     0.338 C 
ATOM     29  O   UNL A   1      46.162  18.836  23.374  1.00  0.00    -0.246 OA
BRANCH  28  30
ATOM     30  C   UNL A   1      45.026  20.584  24.504  1.00  0.00     0.060 A 
ATOM     31  C   UNL A   1      44.487  21.539  23.640  1.00  0.00     0.016 A 
ATOM     32  C   UNL A   1      45.510  20.960  25.754  1.00  0.00     0.016 A 
ATOM     33  C   UNL A   1      44.503  22.887  23.981  1.00  0.00     0.010 A 
ATOM     34  C   UNL A   1      45.463  22.307  26.125  1.00  0.00     0.010 A 
ATOM     35  C   UNL A   1      44.994  23.287  25.228  1.00  0.00    -0.014 A 
BRANCH  35  36
ATOM     36  C   UNL A   1      45.111  24.727  25.573  1.00  0.00     0.031 A 
ATOM     37  C   UNL A   1      46.439  25.415  25.410  1.00  0.00     0.074 A 
ATOM     38  C   UNL A   1      44.051  25.433  26.014  1.00  0.00     0.049 A 
ATOM     39  N   UNL A   1      46.843  26.561  25.893  1.00  0.00    -0.248 NA
ATOM     40  C   UNL A   1      47.447  24.711  24.601  1.00  0.00     0.031 C 
ATOM     41  C   UNL A   1      42.679  24.937  26.123  1.00  0.00     0.029 A 
ATOM     42  N   UNL A   1      43.975  26.730  26.459  1.00  0.00    -0.354 N 
ATOM     43  C   UNL A   1      48.170  26.685  25.503  1.00  0.00     0.074 A 
ATOM     44  C   UNL A   1      48.499  25.506  24.731  1.00  0.00     0.031 C 
ATOM     45  C   UNL A   1      41.894  25.922  26.591  1.00  0.00     0.029 A 
ATOM     46  C   UNL A   1      42.723  27.082  26.899  1.00  0.00     0.049 A 
ATOM     47  H   UNL A   1      44.742  27.346  26.462  1.00  0.00     0.167 HD
ATOM     48  C   UNL A   1      49.040  27.685  25.782  1.00  0.00     0.031 A 
ATOM     49  C   UNL A   1      42.301  28.191  27.537  1.00  0.00     0.031 A 
ATOM     50  C   UNL A   1      48.701  28.870  26.519  1.00  0.00     0.049 A 
ATOM     51  C   UNL A   1      43.296  29.258  27.895  1.00  0.00     0.074 A 
ATOM     52  C   UNL A   1      49.518  29.925  26.885  1.00  0.00     0.029 A 
ATOM     53  N   UNL A   1      47.430  29.168  26.982  1.00  0.00    -0.354 N 
ATOM     54  N   UNL A   1      44.578  29.316  27.629  1.00  0.00    -0.248 NA
ATOM     55  C   UNL A   1      42.788  30.402  28.668  1.00  0.00     0.031 C 
ATOM     56  C   UNL A   1      48.744  30.851  27.595  1.00  0.00     0.029 A 
ATOM     57  C   UNL A   1      47.439  30.388  27.634  1.00  0.00     0.049 A 
ATOM     58  H   UNL A   1      46.637  28.595  26.865  1.00  0.00     0.167 HD
ATOM     59  C   UNL A   1      45.028  30.500  28.198  1.00  0.00     0.074 A 
ATOM     60  C   UNL A   1      43.879  31.142  28.803  1.00  0.00     0.031 C 
ATOM     61  C   UNL A   1      46.285  31.007  28.227  1.00  0.00     0.031 A 
BRANCH  48  62
ATOM     62  C   UNL A   1      50.460  27.504  25.332  1.00  0.00    -0.014 A 
ATOM     63  C   UNL A   1      50.901  27.965  24.084  1.00  0.00     0.009 A 
ATOM     64  C   UNL A   1      51.378  26.879  26.193  1.00  0.00     0.009 A 
ATOM     65  C   UNL A   1      52.229  27.779  23.694  1.00  0.00     0.001 A 
ATOM     66  C   UNL A   1      52.709  26.715  25.809  1.00  0.00     0.001 A 
ATOM     67  C   UNL A   1      53.133  27.157  24.557  1.00  0.00     0.000 A 
ENDBRANCH  48  62
BRANCH  49  68
ATOM     68  C   UNL A   1      40.882  28.312  27.960  1.00  0.00    -0.014 A 
ATOM     69  C   UNL A   1      39.956  29.002  27.164  1.00  0.00     0.009 A 
ATOM     70  C   UNL A   1      40.451  27.750  29.173  1.00  0.00     0.009 A 
ATOM     71  C   UNL A   1      38.631  29.143  27.586  1.00  0.00     0.001 A 
ATOM     72  C   UNL A   1      39.121  27.869  29.577  1.00  0.00     0.001 A 
ATOM     73  C   UNL A   1      38.214  28.572  28.788  1.00  0.00     0.000 A 
ENDBRANCH  49  68
BRANCH  61  74
ATOM     74  C   UNL A   1      46.469  32.330  28.909  1.00  0.00    -0.014 A 
ATOM     75  C   UNL A   1      46.815  32.401  30.267  1.00  0.00     0.009 A 
ATOM     76  C   UNL A   1      46.327  33.517  28.175  1.00  0.00     0.009 A 
ATOM     77  C   UNL A   1      46.988  33.641  30.885  1.00  0.00     0.001 A 
ATOM     78  C   UNL A   1      46.521  34.754  28.790  1.00  0.00     0.001 A 
ATOM     79  C   UNL A   1      46.844  34.815  30.146  1.00  0.00     0.000 A 
ENDBRANCH  61  74
ENDBRANCH  35  36
ENDBRANCH  28  30
ENDBRANCH  27  28
ENDBRANCH  26  27
ENDBRANCH  25  26
ENDBRANCH  24  25
ENDBRANCH  23  24
ENDBRANCH   1  23
TORSDOF 19
ENDMDL
