MODEL 1
REMARK VINA RESULT:      -8.3      0.000      0.000
REMARK SMILES CCC(CC)(C[C@H](O)COC)C(=O)OCCOCCOCCOC(=O)c1ccc(-c2c3nc(c(-c4ccccc4)c4ccc([nH]4)c(-c4ccccc4)c4nc(c(-c5ccccc5)c5ccc2[nH]5)C=C4)C=C3)cc1
REMARK SMILES IDX 18 1 17 2 16 3 15 4 14 5 12 6 13 7 3 8 2 9 1 10 4 11 5 12
REMARK SMILES IDX 6 13 7 14 9 15 10 16 11 17 8 18 19 20 20 21 21 22 22 23
REMARK SMILES IDX 23 24 24 25 25 26 26 27 27 28 73 29 28 30 72 31 29 32 30 33
REMARK SMILES IDX 31 34 66 35 32 36 71 37 65 38 67 39 33 40 70 41 64 42 63 43
REMARK SMILES IDX 34 45 56 46 41 47 55 48 42 49 45 50 54 51 68 52 43 53 44 54
REMARK SMILES IDX 53 56 69 57 46 58 35 59 36 60 40 61 37 62 39 63 38 64 57 65
REMARK SMILES IDX 58 66 62 67 59 68 61 69 60 70 47 71 48 72 52 73 49 74 51 75
REMARK SMILES IDX 50 76
REMARK H PARENT 8 19 67 44 45 55
REMARK Flexibility Score: inf
ROOT
ATOM      1  C   UNL A   1      40.030  21.499  26.985  1.00  0.00     0.188 C 
ENDROOT
BRANCH   1   2
ATOM      2  O   UNL A   1      39.449  21.767  25.717  1.00  0.00    -0.376 OA
BRANCH   2   3
ATOM      3  C   UNL A   1      38.065  21.509  25.518  1.00  0.00     0.202 C 
BRANCH   3   4
ATOM      4  C   UNL A   1      37.308  22.426  24.549  1.00  0.00     0.261 C 
BRANCH   4   5
ATOM      5  O   UNL A   1      35.927  22.061  24.281  1.00  0.00    -0.463 OA
BRANCH   5   6
ATOM      6  C   UNL A   1      35.038  22.451  25.231  1.00  0.00     0.312 C 
ATOM      7  O   UNL A   1      35.201  23.475  25.892  1.00  0.00    -0.252 OA
BRANCH   6   8
ATOM      8  C   UNL A   1      33.823  21.505  25.493  1.00  0.00     0.070 C 
BRANCH   8   9
ATOM      9  C   UNL A   1      33.661  21.377  27.038  1.00  0.00     0.015 C 
ATOM     10  C   UNL A   1      32.875  22.451  27.786  1.00  0.00     0.005 C 
ENDBRANCH   8   9
BRANCH   8  11
ATOM     11  C   UNL A   1      34.331  20.165  24.838  1.00  0.00     0.015 C 
ATOM     12  C   UNL A   1      33.284  19.105  24.519  1.00  0.00     0.005 C 
ENDBRANCH   8  11
BRANCH   8  13
ATOM     13  C   UNL A   1      32.438  21.865  24.786  1.00  0.00     0.053 C 
BRANCH  13  14
ATOM     14  C   UNL A   1      31.922  23.330  24.610  1.00  0.00     0.141 C 
BRANCH  14  15
ATOM     15  C   UNL A   1      31.910  23.773  23.124  1.00  0.00     0.191 C 
BRANCH  15  16
ATOM     16  O   UNL A   1      32.412  25.101  22.926  1.00  0.00    -0.382 OA
ATOM     17  C   UNL A   1      31.651  25.910  22.039  1.00  0.00     0.195 C 
ENDBRANCH  15  16
ENDBRANCH  14  15
BRANCH  14  18
ATOM     18  O   UNL A   1      30.604  23.514  25.130  1.00  0.00    -0.391 OA
ATOM     19  H   UNL A   1      30.149  22.658  25.168  1.00  0.00     0.211 HD
ENDBRANCH  14  18
ENDBRANCH  13  14
ENDBRANCH   8  13
ENDBRANCH   6   8
ENDBRANCH   5   6
ENDBRANCH   4   5
ENDBRANCH   3   4
ENDBRANCH   2   3
ENDBRANCH   1   2
BRANCH   1  20
ATOM     20  C   UNL A   1      41.071  20.387  27.115  1.00  0.00     0.188 C 
BRANCH  20  21
ATOM     21  O   UNL A   1      42.412  20.817  26.979  1.00  0.00    -0.376 OA
BRANCH  21  22
ATOM     22  C   UNL A   1      43.116  20.297  25.858  1.00  0.00     0.202 C 
BRANCH  22  23
ATOM     23  C   UNL A   1      43.916  21.425  25.198  1.00  0.00     0.261 C 
BRANCH  23  24
ATOM     24  O   UNL A   1      43.132  22.618  25.005  1.00  0.00    -0.460 OA
BRANCH  24  25
ATOM     25  C   UNL A   1      43.837  23.768  25.002  1.00  0.00     0.338 C 
ATOM     26  O   UNL A   1      44.796  24.050  24.296  1.00  0.00    -0.246 OA
BRANCH  25  27
ATOM     27  C   UNL A   1      43.138  24.743  25.851  1.00  0.00     0.060 A 
ATOM     28  C   UNL A   1      43.506  26.092  25.768  1.00  0.00     0.016 A 
ATOM     29  C   UNL A   1      42.158  24.327  26.747  1.00  0.00     0.016 A 
ATOM     30  C   UNL A   1      42.950  27.028  26.633  1.00  0.00     0.010 A 
ATOM     31  C   UNL A   1      41.596  25.265  27.613  1.00  0.00     0.010 A 
ATOM     32  C   UNL A   1      42.022  26.607  27.590  1.00  0.00    -0.014 A 
BRANCH  32  33
ATOM     33  C   UNL A   1      41.632  27.510  28.695  1.00  0.00     0.031 A 
ATOM     34  C   UNL A   1      42.426  27.452  29.969  1.00  0.00     0.074 A 
ATOM     35  C   UNL A   1      40.603  28.364  28.574  1.00  0.00     0.049 A 
ATOM     36  N   UNL A   1      42.169  27.987  31.133  1.00  0.00    -0.248 NA
ATOM     37  C   UNL A   1      43.677  26.676  29.921  1.00  0.00     0.031 C 
ATOM     38  C   UNL A   1      39.820  28.588  27.361  1.00  0.00     0.029 A 
ATOM     39  N   UNL A   1      40.034  29.196  29.505  1.00  0.00    -0.354 N 
ATOM     40  C   UNL A   1      43.201  27.577  31.967  1.00  0.00     0.074 A 
ATOM     41  C   UNL A   1      44.085  26.747  31.179  1.00  0.00     0.031 C 
ATOM     42  C   UNL A   1      38.857  29.489  27.627  1.00  0.00     0.029 A 
ATOM     43  C   UNL A   1      38.923  29.853  29.041  1.00  0.00     0.049 A 
ATOM     44  H   UNL A   1      40.389  29.308  30.416  1.00  0.00     0.167 HD
ATOM     45  C   UNL A   1      43.390  27.862  33.276  1.00  0.00     0.031 A 
ATOM     46  C   UNL A   1      38.035  30.623  29.698  1.00  0.00     0.031 A 
ATOM     47  C   UNL A   1      42.510  28.692  34.052  1.00  0.00     0.049 A 
ATOM     48  C   UNL A   1      38.211  30.852  31.176  1.00  0.00     0.074 A 
ATOM     49  C   UNL A   1      42.603  29.038  35.388  1.00  0.00     0.029 A 
ATOM     50  N   UNL A   1      41.372  29.308  33.555  1.00  0.00    -0.354 N 
ATOM     51  N   UNL A   1      39.163  30.429  31.972  1.00  0.00    -0.248 NA
ATOM     52  C   UNL A   1      37.182  31.659  31.846  1.00  0.00     0.031 C 
ATOM     53  C   UNL A   1      41.493  29.826  35.711  1.00  0.00     0.029 A 
ATOM     54  C   UNL A   1      40.741  30.018  34.562  1.00  0.00     0.049 A 
ATOM     55  H   UNL A   1      41.059  29.251  32.623  1.00  0.00     0.167 HD
ATOM     56  C   UNL A   1      38.863  30.940  33.229  1.00  0.00     0.074 A 
ATOM     57  C   UNL A   1      37.647  31.714  33.086  1.00  0.00     0.031 C 
ATOM     58  C   UNL A   1      39.535  30.785  34.397  1.00  0.00     0.031 A 
BRANCH  45  59
ATOM     59  C   UNL A   1      44.563  27.218  33.957  1.00  0.00    -0.014 A 
ATOM     60  C   UNL A   1      45.765  27.911  34.167  1.00  0.00     0.009 A 
ATOM     61  C   UNL A   1      44.458  25.889  34.398  1.00  0.00     0.009 A 
ATOM     62  C   UNL A   1      46.851  27.272  34.771  1.00  0.00     0.001 A 
ATOM     63  C   UNL A   1      45.534  25.263  35.029  1.00  0.00     0.001 A 
ATOM     64  C   UNL A   1      46.733  25.953  35.205  1.00  0.00     0.000 A 
ENDBRANCH  45  59
BRANCH  46  65
ATOM     65  C   UNL A   1      36.867  31.193  28.976  1.00  0.00    -0.014 A 
ATOM     66  C   UNL A   1      36.831  32.553  28.635  1.00  0.00     0.009 A 
ATOM     67  C   UNL A   1      35.772  30.380  28.640  1.00  0.00     0.009 A 
ATOM     68  C   UNL A   1      35.715  33.091  27.990  1.00  0.00     0.001 A 
ATOM     69  C   UNL A   1      34.671  30.914  27.969  1.00  0.00     0.001 A 
ATOM     70  C   UNL A   1      34.639  32.271  27.653  1.00  0.00     0.000 A 
ENDBRANCH  46  65
BRANCH  58  71
ATOM     71  C   UNL A   1      38.997  31.505  35.601  1.00  0.00    -0.014 A 
ATOM     72  C   UNL A   1      38.144  30.868  36.515  1.00  0.00     0.009 A 
ATOM     73  C   UNL A   1      39.395  32.828  35.849  1.00  0.00     0.009 A 
ATOM     74  C   UNL A   1      37.676  31.554  37.637  1.00  0.00     0.001 A 
ATOM     75  C   UNL A   1      38.948  33.502  36.986  1.00  0.00     0.001 A 
ATOM     76  C   UNL A   1      38.082  32.867  37.875  1.00  0.00     0.000 A 
ENDBRANCH  58  71
ENDBRANCH  32  33
ENDBRANCH  25  27
ENDBRANCH  24  25
ENDBRANCH  23  24
ENDBRANCH  22  23
ENDBRANCH  21  22
ENDBRANCH  20  21
ENDBRANCH   1  20
TORSDOF 24
ENDMDL
MODEL 2
REMARK VINA RESULT:      -7.8      1.650      6.486
REMARK SMILES CCC(CC)(C[C@H](O)COC)C(=O)OCCOCCOCCOC(=O)c1ccc(-c2c3nc(c(-c4ccccc4)c4ccc([nH]4)c(-c4ccccc4)c4nc(c(-c5ccccc5)c5ccc2[nH]5)C=C4)C=C3)cc1
REMARK SMILES IDX 18 1 17 2 16 3 15 4 14 5 12 6 13 7 3 8 2 9 1 10 4 11 5 12
REMARK SMILES IDX 6 13 7 14 9 15 10 16 11 17 8 18 19 20 20 21 21 22 22 23
REMARK SMILES IDX 23 24 24 25 25 26 26 27 27 28 73 29 28 30 72 31 29 32 30 33
REMARK SMILES IDX 31 34 66 35 32 36 71 37 65 38 67 39 33 40 70 41 64 42 63 43
REMARK SMILES IDX 34 45 56 46 41 47 55 48 42 49 45 50 54 51 68 52 43 53 44 54
REMARK SMILES IDX 53 56 69 57 46 58 35 59 36 60 40 61 37 62 39 63 38 64 57 65
REMARK SMILES IDX 58 66 62 67 59 68 61 69 60 70 47 71 48 72 52 73 49 74 51 75
REMARK SMILES IDX 50 76
REMARK H PARENT 8 19 67 44 45 55
REMARK Flexibility Score: inf
ROOT
ATOM      1  C   UNL A   1      40.046  22.117  27.369  1.00  0.00     0.188 C 
ENDROOT
BRANCH   1   2
ATOM      2  O   UNL A   1      39.491  22.323  26.079  1.00  0.00    -0.376 OA
BRANCH   2   3
ATOM      3  C   UNL A   1      38.160  22.813  25.964  1.00  0.00     0.202 C 
BRANCH   3   4
ATOM      4  C   UNL A   1      37.206  22.055  25.034  1.00  0.00     0.261 C 
BRANCH   4   5
ATOM      5  O   UNL A   1      35.807  22.441  25.110  1.00  0.00    -0.463 OA
BRANCH   5   6
ATOM      6  C   UNL A   1      35.225  22.720  23.915  1.00  0.00     0.312 C 
ATOM      7  O   UNL A   1      35.889  23.020  22.924  1.00  0.00    -0.252 OA
BRANCH   6   8
ATOM      8  C   UNL A   1      33.664  22.705  23.868  1.00  0.00     0.070 C 
BRANCH   8   9
ATOM      9  C   UNL A   1      33.201  21.294  24.341  1.00  0.00     0.015 C 
ATOM     10  C   UNL A   1      32.416  20.414  23.371  1.00  0.00     0.005 C 
ENDBRANCH   8   9
BRANCH   8  11
ATOM     11  C   UNL A   1      33.401  22.930  22.331  1.00  0.00     0.015 C 
ATOM     12  C   UNL A   1      32.933  24.315  21.901  1.00  0.00     0.005 C 
ENDBRANCH   8  11
BRANCH   8  13
ATOM     13  C   UNL A   1      32.888  23.866  24.641  1.00  0.00     0.053 C 
BRANCH  13  14
ATOM     14  C   UNL A   1      31.343  23.854  24.878  1.00  0.00     0.141 C 
BRANCH  14  15
ATOM     15  C   UNL A   1      30.977  23.505  26.345  1.00  0.00     0.191 C 
BRANCH  15  16
ATOM     16  O   UNL A   1      29.984  22.477  26.450  1.00  0.00    -0.382 OA
ATOM     17  C   UNL A   1      29.151  22.555  27.599  1.00  0.00     0.195 C 
ENDBRANCH  15  16
ENDBRANCH  14  15
BRANCH  14  18
ATOM     18  O   UNL A   1      30.729  25.104  24.561  1.00  0.00    -0.391 OA
ATOM     19  H   UNL A   1      29.908  24.945  24.068  1.00  0.00     0.211 HD
ENDBRANCH  14  18
ENDBRANCH  13  14
ENDBRANCH   8  13
ENDBRANCH   6   8
ENDBRANCH   5   6
ENDBRANCH   4   5
ENDBRANCH   3   4
ENDBRANCH   2   3
ENDBRANCH   1   2
BRANCH   1  20
ATOM     20  C   UNL A   1      41.394  21.409  27.503  1.00  0.00     0.188 C 
BRANCH  20  21
ATOM     21  O   UNL A   1      42.521  22.254  27.368  1.00  0.00    -0.376 OA
BRANCH  21  22
ATOM     22  C   UNL A   1      43.269  22.100  26.169  1.00  0.00     0.202 C 
BRANCH  22  23
ATOM     23  C   UNL A   1      43.180  23.391  25.348  1.00  0.00     0.261 C 
BRANCH  23  24
ATOM     24  O   UNL A   1      42.263  24.344  25.919  1.00  0.00    -0.460 OA
BRANCH  24  25
ATOM     25  C   UNL A   1      42.547  25.636  25.651  1.00  0.00     0.338 C 
ATOM     26  O   UNL A   1      43.078  26.087  24.645  1.00  0.00    -0.246 OA
BRANCH  25  27
ATOM     27  C   UNL A   1      41.919  26.472  26.683  1.00  0.00     0.060 A 
ATOM     28  C   UNL A   1      42.276  27.824  26.761  1.00  0.00     0.016 A 
ATOM     29  C   UNL A   1      41.015  25.922  27.588  1.00  0.00     0.016 A 
ATOM     30  C   UNL A   1      41.791  28.622  27.792  1.00  0.00     0.010 A 
ATOM     31  C   UNL A   1      40.525  26.721  28.620  1.00  0.00     0.010 A 
ATOM     32  C   UNL A   1      40.946  28.059  28.752  1.00  0.00    -0.014 A 
BRANCH  32  33
ATOM     33  C   UNL A   1      40.647  28.792  30.001  1.00  0.00     0.031 A 
ATOM     34  C   UNL A   1      39.505  29.770  29.990  1.00  0.00     0.074 A 
ATOM     35  C   UNL A   1      41.362  28.597  31.120  1.00  0.00     0.049 A 
ATOM     36  N   UNL A   1      39.171  30.666  30.881  1.00  0.00    -0.248 NA
ATOM     37  C   UNL A   1      38.628  29.733  28.808  1.00  0.00     0.031 C 
ATOM     38  C   UNL A   1      42.425  27.609  31.290  1.00  0.00     0.029 A 
ATOM     39  N   UNL A   1      41.304  29.244  32.329  1.00  0.00    -0.354 N 
ATOM     40  C   UNL A   1      38.073  31.329  30.347  1.00  0.00     0.074 A 
ATOM     41  C   UNL A   1      37.800  30.736  29.056  1.00  0.00     0.031 C 
ATOM     42  C   UNL A   1      42.933  27.726  32.530  1.00  0.00     0.029 A 
ATOM     43  C   UNL A   1      42.271  28.836  33.212  1.00  0.00     0.049 A 
ATOM     44  H   UNL A   1      40.634  29.934  32.539  1.00  0.00     0.167 HD
ATOM     45  C   UNL A   1      37.362  32.347  30.883  1.00  0.00     0.031 A 
ATOM     46  C   UNL A   1      42.611  29.336  34.416  1.00  0.00     0.031 A 
ATOM     47  C   UNL A   1      37.636  32.928  32.169  1.00  0.00     0.049 A 
ATOM     48  C   UNL A   1      41.867  30.529  34.953  1.00  0.00     0.074 A 
ATOM     49  C   UNL A   1      36.982  33.969  32.803  1.00  0.00     0.029 A 
ATOM     50  N   UNL A   1      38.650  32.512  33.017  1.00  0.00    -0.354 N 
ATOM     51  N   UNL A   1      40.857  31.181  34.429  1.00  0.00    -0.248 NA
ATOM     52  C   UNL A   1      42.317  31.059  36.248  1.00  0.00     0.031 C 
ATOM     53  C   UNL A   1      37.632  34.214  34.017  1.00  0.00     0.029 A 
ATOM     54  C   UNL A   1      38.654  33.288  34.163  1.00  0.00     0.049 A 
ATOM     55  H   UNL A   1      39.274  31.773  32.833  1.00  0.00     0.167 HD
ATOM     56  C   UNL A   1      40.535  32.180  35.340  1.00  0.00     0.074 A 
ATOM     57  C   UNL A   1      41.449  32.039  36.455  1.00  0.00     0.031 C 
ATOM     58  C   UNL A   1      39.568  33.127  35.263  1.00  0.00     0.031 A 
BRANCH  45  59
ATOM     59  C   UNL A   1      36.260  32.929  30.046  1.00  0.00    -0.014 A 
ATOM     60  C   UNL A   1      36.476  34.032  29.205  1.00  0.00     0.009 A 
ATOM     61  C   UNL A   1      34.978  32.358  30.101  1.00  0.00     0.009 A 
ATOM     62  C   UNL A   1      35.422  34.574  28.466  1.00  0.00     0.001 A 
ATOM     63  C   UNL A   1      33.934  32.882  29.338  1.00  0.00     0.001 A 
ATOM     64  C   UNL A   1      34.155  33.996  28.530  1.00  0.00     0.000 A 
ENDBRANCH  45  59
BRANCH  46  65
ATOM     65  C   UNL A   1      43.744  28.744  35.173  1.00  0.00    -0.014 A 
ATOM     66  C   UNL A   1      45.056  29.195  34.966  1.00  0.00     0.009 A 
ATOM     67  C   UNL A   1      43.521  27.710  36.098  1.00  0.00     0.009 A 
ATOM     68  C   UNL A   1      46.122  28.609  35.653  1.00  0.00     0.001 A 
ATOM     69  C   UNL A   1      44.584  27.148  36.806  1.00  0.00     0.001 A 
ATOM     70  C   UNL A   1      45.886  27.591  36.576  1.00  0.00     0.000 A 
ENDBRANCH  46  65
BRANCH  58  71
ATOM     71  C   UNL A   1      39.417  34.055  36.436  1.00  0.00    -0.014 A 
ATOM     72  C   UNL A   1      38.668  33.692  37.565  1.00  0.00     0.009 A 
ATOM     73  C   UNL A   1      40.082  35.292  36.427  1.00  0.00     0.009 A 
ATOM     74  C   UNL A   1      38.562  34.565  38.650  1.00  0.00     0.001 A 
ATOM     75  C   UNL A   1      39.998  36.149  37.524  1.00  0.00     0.001 A 
ATOM     76  C   UNL A   1      39.231  35.789  38.631  1.00  0.00     0.000 A 
ENDBRANCH  58  71
ENDBRANCH  32  33
ENDBRANCH  25  27
ENDBRANCH  24  25
ENDBRANCH  23  24
ENDBRANCH  22  23
ENDBRANCH  21  22
ENDBRANCH  20  21
ENDBRANCH   1  20
TORSDOF 24
ENDMDL
MODEL 3
REMARK VINA RESULT:      -7.8      1.076      2.356
REMARK SMILES CCC(CC)(C[C@H](O)COC)C(=O)OCCOCCOCCOC(=O)c1ccc(-c2c3nc(c(-c4ccccc4)c4ccc([nH]4)c(-c4ccccc4)c4nc(c(-c5ccccc5)c5ccc2[nH]5)C=C4)C=C3)cc1
REMARK SMILES IDX 18 1 17 2 16 3 15 4 14 5 12 6 13 7 3 8 2 9 1 10 4 11 5 12
REMARK SMILES IDX 6 13 7 14 9 15 10 16 11 17 8 18 19 20 20 21 21 22 22 23
REMARK SMILES IDX 23 24 24 25 25 26 26 27 27 28 73 29 28 30 72 31 29 32 30 33
REMARK SMILES IDX 31 34 66 35 32 36 71 37 65 38 67 39 33 40 70 41 64 42 63 43
REMARK SMILES IDX 34 45 56 46 41 47 55 48 42 49 45 50 54 51 68 52 43 53 44 54
REMARK SMILES IDX 53 56 69 57 46 58 35 59 36 60 40 61 37 62 39 63 38 64 57 65
REMARK SMILES IDX 58 66 62 67 59 68 61 69 60 70 47 71 48 72 52 73 49 74 51 75
REMARK SMILES IDX 50 76
REMARK H PARENT 8 19 67 44 45 55
REMARK Flexibility Score: inf
ROOT
ATOM      1  C   UNL A   1      39.263  21.806  26.111  1.00  0.00     0.188 C 
ENDROOT
BRANCH   1   2
ATOM      2  O   UNL A   1      38.170  21.838  25.205  1.00  0.00    -0.376 OA
BRANCH   2   3
ATOM      3  C   UNL A   1      36.853  21.619  25.695  1.00  0.00     0.202 C 
BRANCH   3   4
ATOM      4  C   UNL A   1      36.022  22.852  26.066  1.00  0.00     0.261 C 
BRANCH   4   5
ATOM      5  O   UNL A   1      34.852  23.100  25.240  1.00  0.00    -0.463 OA
BRANCH   5   6
ATOM      6  C   UNL A   1      34.335  21.998  24.637  1.00  0.00     0.312 C 
ATOM      7  O   UNL A   1      35.052  21.134  24.138  1.00  0.00    -0.252 OA
BRANCH   6   8
ATOM      8  C   UNL A   1      32.777  21.906  24.550  1.00  0.00     0.070 C 
BRANCH   8   9
ATOM      9  C   UNL A   1      32.360  22.447  23.149  1.00  0.00     0.015 C 
ATOM     10  C   UNL A   1      32.141  21.452  22.011  1.00  0.00     0.005 C 
ENDBRANCH   8   9
BRANCH   8  11
ATOM     11  C   UNL A   1      32.348  22.879  25.712  1.00  0.00     0.015 C 
ATOM     12  C   UNL A   1      31.397  24.014  25.353  1.00  0.00     0.005 C 
ENDBRANCH   8  11
BRANCH   8  13
ATOM     13  C   UNL A   1      32.101  20.494  24.858  1.00  0.00     0.053 C 
BRANCH  13  14
ATOM     14  C   UNL A   1      32.651  19.497  25.929  1.00  0.00     0.141 C 
BRANCH  14  15
ATOM     15  C   UNL A   1      33.294  18.241  25.286  1.00  0.00     0.191 C 
BRANCH  15  16
ATOM     16  O   UNL A   1      33.123  18.183  23.864  1.00  0.00    -0.382 OA
ATOM     17  C   UNL A   1      33.899  17.195  23.200  1.00  0.00     0.195 C 
ENDBRANCH  15  16
ENDBRANCH  14  15
BRANCH  14  18
ATOM     18  O   UNL A   1      33.623  20.094  26.788  1.00  0.00    -0.391 OA
ATOM     19  H   UNL A   1      34.249  19.417  27.088  1.00  0.00     0.211 HD
ENDBRANCH  14  18
ENDBRANCH  13  14
ENDBRANCH   8  13
ENDBRANCH   6   8
ENDBRANCH   5   6
ENDBRANCH   4   5
ENDBRANCH   3   4
ENDBRANCH   2   3
ENDBRANCH   1   2
BRANCH   1  20
ATOM     20  C   UNL A   1      40.149  20.562  26.178  1.00  0.00     0.188 C 
BRANCH  20  21
ATOM     21  O   UNL A   1      41.449  20.791  26.686  1.00  0.00    -0.376 OA
BRANCH  21  22
ATOM     22  C   UNL A   1      42.506  20.141  25.992  1.00  0.00     0.202 C 
BRANCH  22  23
ATOM     23  C   UNL A   1      43.380  21.195  25.302  1.00  0.00     0.261 C 
BRANCH  23  24
ATOM     24  O   UNL A   1      42.715  22.466  25.177  1.00  0.00    -0.460 OA
BRANCH  24  25
ATOM     25  C   UNL A   1      43.528  23.541  25.232  1.00  0.00     0.338 C 
ATOM     26  O   UNL A   1      44.548  23.735  24.582  1.00  0.00    -0.246 OA
BRANCH  25  27
ATOM     27  C   UNL A   1      42.883  24.571  26.057  1.00  0.00     0.060 A 
ATOM     28  C   UNL A   1      43.306  25.900  25.927  1.00  0.00     0.016 A 
ATOM     29  C   UNL A   1      41.898  24.225  26.978  1.00  0.00     0.016 A 
ATOM     30  C   UNL A   1      42.801  26.885  26.768  1.00  0.00     0.010 A 
ATOM     31  C   UNL A   1      41.388  25.213  27.821  1.00  0.00     0.010 A 
ATOM     32  C   UNL A   1      41.871  26.534  27.750  1.00  0.00    -0.014 A 
BRANCH  32  33
ATOM     33  C   UNL A   1      41.534  27.487  28.830  1.00  0.00     0.031 A 
ATOM     34  C   UNL A   1      42.357  27.450  30.087  1.00  0.00     0.074 A 
ATOM     35  C   UNL A   1      40.528  28.367  28.703  1.00  0.00     0.049 A 
ATOM     36  N   UNL A   1      42.144  28.034  31.236  1.00  0.00    -0.248 NA
ATOM     37  C   UNL A   1      43.583  26.636  30.038  1.00  0.00     0.031 C 
ATOM     38  C   UNL A   1      39.722  28.572  27.501  1.00  0.00     0.029 A 
ATOM     39  N   UNL A   1      40.006  29.248  29.616  1.00  0.00    -0.354 N 
ATOM     40  C   UNL A   1      43.183  27.623  32.060  1.00  0.00     0.074 A 
ATOM     41  C   UNL A   1      44.023  26.739  31.282  1.00  0.00     0.031 C 
ATOM     42  C   UNL A   1      38.793  29.510  27.756  1.00  0.00     0.029 A 
ATOM     43  C   UNL A   1      38.904  29.922  29.154  1.00  0.00     0.049 A 
ATOM     44  H   UNL A   1      40.386  29.382  30.514  1.00  0.00     0.167 HD
ATOM     45  C   UNL A   1      43.412  27.948  33.353  1.00  0.00     0.031 A 
ATOM     46  C   UNL A   1      38.055  30.741  29.803  1.00  0.00     0.031 A 
ATOM     47  C   UNL A   1      42.575  28.831  34.119  1.00  0.00     0.049 A 
ATOM     48  C   UNL A   1      38.274  31.017  31.268  1.00  0.00     0.074 A 
ATOM     49  C   UNL A   1      42.711  29.222  35.439  1.00  0.00     0.029 A 
ATOM     50  N   UNL A   1      41.444  29.464  33.626  1.00  0.00    -0.354 N 
ATOM     51  N   UNL A   1      39.232  30.594  32.056  1.00  0.00    -0.248 NA
ATOM     52  C   UNL A   1      37.285  31.878  31.932  1.00  0.00     0.031 C 
ATOM     53  C   UNL A   1      41.634  30.054  35.759  1.00  0.00     0.029 A 
ATOM     54  C   UNL A   1      40.860  30.227  34.621  1.00  0.00     0.049 A 
ATOM     55  H   UNL A   1      41.107  29.383  32.704  1.00  0.00     0.167 HD
ATOM     56  C   UNL A   1      38.978  31.158  33.300  1.00  0.00     0.074 A 
ATOM     57  C   UNL A   1      37.782  31.962  33.158  1.00  0.00     0.031 C 
ATOM     58  C   UNL A   1      39.673  31.025  34.457  1.00  0.00     0.031 A 
BRANCH  45  59
ATOM     59  C   UNL A   1      44.582  27.294  34.030  1.00  0.00    -0.014 A 
ATOM     60  C   UNL A   1      44.464  26.046  34.661  1.00  0.00     0.009 A 
ATOM     61  C   UNL A   1      45.828  27.941  34.030  1.00  0.00     0.009 A 
ATOM     62  C   UNL A   1      45.562  25.478  35.312  1.00  0.00     0.001 A 
ATOM     63  C   UNL A   1      46.930  27.358  34.656  1.00  0.00     0.001 A 
ATOM     64  C   UNL A   1      46.793  26.133  35.305  1.00  0.00     0.000 A 
ENDBRANCH  45  59
BRANCH  46  65
ATOM     65  C   UNL A   1      36.887  31.320  29.089  1.00  0.00    -0.014 A 
ATOM     66  C   UNL A   1      35.777  30.523  28.770  1.00  0.00     0.009 A 
ATOM     67  C   UNL A   1      36.884  32.671  28.705  1.00  0.00     0.009 A 
ATOM     68  C   UNL A   1      34.698  31.063  28.065  1.00  0.00     0.001 A 
ATOM     69  C   UNL A   1      35.792  33.215  28.028  1.00  0.00     0.001 A 
ATOM     70  C   UNL A   1      34.704  32.408  27.700  1.00  0.00     0.000 A 
ENDBRANCH  46  65
BRANCH  58  71
ATOM     71  C   UNL A   1      39.185  31.802  35.646  1.00  0.00    -0.014 A 
ATOM     72  C   UNL A   1      39.607  33.119  35.885  1.00  0.00     0.009 A 
ATOM     73  C   UNL A   1      38.246  31.220  36.513  1.00  0.00     0.009 A 
ATOM     74  C   UNL A   1      39.122  33.826  36.986  1.00  0.00     0.001 A 
ATOM     75  C   UNL A   1      37.742  31.939  37.597  1.00  0.00     0.001 A 
ATOM     76  C   UNL A   1      38.186  33.239  37.838  1.00  0.00     0.000 A 
ENDBRANCH  58  71
ENDBRANCH  32  33
ENDBRANCH  25  27
ENDBRANCH  24  25
ENDBRANCH  23  24
ENDBRANCH  22  23
ENDBRANCH  21  22
ENDBRANCH  20  21
ENDBRANCH   1  20
TORSDOF 24
ENDMDL
