MODEL 1
REMARK VINA RESULT:     -10.1      0.000      0.000
REMARK SMILES CCC(=O)Nc1cc(NC(=O)/C=C/C(=O)OCCOCCOCCOC(=O)c2ccc(-c3c4nc(c(-c5ccccc5)c5ccc([nH]5)c(-c5ccccc5)c5nc(c(-c6ccccc6)c6ccc3[nH]6)C=C5)C=C4)cc2)ccc1C
REMARK SMILES IDX 20 1 19 2 18 3 17 4 16 5 14 6 15 7 13 8 12 9 10 10 9 11
REMARK SMILES IDX 11 13 8 14 6 15 7 16 78 17 77 18 79 19 76 20 5 21 3 22 4 23
REMARK SMILES IDX 2 25 1 26 21 27 22 28 23 29 24 30 25 31 26 32 27 33 28 34
REMARK SMILES IDX 29 35 75 36 30 37 74 38 31 39 32 40 33 41 68 42 34 43 73 44
REMARK SMILES IDX 67 45 69 46 35 47 72 48 66 49 65 50 36 52 58 53 43 54 57 55
REMARK SMILES IDX 44 56 47 57 56 58 70 59 45 60 46 61 55 63 71 64 48 65 37 66
REMARK SMILES IDX 38 67 42 68 39 69 41 70 40 71 59 72 60 73 64 74 61 75 63 76
REMARK SMILES IDX 62 77 49 78 50 79 54 80 51 81 53 82 52 83
REMARK H PARENT 9 12 5 24 69 51 47 62
REMARK Flexibility Score: inf
ROOT
ATOM      1  C   UNL A   1      32.275  30.369  25.953  1.00  0.00     0.188 C 
ENDROOT
BRANCH   1   2
ATOM      2  O   UNL A   1      31.384  29.273  25.622  1.00  0.00    -0.376 OA
BRANCH   2   3
ATOM      3  C   UNL A   1      31.940  27.947  25.682  1.00  0.00     0.202 C 
BRANCH   3   4
ATOM      4  C   UNL A   1      31.353  26.850  26.787  1.00  0.00     0.261 C 
BRANCH   4   5
ATOM      5  O   UNL A   1      31.180  25.231  26.784  1.00  0.00    -0.460 OA
BRANCH   5   6
ATOM      6  C   UNL A   1      31.930  24.091  26.674  1.00  0.00     0.331 C 
ATOM      7  O   UNL A   1      32.133  23.272  27.551  1.00  0.00    -0.247 OA
BRANCH   6   8
ATOM      8  C   UNL A   1      32.556  23.618  25.430  1.00  0.00     0.099 C 
ATOM      9  C   UNL A   1      33.076  24.648  24.702  1.00  0.00     0.079 C 
BRANCH   9  10
ATOM     10  C   UNL A   1      33.115  24.673  23.216  1.00  0.00     0.248 C 
ATOM     11  N   UNL A   1      32.235  25.454  22.505  1.00  0.00    -0.322 N 
ATOM     12  H   UNL A   1      32.533  25.600  21.579  1.00  0.00     0.170 HD
ATOM     13  O   UNL A   1      34.014  24.088  22.612  1.00  0.00    -0.270 OA
BRANCH  11  14
ATOM     14  C   UNL A   1      31.006  26.100  22.781  1.00  0.00     0.043 A 
ATOM     15  C   UNL A   1      29.471  28.029  22.925  1.00  0.00     0.046 A 
ATOM     16  C   UNL A   1      30.683  27.427  22.454  1.00  0.00     0.052 A 
ATOM     17  C   UNL A   1      28.498  27.209  23.531  1.00  0.00    -0.027 A 
ATOM     18  C   UNL A   1      28.884  25.926  23.939  1.00  0.00     0.008 A 
ATOM     19  C   UNL A   1      27.064  27.572  23.806  1.00  0.00     0.046 C 
ATOM     20  C   UNL A   1      30.136  25.406  23.621  1.00  0.00     0.026 A 
BRANCH  15  21
ATOM     21  N   UNL A   1      29.433  29.459  22.941  1.00  0.00    -0.326 N 
ATOM     22  C   UNL A   1      28.673  30.298  22.144  1.00  0.00     0.224 C 
ATOM     23  O   UNL A   1      28.480  30.176  20.939  1.00  0.00    -0.275 OA
ATOM     24  H   UNL A   1      30.018  29.900  23.598  1.00  0.00     0.169 HD
BRANCH  22  25
ATOM     25  C   UNL A   1      28.051  31.476  22.857  1.00  0.00     0.097 C 
ATOM     26  C   UNL A   1      29.056  32.010  23.872  1.00  0.00     0.014 C 
ENDBRANCH  22  25
ENDBRANCH  15  21
ENDBRANCH  11  14
ENDBRANCH   9  10
ENDBRANCH   6   8
ENDBRANCH   5   6
ENDBRANCH   4   5
ENDBRANCH   3   4
ENDBRANCH   2   3
ENDBRANCH   1   2
BRANCH   1  27
ATOM     27  C   UNL A   1      31.423  31.537  26.430  1.00  0.00     0.188 C 
BRANCH  27  28
ATOM     28  O   UNL A   1      32.257  32.220  27.357  1.00  0.00    -0.376 OA
BRANCH  28  29
ATOM     29  C   UNL A   1      33.524  31.653  27.592  1.00  0.00     0.202 C 
BRANCH  29  30
ATOM     30  C   UNL A   1      34.418  32.649  28.330  1.00  0.00     0.261 C 
BRANCH  30  31
ATOM     31  O   UNL A   1      34.916  32.033  29.548  1.00  0.00    -0.460 OA
BRANCH  31  32
ATOM     32  C   UNL A   1      36.277  31.982  29.695  1.00  0.00     0.338 C 
ATOM     33  O   UNL A   1      36.988  32.962  29.886  1.00  0.00    -0.246 OA
BRANCH  32  34
ATOM     34  C   UNL A   1      36.811  30.622  29.323  1.00  0.00     0.060 A 
ATOM     35  C   UNL A   1      37.190  29.644  30.253  1.00  0.00     0.016 A 
ATOM     36  C   UNL A   1      37.289  30.447  28.060  1.00  0.00     0.016 A 
ATOM     37  C   UNL A   1      38.189  28.633  29.943  1.00  0.00     0.010 A 
ATOM     38  C   UNL A   1      38.384  29.586  27.906  1.00  0.00     0.010 A 
ATOM     39  C   UNL A   1      38.923  28.629  28.763  1.00  0.00    -0.014 A 
BRANCH  39  40
ATOM     40  C   UNL A   1      40.286  27.893  28.414  1.00  0.00     0.031 A 
ATOM     41  C   UNL A   1      40.566  26.370  28.141  1.00  0.00     0.074 A 
ATOM     42  C   UNL A   1      41.410  28.599  28.179  1.00  0.00     0.049 A 
ATOM     43  N   UNL A   1      40.986  25.464  28.996  1.00  0.00    -0.248 NA
ATOM     44  C   UNL A   1      40.390  25.741  26.805  1.00  0.00     0.031 C 
ATOM     45  C   UNL A   1      42.703  28.063  27.753  1.00  0.00     0.029 A 
ATOM     46  N   UNL A   1      41.660  29.935  28.448  1.00  0.00    -0.354 N 
ATOM     47  C   UNL A   1      41.073  24.252  28.281  1.00  0.00     0.074 A 
ATOM     48  C   UNL A   1      40.379  24.434  27.037  1.00  0.00     0.031 C 
ATOM     49  C   UNL A   1      43.655  28.948  28.090  1.00  0.00     0.029 A 
ATOM     50  C   UNL A   1      43.015  30.032  28.816  1.00  0.00     0.049 A 
ATOM     51  H   UNL A   1      41.013  30.675  28.391  1.00  0.00     0.167 HD
ATOM     52  C   UNL A   1      42.144  23.399  28.253  1.00  0.00     0.031 A 
ATOM     53  C   UNL A   1      43.307  30.420  30.090  1.00  0.00     0.031 A 
ATOM     54  C   UNL A   1      43.347  24.074  28.664  1.00  0.00     0.049 A 
ATOM     55  C   UNL A   1      43.824  29.273  30.953  1.00  0.00     0.074 A 
ATOM     56  C   UNL A   1      44.452  24.568  27.992  1.00  0.00     0.029 A 
ATOM     57  N   UNL A   1      43.364  24.642  29.912  1.00  0.00    -0.354 N 
ATOM     58  N   UNL A   1      44.045  28.057  30.528  1.00  0.00    -0.248 NA
ATOM     59  C   UNL A   1      44.077  29.388  32.391  1.00  0.00     0.031 C 
ATOM     60  C   UNL A   1      45.171  25.400  28.891  1.00  0.00     0.029 A 
ATOM     61  C   UNL A   1      44.500  25.387  30.096  1.00  0.00     0.049 A 
ATOM     62  H   UNL A   1      42.656  24.529  30.587  1.00  0.00     0.167 HD
ATOM     63  C   UNL A   1      44.434  27.256  31.572  1.00  0.00     0.074 A 
ATOM     64  C   UNL A   1      44.426  28.132  32.723  1.00  0.00     0.031 C 
ATOM     65  C   UNL A   1      44.715  25.929  31.413  1.00  0.00     0.031 A 
BRANCH  52  66
ATOM     66  C   UNL A   1      42.100  22.150  27.383  1.00  0.00    -0.014 A 
ATOM     67  C   UNL A   1      41.171  21.119  27.593  1.00  0.00     0.009 A 
ATOM     68  C   UNL A   1      43.026  21.958  26.331  1.00  0.00     0.009 A 
ATOM     69  C   UNL A   1      41.224  19.918  26.868  1.00  0.00     0.001 A 
ATOM     70  C   UNL A   1      43.094  20.752  25.616  1.00  0.00     0.001 A 
ATOM     71  C   UNL A   1      42.200  19.726  25.897  1.00  0.00     0.000 A 
ENDBRANCH  52  66
BRANCH  53  72
ATOM     72  C   UNL A   1      42.422  31.546  30.526  1.00  0.00    -0.014 A 
ATOM     73  C   UNL A   1      42.688  32.852  30.069  1.00  0.00     0.009 A 
ATOM     74  C   UNL A   1      41.142  31.293  31.009  1.00  0.00     0.009 A 
ATOM     75  C   UNL A   1      41.678  33.828  30.005  1.00  0.00     0.001 A 
ATOM     76  C   UNL A   1      40.135  32.272  30.952  1.00  0.00     0.001 A 
ATOM     77  C   UNL A   1      40.388  33.525  30.419  1.00  0.00     0.000 A 
ENDBRANCH  53  72
BRANCH  65  78
ATOM     78  C   UNL A   1      45.198  24.965  32.469  1.00  0.00    -0.014 A 
ATOM     79  C   UNL A   1      44.351  24.060  33.108  1.00  0.00     0.009 A 
ATOM     80  C   UNL A   1      46.516  25.073  32.983  1.00  0.00     0.009 A 
ATOM     81  C   UNL A   1      44.810  23.275  34.176  1.00  0.00     0.001 A 
ATOM     82  C   UNL A   1      46.971  24.310  34.058  1.00  0.00     0.001 A 
ATOM     83  C   UNL A   1      46.115  23.401  34.651  1.00  0.00     0.000 A 
ENDBRANCH  65  78
ENDBRANCH  39  40
ENDBRANCH  32  34
ENDBRANCH  31  32
ENDBRANCH  30  31
ENDBRANCH  29  30
ENDBRANCH  28  29
ENDBRANCH  27  28
ENDBRANCH   1  27
TORSDOF 21
ENDMDL
MODEL 2
REMARK VINA RESULT:     -10.1      2.649      5.410
REMARK SMILES CCC(=O)Nc1cc(NC(=O)/C=C/C(=O)OCCOCCOCCOC(=O)c2ccc(-c3c4nc(c(-c5ccccc5)c5ccc([nH]5)c(-c5ccccc5)c5nc(c(-c6ccccc6)c6ccc3[nH]6)C=C5)C=C4)cc2)ccc1C
REMARK SMILES IDX 20 1 19 2 18 3 17 4 16 5 14 6 15 7 13 8 12 9 10 10 9 11
REMARK SMILES IDX 11 13 8 14 6 15 7 16 78 17 77 18 79 19 76 20 5 21 3 22 4 23
REMARK SMILES IDX 2 25 1 26 21 27 22 28 23 29 24 30 25 31 26 32 27 33 28 34
REMARK SMILES IDX 29 35 75 36 30 37 74 38 31 39 32 40 33 41 68 42 34 43 73 44
REMARK SMILES IDX 67 45 69 46 35 47 72 48 66 49 65 50 36 52 58 53 43 54 57 55
REMARK SMILES IDX 44 56 47 57 56 58 70 59 45 60 46 61 55 63 71 64 48 65 37 66
REMARK SMILES IDX 38 67 42 68 39 69 41 70 40 71 59 72 60 73 64 74 61 75 63 76
REMARK SMILES IDX 62 77 49 78 50 79 54 80 51 81 53 82 52 83
REMARK H PARENT 9 12 5 24 69 51 47 62
REMARK Flexibility Score: inf
ROOT
ATOM      1  C   UNL A   1      31.842  27.124  26.604  1.00  0.00     0.188 C 
ENDROOT
BRANCH   1   2
ATOM      2  O   UNL A   1      30.582  26.408  26.560  1.00  0.00    -0.376 OA
BRANCH   2   3
ATOM      3  C   UNL A   1      30.632  25.039  26.121  1.00  0.00     0.202 C 
BRANCH   3   4
ATOM      4  C   UNL A   1      31.526  24.629  24.778  1.00  0.00     0.261 C 
BRANCH   4   5
ATOM      5  O   UNL A   1      31.442  23.415  23.696  1.00  0.00    -0.460 OA
BRANCH   5   6
ATOM      6  C   UNL A   1      32.248  22.685  22.864  1.00  0.00     0.331 C 
ATOM      7  O   UNL A   1      32.996  23.128  22.013  1.00  0.00    -0.247 OA
BRANCH   6   8
ATOM      8  C   UNL A   1      32.405  21.224  22.920  1.00  0.00     0.099 C 
ATOM      9  C   UNL A   1      32.277  20.750  24.193  1.00  0.00     0.079 C 
BRANCH   9  10
ATOM     10  C   UNL A   1      33.026  19.577  24.718  1.00  0.00     0.248 C 
ATOM     11  N   UNL A   1      34.227  19.745  25.364  1.00  0.00    -0.322 N 
ATOM     12  H   UNL A   1      34.478  18.955  25.894  1.00  0.00     0.170 HD
ATOM     13  O   UNL A   1      32.518  18.456  24.686  1.00  0.00    -0.270 OA
BRANCH  11  14
ATOM     14  C   UNL A   1      35.193  20.776  25.453  1.00  0.00     0.043 A 
ATOM     15  C   UNL A   1      37.461  21.743  25.311  1.00  0.00     0.046 A 
ATOM     16  C   UNL A   1      36.527  20.693  25.023  1.00  0.00     0.052 A 
ATOM     17  C   UNL A   1      36.976  22.959  25.831  1.00  0.00    -0.027 A 
ATOM     18  C   UNL A   1      35.673  22.978  26.346  1.00  0.00     0.008 A 
ATOM     19  C   UNL A   1      37.721  24.263  25.908  1.00  0.00     0.046 C 
ATOM     20  C   UNL A   1      34.820  21.886  26.212  1.00  0.00     0.026 A 
BRANCH  15  21
ATOM     21  N   UNL A   1      38.848  21.396  25.252  1.00  0.00    -0.326 N 
ATOM     22  C   UNL A   1      39.757  21.351  26.294  1.00  0.00     0.224 C 
ATOM     23  O   UNL A   1      39.868  22.173  27.197  1.00  0.00    -0.275 OA
ATOM     24  H   UNL A   1      39.197  21.160  24.362  1.00  0.00     0.169 HD
BRANCH  22  25
ATOM     25  C   UNL A   1      40.701  20.171  26.275  1.00  0.00     0.097 C 
ATOM     26  C   UNL A   1      41.220  19.947  27.691  1.00  0.00     0.014 C 
ENDBRANCH  22  25
ENDBRANCH  15  21
ENDBRANCH  11  14
ENDBRANCH   9  10
ENDBRANCH   6   8
ENDBRANCH   5   6
ENDBRANCH   4   5
ENDBRANCH   3   4
ENDBRANCH   2   3
ENDBRANCH   1   2
BRANCH   1  27
ATOM     27  C   UNL A   1      31.718  28.228  27.645  1.00  0.00     0.188 C 
BRANCH  27  28
ATOM     28  O   UNL A   1      32.947  28.937  27.548  1.00  0.00    -0.376 OA
BRANCH  28  29
ATOM     29  C   UNL A   1      33.014  29.935  26.557  1.00  0.00     0.202 C 
BRANCH  29  30
ATOM     30  C   UNL A   1      33.383  31.279  27.186  1.00  0.00     0.261 C 
BRANCH  30  31
ATOM     31  O   UNL A   1      34.070  31.044  28.445  1.00  0.00    -0.460 OA
BRANCH  31  32
ATOM     32  C   UNL A   1      35.378  31.444  28.510  1.00  0.00     0.338 C 
ATOM     33  O   UNL A   1      35.760  32.592  28.314  1.00  0.00    -0.246 OA
BRANCH  32  34
ATOM     34  C   UNL A   1      36.304  30.256  28.583  1.00  0.00     0.060 A 
ATOM     35  C   UNL A   1      36.834  29.742  29.774  1.00  0.00     0.016 A 
ATOM     36  C   UNL A   1      36.946  29.877  27.443  1.00  0.00     0.016 A 
ATOM     37  C   UNL A   1      38.100  29.028  29.809  1.00  0.00     0.010 A 
ATOM     38  C   UNL A   1      38.246  29.372  27.582  1.00  0.00     0.010 A 
ATOM     39  C   UNL A   1      38.931  28.904  28.701  1.00  0.00    -0.014 A 
BRANCH  39  40
ATOM     40  C   UNL A   1      40.474  28.536  28.621  1.00  0.00     0.031 A 
ATOM     41  C   UNL A   1      41.175  27.266  28.015  1.00  0.00     0.074 A 
ATOM     42  C   UNL A   1      41.415  29.425  28.996  1.00  0.00     0.049 A 
ATOM     43  N   UNL A   1      41.559  26.180  28.648  1.00  0.00    -0.248 NA
ATOM     44  C   UNL A   1      41.519  27.142  26.573  1.00  0.00     0.031 C 
ATOM     45  C   UNL A   1      42.864  29.261  28.885  1.00  0.00     0.029 A 
ATOM     46  N   UNL A   1      41.254  30.596  29.720  1.00  0.00    -0.354 N 
ATOM     47  C   UNL A   1      42.123  25.330  27.675  1.00  0.00     0.074 A 
ATOM     48  C   UNL A   1      41.762  25.850  26.386  1.00  0.00     0.031 C 
ATOM     49  C   UNL A   1      43.449  30.086  29.767  1.00  0.00     0.029 A 
ATOM     50  C   UNL A   1      42.397  30.739  30.528  1.00  0.00     0.049 A 
ATOM     51  H   UNL A   1      40.487  31.212  29.676  1.00  0.00     0.167 HD
ATOM     52  C   UNL A   1      43.336  24.699  27.750  1.00  0.00     0.031 A 
ATOM     53  C   UNL A   1      42.237  30.678  31.881  1.00  0.00     0.031 A 
ATOM     54  C   UNL A   1      44.186  25.338  28.720  1.00  0.00     0.049 A 
ATOM     55  C   UNL A   1      42.767  29.379  32.482  1.00  0.00     0.074 A 
ATOM     56  C   UNL A   1      45.276  26.187  28.634  1.00  0.00     0.029 A 
ATOM     57  N   UNL A   1      43.733  25.416  30.012  1.00  0.00    -0.354 N 
ATOM     58  N   UNL A   1      43.380  28.440  31.811  1.00  0.00    -0.248 NA
ATOM     59  C   UNL A   1      42.593  29.004  33.886  1.00  0.00     0.031 C 
ATOM     60  C   UNL A   1      45.508  26.730  29.926  1.00  0.00     0.029 A 
ATOM     61  C   UNL A   1      44.564  26.193  30.777  1.00  0.00     0.049 A 
ATOM     62  H   UNL A   1      42.920  24.973  30.346  1.00  0.00     0.167 HD
ATOM     63  C   UNL A   1      43.659  27.379  32.634  1.00  0.00     0.074 A 
ATOM     64  C   UNL A   1      43.134  27.772  33.924  1.00  0.00     0.031 C 
ATOM     65  C   UNL A   1      44.284  26.250  32.189  1.00  0.00     0.031 A 
BRANCH  52  66
ATOM     66  C   UNL A   1      43.828  23.853  26.584  1.00  0.00    -0.014 A 
ATOM     67  C   UNL A   1      43.493  22.496  26.445  1.00  0.00     0.009 A 
ATOM     68  C   UNL A   1      44.680  24.396  25.595  1.00  0.00     0.009 A 
ATOM     69  C   UNL A   1      44.057  21.697  25.438  1.00  0.00     0.001 A 
ATOM     70  C   UNL A   1      45.259  23.596  24.597  1.00  0.00     0.001 A 
ATOM     71  C   UNL A   1      44.958  22.241  24.529  1.00  0.00     0.000 A 
ENDBRANCH  52  66
BRANCH  53  72
ATOM     72  C   UNL A   1      41.023  31.441  32.314  1.00  0.00    -0.014 A 
ATOM     73  C   UNL A   1      40.003  30.773  33.022  1.00  0.00     0.009 A 
ATOM     74  C   UNL A   1      41.058  32.828  32.411  1.00  0.00     0.009 A 
ATOM     75  C   UNL A   1      39.123  31.468  33.870  1.00  0.00     0.001 A 
ATOM     76  C   UNL A   1      40.172  33.522  33.254  1.00  0.00     0.001 A 
ATOM     77  C   UNL A   1      39.230  32.844  34.011  1.00  0.00     0.000 A 
ENDBRANCH  53  72
BRANCH  65  78
ATOM     78  C   UNL A   1      44.687  25.046  33.005  1.00  0.00    -0.014 A 
ATOM     79  C   UNL A   1      45.952  24.912  33.577  1.00  0.00     0.009 A 
ATOM     80  C   UNL A   1      43.839  23.910  33.066  1.00  0.00     0.009 A 
ATOM     81  C   UNL A   1      46.332  23.721  34.214  1.00  0.00     0.001 A 
ATOM     82  C   UNL A   1      44.220  22.717  33.680  1.00  0.00     0.001 A 
ATOM     83  C   UNL A   1      45.470  22.627  34.264  1.00  0.00     0.000 A 
ENDBRANCH  65  78
ENDBRANCH  39  40
ENDBRANCH  32  34
ENDBRANCH  31  32
ENDBRANCH  30  31
ENDBRANCH  29  30
ENDBRANCH  28  29
ENDBRANCH  27  28
ENDBRANCH   1  27
TORSDOF 21
ENDMDL
MODEL 3
REMARK VINA RESULT:     -10.1      5.303      9.731
REMARK SMILES CCC(=O)Nc1cc(NC(=O)/C=C/C(=O)OCCOCCOCCOC(=O)c2ccc(-c3c4nc(c(-c5ccccc5)c5ccc([nH]5)c(-c5ccccc5)c5nc(c(-c6ccccc6)c6ccc3[nH]6)C=C5)C=C4)cc2)ccc1C
REMARK SMILES IDX 20 1 19 2 18 3 17 4 16 5 14 6 15 7 13 8 12 9 10 10 9 11
REMARK SMILES IDX 11 13 8 14 6 15 7 16 78 17 77 18 79 19 76 20 5 21 3 22 4 23
REMARK SMILES IDX 2 25 1 26 21 27 22 28 23 29 24 30 25 31 26 32 27 33 28 34
REMARK SMILES IDX 29 35 75 36 30 37 74 38 31 39 32 40 33 41 68 42 34 43 73 44
REMARK SMILES IDX 67 45 69 46 35 47 72 48 66 49 65 50 36 52 58 53 43 54 57 55
REMARK SMILES IDX 44 56 47 57 56 58 70 59 45 60 46 61 55 63 71 64 48 65 37 66
REMARK SMILES IDX 38 67 42 68 39 69 41 70 40 71 59 72 60 73 64 74 61 75 63 76
REMARK SMILES IDX 62 77 49 78 50 79 54 80 51 81 53 82 52 83
REMARK H PARENT 9 12 5 24 69 51 47 62
REMARK Flexibility Score: inf
ROOT
ATOM      1  C   UNL A   1      33.210  31.244  27.452  1.00  0.00     0.188 C 
ENDROOT
BRANCH   1   2
ATOM      2  O   UNL A   1      33.493  30.087  26.626  1.00  0.00    -0.376 OA
BRANCH   2   3
ATOM      3  C   UNL A   1      33.297  28.796  27.232  1.00  0.00     0.202 C 
BRANCH   3   4
ATOM      4  C   UNL A   1      31.965  27.883  26.828  1.00  0.00     0.261 C 
BRANCH   4   5
ATOM      5  O   UNL A   1      31.350  27.353  25.417  1.00  0.00    -0.460 OA
BRANCH   5   6
ATOM      6  C   UNL A   1      31.524  26.352  24.499  1.00  0.00     0.331 C 
ATOM      7  O   UNL A   1      30.938  25.286  24.474  1.00  0.00    -0.247 OA
BRANCH   6   8
ATOM      8  C   UNL A   1      32.406  26.436  23.326  1.00  0.00     0.099 C 
ATOM      9  C   UNL A   1      31.882  25.780  22.251  1.00  0.00     0.079 C 
BRANCH   9  10
ATOM     10  C   UNL A   1      32.703  25.074  21.231  1.00  0.00     0.248 C 
ATOM     11  N   UNL A   1      33.078  23.765  21.418  1.00  0.00    -0.322 N 
ATOM     12  H   UNL A   1      33.366  23.337  20.580  1.00  0.00     0.170 HD
ATOM     13  O   UNL A   1      32.953  25.617  20.156  1.00  0.00    -0.270 OA
BRANCH  11  14
ATOM     14  C   UNL A   1      33.151  22.881  22.522  1.00  0.00     0.043 A 
ATOM     15  C   UNL A   1      34.141  21.940  24.579  1.00  0.00     0.046 A 
ATOM     16  C   UNL A   1      34.046  22.982  23.599  1.00  0.00     0.052 A 
ATOM     17  C   UNL A   1      33.171  20.919  24.580  1.00  0.00    -0.027 A 
ATOM     18  C   UNL A   1      32.363  20.782  23.443  1.00  0.00     0.008 A 
ATOM     19  C   UNL A   1      32.910  19.930  25.682  1.00  0.00     0.046 C 
ATOM     20  C   UNL A   1      32.397  21.713  22.408  1.00  0.00     0.026 A 
BRANCH  15  21
ATOM     21  N   UNL A   1      35.346  21.899  25.350  1.00  0.00    -0.326 N 
ATOM     22  C   UNL A   1      36.447  21.083  25.162  1.00  0.00     0.224 C 
ATOM     23  O   UNL A   1      36.427  19.887  24.887  1.00  0.00    -0.275 OA
ATOM     24  H   UNL A   1      35.397  22.527  26.107  1.00  0.00     0.169 HD
BRANCH  22  25
ATOM     25  C   UNL A   1      37.787  21.759  25.335  1.00  0.00     0.097 C 
ATOM     26  C   UNL A   1      37.546  23.224  25.685  1.00  0.00     0.014 C 
ENDBRANCH  22  25
ENDBRANCH  15  21
ENDBRANCH  11  14
ENDBRANCH   9  10
ENDBRANCH   6   8
ENDBRANCH   5   6
ENDBRANCH   4   5
ENDBRANCH   3   4
ENDBRANCH   2   3
ENDBRANCH   1   2
BRANCH   1  27
ATOM     27  C   UNL A   1      31.942  31.899  26.922  1.00  0.00     0.188 C 
BRANCH  27  28
ATOM     28  O   UNL A   1      32.025  33.242  27.382  1.00  0.00    -0.376 OA
BRANCH  28  29
ATOM     29  C   UNL A   1      33.305  33.697  27.751  1.00  0.00     0.202 C 
BRANCH  29  30
ATOM     30  C   UNL A   1      33.187  34.849  28.750  1.00  0.00     0.261 C 
BRANCH  30  31
ATOM     31  O   UNL A   1      33.403  34.340  30.093  1.00  0.00    -0.460 OA
BRANCH  31  32
ATOM     32  C   UNL A   1      33.473  35.270  31.095  1.00  0.00     0.338 C 
ATOM     33  O   UNL A   1      33.362  36.478  30.925  1.00  0.00    -0.246 OA
BRANCH  32  34
ATOM     34  C   UNL A   1      33.971  34.650  32.376  1.00  0.00     0.060 A 
ATOM     35  C   UNL A   1      34.389  35.383  33.496  1.00  0.00     0.016 A 
ATOM     36  C   UNL A   1      34.377  33.350  32.341  1.00  0.00     0.016 A 
ATOM     37  C   UNL A   1      35.358  34.855  34.444  1.00  0.00     0.010 A 
ATOM     38  C   UNL A   1      35.452  32.996  33.168  1.00  0.00     0.010 A 
ATOM     39  C   UNL A   1      36.026  33.651  34.255  1.00  0.00    -0.014 A 
BRANCH  39  40
ATOM     40  C   UNL A   1      37.359  33.110  34.926  1.00  0.00     0.031 A 
ATOM     41  C   UNL A   1      37.931  33.356  36.369  1.00  0.00     0.074 A 
ATOM     42  C   UNL A   1      38.131  32.204  34.292  1.00  0.00     0.049 A 
ATOM     43  N   UNL A   1      38.814  34.255  36.742  1.00  0.00    -0.248 NA
ATOM     44  C   UNL A   1      37.527  32.546  37.550  1.00  0.00     0.031 C 
ATOM     45  C   UNL A   1      39.325  31.549  34.827  1.00  0.00     0.029 A 
ATOM     46  N   UNL A   1      38.093  31.820  32.961  1.00  0.00    -0.354 N 
ATOM     47  C   UNL A   1      38.994  34.087  38.130  1.00  0.00     0.074 A 
ATOM     48  C   UNL A   1      37.930  33.246  38.603  1.00  0.00     0.031 C 
ATOM     49  C   UNL A   1      40.067  31.120  33.793  1.00  0.00     0.029 A 
ATOM     50  C   UNL A   1      39.419  31.562  32.570  1.00  0.00     0.049 A 
ATOM     51  H   UNL A   1      37.289  31.741  32.397  1.00  0.00     0.167 HD
ATOM     52  C   UNL A   1      40.188  33.972  38.789  1.00  0.00     0.031 A 
ATOM     53  C   UNL A   1      39.976  32.367  31.620  1.00  0.00     0.031 A 
ATOM     54  C   UNL A   1      41.238  33.590  37.882  1.00  0.00     0.049 A 
ATOM     55  C   UNL A   1      41.014  33.328  32.192  1.00  0.00     0.074 A 
ATOM     56  C   UNL A   1      41.914  32.407  37.635  1.00  0.00     0.029 A 
ATOM     57  N   UNL A   1      41.487  34.410  36.812  1.00  0.00    -0.354 N 
ATOM     58  N   UNL A   1      41.404  33.352  33.439  1.00  0.00    -0.248 NA
ATOM     59  C   UNL A   1      41.655  34.389  31.413  1.00  0.00     0.031 C 
ATOM     60  C   UNL A   1      42.630  32.560  36.418  1.00  0.00     0.029 A 
ATOM     61  C   UNL A   1      42.388  33.835  35.953  1.00  0.00     0.049 A 
ATOM     62  H   UNL A   1      41.075  35.295  36.679  1.00  0.00     0.167 HD
ATOM     63  C   UNL A   1      42.290  34.381  33.636  1.00  0.00     0.074 A 
ATOM     64  C   UNL A   1      42.405  35.012  32.339  1.00  0.00     0.031 C 
ATOM     65  C   UNL A   1      42.846  34.647  34.854  1.00  0.00     0.031 A 
BRANCH  52  66
ATOM     66  C   UNL A   1      40.209  33.740  40.294  1.00  0.00    -0.014 A 
ATOM     67  C   UNL A   1      40.600  32.517  40.861  1.00  0.00     0.009 A 
ATOM     68  C   UNL A   1      39.797  34.749  41.195  1.00  0.00     0.009 A 
ATOM     69  C   UNL A   1      40.491  32.274  42.239  1.00  0.00     0.001 A 
ATOM     70  C   UNL A   1      39.670  34.505  42.571  1.00  0.00     0.001 A 
ATOM     71  C   UNL A   1      40.004  33.260  43.090  1.00  0.00     0.000 A 
ENDBRANCH  52  66
BRANCH  53  72
ATOM     72  C   UNL A   1      39.004  32.646  30.515  1.00  0.00    -0.014 A 
ATOM     73  C   UNL A   1      38.582  31.590  29.682  1.00  0.00     0.009 A 
ATOM     74  C   UNL A   1      38.206  33.785  30.546  1.00  0.00     0.009 A 
ATOM     75  C   UNL A   1      37.358  31.642  28.993  1.00  0.00     0.001 A 
ATOM     76  C   UNL A   1      36.986  33.840  29.850  1.00  0.00     0.001 A 
ATOM     77  C   UNL A   1      36.542  32.760  29.104  1.00  0.00     0.000 A 
ENDBRANCH  53  72
BRANCH  65  78
ATOM     78  C   UNL A   1      43.864  35.712  35.181  1.00  0.00    -0.014 A 
ATOM     79  C   UNL A   1      45.061  35.434  35.841  1.00  0.00     0.009 A 
ATOM     80  C   UNL A   1      43.550  37.081  34.985  1.00  0.00     0.009 A 
ATOM     81  C   UNL A   1      45.918  36.469  36.245  1.00  0.00     0.001 A 
ATOM     82  C   UNL A   1      44.389  38.115  35.403  1.00  0.00     0.001 A 
ATOM     83  C   UNL A   1      45.582  37.804  36.028  1.00  0.00     0.000 A 
ENDBRANCH  65  78
ENDBRANCH  39  40
ENDBRANCH  32  34
ENDBRANCH  31  32
ENDBRANCH  30  31
ENDBRANCH  29  30
ENDBRANCH  28  29
ENDBRANCH  27  28
ENDBRANCH   1  27
TORSDOF 21
ENDMDL
