MODEL 1
REMARK VINA RESULT:      -9.3      0.000      0.000
REMARK SMILES CC(C)(C(=O)OCCOCCOCCOC(=O)c1ccc(-c2c3nc(c(-c4ccccc4)c4ccc([nH]4)c(-c4ccccc4)c4nc(c(-c5ccccc5)c5ccc2[nH]5)C=C4)C=C3)cc1)n1nnnc1C(F)(F)C(F)F
REMARK SMILES IDX 10 1 9 2 8 3 7 4 6 5 4 6 5 7 2 8 1 9 3 10 66 11 67 12 70 13
REMARK SMILES IDX 68 14 69 15 71 16 72 17 73 18 74 19 75 20 76 21 11 22 12 23
REMARK SMILES IDX 13 24 14 25 15 26 16 27 17 28 18 29 19 30 65 31 20 32 64 33
REMARK SMILES IDX 21 34 22 35 23 36 58 37 24 38 63 39 57 40 59 41 25 42 62 43
REMARK SMILES IDX 56 44 55 45 26 47 48 48 33 49 47 50 34 51 37 52 46 53 60 54
REMARK SMILES IDX 35 55 36 56 45 58 61 59 38 60 27 61 28 62 32 63 29 64 31 65
REMARK SMILES IDX 30 66 49 67 50 68 54 69 51 70 53 71 52 72 39 73 40 74 44 75
REMARK SMILES IDX 41 76 43 77 42 78
REMARK H PARENT 59 46 37 57
REMARK Flexibility Score: inf
ROOT
ATOM      1  C   UNL A   1      35.188  32.100  27.936  1.00  0.00     0.188 C 
ENDROOT
BRANCH   1   2
ATOM      2  O   UNL A   1      34.107  31.175  28.004  1.00  0.00    -0.376 OA
BRANCH   2   3
ATOM      3  C   UNL A   1      34.076  30.095  27.083  1.00  0.00     0.202 C 
BRANCH   3   4
ATOM      4  C   UNL A   1      32.689  29.671  26.604  1.00  0.00     0.261 C 
BRANCH   4   5
ATOM      5  O   UNL A   1      32.674  28.391  25.938  1.00  0.00    -0.461 OA
BRANCH   5   6
ATOM      6  C   UNL A   1      32.419  28.428  24.595  1.00  0.00     0.333 C 
ATOM      7  O   UNL A   1      32.761  29.367  23.888  1.00  0.00    -0.249 OA
BRANCH   6   8
ATOM      8  C   UNL A   1      31.577  27.216  24.101  1.00  0.00     0.158 C 
ATOM      9  C   UNL A   1      30.832  26.540  25.252  1.00  0.00     0.049 C 
ATOM     10  C   UNL A   1      30.476  27.821  23.195  1.00  0.00     0.049 C 
BRANCH   8  11
ATOM     11  N   UNL A   1      32.451  26.334  23.310  1.00  0.00    -0.207 N 
ATOM     12  N   UNL A   1      32.183  26.292  21.978  1.00  0.00    -0.044 NA
ATOM     13  C   UNL A   1      33.555  25.522  23.529  1.00  0.00     0.228 A 
ATOM     14  N   UNL A   1      33.206  25.704  21.401  1.00  0.00    -0.024 NA
ATOM     15  N   UNL A   1      34.067  25.244  22.335  1.00  0.00    -0.107 NA
BRANCH  13  16
ATOM     16  C   UNL A   1      34.081  24.826  24.746  1.00  0.00     0.367 C 
ATOM     17  F   UNL A   1      35.346  24.361  24.530  1.00  0.00    -0.191 F 
ATOM     18  F   UNL A   1      34.241  25.783  25.730  1.00  0.00    -0.191 F 
BRANCH  16  19
ATOM     19  C   UNL A   1      33.237  23.744  25.401  1.00  0.00     0.419 C 
ATOM     20  F   UNL A   1      33.711  22.508  25.104  1.00  0.00    -0.203 F 
ATOM     21  F   UNL A   1      33.250  23.842  26.754  1.00  0.00    -0.203 F 
ENDBRANCH  16  19
ENDBRANCH  13  16
ENDBRANCH   8  11
ENDBRANCH   6   8
ENDBRANCH   5   6
ENDBRANCH   4   5
ENDBRANCH   3   4
ENDBRANCH   2   3
ENDBRANCH   1   2
BRANCH   1  22
ATOM     22  C   UNL A   1      35.051  33.440  28.677  1.00  0.00     0.188 C 
BRANCH  22  23
ATOM     23  O   UNL A   1      34.020  34.321  28.248  1.00  0.00    -0.376 OA
BRANCH  23  24
ATOM     24  C   UNL A   1      34.147  35.693  28.609  1.00  0.00     0.202 C 
BRANCH  24  25
ATOM     25  C   UNL A   1      33.021  36.212  29.505  1.00  0.00     0.261 C 
BRANCH  25  26
ATOM     26  O   UNL A   1      32.693  35.238  30.519  1.00  0.00    -0.460 OA
BRANCH  26  27
ATOM     27  C   UNL A   1      32.741  35.682  31.795  1.00  0.00     0.338 C 
ATOM     28  O   UNL A   1      31.955  36.423  32.356  1.00  0.00    -0.246 OA
BRANCH  27  29
ATOM     29  C   UNL A   1      33.840  35.019  32.518  1.00  0.00     0.060 A 
ATOM     30  C   UNL A   1      35.097  35.625  32.478  1.00  0.00     0.016 A 
ATOM     31  C   UNL A   1      33.684  33.752  33.077  1.00  0.00     0.016 A 
ATOM     32  C   UNL A   1      36.225  34.943  32.927  1.00  0.00     0.010 A 
ATOM     33  C   UNL A   1      34.816  33.072  33.543  1.00  0.00     0.010 A 
ATOM     34  C   UNL A   1      36.098  33.644  33.428  1.00  0.00    -0.014 A 
BRANCH  34  35
ATOM     35  C   UNL A   1      37.313  32.829  33.688  1.00  0.00     0.031 A 
ATOM     36  C   UNL A   1      38.051  33.005  34.989  1.00  0.00     0.074 A 
ATOM     37  C   UNL A   1      37.732  31.898  32.812  1.00  0.00     0.049 A 
ATOM     38  N   UNL A   1      39.204  32.512  35.366  1.00  0.00    -0.248 NA
ATOM     39  C   UNL A   1      37.398  33.849  36.004  1.00  0.00     0.031 C 
ATOM     40  C   UNL A   1      37.059  31.536  31.567  1.00  0.00     0.029 A 
ATOM     41  N   UNL A   1      38.835  31.080  32.849  1.00  0.00    -0.354 N 
ATOM     42  C   UNL A   1      39.433  33.014  36.640  1.00  0.00     0.074 A 
ATOM     43  C   UNL A   1      38.302  33.854  36.973  1.00  0.00     0.031 C 
ATOM     44  C   UNL A   1      37.758  30.561  30.961  1.00  0.00     0.029 A 
ATOM     45  C   UNL A   1      38.957  30.274  31.743  1.00  0.00     0.049 A 
ATOM     46  H   UNL A   1      39.475  31.071  33.596  1.00  0.00     0.167 HD
ATOM     47  C   UNL A   1      40.488  32.799  37.461  1.00  0.00     0.031 A 
ATOM     48  C   UNL A   1      39.941  29.428  31.384  1.00  0.00     0.031 A 
ATOM     49  C   UNL A   1      41.605  31.950  37.144  1.00  0.00     0.049 A 
ATOM     50  C   UNL A   1      41.147  29.272  32.271  1.00  0.00     0.074 A 
ATOM     51  C   UNL A   1      42.738  31.694  37.898  1.00  0.00     0.029 A 
ATOM     52  N   UNL A   1      41.720  31.203  35.983  1.00  0.00    -0.354 N 
ATOM     53  N   UNL A   1      41.393  29.817  33.437  1.00  0.00    -0.248 NA
ATOM     54  C   UNL A   1      42.218  28.392  31.779  1.00  0.00     0.031 C 
ATOM     55  C   UNL A   1      43.557  30.820  37.176  1.00  0.00     0.029 A 
ATOM     56  C   UNL A   1      42.911  30.497  35.994  1.00  0.00     0.049 A 
ATOM     57  H   UNL A   1      41.054  31.177  35.259  1.00  0.00     0.167 HD
ATOM     58  C   UNL A   1      42.638  29.334  33.825  1.00  0.00     0.074 A 
ATOM     59  C   UNL A   1      43.087  28.440  32.779  1.00  0.00     0.031 C 
ATOM     60  C   UNL A   1      43.346  29.612  34.946  1.00  0.00     0.031 A 
BRANCH  47  61
ATOM     61  C   UNL A   1      40.506  33.540  38.766  1.00  0.00    -0.014 A 
ATOM     62  C   UNL A   1      41.006  34.847  38.861  1.00  0.00     0.009 A 
ATOM     63  C   UNL A   1      39.988  32.923  39.916  1.00  0.00     0.009 A 
ATOM     64  C   UNL A   1      41.015  35.510  40.090  1.00  0.00     0.001 A 
ATOM     65  C   UNL A   1      39.976  33.597  41.138  1.00  0.00     0.001 A 
ATOM     66  C   UNL A   1      40.497  34.886  41.225  1.00  0.00     0.000 A 
ENDBRANCH  47  61
BRANCH  48  67
ATOM     67  C   UNL A   1      39.861  28.699  30.092  1.00  0.00    -0.014 A 
ATOM     68  C   UNL A   1      39.413  27.371  30.046  1.00  0.00     0.009 A 
ATOM     69  C   UNL A   1      40.258  29.324  28.900  1.00  0.00     0.009 A 
ATOM     70  C   UNL A   1      39.384  26.677  28.832  1.00  0.00     0.001 A 
ATOM     71  C   UNL A   1      40.201  28.638  27.686  1.00  0.00     0.001 A 
ATOM     72  C   UNL A   1      39.775  27.313  27.654  1.00  0.00     0.000 A 
ENDBRANCH  48  67
BRANCH  60  73
ATOM     73  C   UNL A   1      44.668  28.919  35.111  1.00  0.00    -0.014 A 
ATOM     74  C   UNL A   1      44.754  27.656  35.717  1.00  0.00     0.009 A 
ATOM     75  C   UNL A   1      45.837  29.523  34.625  1.00  0.00     0.009 A 
ATOM     76  C   UNL A   1      45.991  27.026  35.861  1.00  0.00     0.001 A 
ATOM     77  C   UNL A   1      47.069  28.881  34.748  1.00  0.00     0.001 A 
ATOM     78  C   UNL A   1      47.147  27.637  35.374  1.00  0.00     0.000 A 
ENDBRANCH  60  73
ENDBRANCH  34  35
ENDBRANCH  27  29
ENDBRANCH  26  27
ENDBRANCH  25  26
ENDBRANCH  24  25
ENDBRANCH  23  24
ENDBRANCH  22  23
ENDBRANCH   1  22
TORSDOF 20
ENDMDL
MODEL 2
REMARK VINA RESULT:      -8.9      2.237      3.628
REMARK SMILES CC(C)(C(=O)OCCOCCOCCOC(=O)c1ccc(-c2c3nc(c(-c4ccccc4)c4ccc([nH]4)c(-c4ccccc4)c4nc(c(-c5ccccc5)c5ccc2[nH]5)C=C4)C=C3)cc1)n1nnnc1C(F)(F)C(F)F
REMARK SMILES IDX 10 1 9 2 8 3 7 4 6 5 4 6 5 7 2 8 1 9 3 10 66 11 67 12 70 13
REMARK SMILES IDX 68 14 69 15 71 16 72 17 73 18 74 19 75 20 76 21 11 22 12 23
REMARK SMILES IDX 13 24 14 25 15 26 16 27 17 28 18 29 19 30 65 31 20 32 64 33
REMARK SMILES IDX 21 34 22 35 23 36 58 37 24 38 63 39 57 40 59 41 25 42 62 43
REMARK SMILES IDX 56 44 55 45 26 47 48 48 33 49 47 50 34 51 37 52 46 53 60 54
REMARK SMILES IDX 35 55 36 56 45 58 61 59 38 60 27 61 28 62 32 63 29 64 31 65
REMARK SMILES IDX 30 66 49 67 50 68 54 69 51 70 53 71 52 72 39 73 40 74 44 75
REMARK SMILES IDX 41 76 43 77 42 78
REMARK H PARENT 59 46 37 57
REMARK Flexibility Score: inf
ROOT
ATOM      1  C   UNL A   1      32.804  28.120  26.092  1.00  0.00     0.188 C 
ENDROOT
BRANCH   1   2
ATOM      2  O   UNL A   1      31.668  27.297  26.343  1.00  0.00    -0.376 OA
BRANCH   2   3
ATOM      3  C   UNL A   1      31.859  25.898  26.490  1.00  0.00     0.202 C 
BRANCH   3   4
ATOM      4  C   UNL A   1      30.804  25.012  25.829  1.00  0.00     0.261 C 
BRANCH   4   5
ATOM      5  O   UNL A   1      31.356  23.862  25.155  1.00  0.00    -0.461 OA
BRANCH   5   6
ATOM      6  C   UNL A   1      31.298  23.895  23.789  1.00  0.00     0.333 C 
ATOM      7  O   UNL A   1      30.271  24.168  23.182  1.00  0.00    -0.249 OA
BRANCH   6   8
ATOM      8  C   UNL A   1      32.630  23.461  23.113  1.00  0.00     0.158 C 
ATOM      9  C   UNL A   1      33.757  23.304  24.133  1.00  0.00     0.049 C 
ATOM     10  C   UNL A   1      32.368  22.035  22.564  1.00  0.00     0.049 C 
BRANCH   8  11
ATOM     11  N   UNL A   1      32.910  24.383  22.000  1.00  0.00    -0.207 N 
ATOM     12  N   UNL A   1      33.293  23.793  20.837  1.00  0.00    -0.044 NA
ATOM     13  C   UNL A   1      32.854  25.750  21.764  1.00  0.00     0.228 A 
ATOM     14  N   UNL A   1      33.221  24.711  19.901  1.00  0.00    -0.024 NA
ATOM     15  N   UNL A   1      32.932  25.913  20.448  1.00  0.00    -0.107 NA
BRANCH  13  16
ATOM     16  C   UNL A   1      32.911  26.942  22.668  1.00  0.00     0.367 C 
ATOM     17  F   UNL A   1      31.723  27.116  23.317  1.00  0.00    -0.191 F 
ATOM     18  F   UNL A   1      33.805  26.648  23.680  1.00  0.00    -0.191 F 
BRANCH  16  19
ATOM     19  C   UNL A   1      33.394  28.270  22.107  1.00  0.00     0.419 C 
ATOM     20  F   UNL A   1      33.184  29.279  22.990  1.00  0.00    -0.203 F 
ATOM     21  F   UNL A   1      34.727  28.258  21.854  1.00  0.00    -0.203 F 
ENDBRANCH  16  19
ENDBRANCH  13  16
ENDBRANCH   8  11
ENDBRANCH   6   8
ENDBRANCH   5   6
ENDBRANCH   4   5
ENDBRANCH   3   4
ENDBRANCH   2   3
ENDBRANCH   1   2
BRANCH   1  22
ATOM     22  C   UNL A   1      33.373  28.954  27.251  1.00  0.00     0.188 C 
BRANCH  22  23
ATOM     23  O   UNL A   1      32.695  30.159  27.582  1.00  0.00    -0.376 OA
BRANCH  23  24
ATOM     24  C   UNL A   1      33.485  31.340  27.691  1.00  0.00     0.202 C 
BRANCH  24  25
ATOM     25  C   UNL A   1      32.694  32.640  27.533  1.00  0.00     0.261 C 
BRANCH  25  26
ATOM     26  O   UNL A   1      33.557  33.782  27.722  1.00  0.00    -0.460 OA
BRANCH  26  27
ATOM     27  C   UNL A   1      33.577  34.300  28.971  1.00  0.00     0.338 C 
ATOM     28  O   UNL A   1      32.707  34.950  29.522  1.00  0.00    -0.246 OA
BRANCH  27  29
ATOM     29  C   UNL A   1      34.782  33.844  29.686  1.00  0.00     0.060 A 
ATOM     30  C   UNL A   1      36.021  34.135  29.113  1.00  0.00     0.016 A 
ATOM     31  C   UNL A   1      34.696  33.009  30.798  1.00  0.00     0.016 A 
ATOM     32  C   UNL A   1      37.181  33.536  29.596  1.00  0.00     0.010 A 
ATOM     33  C   UNL A   1      35.864  32.418  31.294  1.00  0.00     0.010 A 
ATOM     34  C   UNL A   1      37.107  32.641  30.669  1.00  0.00    -0.014 A 
BRANCH  34  35
ATOM     35  C   UNL A   1      38.294  31.826  31.036  1.00  0.00     0.031 A 
ATOM     36  C   UNL A   1      39.128  32.236  32.220  1.00  0.00     0.074 A 
ATOM     37  C   UNL A   1      38.601  30.698  30.369  1.00  0.00     0.049 A 
ATOM     38  N   UNL A   1      40.278  31.764  32.631  1.00  0.00    -0.248 NA
ATOM     39  C   UNL A   1      38.593  33.325  33.054  1.00  0.00     0.031 C 
ATOM     40  C   UNL A   1      37.825  30.115  29.277  1.00  0.00     0.029 A 
ATOM     41  N   UNL A   1      39.660  29.838  30.527  1.00  0.00    -0.354 N 
ATOM     42  C   UNL A   1      40.621  32.519  33.746  1.00  0.00     0.074 A 
ATOM     43  C   UNL A   1      39.561  33.485  33.944  1.00  0.00     0.031 C 
ATOM     44  C   UNL A   1      38.429  28.987  28.867  1.00  0.00     0.029 A 
ATOM     45  C   UNL A   1      39.663  28.802  29.625  1.00  0.00     0.049 A 
ATOM     46  H   UNL A   1      40.350  29.952  31.219  1.00  0.00     0.167 HD
ATOM     47  C   UNL A   1      41.719  32.422  34.532  1.00  0.00     0.031 A 
ATOM     48  C   UNL A   1      40.575  27.834  29.410  1.00  0.00     0.031 A 
ATOM     49  C   UNL A   1      42.765  31.451  34.351  1.00  0.00     0.049 A 
ATOM     50  C   UNL A   1      41.830  27.799  30.239  1.00  0.00     0.074 A 
ATOM     51  C   UNL A   1      43.933  31.295  35.079  1.00  0.00     0.029 A 
ATOM     52  N   UNL A   1      42.760  30.460  33.384  1.00  0.00    -0.354 N 
ATOM     53  N   UNL A   1      42.185  28.570  31.238  1.00  0.00    -0.248 NA
ATOM     54  C   UNL A   1      42.817  26.764  29.898  1.00  0.00     0.031 C 
ATOM     55  C   UNL A   1      44.654  30.231  34.526  1.00  0.00     0.029 A 
ATOM     56  C   UNL A   1      43.911  29.697  33.485  1.00  0.00     0.049 A 
ATOM     57  H   UNL A   1      42.044  30.319  32.723  1.00  0.00     0.167 HD
ATOM     58  C   UNL A   1      43.427  28.105  31.652  1.00  0.00     0.074 A 
ATOM     59  C   UNL A   1      43.755  26.974  30.811  1.00  0.00     0.031 C 
ATOM     60  C   UNL A   1      44.225  28.576  32.641  1.00  0.00     0.031 A 
BRANCH  47  61
ATOM     61  C   UNL A   1      41.866  33.430  35.634  1.00  0.00    -0.014 A 
ATOM     62  C   UNL A   1      42.482  34.671  35.416  1.00  0.00     0.009 A 
ATOM     63  C   UNL A   1      41.354  33.138  36.909  1.00  0.00     0.009 A 
ATOM     64  C   UNL A   1      42.610  35.587  36.462  1.00  0.00     0.001 A 
ATOM     65  C   UNL A   1      41.462  34.065  37.946  1.00  0.00     0.001 A 
ATOM     66  C   UNL A   1      42.097  35.285  37.723  1.00  0.00     0.000 A 
ENDBRANCH  47  61
BRANCH  48  67
ATOM     67  C   UNL A   1      40.367  26.844  28.321  1.00  0.00    -0.014 A 
ATOM     68  C   UNL A   1      39.617  25.680  28.546  1.00  0.00     0.009 A 
ATOM     69  C   UNL A   1      40.942  27.050  27.058  1.00  0.00     0.009 A 
ATOM     70  C   UNL A   1      39.465  24.732  27.530  1.00  0.00     0.001 A 
ATOM     71  C   UNL A   1      40.764  26.115  26.037  1.00  0.00     0.001 A 
ATOM     72  C   UNL A   1      40.035  24.952  26.277  1.00  0.00     0.000 A 
ENDBRANCH  48  67
BRANCH  60  73
ATOM     73  C   UNL A   1      45.518  27.851  32.882  1.00  0.00    -0.014 A 
ATOM     74  C   UNL A   1      46.703  28.249  32.243  1.00  0.00     0.009 A 
ATOM     75  C   UNL A   1      45.557  26.776  33.784  1.00  0.00     0.009 A 
ATOM     76  C   UNL A   1      47.895  27.563  32.481  1.00  0.00     0.001 A 
ATOM     77  C   UNL A   1      46.755  26.109  34.038  1.00  0.00     0.001 A 
ATOM     78  C   UNL A   1      47.922  26.497  33.380  1.00  0.00     0.000 A 
ENDBRANCH  60  73
ENDBRANCH  34  35
ENDBRANCH  27  29
ENDBRANCH  26  27
ENDBRANCH  25  26
ENDBRANCH  24  25
ENDBRANCH  23  24
ENDBRANCH  22  23
ENDBRANCH   1  22
TORSDOF 20
ENDMDL
MODEL 3
REMARK VINA RESULT:      -8.8      4.853      8.552
REMARK SMILES CC(C)(C(=O)OCCOCCOCCOC(=O)c1ccc(-c2c3nc(c(-c4ccccc4)c4ccc([nH]4)c(-c4ccccc4)c4nc(c(-c5ccccc5)c5ccc2[nH]5)C=C4)C=C3)cc1)n1nnnc1C(F)(F)C(F)F
REMARK SMILES IDX 10 1 9 2 8 3 7 4 6 5 4 6 5 7 2 8 1 9 3 10 66 11 67 12 70 13
REMARK SMILES IDX 68 14 69 15 71 16 72 17 73 18 74 19 75 20 76 21 11 22 12 23
REMARK SMILES IDX 13 24 14 25 15 26 16 27 17 28 18 29 19 30 65 31 20 32 64 33
REMARK SMILES IDX 21 34 22 35 23 36 58 37 24 38 63 39 57 40 59 41 25 42 62 43
REMARK SMILES IDX 56 44 55 45 26 47 48 48 33 49 47 50 34 51 37 52 46 53 60 54
REMARK SMILES IDX 35 55 36 56 45 58 61 59 38 60 27 61 28 62 32 63 29 64 31 65
REMARK SMILES IDX 30 66 49 67 50 68 54 69 51 70 53 71 52 72 39 73 40 74 44 75
REMARK SMILES IDX 41 76 43 77 42 78
REMARK H PARENT 59 46 37 57
REMARK Flexibility Score: inf
ROOT
ATOM      1  C   UNL A   1      34.080  30.775  27.339  1.00  0.00     0.188 C 
ENDROOT
BRANCH   1   2
ATOM      2  O   UNL A   1      34.312  29.439  27.773  1.00  0.00    -0.376 OA
BRANCH   2   3
ATOM      3  C   UNL A   1      33.582  28.387  27.161  1.00  0.00     0.202 C 
BRANCH   3   4
ATOM      4  C   UNL A   1      32.223  28.772  26.579  1.00  0.00     0.261 C 
BRANCH   4   5
ATOM      5  O   UNL A   1      31.673  27.779  25.688  1.00  0.00    -0.461 OA
BRANCH   5   6
ATOM      6  C   UNL A   1      31.821  28.038  24.354  1.00  0.00     0.333 C 
ATOM      7  O   UNL A   1      32.460  28.995  23.938  1.00  0.00    -0.249 OA
BRANCH   6   8
ATOM      8  C   UNL A   1      31.020  27.055  23.452  1.00  0.00     0.158 C 
ATOM      9  C   UNL A   1      29.921  26.337  24.235  1.00  0.00     0.049 C 
ATOM     10  C   UNL A   1      30.279  27.949  22.426  1.00  0.00     0.049 C 
BRANCH   8  11
ATOM     11  N   UNL A   1      31.975  26.178  22.755  1.00  0.00    -0.207 N 
ATOM     12  N   UNL A   1      31.948  26.249  21.398  1.00  0.00    -0.044 NA
ATOM     13  C   UNL A   1      32.979  25.282  23.096  1.00  0.00     0.228 A 
ATOM     14  N   UNL A   1      33.027  25.640  20.962  1.00  0.00    -0.024 NA
ATOM     15  N   UNL A   1      33.683  25.059  21.992  1.00  0.00    -0.107 NA
BRANCH  13  16
ATOM     16  C   UNL A   1      33.243  24.469  24.326  1.00  0.00     0.367 C 
ATOM     17  F   UNL A   1      32.074  24.122  24.938  1.00  0.00    -0.191 F 
ATOM     18  F   UNL A   1      33.776  23.263  23.914  1.00  0.00    -0.191 F 
BRANCH  16  19
ATOM     19  C   UNL A   1      34.231  24.990  25.357  1.00  0.00     0.419 C 
ATOM     20  F   UNL A   1      35.395  24.294  25.316  1.00  0.00    -0.203 F 
ATOM     21  F   UNL A   1      34.557  26.289  25.133  1.00  0.00    -0.203 F 
ENDBRANCH  16  19
ENDBRANCH  13  16
ENDBRANCH   8  11
ENDBRANCH   6   8
ENDBRANCH   5   6
ENDBRANCH   4   5
ENDBRANCH   3   4
ENDBRANCH   2   3
ENDBRANCH   1   2
BRANCH   1  22
ATOM     22  C   UNL A   1      34.477  31.928  28.276  1.00  0.00     0.188 C 
BRANCH  22  23
ATOM     23  O   UNL A   1      35.260  32.978  27.724  1.00  0.00    -0.376 OA
BRANCH  23  24
ATOM     24  C   UNL A   1      35.884  33.874  28.639  1.00  0.00     0.202 C 
BRANCH  24  25
ATOM     25  C   UNL A   1      35.638  33.537  30.111  1.00  0.00     0.261 C 
BRANCH  25  26
ATOM     26  O   UNL A   1      36.836  33.004  30.714  1.00  0.00    -0.460 OA
BRANCH  26  27
ATOM     27  C   UNL A   1      36.738  31.744  31.196  1.00  0.00     0.338 C 
ATOM     28  O   UNL A   1      35.863  31.284  31.906  1.00  0.00    -0.246 OA
BRANCH  27  29
ATOM     29  C   UNL A   1      37.797  30.900  30.618  1.00  0.00     0.060 A 
ATOM     30  C   UNL A   1      38.696  30.296  31.500  1.00  0.00     0.016 A 
ATOM     31  C   UNL A   1      38.009  30.838  29.242  1.00  0.00     0.016 A 
ATOM     32  C   UNL A   1      39.854  29.688  31.023  1.00  0.00     0.010 A 
ATOM     33  C   UNL A   1      39.166  30.214  28.761  1.00  0.00     0.010 A 
ATOM     34  C   UNL A   1      40.118  29.676  29.649  1.00  0.00    -0.014 A 
BRANCH  34  35
ATOM     35  C   UNL A   1      41.451  29.243  29.156  1.00  0.00     0.031 A 
ATOM     36  C   UNL A   1      41.631  27.827  28.674  1.00  0.00     0.074 A 
ATOM     37  C   UNL A   1      42.481  30.104  29.075  1.00  0.00     0.049 A 
ATOM     38  N   UNL A   1      42.727  27.195  28.341  1.00  0.00    -0.248 NA
ATOM     39  C   UNL A   1      40.408  27.016  28.551  1.00  0.00     0.031 C 
ATOM     40  C   UNL A   1      42.428  31.529  29.396  1.00  0.00     0.029 A 
ATOM     41  N   UNL A   1      43.782  29.894  28.687  1.00  0.00    -0.354 N 
ATOM     42  C   UNL A   1      42.334  25.906  28.005  1.00  0.00     0.074 A 
ATOM     43  C   UNL A   1      40.898  25.843  28.180  1.00  0.00     0.031 C 
ATOM     44  C   UNL A   1      43.640  32.069  29.184  1.00  0.00     0.029 A 
ATOM     45  C   UNL A   1      44.567  31.018  28.772  1.00  0.00     0.049 A 
ATOM     46  H   UNL A   1      44.119  29.023  28.378  1.00  0.00     0.167 HD
ATOM     47  C   UNL A   1      43.096  24.866  27.592  1.00  0.00     0.031 A 
ATOM     48  C   UNL A   1      45.890  31.176  28.575  1.00  0.00     0.031 A 
ATOM     49  C   UNL A   1      44.520  24.928  27.398  1.00  0.00     0.049 A 
ATOM     50  C   UNL A   1      46.732  29.986  28.202  1.00  0.00     0.074 A 
ATOM     51  C   UNL A   1      45.384  23.917  27.012  1.00  0.00     0.029 A 
ATOM     52  N   UNL A   1      45.286  26.070  27.558  1.00  0.00    -0.354 N 
ATOM     53  N   UNL A   1      46.363  28.750  27.968  1.00  0.00    -0.248 NA
ATOM     54  C   UNL A   1      48.179  30.215  28.079  1.00  0.00     0.031 C 
ATOM     55  C   UNL A   1      46.681  24.440  26.975  1.00  0.00     0.029 A 
ATOM     56  C   UNL A   1      46.616  25.787  27.293  1.00  0.00     0.049 A 
ATOM     57  H   UNL A   1      44.938  26.953  27.822  1.00  0.00     0.167 HD
ATOM     58  C   UNL A   1      47.528  28.060  27.657  1.00  0.00     0.074 A 
ATOM     59  C   UNL A   1      48.613  29.016  27.713  1.00  0.00     0.031 C 
ATOM     60  C   UNL A   1      47.684  26.748  27.355  1.00  0.00     0.031 A 
BRANCH  47  61
ATOM     61  C   UNL A   1      42.404  23.552  27.370  1.00  0.00    -0.014 A 
ATOM     62  C   UNL A   1      42.073  23.105  26.082  1.00  0.00     0.009 A 
ATOM     63  C   UNL A   1      42.101  22.738  28.474  1.00  0.00     0.009 A 
ATOM     64  C   UNL A   1      41.424  21.882  25.907  1.00  0.00     0.001 A 
ATOM     65  C   UNL A   1      41.475  21.504  28.293  1.00  0.00     0.001 A 
ATOM     66  C   UNL A   1      41.130  21.081  27.011  1.00  0.00     0.000 A 
ENDBRANCH  47  61
BRANCH  48  67
ATOM     67  C   UNL A   1      46.520  32.506  28.783  1.00  0.00    -0.014 A 
ATOM     68  C   UNL A   1      47.086  32.843  30.021  1.00  0.00     0.009 A 
ATOM     69  C   UNL A   1      46.533  33.453  27.748  1.00  0.00     0.009 A 
ATOM     70  C   UNL A   1      47.636  34.113  30.222  1.00  0.00     0.001 A 
ATOM     71  C   UNL A   1      47.108  34.710  27.944  1.00  0.00     0.001 A 
ATOM     72  C   UNL A   1      47.649  35.042  29.184  1.00  0.00     0.000 A 
ENDBRANCH  48  67
BRANCH  60  73
ATOM     73  C   UNL A   1      49.075  26.279  27.036  1.00  0.00    -0.014 A 
ATOM     74  C   UNL A   1      49.573  26.325  25.725  1.00  0.00     0.009 A 
ATOM     75  C   UNL A   1      49.907  25.814  28.067  1.00  0.00     0.009 A 
ATOM     76  C   UNL A   1      50.869  25.886  25.448  1.00  0.00     0.001 A 
ATOM     77  C   UNL A   1      51.210  25.399  27.790  1.00  0.00     0.001 A 
ATOM     78  C   UNL A   1      51.687  25.426  26.480  1.00  0.00     0.000 A 
ENDBRANCH  60  73
ENDBRANCH  34  35
ENDBRANCH  27  29
ENDBRANCH  26  27
ENDBRANCH  25  26
ENDBRANCH  24  25
ENDBRANCH  23  24
ENDBRANCH  22  23
ENDBRANCH   1  22
TORSDOF 20
ENDMDL
