MODEL 1
REMARK VINA RESULT:     -10.0      0.000      0.000
REMARK SMILES Cc1c(CC(=O)N[C@@H](CCO)C(=O)OCCOCCOCCOC(=O)c2ccc(-c3c4nc(c(-c5ccccc5)c5ccc([nH]5)c(-c5ccccc5)c5nc(c(-c6ccccc6)c6ccc3[nH]6)C=C5)C=C4)cc2)cc(-c2ccc(S(C)(=O)=O)cc2)n1-c1ccc(F)cc1
REMARK SMILES IDX 17 1 16 2 15 3 14 4 12 5 13 6 8 7 7 8 5 9 6 10 4 12 3 13
REMARK SMILES IDX 1 14 2 15 86 16 74 17 75 18 87 19 88 20 93 21 89 22 92 23
REMARK SMILES IDX 90 24 91 25 76 26 77 27 85 28 78 29 84 30 79 31 80 32 81 33
REMARK SMILES IDX 82 34 83 35 9 36 10 37 11 38 18 40 19 41 20 42 21 43 22 44
REMARK SMILES IDX 23 45 24 46 25 47 26 48 27 49 73 50 28 51 72 52 29 53 30 54
REMARK SMILES IDX 31 55 66 56 32 57 71 58 65 59 67 60 33 61 70 62 64 63 63 64
REMARK SMILES IDX 34 66 56 67 41 68 55 69 42 70 45 71 54 72 68 73 43 74 44 75
REMARK SMILES IDX 53 77 69 78 46 79 35 80 36 81 40 82 37 83 39 84 38 85 57 86
REMARK SMILES IDX 58 87 62 88 59 89 61 90 60 91 47 92 48 93 52 94 49 95 51 96
REMARK SMILES IDX 50 97
REMARK H PARENT 7 11 11 39 67 65 45 76
REMARK Flexibility Score: inf
ROOT
ATOM      1  O   UNL A   1      34.614  29.885  27.931  1.00  0.00    -0.376 OA
ENDROOT
BRANCH   1   2
ATOM      2  C   UNL A   1      33.461  29.641  27.133  1.00  0.00     0.202 C 
BRANCH   2   3
ATOM      3  C   UNL A   1      32.574  30.760  26.577  1.00  0.00     0.261 C 
BRANCH   3   4
ATOM      4  O   UNL A   1      31.630  30.346  25.585  1.00  0.00    -0.462 OA
BRANCH   4   5
ATOM      5  C   UNL A   1      32.151  29.503  24.648  1.00  0.00     0.328 C 
ATOM      6  O   UNL A   1      33.305  29.532  24.235  1.00  0.00    -0.250 OA
BRANCH   5   7
ATOM      7  C   UNL A   1      31.131  28.479  24.149  1.00  0.00     0.194 C 
BRANCH   7   8
ATOM      8  N   UNL A   1      30.607  27.511  25.121  1.00  0.00    -0.342 N 
ATOM      9  C   UNL A   1      30.095  26.261  24.901  1.00  0.00     0.225 C 
ATOM     10  O   UNL A   1      29.505  25.708  25.832  1.00  0.00    -0.275 OA
ATOM     11  H   UNL A   1      30.625  27.802  26.061  1.00  0.00     0.164 HD
BRANCH   9  12
ATOM     12  C   UNL A   1      30.330  25.539  23.575  1.00  0.00     0.137 C 
BRANCH  12  13
ATOM     13  C   UNL A   1      31.405  24.504  23.643  1.00  0.00    -0.017 A 
ATOM     14  C   UNL A   1      33.469  26.002  24.052  1.00  0.00     0.065 C 
ATOM     15  C   UNL A   1      32.745  24.699  23.932  1.00  0.00     0.024 A 
ATOM     16  N   UNL A   1      33.347  23.453  24.065  1.00  0.00    -0.314 N 
ATOM     17  C   UNL A   1      31.228  23.112  23.435  1.00  0.00     0.033 A 
ATOM     18  C   UNL A   1      32.400  22.467  23.784  1.00  0.00     0.053 A 
BRANCH  16  19
ATOM     19  C   UNL A   1      34.686  23.215  24.473  1.00  0.00     0.046 A 
ATOM     20  C   UNL A   1      35.091  23.577  25.764  1.00  0.00     0.029 A 
ATOM     21  C   UNL A   1      35.598  22.656  23.568  1.00  0.00     0.029 A 
ATOM     22  C   UNL A   1      36.413  23.368  26.151  1.00  0.00     0.041 A 
ATOM     23  C   UNL A   1      36.923  22.469  23.958  1.00  0.00     0.041 A 
ATOM     24  C   UNL A   1      37.316  22.822  25.245  1.00  0.00     0.123 A 
ATOM     25  F   UNL A   1      38.589  22.639  25.616  1.00  0.00    -0.207 F 
ENDBRANCH  16  19
BRANCH  18  26
ATOM     26  C   UNL A   1      32.564  21.029  24.023  1.00  0.00    -0.001 A 
ATOM     27  C   UNL A   1      32.444  20.117  22.962  1.00  0.00     0.011 A 
ATOM     28  C   UNL A   1      32.911  20.555  25.295  1.00  0.00     0.011 A 
ATOM     29  C   UNL A   1      32.640  18.750  23.171  1.00  0.00     0.021 A 
ATOM     30  C   UNL A   1      33.105  19.188  25.512  1.00  0.00     0.021 A 
ATOM     31  C   UNL A   1      32.959  18.292  24.451  1.00  0.00     0.067 A 
BRANCH  31  32
ATOM     32  S   UNL A   1      33.239  16.554  24.693  1.00  0.00     0.175 S 
ATOM     33  C   UNL A   1      34.912  16.461  25.277  1.00  0.00     0.163 C 
ATOM     34  O   UNL A   1      32.361  16.121  25.743  1.00  0.00    -0.224 OA
ATOM     35  O   UNL A   1      33.210  15.921  23.373  1.00  0.00    -0.224 OA
ENDBRANCH  31  32
ENDBRANCH  18  26
ENDBRANCH  12  13
ENDBRANCH   9  12
ENDBRANCH   7   8
BRANCH   7  36
ATOM     36  C   UNL A   1      29.983  29.204  23.435  1.00  0.00     0.065 C 
BRANCH  36  37
ATOM     37  C   UNL A   1      30.342  29.737  22.049  1.00  0.00     0.159 C 
BRANCH  37  38
ATOM     38  O   UNL A   1      29.606  30.908  21.737  1.00  0.00    -0.396 OA
ATOM     39  H   UNL A   1      28.944  31.069  22.427  1.00  0.00     0.210 HD
ENDBRANCH  37  38
ENDBRANCH  36  37
ENDBRANCH   7  36
ENDBRANCH   5   7
ENDBRANCH   4   5
ENDBRANCH   3   4
ENDBRANCH   2   3
ENDBRANCH   1   2
BRANCH   1  40
ATOM     40  C   UNL A   1      35.885  29.380  27.568  1.00  0.00     0.188 C 
BRANCH  40  41
ATOM     41  C   UNL A   1      37.141  29.783  28.353  1.00  0.00     0.188 C 
BRANCH  41  42
ATOM     42  O   UNL A   1      36.964  30.405  29.603  1.00  0.00    -0.376 OA
BRANCH  42  43
ATOM     43  C   UNL A   1      38.140  30.899  30.243  1.00  0.00     0.202 C 
BRANCH  43  44
ATOM     44  C   UNL A   1      38.083  31.490  31.682  1.00  0.00     0.261 C 
BRANCH  44  45
ATOM     45  O   UNL A   1      37.626  32.878  31.903  1.00  0.00    -0.460 OA
BRANCH  45  46
ATOM     46  C   UNL A   1      38.615  33.827  32.070  1.00  0.00     0.338 C 
ATOM     47  O   UNL A   1      38.742  34.473  33.104  1.00  0.00    -0.246 OA
BRANCH  46  48
ATOM     48  C   UNL A   1      39.560  34.088  30.885  1.00  0.00     0.060 A 
ATOM     49  C   UNL A   1      40.940  34.047  31.059  1.00  0.00     0.016 A 
ATOM     50  C   UNL A   1      39.148  34.709  29.684  1.00  0.00     0.016 A 
ATOM     51  C   UNL A   1      41.848  34.547  30.047  1.00  0.00     0.010 A 
ATOM     52  C   UNL A   1      40.079  35.264  28.678  1.00  0.00     0.010 A 
ATOM     53  C   UNL A   1      41.479  35.205  28.812  1.00  0.00    -0.014 A 
BRANCH  53  54
ATOM     54  C   UNL A   1      42.616  36.131  28.072  1.00  0.00     0.031 A 
ATOM     55  C   UNL A   1      43.592  35.116  27.584  1.00  0.00     0.074 A 
ATOM     56  C   UNL A   1      43.066  37.445  27.859  1.00  0.00     0.049 A 
ATOM     57  N   UNL A   1      44.145  34.303  28.437  1.00  0.00    -0.248 NA
ATOM     58  C   UNL A   1      43.727  34.725  26.182  1.00  0.00     0.031 C 
ATOM     59  C   UNL A   1      42.505  38.697  28.398  1.00  0.00     0.029 A 
ATOM     60  N   UNL A   1      44.158  38.003  27.090  1.00  0.00    -0.354 N 
ATOM     61  C   UNL A   1      44.941  33.463  27.702  1.00  0.00     0.074 A 
ATOM     62  C   UNL A   1      44.476  33.627  26.332  1.00  0.00     0.031 C 
ATOM     63  C   UNL A   1      43.111  39.805  27.873  1.00  0.00     0.029 A 
ATOM     64  C   UNL A   1      44.194  39.445  26.957  1.00  0.00     0.049 A 
ATOM     65  H   UNL A   1      44.845  37.429  26.679  1.00  0.00     0.167 HD
ATOM     66  C   UNL A   1      46.221  33.310  28.150  1.00  0.00     0.031 A 
ATOM     67  C   UNL A   1      45.042  40.307  26.251  1.00  0.00     0.031 A 
ATOM     68  C   UNL A   1      47.153  34.083  27.374  1.00  0.00     0.049 A 
ATOM     69  C   UNL A   1      46.321  39.607  26.067  1.00  0.00     0.074 A 
ATOM     70  C   UNL A   1      47.338  34.244  26.017  1.00  0.00     0.029 A 
ATOM     71  N   UNL A   1      47.743  35.167  27.992  1.00  0.00    -0.354 N 
ATOM     72  N   UNL A   1      47.199  39.575  27.022  1.00  0.00    -0.248 NA
ATOM     73  C   UNL A   1      46.775  39.068  24.791  1.00  0.00     0.031 C 
ATOM     74  C   UNL A   1      47.590  35.621  25.845  1.00  0.00     0.029 A 
ATOM     75  C   UNL A   1      47.897  36.187  27.077  1.00  0.00     0.049 A 
ATOM     76  H   UNL A   1      48.012  35.206  28.939  1.00  0.00     0.167 HD
ATOM     77  C   UNL A   1      47.996  38.537  26.658  1.00  0.00     0.074 A 
ATOM     78  C   UNL A   1      47.901  38.482  25.213  1.00  0.00     0.031 C 
ATOM     79  C   UNL A   1      48.105  37.531  27.563  1.00  0.00     0.031 A 
BRANCH  66  80
ATOM     80  C   UNL A   1      46.341  33.101  29.635  1.00  0.00    -0.014 A 
ATOM     81  C   UNL A   1      46.616  31.821  30.124  1.00  0.00     0.009 A 
ATOM     82  C   UNL A   1      46.045  34.122  30.563  1.00  0.00     0.009 A 
ATOM     83  C   UNL A   1      46.530  31.555  31.496  1.00  0.00     0.001 A 
ATOM     84  C   UNL A   1      45.924  33.850  31.924  1.00  0.00     0.001 A 
ATOM     85  C   UNL A   1      46.158  32.561  32.389  1.00  0.00     0.000 A 
ENDBRANCH  66  80
BRANCH  67  86
ATOM     86  C   UNL A   1      45.255  41.783  25.789  1.00  0.00    -0.014 A 
ATOM     87  C   UNL A   1      44.776  42.867  26.609  1.00  0.00     0.009 A 
ATOM     88  C   UNL A   1      46.211  42.169  24.843  1.00  0.00     0.009 A 
ATOM     89  C   UNL A   1      45.292  44.180  26.579  1.00  0.00     0.001 A 
ATOM     90  C   UNL A   1      46.708  43.505  24.785  1.00  0.00     0.001 A 
ATOM     91  C   UNL A   1      46.280  44.497  25.670  1.00  0.00     0.000 A 
ENDBRANCH  67  86
BRANCH  79  92
ATOM     92  C   UNL A   1      48.188  37.935  29.032  1.00  0.00    -0.014 A 
ATOM     93  C   UNL A   1      47.090  38.004  29.922  1.00  0.00     0.009 A 
ATOM     94  C   UNL A   1      49.427  38.361  29.528  1.00  0.00     0.009 A 
ATOM     95  C   UNL A   1      47.202  38.564  31.201  1.00  0.00     0.001 A 
ATOM     96  C   UNL A   1      49.554  38.871  30.828  1.00  0.00     0.001 A 
ATOM     97  C   UNL A   1      48.439  38.999  31.653  1.00  0.00     0.000 A 
ENDBRANCH  79  92
ENDBRANCH  53  54
ENDBRANCH  46  48
ENDBRANCH  45  46
ENDBRANCH  44  45
ENDBRANCH  43  44
ENDBRANCH  42  43
ENDBRANCH  41  42
ENDBRANCH  40  41
ENDBRANCH   1  40
TORSDOF 26
ENDMDL
MODEL 2
REMARK VINA RESULT:      -9.8      2.339      4.502
REMARK SMILES Cc1c(CC(=O)N[C@@H](CCO)C(=O)OCCOCCOCCOC(=O)c2ccc(-c3c4nc(c(-c5ccccc5)c5ccc([nH]5)c(-c5ccccc5)c5nc(c(-c6ccccc6)c6ccc3[nH]6)C=C5)C=C4)cc2)cc(-c2ccc(S(C)(=O)=O)cc2)n1-c1ccc(F)cc1
REMARK SMILES IDX 17 1 16 2 15 3 14 4 12 5 13 6 8 7 7 8 5 9 6 10 4 12 3 13
REMARK SMILES IDX 1 14 2 15 86 16 74 17 75 18 87 19 88 20 93 21 89 22 92 23
REMARK SMILES IDX 90 24 91 25 76 26 77 27 85 28 78 29 84 30 79 31 80 32 81 33
REMARK SMILES IDX 82 34 83 35 9 36 10 37 11 38 18 40 19 41 20 42 21 43 22 44
REMARK SMILES IDX 23 45 24 46 25 47 26 48 27 49 73 50 28 51 72 52 29 53 30 54
REMARK SMILES IDX 31 55 66 56 32 57 71 58 65 59 67 60 33 61 70 62 64 63 63 64
REMARK SMILES IDX 34 66 56 67 41 68 55 69 42 70 45 71 54 72 68 73 43 74 44 75
REMARK SMILES IDX 53 77 69 78 46 79 35 80 36 81 40 82 37 83 39 84 38 85 57 86
REMARK SMILES IDX 58 87 62 88 59 89 61 90 60 91 47 92 48 93 52 94 49 95 51 96
REMARK SMILES IDX 50 97
REMARK H PARENT 7 11 11 39 67 65 45 76
REMARK Flexibility Score: inf
ROOT
ATOM      1  O   UNL A   1      35.341  29.656  28.264  1.00  0.00    -0.376 OA
ENDROOT
BRANCH   1   2
ATOM      2  C   UNL A   1      34.420  29.271  27.249  1.00  0.00     0.202 C 
BRANCH   2   3
ATOM      3  C   UNL A   1      33.413  30.239  26.620  1.00  0.00     0.261 C 
BRANCH   3   4
ATOM      4  O   UNL A   1      32.225  29.626  26.109  1.00  0.00    -0.462 OA
BRANCH   4   5
ATOM      5  C   UNL A   1      32.294  29.314  24.783  1.00  0.00     0.328 C 
ATOM      6  O   UNL A   1      33.205  29.634  24.028  1.00  0.00    -0.250 OA
BRANCH   5   7
ATOM      7  C   UNL A   1      31.095  28.491  24.312  1.00  0.00     0.194 C 
BRANCH   7   8
ATOM      8  N   UNL A   1      30.580  27.456  25.217  1.00  0.00    -0.342 N 
ATOM      9  C   UNL A   1      30.112  26.205  24.919  1.00  0.00     0.225 C 
ATOM     10  O   UNL A   1      29.520  25.585  25.805  1.00  0.00    -0.275 OA
ATOM     11  H   UNL A   1      30.570  27.695  26.172  1.00  0.00     0.164 HD
BRANCH   9  12
ATOM     12  C   UNL A   1      30.396  25.564  23.561  1.00  0.00     0.137 C 
BRANCH  12  13
ATOM     13  C   UNL A   1      31.442  24.499  23.613  1.00  0.00    -0.017 A 
ATOM     14  C   UNL A   1      33.560  25.941  23.943  1.00  0.00     0.065 C 
ATOM     15  C   UNL A   1      32.795  24.658  23.861  1.00  0.00     0.024 A 
ATOM     16  N   UNL A   1      33.364  23.396  23.995  1.00  0.00    -0.314 N 
ATOM     17  C   UNL A   1      31.219  23.110  23.430  1.00  0.00     0.033 A 
ATOM     18  C   UNL A   1      32.381  22.436  23.755  1.00  0.00     0.053 A 
BRANCH  16  19
ATOM     19  C   UNL A   1      34.706  23.124  24.369  1.00  0.00     0.046 A 
ATOM     20  C   UNL A   1      35.100  23.287  25.703  1.00  0.00     0.029 A 
ATOM     21  C   UNL A   1      35.632  22.734  23.392  1.00  0.00     0.029 A 
ATOM     22  C   UNL A   1      36.425  23.046  26.060  1.00  0.00     0.041 A 
ATOM     23  C   UNL A   1      36.960  22.515  23.756  1.00  0.00     0.041 A 
ATOM     24  C   UNL A   1      37.342  22.668  25.085  1.00  0.00     0.123 A 
ATOM     25  F   UNL A   1      38.618  22.455  25.430  1.00  0.00    -0.207 F 
ENDBRANCH  16  19
BRANCH  18  26
ATOM     26  C   UNL A   1      32.509  20.996  24.010  1.00  0.00    -0.001 A 
ATOM     27  C   UNL A   1      32.458  20.082  22.945  1.00  0.00     0.011 A 
ATOM     28  C   UNL A   1      32.755  20.523  25.305  1.00  0.00     0.011 A 
ATOM     29  C   UNL A   1      32.622  18.714  23.172  1.00  0.00     0.021 A 
ATOM     30  C   UNL A   1      32.916  19.155  25.540  1.00  0.00     0.021 A 
ATOM     31  C   UNL A   1      32.839  18.257  24.473  1.00  0.00     0.067 A 
BRANCH  31  32
ATOM     32  S   UNL A   1      33.079  16.517  24.741  1.00  0.00     0.175 S 
ATOM     33  C   UNL A   1      34.671  16.413  25.518  1.00  0.00     0.163 C 
ATOM     34  O   UNL A   1      32.081  16.085  25.678  1.00  0.00    -0.224 OA
ATOM     35  O   UNL A   1      33.203  15.887  23.424  1.00  0.00    -0.224 OA
ENDBRANCH  31  32
ENDBRANCH  18  26
ENDBRANCH  12  13
ENDBRANCH   9  12
ENDBRANCH   7   8
BRANCH   7  36
ATOM     36  C   UNL A   1      29.967  29.434  23.872  1.00  0.00     0.065 C 
BRANCH  36  37
ATOM     37  C   UNL A   1      29.861  29.623  22.359  1.00  0.00     0.159 C 
BRANCH  37  38
ATOM     38  O   UNL A   1      30.982  29.075  21.688  1.00  0.00    -0.396 OA
ATOM     39  H   UNL A   1      30.684  28.588  20.904  1.00  0.00     0.210 HD
ENDBRANCH  37  38
ENDBRANCH  36  37
ENDBRANCH   7  36
ENDBRANCH   5   7
ENDBRANCH   4   5
ENDBRANCH   3   4
ENDBRANCH   2   3
ENDBRANCH   1   2
BRANCH   1  40
ATOM     40  C   UNL A   1      36.733  29.446  28.118  1.00  0.00     0.188 C 
BRANCH  40  41
ATOM     41  C   UNL A   1      37.692  29.713  29.286  1.00  0.00     0.188 C 
BRANCH  41  42
ATOM     42  O   UNL A   1      37.250  29.397  30.585  1.00  0.00    -0.376 OA
BRANCH  42  43
ATOM     43  C   UNL A   1      37.241  30.463  31.534  1.00  0.00     0.202 C 
BRANCH  43  44
ATOM     44  C   UNL A   1      35.942  31.271  31.820  1.00  0.00     0.261 C 
BRANCH  44  45
ATOM     45  O   UNL A   1      35.001  31.587  30.724  1.00  0.00    -0.460 OA
BRANCH  45  46
ATOM     46  C   UNL A   1      34.967  32.902  30.308  1.00  0.00     0.338 C 
ATOM     47  O   UNL A   1      33.919  33.503  30.101  1.00  0.00    -0.246 OA
BRANCH  46  48
ATOM     48  C   UNL A   1      36.312  33.610  30.069  1.00  0.00     0.060 A 
ATOM     49  C   UNL A   1      37.172  33.175  29.065  1.00  0.00     0.016 A 
ATOM     50  C   UNL A   1      36.917  34.468  31.015  1.00  0.00     0.016 A 
ATOM     51  C   UNL A   1      38.543  33.634  28.988  1.00  0.00     0.010 A 
ATOM     52  C   UNL A   1      38.333  34.893  30.960  1.00  0.00     0.010 A 
ATOM     53  C   UNL A   1      39.214  34.496  29.937  1.00  0.00    -0.014 A 
BRANCH  53  54
ATOM     54  C   UNL A   1      40.856  34.481  29.953  1.00  0.00     0.031 A 
ATOM     55  C   UNL A   1      41.161  33.468  31.002  1.00  0.00     0.074 A 
ATOM     56  C   UNL A   1      42.015  35.123  29.483  1.00  0.00     0.049 A 
ATOM     57  N   UNL A   1      40.691  33.636  32.205  1.00  0.00    -0.248 NA
ATOM     58  C   UNL A   1      41.657  32.124  30.716  1.00  0.00     0.031 C 
ATOM     59  C   UNL A   1      42.108  36.322  28.630  1.00  0.00     0.029 A 
ATOM     60  N   UNL A   1      43.428  34.859  29.652  1.00  0.00    -0.354 N 
ATOM     61  C   UNL A   1      41.083  32.537  32.924  1.00  0.00     0.074 A 
ATOM     62  C   UNL A   1      41.472  31.561  31.916  1.00  0.00     0.031 C 
ATOM     63  C   UNL A   1      43.396  36.590  28.252  1.00  0.00     0.029 A 
ATOM     64  C   UNL A   1      44.341  35.644  28.845  1.00  0.00     0.049 A 
ATOM     65  H   UNL A   1      43.753  34.179  30.286  1.00  0.00     0.167 HD
ATOM     66  C   UNL A   1      41.672  32.792  34.129  1.00  0.00     0.031 A 
ATOM     67  C   UNL A   1      45.733  35.618  28.700  1.00  0.00     0.031 A 
ATOM     68  C   UNL A   1      43.102  32.655  34.062  1.00  0.00     0.049 A 
ATOM     69  C   UNL A   1      46.290  35.037  29.929  1.00  0.00     0.074 A 
ATOM     70  C   UNL A   1      43.929  31.686  33.534  1.00  0.00     0.029 A 
ATOM     71  N   UNL A   1      43.853  33.809  34.171  1.00  0.00    -0.354 N 
ATOM     72  N   UNL A   1      46.446  35.766  30.992  1.00  0.00    -0.248 NA
ATOM     73  C   UNL A   1      46.863  33.699  30.009  1.00  0.00     0.031 C 
ATOM     74  C   UNL A   1      44.970  32.400  32.904  1.00  0.00     0.029 A 
ATOM     75  C   UNL A   1      44.953  33.718  33.346  1.00  0.00     0.049 A 
ATOM     76  H   UNL A   1      43.635  34.577  34.748  1.00  0.00     0.167 HD
ATOM     77  C   UNL A   1      46.558  34.837  31.976  1.00  0.00     0.074 A 
ATOM     78  C   UNL A   1      47.109  33.666  31.323  1.00  0.00     0.031 C 
ATOM     79  C   UNL A   1      45.650  34.929  32.981  1.00  0.00     0.031 A 
BRANCH  66  80
ATOM     80  C   UNL A   1      40.969  33.832  34.959  1.00  0.00    -0.014 A 
ATOM     81  C   UNL A   1      41.726  34.812  35.607  1.00  0.00     0.009 A 
ATOM     82  C   UNL A   1      39.585  33.771  35.224  1.00  0.00     0.009 A 
ATOM     83  C   UNL A   1      41.126  35.661  36.544  1.00  0.00     0.001 A 
ATOM     84  C   UNL A   1      38.995  34.592  36.183  1.00  0.00     0.001 A 
ATOM     85  C   UNL A   1      39.770  35.532  36.850  1.00  0.00     0.000 A 
ENDBRANCH  66  80
BRANCH  67  86
ATOM     86  C   UNL A   1      46.933  36.164  27.864  1.00  0.00    -0.014 A 
ATOM     87  C   UNL A   1      47.164  35.665  26.532  1.00  0.00     0.009 A 
ATOM     88  C   UNL A   1      47.579  37.375  28.135  1.00  0.00     0.009 A 
ATOM     89  C   UNL A   1      47.861  36.367  25.526  1.00  0.00     0.001 A 
ATOM     90  C   UNL A   1      48.317  38.069  27.130  1.00  0.00     0.001 A 
ATOM     91  C   UNL A   1      48.428  37.589  25.824  1.00  0.00     0.000 A 
ENDBRANCH  67  86
BRANCH  79  92
ATOM     92  C   UNL A   1      45.281  36.333  33.448  1.00  0.00    -0.014 A 
ATOM     93  C   UNL A   1      44.297  37.159  32.853  1.00  0.00     0.009 A 
ATOM     94  C   UNL A   1      46.029  36.899  34.488  1.00  0.00     0.009 A 
ATOM     95  C   UNL A   1      44.142  38.505  33.206  1.00  0.00     0.001 A 
ATOM     96  C   UNL A   1      45.838  38.230  34.882  1.00  0.00     0.001 A 
ATOM     97  C   UNL A   1      44.916  39.041  34.225  1.00  0.00     0.000 A 
ENDBRANCH  79  92
ENDBRANCH  53  54
ENDBRANCH  46  48
ENDBRANCH  45  46
ENDBRANCH  44  45
ENDBRANCH  43  44
ENDBRANCH  42  43
ENDBRANCH  41  42
ENDBRANCH  40  41
ENDBRANCH   1  40
TORSDOF 26
ENDMDL
MODEL 3
REMARK VINA RESULT:      -9.4      6.037      8.361
REMARK SMILES Cc1c(CC(=O)N[C@@H](CCO)C(=O)OCCOCCOCCOC(=O)c2ccc(-c3c4nc(c(-c5ccccc5)c5ccc([nH]5)c(-c5ccccc5)c5nc(c(-c6ccccc6)c6ccc3[nH]6)C=C5)C=C4)cc2)cc(-c2ccc(S(C)(=O)=O)cc2)n1-c1ccc(F)cc1
REMARK SMILES IDX 17 1 16 2 15 3 14 4 12 5 13 6 8 7 7 8 5 9 6 10 4 12 3 13
REMARK SMILES IDX 1 14 2 15 86 16 74 17 75 18 87 19 88 20 93 21 89 22 92 23
REMARK SMILES IDX 90 24 91 25 76 26 77 27 85 28 78 29 84 30 79 31 80 32 81 33
REMARK SMILES IDX 82 34 83 35 9 36 10 37 11 38 18 40 19 41 20 42 21 43 22 44
REMARK SMILES IDX 23 45 24 46 25 47 26 48 27 49 73 50 28 51 72 52 29 53 30 54
REMARK SMILES IDX 31 55 66 56 32 57 71 58 65 59 67 60 33 61 70 62 64 63 63 64
REMARK SMILES IDX 34 66 56 67 41 68 55 69 42 70 45 71 54 72 68 73 43 74 44 75
REMARK SMILES IDX 53 77 69 78 46 79 35 80 36 81 40 82 37 83 39 84 38 85 57 86
REMARK SMILES IDX 58 87 62 88 59 89 61 90 60 91 47 92 48 93 52 94 49 95 51 96
REMARK SMILES IDX 50 97
REMARK H PARENT 7 11 11 39 67 65 45 76
REMARK Flexibility Score: inf
ROOT
ATOM      1  O   UNL A   1      31.936  33.238  27.250  1.00  0.00    -0.376 OA
ENDROOT
BRANCH   1   2
ATOM      2  C   UNL A   1      31.839  32.045  26.478  1.00  0.00     0.202 C 
BRANCH   2   3
ATOM      3  C   UNL A   1      32.133  30.653  27.047  1.00  0.00     0.261 C 
BRANCH   3   4
ATOM      4  O   UNL A   1      32.416  29.649  26.067  1.00  0.00    -0.462 OA
BRANCH   4   5
ATOM      5  C   UNL A   1      31.480  29.563  25.080  1.00  0.00     0.328 C 
ATOM      6  O   UNL A   1      30.681  30.445  24.785  1.00  0.00    -0.250 OA
BRANCH   5   7
ATOM      7  C   UNL A   1      31.526  28.225  24.343  1.00  0.00     0.194 C 
BRANCH   7   8
ATOM      8  N   UNL A   1      30.249  27.560  24.057  1.00  0.00    -0.342 N 
ATOM      9  C   UNL A   1      29.787  26.352  24.504  1.00  0.00     0.225 C 
ATOM     10  O   UNL A   1      28.784  25.882  23.963  1.00  0.00    -0.275 OA
ATOM     11  H   UNL A   1      29.640  28.051  23.459  1.00  0.00     0.164 HD
BRANCH   9  12
ATOM     12  C   UNL A   1      30.440  25.655  25.697  1.00  0.00     0.137 C 
BRANCH  12  13
ATOM     13  C   UNL A   1      31.458  24.634  25.305  1.00  0.00    -0.017 A 
ATOM     14  C   UNL A   1      33.616  26.046  25.461  1.00  0.00     0.065 C 
ATOM     15  C   UNL A   1      32.835  24.783  25.286  1.00  0.00     0.024 A 
ATOM     16  N   UNL A   1      33.403  23.538  25.036  1.00  0.00    -0.314 N 
ATOM     17  C   UNL A   1      31.183  23.304  24.896  1.00  0.00     0.033 A 
ATOM     18  C   UNL A   1      32.379  22.615  24.821  1.00  0.00     0.053 A 
BRANCH  16  19
ATOM     19  C   UNL A   1      34.790  23.238  25.050  1.00  0.00     0.046 A 
ATOM     20  C   UNL A   1      35.427  22.848  23.865  1.00  0.00     0.029 A 
ATOM     21  C   UNL A   1      35.500  23.297  26.257  1.00  0.00     0.029 A 
ATOM     22  C   UNL A   1      36.783  22.528  23.890  1.00  0.00     0.041 A 
ATOM     23  C   UNL A   1      36.851  22.956  26.275  1.00  0.00     0.041 A 
ATOM     24  C   UNL A   1      37.479  22.580  25.093  1.00  0.00     0.123 A 
ATOM     25  F   UNL A   1      38.778  22.254  25.114  1.00  0.00    -0.207 F 
ENDBRANCH  16  19
BRANCH  18  26
ATOM     26  C   UNL A   1      32.540  21.159  24.744  1.00  0.00    -0.001 A 
ATOM     27  C   UNL A   1      32.362  20.490  23.522  1.00  0.00     0.011 A 
ATOM     28  C   UNL A   1      32.942  20.428  25.870  1.00  0.00     0.011 A 
ATOM     29  C   UNL A   1      32.555  19.111  23.429  1.00  0.00     0.021 A 
ATOM     30  C   UNL A   1      33.133  19.046  25.785  1.00  0.00     0.021 A 
ATOM     31  C   UNL A   1      32.930  18.394  24.567  1.00  0.00     0.067 A 
BRANCH  31  32
ATOM     32  S   UNL A   1      33.204  16.644  24.425  1.00  0.00     0.175 S 
ATOM     33  C   UNL A   1      34.846  16.410  25.056  1.00  0.00     0.163 C 
ATOM     34  O   UNL A   1      32.276  15.992  25.305  1.00  0.00    -0.224 OA
ATOM     35  O   UNL A   1      33.244  16.325  22.996  1.00  0.00    -0.224 OA
ENDBRANCH  31  32
ENDBRANCH  18  26
ENDBRANCH  12  13
ENDBRANCH   9  12
ENDBRANCH   7   8
BRANCH   7  36
ATOM     36  C   UNL A   1      32.357  28.374  23.061  1.00  0.00     0.065 C 
BRANCH  36  37
ATOM     37  C   UNL A   1      32.211  27.213  22.079  1.00  0.00     0.159 C 
BRANCH  37  38
ATOM     38  O   UNL A   1      31.006  27.308  21.338  1.00  0.00    -0.396 OA
ATOM     39  H   UNL A   1      30.329  26.749  21.747  1.00  0.00     0.210 HD
ENDBRANCH  37  38
ENDBRANCH  36  37
ENDBRANCH   7  36
ENDBRANCH   5   7
ENDBRANCH   4   5
ENDBRANCH   3   4
ENDBRANCH   2   3
ENDBRANCH   1   2
BRANCH   1  40
ATOM     40  C   UNL A   1      33.107  33.555  27.976  1.00  0.00     0.188 C 
BRANCH  40  41
ATOM     41  C   UNL A   1      33.158  34.798  28.877  1.00  0.00     0.188 C 
BRANCH  41  42
ATOM     42  O   UNL A   1      33.143  34.600  30.271  1.00  0.00    -0.376 OA
BRANCH  42  43
ATOM     43  C   UNL A   1      34.373  34.819  30.960  1.00  0.00     0.202 C 
BRANCH  43  44
ATOM     44  C   UNL A   1      35.529  33.779  30.892  1.00  0.00     0.261 C 
BRANCH  44  45
ATOM     45  O   UNL A   1      36.567  33.744  31.943  1.00  0.00    -0.460 OA
BRANCH  45  46
ATOM     46  C   UNL A   1      36.640  32.587  32.691  1.00  0.00     0.338 C 
ATOM     47  O   UNL A   1      35.855  32.335  33.597  1.00  0.00    -0.246 OA
BRANCH  46  48
ATOM     48  C   UNL A   1      37.783  31.607  32.376  1.00  0.00     0.060 A 
ATOM     49  C   UNL A   1      38.595  31.116  33.395  1.00  0.00     0.016 A 
ATOM     50  C   UNL A   1      38.308  31.414  31.078  1.00  0.00     0.016 A 
ATOM     51  C   UNL A   1      39.831  30.416  33.110  1.00  0.00     0.010 A 
ATOM     52  C   UNL A   1      39.596  30.744  30.797  1.00  0.00     0.010 A 
ATOM     53  C   UNL A   1      40.419  30.209  31.805  1.00  0.00    -0.014 A 
BRANCH  53  54
ATOM     54  C   UNL A   1      42.023  29.863  31.737  1.00  0.00     0.031 A 
ATOM     55  C   UNL A   1      42.275  29.783  30.271  1.00  0.00     0.074 A 
ATOM     56  C   UNL A   1      43.151  29.495  32.491  1.00  0.00     0.049 A 
ATOM     57  N   UNL A   1      41.592  28.939  29.552  1.00  0.00    -0.248 NA
ATOM     58  C   UNL A   1      42.983  30.810  29.510  1.00  0.00     0.031 C 
ATOM     59  C   UNL A   1      43.230  29.227  33.938  1.00  0.00     0.029 A 
ATOM     60  N   UNL A   1      44.538  29.264  32.145  1.00  0.00    -0.354 N 
ATOM     61  C   UNL A   1      41.996  29.127  28.256  1.00  0.00     0.074 A 
ATOM     62  C   UNL A   1      42.673  30.416  28.269  1.00  0.00     0.031 C 
ATOM     63  C   UNL A   1      44.517  29.029  34.359  1.00  0.00     0.029 A 
ATOM     64  C   UNL A   1      45.463  29.081  33.244  1.00  0.00     0.049 A 
ATOM     65  H   UNL A   1      44.837  29.233  31.207  1.00  0.00     0.167 HD
ATOM     66  C   UNL A   1      42.336  27.998  27.567  1.00  0.00     0.031 A 
ATOM     67  C   UNL A   1      46.852  28.905  33.290  1.00  0.00     0.031 A 
ATOM     68  C   UNL A   1      43.763  27.838  27.478  1.00  0.00     0.049 A 
ATOM     69  C   UNL A   1      47.264  28.347  31.995  1.00  0.00     0.074 A 
ATOM     70  C   UNL A   1      44.785  28.701  27.144  1.00  0.00     0.029 A 
ATOM     71  N   UNL A   1      44.328  26.803  28.195  1.00  0.00    -0.354 N 
ATOM     72  N   UNL A   1      47.143  27.078  31.754  1.00  0.00    -0.248 NA
ATOM     73  C   UNL A   1      47.984  29.102  30.977  1.00  0.00     0.031 C 
ATOM     74  C   UNL A   1      45.816  28.417  28.065  1.00  0.00     0.029 A 
ATOM     75  C   UNL A   1      45.554  27.200  28.683  1.00  0.00     0.049 A 
ATOM     76  H   UNL A   1      43.919  25.918  28.336  1.00  0.00     0.167 HD
ATOM     77  C   UNL A   1      47.208  27.024  30.399  1.00  0.00     0.074 A 
ATOM     78  C   UNL A   1      48.008  28.172  30.018  1.00  0.00     0.031 C 
ATOM     79  C   UNL A   1      46.139  26.462  29.778  1.00  0.00     0.031 A 
BRANCH  66  80
ATOM     80  C   UNL A   1      41.375  26.853  27.735  1.00  0.00    -0.014 A 
ATOM     81  C   UNL A   1      41.830  25.658  28.299  1.00  0.00     0.009 A 
ATOM     82  C   UNL A   1      40.065  26.890  27.214  1.00  0.00     0.009 A 
ATOM     83  C   UNL A   1      41.022  24.515  28.279  1.00  0.00     0.001 A 
ATOM     84  C   UNL A   1      39.274  25.744  27.161  1.00  0.00     0.001 A 
ATOM     85  C   UNL A   1      39.758  24.553  27.687  1.00  0.00     0.000 A 
ENDBRANCH  66  80
BRANCH  67  86
ATOM     86  C   UNL A   1      48.094  28.846  34.233  1.00  0.00    -0.014 A 
ATOM     87  C   UNL A   1      47.923  29.012  35.654  1.00  0.00     0.009 A 
ATOM     88  C   UNL A   1      49.313  28.259  33.874  1.00  0.00     0.009 A 
ATOM     89  C   UNL A   1      48.819  28.523  36.629  1.00  0.00     0.001 A 
ATOM     90  C   UNL A   1      50.238  27.798  34.857  1.00  0.00     0.001 A 
ATOM     91  C   UNL A   1      49.979  27.894  36.226  1.00  0.00     0.000 A 
ENDBRANCH  67  86
BRANCH  79  92
ATOM     92  C   UNL A   1      45.518  25.242  30.450  1.00  0.00    -0.014 A 
ATOM     93  C   UNL A   1      45.080  24.075  29.779  1.00  0.00     0.009 A 
ATOM     94  C   UNL A   1      45.272  25.303  31.828  1.00  0.00     0.009 A 
ATOM     95  C   UNL A   1      44.345  23.075  30.427  1.00  0.00     0.001 A 
ATOM     96  C   UNL A   1      44.586  24.276  32.491  1.00  0.00     0.001 A 
ATOM     97  C   UNL A   1      44.098  23.177  31.788  1.00  0.00     0.000 A 
ENDBRANCH  79  92
ENDBRANCH  53  54
ENDBRANCH  46  48
ENDBRANCH  45  46
ENDBRANCH  44  45
ENDBRANCH  43  44
ENDBRANCH  42  43
ENDBRANCH  41  42
ENDBRANCH  40  41
ENDBRANCH   1  40
TORSDOF 26
ENDMDL
