MODEL 1
REMARK VINA RESULT:      -8.5      0.000      0.000
REMARK SMILES O=C(CCC(=O)OCCOCCOCCOC(=O)c1ccc(-c2c3nc(c(-c4ccccc4)c4ccc([nH]4)c(-c4ccccc4)c4nc(c(-c5ccccc5)c5ccc2[nH]5)C=C4)C=C3)cc1)Nc1ncc([N+](=O)[O-])s1
REMARK SMILES IDX 11 1 10 2 9 3 8 4 7 5 5 6 6 7 4 8 3 9 2 10 1 11 67 12 68 14
REMARK SMILES IDX 69 15 75 16 70 17 71 18 72 19 73 20 74 21 12 22 13 23 14 24
REMARK SMILES IDX 15 25 16 26 17 27 18 28 19 29 20 30 66 31 21 32 65 33 22 34
REMARK SMILES IDX 23 35 24 36 59 37 25 38 64 39 58 40 60 41 26 42 63 43 57 44
REMARK SMILES IDX 56 45 27 47 49 48 34 49 48 50 35 51 38 52 47 53 61 54 36 55
REMARK SMILES IDX 37 56 46 58 62 59 39 60 28 61 29 62 33 63 30 64 32 65 31 66
REMARK SMILES IDX 50 67 51 68 55 69 52 70 54 71 53 72 40 73 41 74 45 75 42 76
REMARK SMILES IDX 44 77 43 78
REMARK H PARENT 67 13 60 46 38 57
REMARK Flexibility Score: inf
ROOT
ATOM      1  C   UNL A   1      36.864  21.736  25.250  1.00  0.00     0.188 C 
ENDROOT
BRANCH   1   2
ATOM      2  O   UNL A   1      35.483  21.956  25.514  1.00  0.00    -0.376 OA
BRANCH   2   3
ATOM      3  C   UNL A   1      35.121  23.262  25.964  1.00  0.00     0.202 C 
BRANCH   3   4
ATOM      4  C   UNL A   1      33.821  23.337  26.779  1.00  0.00     0.261 C 
BRANCH   4   5
ATOM      5  O   UNL A   1      32.711  22.623  26.170  1.00  0.00    -0.463 OA
BRANCH   5   6
ATOM      6  C   UNL A   1      31.795  23.390  25.517  1.00  0.00     0.306 C 
ATOM      7  O   UNL A   1      31.093  24.232  26.065  1.00  0.00    -0.252 OA
BRANCH   6   8
ATOM      8  C   UNL A   1      31.754  23.197  24.009  1.00  0.00     0.132 C 
BRANCH   8   9
ATOM      9  C   UNL A   1      32.814  22.386  23.274  1.00  0.00     0.112 C 
BRANCH   9  10
ATOM     10  C   UNL A   1      32.592  20.888  23.286  1.00  0.00     0.226 C 
ATOM     11  O   UNL A   1      31.955  20.340  22.394  1.00  0.00    -0.275 OA
ATOM     12  N   UNL A   1      33.142  20.294  24.393  1.00  0.00    -0.302 N 
ATOM     13  H   UNL A   1      33.634  20.857  25.033  1.00  0.00     0.172 HD
BRANCH  12  14
ATOM     14  C   UNL A   1      33.037  18.961  24.646  1.00  0.00     0.195 A 
ATOM     15  N   UNL A   1      32.010  18.258  25.047  1.00  0.00    -0.221 NA
ATOM     16  S   UNL A   1      34.511  18.123  24.434  1.00  0.00    -0.024 S 
ATOM     17  C   UNL A   1      32.420  16.953  25.270  1.00  0.00     0.212 A 
ATOM     18  C   UNL A   1      33.765  16.742  25.082  1.00  0.00     0.345 A 
BRANCH  18  19
ATOM     19  N   UNL A   1      34.507  15.559  25.363  1.00  0.00     0.076 N 
ATOM     20  O   UNL A   1      35.736  15.656  25.466  1.00  0.00    -0.257 OA
ATOM     21  O   UNL A   1      33.852  14.519  25.503  1.00  0.00    -0.257 OA
ENDBRANCH  18  19
ENDBRANCH  12  14
ENDBRANCH   9  10
ENDBRANCH   8   9
ENDBRANCH   6   8
ENDBRANCH   5   6
ENDBRANCH   4   5
ENDBRANCH   3   4
ENDBRANCH   2   3
ENDBRANCH   1   2
BRANCH   1  22
ATOM     22  C   UNL A   1      37.800  22.817  25.789  1.00  0.00     0.188 C 
BRANCH  22  23
ATOM     23  O   UNL A   1      38.982  22.363  26.438  1.00  0.00    -0.376 OA
BRANCH  23  24
ATOM     24  C   UNL A   1      39.920  23.385  26.814  1.00  0.00     0.202 C 
BRANCH  24  25
ATOM     25  C   UNL A   1      41.348  22.954  27.236  1.00  0.00     0.261 C 
BRANCH  25  26
ATOM     26  O   UNL A   1      42.382  23.963  27.175  1.00  0.00    -0.460 OA
BRANCH  26  27
ATOM     27  C   UNL A   1      43.481  23.798  27.947  1.00  0.00     0.338 C 
ATOM     28  O   UNL A   1      43.736  22.826  28.639  1.00  0.00    -0.246 OA
BRANCH  27  29
ATOM     29  C   UNL A   1      44.482  24.848  27.596  1.00  0.00     0.060 A 
ATOM     30  C   UNL A   1      45.186  25.460  28.646  1.00  0.00     0.016 A 
ATOM     31  C   UNL A   1      44.782  25.191  26.274  1.00  0.00     0.016 A 
ATOM     32  C   UNL A   1      46.133  26.454  28.386  1.00  0.00     0.010 A 
ATOM     33  C   UNL A   1      45.721  26.202  26.013  1.00  0.00     0.010 A 
ATOM     34  C   UNL A   1      46.363  26.874  27.071  1.00  0.00    -0.014 A 
BRANCH  34  35
ATOM     35  C   UNL A   1      47.039  28.179  26.829  1.00  0.00     0.031 A 
ATOM     36  C   UNL A   1      48.528  28.156  26.583  1.00  0.00     0.074 A 
ATOM     37  C   UNL A   1      46.373  29.348  26.768  1.00  0.00     0.049 A 
ATOM     38  N   UNL A   1      49.357  29.150  26.388  1.00  0.00    -0.248 NA
ATOM     39  C   UNL A   1      49.165  26.828  26.551  1.00  0.00     0.031 C 
ATOM     40  C   UNL A   1      44.930  29.519  26.921  1.00  0.00     0.029 A 
ATOM     41  N   UNL A   1      46.842  30.625  26.560  1.00  0.00    -0.354 N 
ATOM     42  C   UNL A   1      50.608  28.566  26.216  1.00  0.00     0.074 A 
ATOM     43  C   UNL A   1      50.438  27.140  26.368  1.00  0.00     0.031 C 
ATOM     44  C   UNL A   1      44.633  30.828  26.811  1.00  0.00     0.029 A 
ATOM     45  C   UNL A   1      45.866  31.591  26.615  1.00  0.00     0.049 A 
ATOM     46  H   UNL A   1      47.790  30.827  26.387  1.00  0.00     0.167 HD
ATOM     47  C   UNL A   1      51.794  29.157  25.942  1.00  0.00     0.031 A 
ATOM     48  C   UNL A   1      45.961  32.935  26.540  1.00  0.00     0.031 A 
ATOM     49  C   UNL A   1      51.981  30.574  25.800  1.00  0.00     0.049 A 
ATOM     50  C   UNL A   1      47.313  33.577  26.333  1.00  0.00     0.074 A 
ATOM     51  C   UNL A   1      53.151  31.266  25.538  1.00  0.00     0.029 A 
ATOM     52  N   UNL A   1      50.972  31.515  25.903  1.00  0.00    -0.354 N 
ATOM     53  N   UNL A   1      48.486  33.012  26.169  1.00  0.00    -0.248 NA
ATOM     54  C   UNL A   1      47.350  35.048  26.286  1.00  0.00     0.031 C 
ATOM     55  C   UNL A   1      52.859  32.632  25.536  1.00  0.00     0.029 A 
ATOM     56  C   UNL A   1      51.494  32.785  25.723  1.00  0.00     0.049 A 
ATOM     57  H   UNL A   1      50.024  31.314  26.078  1.00  0.00     0.167 HD
ATOM     58  C   UNL A   1      49.384  34.053  25.954  1.00  0.00     0.074 A 
ATOM     59  C   UNL A   1      48.621  35.281  25.994  1.00  0.00     0.031 C 
ATOM     60  C   UNL A   1      50.722  33.999  25.740  1.00  0.00     0.031 A 
BRANCH  47  61
ATOM     61  C   UNL A   1      52.996  28.266  25.800  1.00  0.00    -0.014 A 
ATOM     62  C   UNL A   1      53.370  27.743  24.551  1.00  0.00     0.009 A 
ATOM     63  C   UNL A   1      53.792  27.984  26.920  1.00  0.00     0.009 A 
ATOM     64  C   UNL A   1      54.503  26.937  24.434  1.00  0.00     0.001 A 
ATOM     65  C   UNL A   1      54.942  27.203  26.794  1.00  0.00     0.001 A 
ATOM     66  C   UNL A   1      55.293  26.675  25.552  1.00  0.00     0.000 A 
ENDBRANCH  47  61
BRANCH  48  67
ATOM     67  C   UNL A   1      44.754  33.796  26.699  1.00  0.00    -0.014 A 
ATOM     68  C   UNL A   1      44.009  34.210  25.583  1.00  0.00     0.009 A 
ATOM     69  C   UNL A   1      44.391  34.278  27.967  1.00  0.00     0.009 A 
ATOM     70  C   UNL A   1      42.961  35.125  25.727  1.00  0.00     0.001 A 
ATOM     71  C   UNL A   1      43.319  35.162  28.113  1.00  0.00     0.001 A 
ATOM     72  C   UNL A   1      42.616  35.599  26.992  1.00  0.00     0.000 A 
ENDBRANCH  48  67
BRANCH  60  73
ATOM     73  C   UNL A   1      51.439  35.290  25.452  1.00  0.00    -0.014 A 
ATOM     74  C   UNL A   1      51.896  36.130  26.478  1.00  0.00     0.009 A 
ATOM     75  C   UNL A   1      51.697  35.649  24.119  1.00  0.00     0.009 A 
ATOM     76  C   UNL A   1      52.557  37.323  26.174  1.00  0.00     0.001 A 
ATOM     77  C   UNL A   1      52.390  36.823  23.818  1.00  0.00     0.001 A 
ATOM     78  C   UNL A   1      52.807  37.665  24.845  1.00  0.00     0.000 A 
ENDBRANCH  60  73
ENDBRANCH  34  35
ENDBRANCH  27  29
ENDBRANCH  26  27
ENDBRANCH  25  26
ENDBRANCH  24  25
ENDBRANCH  23  24
ENDBRANCH  22  23
ENDBRANCH   1  22
TORSDOF 21
ENDMDL
MODEL 2
REMARK VINA RESULT:      -8.4      7.651     12.537
REMARK SMILES O=C(CCC(=O)OCCOCCOCCOC(=O)c1ccc(-c2c3nc(c(-c4ccccc4)c4ccc([nH]4)c(-c4ccccc4)c4nc(c(-c5ccccc5)c5ccc2[nH]5)C=C4)C=C3)cc1)Nc1ncc([N+](=O)[O-])s1
REMARK SMILES IDX 11 1 10 2 9 3 8 4 7 5 5 6 6 7 4 8 3 9 2 10 1 11 67 12 68 14
REMARK SMILES IDX 69 15 75 16 70 17 71 18 72 19 73 20 74 21 12 22 13 23 14 24
REMARK SMILES IDX 15 25 16 26 17 27 18 28 19 29 20 30 66 31 21 32 65 33 22 34
REMARK SMILES IDX 23 35 24 36 59 37 25 38 64 39 58 40 60 41 26 42 63 43 57 44
REMARK SMILES IDX 56 45 27 47 49 48 34 49 48 50 35 51 38 52 47 53 61 54 36 55
REMARK SMILES IDX 37 56 46 58 62 59 39 60 28 61 29 62 33 63 30 64 32 65 31 66
REMARK SMILES IDX 50 67 51 68 55 69 52 70 54 71 53 72 40 73 41 74 45 75 42 76
REMARK SMILES IDX 44 77 43 78
REMARK H PARENT 67 13 60 46 38 57
REMARK Flexibility Score: inf
ROOT
ATOM      1  C   UNL A   1      35.102  34.188  34.307  1.00  0.00     0.188 C 
ENDROOT
BRANCH   1   2
ATOM      2  O   UNL A   1      36.000  33.407  35.087  1.00  0.00    -0.376 OA
BRANCH   2   3
ATOM      3  C   UNL A   1      36.953  32.623  34.367  1.00  0.00     0.202 C 
BRANCH   3   4
ATOM      4  C   UNL A   1      38.074  32.010  35.220  1.00  0.00     0.261 C 
BRANCH   4   5
ATOM      5  O   UNL A   1      39.251  31.639  34.452  1.00  0.00    -0.463 OA
BRANCH   5   6
ATOM      6  C   UNL A   1      39.397  30.312  34.187  1.00  0.00     0.306 C 
ATOM      7  O   UNL A   1      38.477  29.503  34.213  1.00  0.00    -0.252 OA
BRANCH   6   8
ATOM      8  C   UNL A   1      40.794  29.893  33.756  1.00  0.00     0.132 C 
BRANCH   8   9
ATOM      9  C   UNL A   1      41.075  28.510  33.178  1.00  0.00     0.112 C 
BRANCH   9  10
ATOM     10  C   UNL A   1      41.580  27.493  34.181  1.00  0.00     0.226 C 
ATOM     11  O   UNL A   1      40.805  26.737  34.754  1.00  0.00    -0.275 OA
ATOM     12  N   UNL A   1      42.937  27.574  34.358  1.00  0.00    -0.302 N 
ATOM     13  H   UNL A   1      43.443  28.229  33.825  1.00  0.00     0.172 HD
BRANCH  12  14
ATOM     14  C   UNL A   1      43.616  26.790  35.239  1.00  0.00     0.195 A 
ATOM     15  N   UNL A   1      44.251  25.663  35.049  1.00  0.00    -0.221 NA
ATOM     16  S   UNL A   1      43.572  27.390  36.838  1.00  0.00    -0.024 S 
ATOM     17  C   UNL A   1      44.695  25.186  36.272  1.00  0.00     0.212 A 
ATOM     18  C   UNL A   1      44.320  25.953  37.349  1.00  0.00     0.345 A 
BRANCH  18  19
ATOM     19  N   UNL A   1      44.499  25.658  38.731  1.00  0.00     0.076 N 
ATOM     20  O   UNL A   1      44.166  26.518  39.555  1.00  0.00    -0.257 OA
ATOM     21  O   UNL A   1      44.961  24.542  39.000  1.00  0.00    -0.257 OA
ENDBRANCH  18  19
ENDBRANCH  12  14
ENDBRANCH   9  10
ENDBRANCH   8   9
ENDBRANCH   6   8
ENDBRANCH   5   6
ENDBRANCH   4   5
ENDBRANCH   3   4
ENDBRANCH   2   3
ENDBRANCH   1   2
BRANCH   1  22
ATOM     22  C   UNL A   1      34.276  33.395  33.295  1.00  0.00     0.188 C 
BRANCH  22  23
ATOM     23  O   UNL A   1      33.763  34.126  32.187  1.00  0.00    -0.376 OA
BRANCH  23  24
ATOM     24  C   UNL A   1      34.679  34.338  31.100  1.00  0.00     0.202 C 
BRANCH  24  25
ATOM     25  C   UNL A   1      34.497  33.497  29.811  1.00  0.00     0.261 C 
BRANCH  25  26
ATOM     26  O   UNL A   1      34.746  32.076  29.914  1.00  0.00    -0.460 OA
BRANCH  26  27
ATOM     27  C   UNL A   1      34.792  31.350  28.773  1.00  0.00     0.338 C 
ATOM     28  O   UNL A   1      34.066  31.490  27.801  1.00  0.00    -0.246 OA
BRANCH  27  29
ATOM     29  C   UNL A   1      36.053  30.554  28.754  1.00  0.00     0.060 A 
ATOM     30  C   UNL A   1      36.430  29.896  29.936  1.00  0.00     0.016 A 
ATOM     31  C   UNL A   1      36.826  30.392  27.600  1.00  0.00     0.016 A 
ATOM     32  C   UNL A   1      37.603  29.138  29.988  1.00  0.00     0.010 A 
ATOM     33  C   UNL A   1      38.013  29.645  27.656  1.00  0.00     0.010 A 
ATOM     34  C   UNL A   1      38.433  29.057  28.864  1.00  0.00    -0.014 A 
BRANCH  34  35
ATOM     35  C   UNL A   1      39.846  28.615  29.031  1.00  0.00     0.031 A 
ATOM     36  C   UNL A   1      40.811  29.591  29.658  1.00  0.00     0.074 A 
ATOM     37  C   UNL A   1      40.270  27.380  28.701  1.00  0.00     0.049 A 
ATOM     38  N   UNL A   1      42.096  29.471  29.878  1.00  0.00    -0.248 NA
ATOM     39  C   UNL A   1      40.245  30.878  30.098  1.00  0.00     0.031 C 
ATOM     40  C   UNL A   1      39.443  26.311  28.147  1.00  0.00     0.029 A 
ATOM     41  N   UNL A   1      41.525  26.822  28.787  1.00  0.00    -0.354 N 
ATOM     42  C   UNL A   1      42.487  30.664  30.475  1.00  0.00     0.074 A 
ATOM     43  C   UNL A   1      41.318  31.510  30.547  1.00  0.00     0.031 C 
ATOM     44  C   UNL A   1      40.215  25.228  27.933  1.00  0.00     0.029 A 
ATOM     45  C   UNL A   1      41.597  25.538  28.302  1.00  0.00     0.049 A 
ATOM     46  H   UNL A   1      42.300  27.299  29.161  1.00  0.00     0.167 HD
ATOM     47  C   UNL A   1      43.706  31.027  30.936  1.00  0.00     0.031 A 
ATOM     48  C   UNL A   1      42.657  24.718  28.152  1.00  0.00     0.031 A 
ATOM     49  C   UNL A   1      44.881  30.202  30.860  1.00  0.00     0.049 A 
ATOM     50  C   UNL A   1      44.028  25.185  28.584  1.00  0.00     0.074 A 
ATOM     51  C   UNL A   1      46.165  30.494  31.288  1.00  0.00     0.029 A 
ATOM     52  N   UNL A   1      44.914  28.927  30.326  1.00  0.00    -0.354 N 
ATOM     53  N   UNL A   1      44.383  26.315  29.150  1.00  0.00    -0.248 NA
ATOM     54  C   UNL A   1      45.146  24.251  28.369  1.00  0.00     0.031 C 
ATOM     55  C   UNL A   1      46.987  29.411  30.963  1.00  0.00     0.029 A 
ATOM     56  C   UNL A   1      46.199  28.420  30.401  1.00  0.00     0.049 A 
ATOM     57  H   UNL A   1      44.139  28.450  29.950  1.00  0.00     0.167 HD
ATOM     58  C   UNL A   1      45.748  26.206  29.397  1.00  0.00     0.074 A 
ATOM     59  C   UNL A   1      46.155  24.897  28.935  1.00  0.00     0.031 C 
ATOM     60  C   UNL A   1      46.590  27.107  29.960  1.00  0.00     0.031 A 
BRANCH  47  61
ATOM     61  C   UNL A   1      43.838  32.393  31.549  1.00  0.00    -0.014 A 
ATOM     62  C   UNL A   1      43.652  32.593  32.926  1.00  0.00     0.009 A 
ATOM     63  C   UNL A   1      44.199  33.486  30.746  1.00  0.00     0.009 A 
ATOM     64  C   UNL A   1      43.802  33.865  33.482  1.00  0.00     0.001 A 
ATOM     65  C   UNL A   1      44.379  34.750  31.309  1.00  0.00     0.001 A 
ATOM     66  C   UNL A   1      44.174  34.940  32.675  1.00  0.00     0.000 A 
ENDBRANCH  47  61
BRANCH  48  67
ATOM     67  C   UNL A   1      42.501  23.373  27.528  1.00  0.00    -0.014 A 
ATOM     68  C   UNL A   1      42.713  23.184  26.151  1.00  0.00     0.009 A 
ATOM     69  C   UNL A   1      42.056  22.285  28.295  1.00  0.00     0.009 A 
ATOM     70  C   UNL A   1      42.434  21.952  25.552  1.00  0.00     0.001 A 
ATOM     71  C   UNL A   1      41.815  21.044  27.699  1.00  0.00     0.001 A 
ATOM     72  C   UNL A   1      41.987  20.883  26.326  1.00  0.00     0.000 A 
ENDBRANCH  48  67
BRANCH  60  73
ATOM     73  C   UNL A   1      48.018  26.687  30.184  1.00  0.00    -0.014 A 
ATOM     74  C   UNL A   1      49.049  27.072  29.315  1.00  0.00     0.009 A 
ATOM     75  C   UNL A   1      48.339  25.923  31.318  1.00  0.00     0.009 A 
ATOM     76  C   UNL A   1      50.364  26.663  29.553  1.00  0.00     0.001 A 
ATOM     77  C   UNL A   1      49.658  25.546  31.574  1.00  0.00     0.001 A 
ATOM     78  C   UNL A   1      50.667  25.905  30.685  1.00  0.00     0.000 A 
ENDBRANCH  60  73
ENDBRANCH  34  35
ENDBRANCH  27  29
ENDBRANCH  26  27
ENDBRANCH  25  26
ENDBRANCH  24  25
ENDBRANCH  23  24
ENDBRANCH  22  23
ENDBRANCH   1  22
TORSDOF 21
ENDMDL
MODEL 3
REMARK VINA RESULT:      -8.0      4.805      8.410
REMARK SMILES O=C(CCC(=O)OCCOCCOCCOC(=O)c1ccc(-c2c3nc(c(-c4ccccc4)c4ccc([nH]4)c(-c4ccccc4)c4nc(c(-c5ccccc5)c5ccc2[nH]5)C=C4)C=C3)cc1)Nc1ncc([N+](=O)[O-])s1
REMARK SMILES IDX 11 1 10 2 9 3 8 4 7 5 5 6 6 7 4 8 3 9 2 10 1 11 67 12 68 14
REMARK SMILES IDX 69 15 75 16 70 17 71 18 72 19 73 20 74 21 12 22 13 23 14 24
REMARK SMILES IDX 15 25 16 26 17 27 18 28 19 29 20 30 66 31 21 32 65 33 22 34
REMARK SMILES IDX 23 35 24 36 59 37 25 38 64 39 58 40 60 41 26 42 63 43 57 44
REMARK SMILES IDX 56 45 27 47 49 48 34 49 48 50 35 51 38 52 47 53 61 54 36 55
REMARK SMILES IDX 37 56 46 58 62 59 39 60 28 61 29 62 33 63 30 64 32 65 31 66
REMARK SMILES IDX 50 67 51 68 55 69 52 70 54 71 53 72 40 73 41 74 45 75 42 76
REMARK SMILES IDX 44 77 43 78
REMARK H PARENT 67 13 60 46 38 57
REMARK Flexibility Score: inf
ROOT
ATOM      1  C   UNL A   1      35.322  34.253  28.858  1.00  0.00     0.188 C 
ENDROOT
BRANCH   1   2
ATOM      2  O   UNL A   1      35.039  33.339  27.804  1.00  0.00    -0.376 OA
BRANCH   2   3
ATOM      3  C   UNL A   1      33.909  32.485  27.988  1.00  0.00     0.202 C 
BRANCH   3   4
ATOM      4  C   UNL A   1      34.102  31.034  27.520  1.00  0.00     0.261 C 
BRANCH   4   5
ATOM      5  O   UNL A   1      32.875  30.256  27.518  1.00  0.00    -0.463 OA
BRANCH   5   6
ATOM      6  C   UNL A   1      32.976  28.984  27.043  1.00  0.00     0.306 C 
ATOM      7  O   UNL A   1      32.337  28.036  27.485  1.00  0.00    -0.252 OA
BRANCH   6   8
ATOM      8  C   UNL A   1      33.888  28.819  25.838  1.00  0.00     0.132 C 
BRANCH   8   9
ATOM      9  C   UNL A   1      33.363  28.323  24.495  1.00  0.00     0.112 C 
BRANCH   9  10
ATOM     10  C   UNL A   1      33.732  26.894  24.156  1.00  0.00     0.226 C 
ATOM     11  O   UNL A   1      33.679  26.489  23.001  1.00  0.00    -0.275 OA
ATOM     12  N   UNL A   1      34.072  26.171  25.269  1.00  0.00    -0.302 N 
ATOM     13  H   UNL A   1      34.077  26.626  26.143  1.00  0.00     0.172 HD
BRANCH  12  14
ATOM     14  C   UNL A   1      34.402  24.851  25.223  1.00  0.00     0.195 A 
ATOM     15  N   UNL A   1      35.576  24.276  25.198  1.00  0.00    -0.221 NA
ATOM     16  S   UNL A   1      33.038  23.825  25.145  1.00  0.00    -0.024 S 
ATOM     17  C   UNL A   1      35.403  22.910  25.043  1.00  0.00     0.212 A 
ATOM     18  C   UNL A   1      34.093  22.518  24.897  1.00  0.00     0.345 A 
BRANCH  18  19
ATOM     19  N   UNL A   1      33.605  21.217  24.583  1.00  0.00     0.076 N 
ATOM     20  O   UNL A   1      34.261  20.243  24.972  1.00  0.00    -0.257 OA
ATOM     21  O   UNL A   1      32.539  21.165  23.957  1.00  0.00    -0.257 OA
ENDBRANCH  18  19
ENDBRANCH  12  14
ENDBRANCH   9  10
ENDBRANCH   8   9
ENDBRANCH   6   8
ENDBRANCH   5   6
ENDBRANCH   4   5
ENDBRANCH   3   4
ENDBRANCH   2   3
ENDBRANCH   1   2
BRANCH   1  22
ATOM     22  C   UNL A   1      34.464  34.073  30.110  1.00  0.00     0.188 C 
BRANCH  22  23
ATOM     23  O   UNL A   1      35.143  33.639  31.283  1.00  0.00    -0.376 OA
BRANCH  23  24
ATOM     24  C   UNL A   1      35.118  32.224  31.531  1.00  0.00     0.202 C 
BRANCH  24  25
ATOM     25  C   UNL A   1      36.349  31.575  32.215  1.00  0.00     0.261 C 
BRANCH  25  26
ATOM     26  O   UNL A   1      36.457  30.135  32.139  1.00  0.00    -0.460 OA
BRANCH  26  27
ATOM     27  C   UNL A   1      36.624  29.569  30.922  1.00  0.00     0.338 C 
ATOM     28  O   UNL A   1      35.741  29.319  30.117  1.00  0.00    -0.246 OA
BRANCH  27  29
ATOM     29  C   UNL A   1      38.077  29.572  30.581  1.00  0.00     0.060 A 
ATOM     30  C   UNL A   1      38.441  29.905  29.267  1.00  0.00     0.016 A 
ATOM     31  C   UNL A   1      39.074  29.320  31.529  1.00  0.00     0.016 A 
ATOM     32  C   UNL A   1      39.784  29.922  28.881  1.00  0.00     0.010 A 
ATOM     33  C   UNL A   1      40.422  29.319  31.138  1.00  0.00     0.010 A 
ATOM     34  C   UNL A   1      40.780  29.570  29.800  1.00  0.00    -0.014 A 
BRANCH  34  35
ATOM     35  C   UNL A   1      42.131  29.188  29.301  1.00  0.00     0.031 A 
ATOM     36  C   UNL A   1      42.318  27.773  28.811  1.00  0.00     0.074 A 
ATOM     37  C   UNL A   1      43.155  30.060  29.222  1.00  0.00     0.049 A 
ATOM     38  N   UNL A   1      43.397  27.178  28.368  1.00  0.00    -0.248 NA
ATOM     39  C   UNL A   1      41.122  26.914  28.823  1.00  0.00     0.031 C 
ATOM     40  C   UNL A   1      43.107  31.472  29.596  1.00  0.00     0.029 A 
ATOM     41  N   UNL A   1      44.449  29.870  28.794  1.00  0.00    -0.354 N 
ATOM     42  C   UNL A   1      43.008  25.880  28.055  1.00  0.00     0.074 A 
ATOM     43  C   UNL A   1      41.609  25.760  28.394  1.00  0.00     0.031 C 
ATOM     44  C   UNL A   1      44.321  32.018  29.390  1.00  0.00     0.029 A 
ATOM     45  C   UNL A   1      45.240  30.989  28.903  1.00  0.00     0.049 A 
ATOM     46  H   UNL A   1      44.777  29.011  28.442  1.00  0.00     0.167 HD
ATOM     47  C   UNL A   1      43.740  24.877  27.520  1.00  0.00     0.031 A 
ATOM     48  C   UNL A   1      46.557  31.155  28.662  1.00  0.00     0.031 A 
ATOM     49  C   UNL A   1      45.135  24.977  27.189  1.00  0.00     0.049 A 
ATOM     50  C   UNL A   1      47.376  29.989  28.158  1.00  0.00     0.074 A 
ATOM     51  C   UNL A   1      45.965  24.005  26.657  1.00  0.00     0.029 A 
ATOM     52  N   UNL A   1      45.903  26.116  27.353  1.00  0.00    -0.354 N 
ATOM     53  N   UNL A   1      46.994  28.769  27.864  1.00  0.00    -0.248 NA
ATOM     54  C   UNL A   1      48.812  30.232  27.940  1.00  0.00     0.031 C 
ATOM     55  C   UNL A   1      47.250  24.542  26.550  1.00  0.00     0.029 A 
ATOM     56  C   UNL A   1      47.202  25.868  26.946  1.00  0.00     0.049 A 
ATOM     57  H   UNL A   1      45.575  26.974  27.707  1.00  0.00     0.167 HD
ATOM     58  C   UNL A   1      48.128  28.119  27.385  1.00  0.00     0.074 A 
ATOM     59  C   UNL A   1      49.207  29.081  27.413  1.00  0.00     0.031 C 
ATOM     60  C   UNL A   1      48.263  26.840  26.955  1.00  0.00     0.031 A 
BRANCH  47  61
ATOM     61  C   UNL A   1      43.047  23.565  27.279  1.00  0.00    -0.014 A 
ATOM     62  C   UNL A   1      42.867  22.636  28.316  1.00  0.00     0.009 A 
ATOM     63  C   UNL A   1      42.523  23.276  26.009  1.00  0.00     0.009 A 
ATOM     64  C   UNL A   1      42.199  21.434  28.079  1.00  0.00     0.001 A 
ATOM     65  C   UNL A   1      41.829  22.087  25.783  1.00  0.00     0.001 A 
ATOM     66  C   UNL A   1      41.672  21.164  26.817  1.00  0.00     0.000 A 
ENDBRANCH  47  61
BRANCH  48  67
ATOM     67  C   UNL A   1      47.222  32.463  28.924  1.00  0.00    -0.014 A 
ATOM     68  C   UNL A   1      47.357  33.423  27.907  1.00  0.00     0.009 A 
ATOM     69  C   UNL A   1      47.802  32.724  30.176  1.00  0.00     0.009 A 
ATOM     70  C   UNL A   1      48.099  34.589  28.123  1.00  0.00     0.001 A 
ATOM     71  C   UNL A   1      48.511  33.907  30.400  1.00  0.00     0.001 A 
ATOM     72  C   UNL A   1      48.674  34.830  29.369  1.00  0.00     0.000 A 
ENDBRANCH  48  67
BRANCH  60  73
ATOM     73  C   UNL A   1      49.601  26.424  26.406  1.00  0.00    -0.014 A 
ATOM     74  C   UNL A   1      49.991  26.724  25.093  1.00  0.00     0.009 A 
ATOM     75  C   UNL A   1      50.507  25.751  27.243  1.00  0.00     0.009 A 
ATOM     76  C   UNL A   1      51.241  26.321  24.616  1.00  0.00     0.001 A 
ATOM     77  C   UNL A   1      51.769  25.381  26.777  1.00  0.00     0.001 A 
ATOM     78  C   UNL A   1      52.130  25.654  25.460  1.00  0.00     0.000 A 
ENDBRANCH  60  73
ENDBRANCH  34  35
ENDBRANCH  27  29
ENDBRANCH  26  27
ENDBRANCH  25  26
ENDBRANCH  24  25
ENDBRANCH  23  24
ENDBRANCH  22  23
ENDBRANCH   1  22
TORSDOF 21
ENDMDL
