MODEL 1
REMARK VINA RESULT:      -9.6      0.000      0.000
REMARK SMILES CC(C)COC(=O)N[C@H](Cc1c[nH]c2ccccc12)C(=O)OCCOCCOCCOC(=O)c1ccc(-c2c3nc(c(-c4ccccc4)c4ccc([nH]4)c(-c4ccccc4)c4nc(c(-c5ccccc5)c5ccc2[nH]5)C=C4)C=C3)cc1
REMARK SMILES IDX 26 1 25 2 24 3 23 4 22 5 20 6 21 7 9 8 8 9 6 10 7 11 5 13
REMARK SMILES IDX 4 14 2 15 1 16 3 17 10 18 11 19 12 20 19 21 13 22 14 23
REMARK SMILES IDX 18 24 15 26 17 27 16 28 27 29 28 30 29 31 30 32 31 33 32 34
REMARK SMILES IDX 33 35 34 36 35 37 81 38 36 39 80 40 37 41 38 42 39 43 74 44
REMARK SMILES IDX 40 45 79 46 73 47 75 48 41 49 78 50 72 51 71 52 42 54 64 55
REMARK SMILES IDX 49 56 63 57 50 58 53 59 62 60 76 61 51 62 52 63 61 65 77 66
REMARK SMILES IDX 54 67 43 68 44 69 48 70 45 71 47 72 46 73 65 74 66 75 70 76
REMARK SMILES IDX 67 77 69 78 68 79 55 80 56 81 60 82 57 83 59 84 58 85
REMARK H PARENT 8 12 13 25 75 53 53 64
REMARK Flexibility Score: inf
ROOT
ATOM      1  C   UNL A   1      36.982  23.394  25.991  1.00  0.00     0.188 C 
ENDROOT
BRANCH   1   2
ATOM      2  O   UNL A   1      35.810  23.863  25.369  1.00  0.00    -0.376 OA
BRANCH   2   3
ATOM      3  C   UNL A   1      35.858  23.597  23.965  1.00  0.00     0.202 C 
BRANCH   3   4
ATOM      4  C   UNL A   1      34.501  23.305  23.208  1.00  0.00     0.261 C 
BRANCH   4   5
ATOM      5  O   UNL A   1      33.252  23.908  23.743  1.00  0.00    -0.462 OA
BRANCH   5   6
ATOM      6  C   UNL A   1      33.179  25.270  23.865  1.00  0.00     0.329 C 
ATOM      7  O   UNL A   1      33.008  25.988  22.876  1.00  0.00    -0.250 OA
BRANCH   6   8
ATOM      8  C   UNL A   1      33.016  25.904  25.359  1.00  0.00     0.200 C 
BRANCH   8   9
ATOM      9  N   UNL A   1      31.664  25.347  25.689  1.00  0.00    -0.308 N 
ATOM     10  C   UNL A   1      31.219  24.284  26.409  1.00  0.00     0.407 C 
ATOM     11  O   UNL A   1      30.029  24.175  26.676  1.00  0.00    -0.225 OA
ATOM     12  H   UNL A   1      30.931  25.871  25.293  1.00  0.00     0.168 HD
BRANCH  10  13
ATOM     13  O   UNL A   1      32.171  23.390  26.756  1.00  0.00    -0.449 OA
BRANCH  13  14
ATOM     14  C   UNL A   1      32.052  22.072  26.189  1.00  0.00     0.238 C 
BRANCH  14  15
ATOM     15  C   UNL A   1      33.417  21.379  26.154  1.00  0.00     0.021 C 
ATOM     16  C   UNL A   1      34.138  21.476  27.499  1.00  0.00     0.011 C 
ATOM     17  C   UNL A   1      33.265  19.917  25.739  1.00  0.00     0.011 C 
ENDBRANCH  14  15
ENDBRANCH  13  14
ENDBRANCH  10  13
ENDBRANCH   8   9
BRANCH   8  18
ATOM     18  C   UNL A   1      33.252  27.384  25.795  1.00  0.00     0.075 C 
BRANCH  18  19
ATOM     19  C   UNL A   1      32.500  28.753  25.363  1.00  0.00    -0.020 A 
ATOM     20  C   UNL A   1      32.628  29.796  26.317  1.00  0.00     0.087 A 
ATOM     21  C   UNL A   1      31.514  29.287  24.321  1.00  0.00     0.003 A 
ATOM     22  N   UNL A   1      31.796  30.887  26.211  1.00  0.00    -0.361 N 
ATOM     23  C   UNL A   1      30.952  30.777  25.151  1.00  0.00     0.046 A 
ATOM     24  C   UNL A   1      30.787  28.981  22.643  1.00  0.00     0.010 A 
ATOM     25  H   UNL A   1      31.811  31.654  26.829  1.00  0.00     0.166 HD
ATOM     26  C   UNL A   1      29.597  31.788  24.492  1.00  0.00     0.026 A 
ATOM     27  C   UNL A   1      29.325  29.908  22.038  1.00  0.00     0.001 A 
ATOM     28  C   UNL A   1      28.705  31.275  23.022  1.00  0.00     0.002 A 
ENDBRANCH  18  19
ENDBRANCH   8  18
ENDBRANCH   6   8
ENDBRANCH   5   6
ENDBRANCH   4   5
ENDBRANCH   3   4
ENDBRANCH   2   3
ENDBRANCH   1   2
BRANCH   1  29
ATOM     29  C   UNL A   1      37.425  21.927  25.643  1.00  0.00     0.188 C 
BRANCH  29  30
ATOM     30  O   UNL A   1      38.812  21.835  25.425  1.00  0.00    -0.376 OA
BRANCH  30  31
ATOM     31  C   UNL A   1      39.663  21.875  26.553  1.00  0.00     0.202 C 
BRANCH  31  32
ATOM     32  C   UNL A   1      40.978  21.059  26.586  1.00  0.00     0.261 C 
BRANCH  32  33
ATOM     33  O   UNL A   1      42.001  21.496  25.667  1.00  0.00    -0.460 OA
BRANCH  33  34
ATOM     34  C   UNL A   1      42.438  22.967  25.470  1.00  0.00     0.338 C 
ATOM     35  O   UNL A   1      43.218  22.848  24.480  1.00  0.00    -0.246 OA
BRANCH  34  36
ATOM     36  C   UNL A   1      41.769  24.620  26.671  1.00  0.00     0.060 A 
ATOM     37  C   UNL A   1      42.179  26.088  26.624  1.00  0.00     0.016 A 
ATOM     38  C   UNL A   1      40.662  24.704  27.729  1.00  0.00     0.016 A 
ATOM     39  C   UNL A   1      41.857  27.158  27.439  1.00  0.00     0.010 A 
ATOM     40  C   UNL A   1      40.216  25.802  28.480  1.00  0.00     0.010 A 
ATOM     41  C   UNL A   1      40.897  26.988  28.388  1.00  0.00    -0.014 A 
BRANCH  41  42
ATOM     42  C   UNL A   1      40.761  28.028  29.382  1.00  0.00     0.031 A 
ATOM     43  C   UNL A   1      41.827  28.102  30.419  1.00  0.00     0.074 A 
ATOM     44  C   UNL A   1      39.770  28.911  29.211  1.00  0.00     0.049 A 
ATOM     45  N   UNL A   1      41.931  28.926  31.418  1.00  0.00    -0.248 NA
ATOM     46  C   UNL A   1      42.916  27.106  30.340  1.00  0.00     0.031 C 
ATOM     47  C   UNL A   1      38.783  28.880  28.122  1.00  0.00     0.029 A 
ATOM     48  N   UNL A   1      39.454  30.020  29.922  1.00  0.00    -0.354 N 
ATOM     49  C   UNL A   1      43.061  28.518  32.108  1.00  0.00     0.074 A 
ATOM     50  C   UNL A   1      43.593  27.353  31.447  1.00  0.00     0.031 C 
ATOM     51  C   UNL A   1      37.986  29.952  28.227  1.00  0.00     0.029 A 
ATOM     52  C   UNL A   1      38.362  30.680  29.428  1.00  0.00     0.049 A 
ATOM     53  H   UNL A   1      39.958  30.321  30.714  1.00  0.00     0.167 HD
ATOM     54  C   UNL A   1      43.592  29.093  33.207  1.00  0.00     0.031 A 
ATOM     55  C   UNL A   1      37.730  31.744  29.940  1.00  0.00     0.031 A 
ATOM     56  C   UNL A   1      42.993  30.248  33.814  1.00  0.00     0.049 A 
ATOM     57  C   UNL A   1      38.306  32.314  31.201  1.00  0.00     0.074 A 
ATOM     58  C   UNL A   1      43.394  30.943  34.935  1.00  0.00     0.029 A 
ATOM     59  N   UNL A   1      41.847  30.873  33.331  1.00  0.00    -0.354 N 
ATOM     60  N   UNL A   1      39.367  31.925  31.875  1.00  0.00    -0.248 NA
ATOM     61  C   UNL A   1      37.610  33.466  31.767  1.00  0.00     0.031 C 
ATOM     62  C   UNL A   1      42.444  31.941  35.173  1.00  0.00     0.029 A 
ATOM     63  C   UNL A   1      41.504  31.930  34.150  1.00  0.00     0.049 A 
ATOM     64  H   UNL A   1      41.353  30.601  32.524  1.00  0.00     0.167 HD
ATOM     65  C   UNL A   1      39.485  32.804  32.938  1.00  0.00     0.074 A 
ATOM     66  C   UNL A   1      38.401  33.762  32.788  1.00  0.00     0.031 C 
ATOM     67  C   UNL A   1      40.393  32.830  33.948  1.00  0.00     0.031 A 
BRANCH  54  68
ATOM     68  C   UNL A   1      44.793  28.433  33.819  1.00  0.00    -0.014 A 
ATOM     69  C   UNL A   1      44.674  27.375  34.737  1.00  0.00     0.009 A 
ATOM     70  C   UNL A   1      46.073  28.905  33.497  1.00  0.00     0.009 A 
ATOM     71  C   UNL A   1      45.810  26.831  35.344  1.00  0.00     0.001 A 
ATOM     72  C   UNL A   1      47.209  28.336  34.076  1.00  0.00     0.001 A 
ATOM     73  C   UNL A   1      47.076  27.307  35.007  1.00  0.00     0.000 A 
ENDBRANCH  54  68
BRANCH  55  74
ATOM     74  C   UNL A   1      36.516  32.279  29.281  1.00  0.00    -0.014 A 
ATOM     75  C   UNL A   1      36.600  33.366  28.400  1.00  0.00     0.009 A 
ATOM     76  C   UNL A   1      35.264  31.681  29.502  1.00  0.00     0.009 A 
ATOM     77  C   UNL A   1      35.449  33.868  27.787  1.00  0.00     0.001 A 
ATOM     78  C   UNL A   1      34.122  32.159  28.859  1.00  0.00     0.001 A 
ATOM     79  C   UNL A   1      34.213  33.262  28.015  1.00  0.00     0.000 A 
ENDBRANCH  55  74
BRANCH  67  80
ATOM     80  C   UNL A   1      40.245  33.958  34.924  1.00  0.00    -0.014 A 
ATOM     81  C   UNL A   1      40.805  35.221  34.674  1.00  0.00     0.009 A 
ATOM     82  C   UNL A   1      39.531  33.745  36.112  1.00  0.00     0.009 A 
ATOM     83  C   UNL A   1      40.712  36.228  35.633  1.00  0.00     0.001 A 
ATOM     84  C   UNL A   1      39.393  34.770  37.044  1.00  0.00     0.001 A 
ATOM     85  C   UNL A   1      40.001  36.003  36.812  1.00  0.00     0.000 A 
ENDBRANCH  67  80
ENDBRANCH  41  42
ENDBRANCH  34  36
ENDBRANCH  33  34
ENDBRANCH  32  33
ENDBRANCH  31  32
ENDBRANCH  30  31
ENDBRANCH  29  30
ENDBRANCH   1  29
TORSDOF 23
ENDMDL
MODEL 2
REMARK VINA RESULT:      -9.5      1.386      4.439
REMARK SMILES CC(C)COC(=O)N[C@H](Cc1c[nH]c2ccccc12)C(=O)OCCOCCOCCOC(=O)c1ccc(-c2c3nc(c(-c4ccccc4)c4ccc([nH]4)c(-c4ccccc4)c4nc(c(-c5ccccc5)c5ccc2[nH]5)C=C4)C=C3)cc1
REMARK SMILES IDX 26 1 25 2 24 3 23 4 22 5 20 6 21 7 9 8 8 9 6 10 7 11 5 13
REMARK SMILES IDX 4 14 2 15 1 16 3 17 10 18 11 19 12 20 19 21 13 22 14 23
REMARK SMILES IDX 18 24 15 26 17 27 16 28 27 29 28 30 29 31 30 32 31 33 32 34
REMARK SMILES IDX 33 35 34 36 35 37 81 38 36 39 80 40 37 41 38 42 39 43 74 44
REMARK SMILES IDX 40 45 79 46 73 47 75 48 41 49 78 50 72 51 71 52 42 54 64 55
REMARK SMILES IDX 49 56 63 57 50 58 53 59 62 60 76 61 51 62 52 63 61 65 77 66
REMARK SMILES IDX 54 67 43 68 44 69 48 70 45 71 47 72 46 73 65 74 66 75 70 76
REMARK SMILES IDX 67 77 69 78 68 79 55 80 56 81 60 82 57 83 59 84 58 85
REMARK H PARENT 8 12 13 25 75 53 53 64
REMARK Flexibility Score: inf
ROOT
ATOM      1  C   UNL A   1      36.371  22.379  26.363  1.00  0.00     0.188 C 
ENDROOT
BRANCH   1   2
ATOM      2  O   UNL A   1      35.101  22.974  26.254  1.00  0.00    -0.376 OA
BRANCH   2   3
ATOM      3  C   UNL A   1      35.069  23.861  25.132  1.00  0.00     0.202 C 
BRANCH   3   4
ATOM      4  C   UNL A   1      34.384  25.275  25.312  1.00  0.00     0.261 C 
BRANCH   4   5
ATOM      5  O   UNL A   1      33.223  25.384  26.233  1.00  0.00    -0.462 OA
BRANCH   5   6
ATOM      6  C   UNL A   1      32.018  24.868  25.835  1.00  0.00     0.329 C 
ATOM      7  O   UNL A   1      31.040  24.882  26.589  1.00  0.00    -0.250 OA
BRANCH   6   8
ATOM      8  C   UNL A   1      31.813  24.516  24.255  1.00  0.00     0.200 C 
BRANCH   8   9
ATOM      9  N   UNL A   1      30.609  25.368  23.994  1.00  0.00    -0.308 N 
ATOM     10  C   UNL A   1      30.378  26.706  23.943  1.00  0.00     0.407 C 
ATOM     11  O   UNL A   1      29.316  27.133  23.509  1.00  0.00    -0.225 OA
ATOM     12  H   UNL A   1      29.799  24.836  23.819  1.00  0.00     0.168 HD
BRANCH  10  13
ATOM     13  O   UNL A   1      31.379  27.477  24.424  1.00  0.00    -0.449 OA
BRANCH  13  14
ATOM     14  C   UNL A   1      30.988  28.644  25.172  1.00  0.00     0.238 C 
BRANCH  14  15
ATOM     15  C   UNL A   1      32.077  29.024  26.179  1.00  0.00     0.021 C 
ATOM     16  C   UNL A   1      32.195  30.539  26.344  1.00  0.00     0.011 C 
ATOM     17  C   UNL A   1      31.810  28.363  27.530  1.00  0.00     0.011 C 
ENDBRANCH  14  15
ENDBRANCH  13  14
ENDBRANCH  10  13
ENDBRANCH   8   9
BRANCH   8  18
ATOM     18  C   UNL A   1      31.788  23.102  23.592  1.00  0.00     0.075 C 
BRANCH  18  19
ATOM     19  C   UNL A   1      32.063  21.632  24.213  1.00  0.00    -0.020 A 
ATOM     20  C   UNL A   1      32.294  21.640  25.613  1.00  0.00     0.087 A 
ATOM     21  C   UNL A   1      32.339  20.191  23.774  1.00  0.00     0.003 A 
ATOM     22  N   UNL A   1      32.830  20.515  26.196  1.00  0.00    -0.361 N 
ATOM     23  C   UNL A   1      33.053  19.532  25.284  1.00  0.00     0.046 A 
ATOM     24  C   UNL A   1      32.182  18.990  22.370  1.00  0.00     0.010 A 
ATOM     25  H   UNL A   1      33.027  20.433  27.157  1.00  0.00     0.166 HD
ATOM     26  C   UNL A   1      33.779  17.871  25.354  1.00  0.00     0.026 A 
ATOM     27  C   UNL A   1      33.038  17.368  22.384  1.00  0.00     0.001 A 
ATOM     28  C   UNL A   1      33.892  16.858  23.878  1.00  0.00     0.002 A 
ENDBRANCH  18  19
ENDBRANCH   8  18
ENDBRANCH   6   8
ENDBRANCH   5   6
ENDBRANCH   4   5
ENDBRANCH   3   4
ENDBRANCH   2   3
ENDBRANCH   1   2
BRANCH   1  29
ATOM     29  C   UNL A   1      36.842  21.496  25.153  1.00  0.00     0.188 C 
BRANCH  29  30
ATOM     30  O   UNL A   1      38.242  21.501  25.011  1.00  0.00    -0.376 OA
BRANCH  30  31
ATOM     31  C   UNL A   1      39.021  21.836  26.142  1.00  0.00     0.202 C 
BRANCH  31  32
ATOM     32  C   UNL A   1      40.371  21.130  26.415  1.00  0.00     0.261 C 
BRANCH  32  33
ATOM     33  O   UNL A   1      41.457  21.513  25.547  1.00  0.00    -0.460 OA
BRANCH  33  34
ATOM     34  C   UNL A   1      42.190  22.874  25.603  1.00  0.00     0.338 C 
ATOM     35  O   UNL A   1      43.143  22.659  24.795  1.00  0.00    -0.246 OA
BRANCH  34  36
ATOM     36  C   UNL A   1      41.579  24.552  26.798  1.00  0.00     0.060 A 
ATOM     37  C   UNL A   1      41.946  26.028  26.668  1.00  0.00     0.016 A 
ATOM     38  C   UNL A   1      40.560  24.649  27.940  1.00  0.00     0.016 A 
ATOM     39  C   UNL A   1      41.663  27.118  27.470  1.00  0.00     0.010 A 
ATOM     40  C   UNL A   1      40.148  25.762  28.689  1.00  0.00     0.010 A 
ATOM     41  C   UNL A   1      40.788  26.960  28.501  1.00  0.00    -0.014 A 
BRANCH  41  42
ATOM     42  C   UNL A   1      40.707  28.030  29.467  1.00  0.00     0.031 A 
ATOM     43  C   UNL A   1      41.806  28.110  30.469  1.00  0.00     0.074 A 
ATOM     44  C   UNL A   1      39.731  28.931  29.300  1.00  0.00     0.049 A 
ATOM     45  N   UNL A   1      41.959  28.960  31.439  1.00  0.00    -0.248 NA
ATOM     46  C   UNL A   1      42.870  27.086  30.386  1.00  0.00     0.031 C 
ATOM     47  C   UNL A   1      38.710  28.892  28.243  1.00  0.00     0.029 A 
ATOM     48  N   UNL A   1      39.463  30.068  29.987  1.00  0.00    -0.354 N 
ATOM     49  C   UNL A   1      43.101  28.546  32.106  1.00  0.00     0.074 A 
ATOM     50  C   UNL A   1      43.586  27.350  31.464  1.00  0.00     0.031 C 
ATOM     51  C   UNL A   1      37.941  29.985  28.340  1.00  0.00     0.029 A 
ATOM     52  C   UNL A   1      38.371  30.739  29.507  1.00  0.00     0.049 A 
ATOM     53  H   UNL A   1      39.998  30.379  30.754  1.00  0.00     0.167 HD
ATOM     54  C   UNL A   1      43.679  29.140  33.171  1.00  0.00     0.031 A 
ATOM     55  C   UNL A   1      37.779  31.832  30.006  1.00  0.00     0.031 A 
ATOM     56  C   UNL A   1      43.126  30.325  33.761  1.00  0.00     0.049 A 
ATOM     57  C   UNL A   1      38.407  32.424  31.232  1.00  0.00     0.074 A 
ATOM     58  C   UNL A   1      43.576  31.043  34.848  1.00  0.00     0.029 A 
ATOM     59  N   UNL A   1      41.979  30.963  33.295  1.00  0.00    -0.354 N 
ATOM     60  N   UNL A   1      39.479  32.031  31.884  1.00  0.00    -0.248 NA
ATOM     61  C   UNL A   1      37.755  33.609  31.784  1.00  0.00     0.031 C 
ATOM     62  C   UNL A   1      42.657  32.070  35.085  1.00  0.00     0.029 A 
ATOM     63  C   UNL A   1      41.686  32.051  34.092  1.00  0.00     0.049 A 
ATOM     64  H   UNL A   1      41.455  30.680  32.512  1.00  0.00     0.167 HD
ATOM     65  C   UNL A   1      39.651  32.937  32.916  1.00  0.00     0.074 A 
ATOM     66  C   UNL A   1      38.584  33.915  32.771  1.00  0.00     0.031 C 
ATOM     67  C   UNL A   1      40.589  32.971  33.897  1.00  0.00     0.031 A 
BRANCH  54  68
ATOM     68  C   UNL A   1      44.883  28.470  33.765  1.00  0.00    -0.014 A 
ATOM     69  C   UNL A   1      44.772  27.501  34.777  1.00  0.00     0.009 A 
ATOM     70  C   UNL A   1      46.162  28.843  33.327  1.00  0.00     0.009 A 
ATOM     71  C   UNL A   1      45.917  26.950  35.361  1.00  0.00     0.001 A 
ATOM     72  C   UNL A   1      47.303  28.264  33.886  1.00  0.00     0.001 A 
ATOM     73  C   UNL A   1      47.180  27.326  34.909  1.00  0.00     0.000 A 
ENDBRANCH  54  68
BRANCH  55  74
ATOM     74  C   UNL A   1      36.558  32.376  29.368  1.00  0.00    -0.014 A 
ATOM     75  C   UNL A   1      36.647  33.363  28.378  1.00  0.00     0.009 A 
ATOM     76  C   UNL A   1      35.291  31.883  29.723  1.00  0.00     0.009 A 
ATOM     77  C   UNL A   1      35.489  33.875  27.787  1.00  0.00     0.001 A 
ATOM     78  C   UNL A   1      34.138  32.367  29.104  1.00  0.00     0.001 A 
ATOM     79  C   UNL A   1      34.238  33.374  28.147  1.00  0.00     0.000 A 
ENDBRANCH  55  74
BRANCH  67  80
ATOM     80  C   UNL A   1      40.498  34.130  34.843  1.00  0.00    -0.014 A 
ATOM     81  C   UNL A   1      39.713  34.067  36.006  1.00  0.00     0.009 A 
ATOM     82  C   UNL A   1      41.214  35.302  34.559  1.00  0.00     0.009 A 
ATOM     83  C   UNL A   1      39.591  35.186  36.826  1.00  0.00     0.001 A 
ATOM     84  C   UNL A   1      41.134  36.399  35.411  1.00  0.00     0.001 A 
ATOM     85  C   UNL A   1      40.306  36.347  36.532  1.00  0.00     0.000 A 
ENDBRANCH  67  80
ENDBRANCH  41  42
ENDBRANCH  34  36
ENDBRANCH  33  34
ENDBRANCH  32  33
ENDBRANCH  31  32
ENDBRANCH  30  31
ENDBRANCH  29  30
ENDBRANCH   1  29
TORSDOF 23
ENDMDL
MODEL 3
REMARK VINA RESULT:      -9.1      3.555      6.428
REMARK SMILES CC(C)COC(=O)N[C@H](Cc1c[nH]c2ccccc12)C(=O)OCCOCCOCCOC(=O)c1ccc(-c2c3nc(c(-c4ccccc4)c4ccc([nH]4)c(-c4ccccc4)c4nc(c(-c5ccccc5)c5ccc2[nH]5)C=C4)C=C3)cc1
REMARK SMILES IDX 26 1 25 2 24 3 23 4 22 5 20 6 21 7 9 8 8 9 6 10 7 11 5 13
REMARK SMILES IDX 4 14 2 15 1 16 3 17 10 18 11 19 12 20 19 21 13 22 14 23
REMARK SMILES IDX 18 24 15 26 17 27 16 28 27 29 28 30 29 31 30 32 31 33 32 34
REMARK SMILES IDX 33 35 34 36 35 37 81 38 36 39 80 40 37 41 38 42 39 43 74 44
REMARK SMILES IDX 40 45 79 46 73 47 75 48 41 49 78 50 72 51 71 52 42 54 64 55
REMARK SMILES IDX 49 56 63 57 50 58 53 59 62 60 76 61 51 62 52 63 61 65 77 66
REMARK SMILES IDX 54 67 43 68 44 69 48 70 45 71 47 72 46 73 65 74 66 75 70 76
REMARK SMILES IDX 67 77 69 78 68 79 55 80 56 81 60 82 57 83 59 84 58 85
REMARK H PARENT 8 12 13 25 75 53 53 64
REMARK Flexibility Score: inf
ROOT
ATOM      1  C   UNL A   1      34.620  24.264  24.202  1.00  0.00     0.188 C 
ENDROOT
BRANCH   1   2
ATOM      2  O   UNL A   1      34.005  25.217  25.035  1.00  0.00    -0.376 OA
BRANCH   2   3
ATOM      3  C   UNL A   1      32.587  25.025  25.037  1.00  0.00     0.202 C 
BRANCH   3   4
ATOM      4  C   UNL A   1      31.751  25.613  26.244  1.00  0.00     0.261 C 
BRANCH   4   5
ATOM      5  O   UNL A   1      31.060  26.915  26.054  1.00  0.00    -0.462 OA
BRANCH   5   6
ATOM      6  C   UNL A   1      31.452  27.983  26.817  1.00  0.00     0.329 C 
ATOM      7  O   UNL A   1      31.160  28.051  28.014  1.00  0.00    -0.250 OA
BRANCH   6   8
ATOM      8  C   UNL A   1      32.563  29.007  26.199  1.00  0.00     0.200 C 
BRANCH   8   9
ATOM      9  N   UNL A   1      32.508  28.556  24.771  1.00  0.00    -0.308 N 
ATOM     10  C   UNL A   1      31.732  28.869  23.700  1.00  0.00     0.407 C 
ATOM     11  O   UNL A   1      32.040  28.480  22.581  1.00  0.00    -0.225 OA
ATOM     12  H   UNL A   1      33.191  27.879  24.561  1.00  0.00     0.168 HD
BRANCH  10  13
ATOM     13  O   UNL A   1      30.625  29.590  23.987  1.00  0.00    -0.449 OA
BRANCH  13  14
ATOM     14  C   UNL A   1      29.482  29.378  23.137  1.00  0.00     0.238 C 
BRANCH  14  15
ATOM     15  C   UNL A   1      28.996  30.708  22.553  1.00  0.00     0.021 C 
ATOM     16  C   UNL A   1      28.079  30.498  21.348  1.00  0.00     0.011 C 
ATOM     17  C   UNL A   1      28.285  31.534  23.623  1.00  0.00     0.011 C 
ENDBRANCH  14  15
ENDBRANCH  13  14
ENDBRANCH  10  13
ENDBRANCH   8   9
BRANCH   8  18
ATOM     18  C   UNL A   1      33.992  29.304  26.752  1.00  0.00     0.075 C 
BRANCH  18  19
ATOM     19  C   UNL A   1      34.540  30.500  27.696  1.00  0.00    -0.020 A 
ATOM     20  C   UNL A   1      35.590  30.103  28.564  1.00  0.00     0.087 A 
ATOM     21  C   UNL A   1      34.195  31.930  28.121  1.00  0.00     0.003 A 
ATOM     22  N   UNL A   1      35.927  30.932  29.609  1.00  0.00    -0.361 N 
ATOM     23  C   UNL A   1      35.159  32.055  29.630  1.00  0.00     0.046 A 
ATOM     24  C   UNL A   1      33.242  33.450  27.649  1.00  0.00     0.010 A 
ATOM     25  H   UNL A   1      36.638  30.736  30.262  1.00  0.00     0.166 HD
ATOM     26  C   UNL A   1      35.028  33.487  30.735  1.00  0.00     0.026 A 
ATOM     27  C   UNL A   1      32.990  34.836  28.824  1.00  0.00     0.001 A 
ATOM     28  C   UNL A   1      33.849  34.797  30.399  1.00  0.00     0.002 A 
ENDBRANCH  18  19
ENDBRANCH   8  18
ENDBRANCH   6   8
ENDBRANCH   5   6
ENDBRANCH   4   5
ENDBRANCH   3   4
ENDBRANCH   2   3
ENDBRANCH   1   2
BRANCH   1  29
ATOM     29  C   UNL A   1      34.327  22.754  24.522  1.00  0.00     0.188 C 
BRANCH  29  30
ATOM     30  O   UNL A   1      35.420  22.127  25.149  1.00  0.00    -0.376 OA
BRANCH  30  31
ATOM     31  C   UNL A   1      35.537  20.724  25.026  1.00  0.00     0.202 C 
BRANCH  31  32
ATOM     32  C   UNL A   1      36.927  20.044  24.973  1.00  0.00     0.261 C 
BRANCH  32  33
ATOM     33  O   UNL A   1      38.051  20.941  24.862  1.00  0.00    -0.460 OA
BRANCH  33  34
ATOM     34  C   UNL A   1      39.244  20.984  25.846  1.00  0.00     0.338 C 
ATOM     35  O   UNL A   1      39.548  19.756  25.896  1.00  0.00    -0.246 OA
BRANCH  34  36
ATOM     36  C   UNL A   1      40.017  22.768  26.762  1.00  0.00     0.060 A 
ATOM     37  C   UNL A   1      39.550  24.214  26.630  1.00  0.00     0.016 A 
ATOM     38  C   UNL A   1      41.106  22.954  27.826  1.00  0.00     0.016 A 
ATOM     39  C   UNL A   1      40.077  25.398  27.112  1.00  0.00     0.010 A 
ATOM     40  C   UNL A   1      41.575  24.127  28.439  1.00  0.00     0.010 A 
ATOM     41  C   UNL A   1      41.115  25.338  27.990  1.00  0.00    -0.014 A 
BRANCH  41  42
ATOM     42  C   UNL A   1      41.807  26.573  28.278  1.00  0.00     0.031 A 
ATOM     43  C   UNL A   1      43.038  26.848  27.486  1.00  0.00     0.074 A 
ATOM     44  C   UNL A   1      41.217  27.420  29.129  1.00  0.00     0.049 A 
ATOM     45  N   UNL A   1      43.839  27.869  27.559  1.00  0.00    -0.248 NA
ATOM     46  C   UNL A   1      43.439  25.833  26.489  1.00  0.00     0.031 C 
ATOM     47  C   UNL A   1      39.947  27.175  29.829  1.00  0.00     0.029 A 
ATOM     48  N   UNL A   1      41.582  28.666  29.519  1.00  0.00    -0.354 N 
ATOM     49  C   UNL A   1      44.856  27.595  26.660  1.00  0.00     0.074 A 
ATOM     50  C   UNL A   1      44.604  26.302  26.077  1.00  0.00     0.031 C 
ATOM     51  C   UNL A   1      39.627  28.262  30.543  1.00  0.00     0.029 A 
ATOM     52  C   UNL A   1      40.706  29.227  30.408  1.00  0.00     0.049 A 
ATOM     53  H   UNL A   1      42.394  29.121  29.195  1.00  0.00     0.167 HD
ATOM     54  C   UNL A   1      45.909  28.385  26.362  1.00  0.00     0.031 A 
ATOM     55  C   UNL A   1      40.813  30.392  31.060  1.00  0.00     0.031 A 
ATOM     56  C   UNL A   1      46.096  29.658  26.997  1.00  0.00     0.049 A 
ATOM     57  C   UNL A   1      42.032  31.211  30.758  1.00  0.00     0.074 A 
ATOM     58  C   UNL A   1      47.113  30.573  26.822  1.00  0.00     0.029 A 
ATOM     59  N   UNL A   1      45.225  30.190  27.945  1.00  0.00    -0.354 N 
ATOM     60  N   UNL A   1      43.013  30.955  29.920  1.00  0.00    -0.248 NA
ATOM     61  C   UNL A   1      42.156  32.476  31.477  1.00  0.00     0.031 C 
ATOM     62  C   UNL A   1      46.896  31.622  27.722  1.00  0.00     0.029 A 
ATOM     63  C   UNL A   1      45.696  31.408  28.390  1.00  0.00     0.049 A 
ATOM     64  H   UNL A   1      44.395  29.759  28.252  1.00  0.00     0.167 HD
ATOM     65  C   UNL A   1      43.867  32.042  29.990  1.00  0.00     0.074 A 
ATOM     66  C   UNL A   1      43.258  32.969  30.931  1.00  0.00     0.031 C 
ATOM     67  C   UNL A   1      45.043  32.268  29.349  1.00  0.00     0.031 A 
BRANCH  54  68
ATOM     68  C   UNL A   1      46.924  27.847  25.395  1.00  0.00    -0.014 A 
ATOM     69  C   UNL A   1      48.064  27.148  25.825  1.00  0.00     0.009 A 
ATOM     70  C   UNL A   1      46.752  28.077  24.023  1.00  0.00     0.009 A 
ATOM     71  C   UNL A   1      49.026  26.724  24.903  1.00  0.00     0.001 A 
ATOM     72  C   UNL A   1      47.695  27.621  23.100  1.00  0.00     0.001 A 
ATOM     73  C   UNL A   1      48.836  26.954  23.542  1.00  0.00     0.000 A 
ENDBRANCH  54  68
BRANCH  55  74
ATOM     74  C   UNL A   1      39.777  30.798  32.037  1.00  0.00    -0.014 A 
ATOM     75  C   UNL A   1      39.834  30.356  33.365  1.00  0.00     0.009 A 
ATOM     76  C   UNL A   1      38.739  31.664  31.655  1.00  0.00     0.009 A 
ATOM     77  C   UNL A   1      38.849  30.739  34.279  1.00  0.00     0.001 A 
ATOM     78  C   UNL A   1      37.778  32.077  32.578  1.00  0.00     0.001 A 
ATOM     79  C   UNL A   1      37.825  31.601  33.886  1.00  0.00     0.000 A 
ENDBRANCH  55  74
BRANCH  67  80
ATOM     80  C   UNL A   1      45.696  33.586  29.637  1.00  0.00    -0.014 A 
ATOM     81  C   UNL A   1      46.624  33.732  30.681  1.00  0.00     0.009 A 
ATOM     82  C   UNL A   1      45.373  34.696  28.843  1.00  0.00     0.009 A 
ATOM     83  C   UNL A   1      47.159  34.985  30.968  1.00  0.00     0.001 A 
ATOM     84  C   UNL A   1      45.952  35.936  29.098  1.00  0.00     0.001 A 
ATOM     85  C   UNL A   1      46.827  36.083  30.174  1.00  0.00     0.000 A 
ENDBRANCH  67  80
ENDBRANCH  41  42
ENDBRANCH  34  36
ENDBRANCH  33  34
ENDBRANCH  32  33
ENDBRANCH  31  32
ENDBRANCH  30  31
ENDBRANCH  29  30
ENDBRANCH   1  29
TORSDOF 23
ENDMDL
