MODEL 1
REMARK VINA RESULT:     -10.4      0.000      0.000
REMARK SMILES CS(=O)(=O)c1ccc(N2N=C(C(=O)OCCOCCOCCOC(=O)c3ccc(-c4c5nc(c(-c6ccccc6)c6ccc([nH]6)c(-c6ccccc6)c6nc(c(-c7ccccc7)c7ccc4[nH]7)C=C6)C=C5)cc3)C[C@H]2c2ccco2)cc1
REMARK SMILES IDX 18 1 17 2 16 3 15 4 14 5 12 6 13 7 11 8 9 9 10 10 75 11
REMARK SMILES IDX 74 12 8 13 5 14 6 15 82 16 7 17 81 18 2 19 1 20 3 21 4 22
REMARK SMILES IDX 76 23 77 24 80 25 78 26 79 27 19 28 20 29 21 30 22 31 23 32
REMARK SMILES IDX 24 33 25 34 26 35 27 36 73 37 28 38 72 39 29 40 30 41 31 42
REMARK SMILES IDX 66 43 32 44 71 45 65 46 67 47 33 48 70 49 64 50 63 51 34 53
REMARK SMILES IDX 56 54 41 55 55 56 42 57 45 58 54 59 68 60 43 61 44 62 53 64
REMARK SMILES IDX 69 65 46 66 35 67 36 68 40 69 37 70 39 71 38 72 57 73 58 74
REMARK SMILES IDX 62 75 59 76 61 77 60 78 47 79 48 80 52 81 49 82 51 83 50 84
REMARK H PARENT 67 52 45 63
REMARK Flexibility Score: inf
ROOT
ATOM      1  C   UNL A   1      31.758  28.582  25.704  1.00  0.00     0.188 C 
ENDROOT
BRANCH   1   2
ATOM      2  O   UNL A   1      31.912  27.803  24.524  1.00  0.00    -0.376 OA
BRANCH   2   3
ATOM      3  C   UNL A   1      32.313  28.428  23.309  1.00  0.00     0.202 C 
BRANCH   3   4
ATOM      4  C   UNL A   1      32.420  27.608  22.011  1.00  0.00     0.261 C 
BRANCH   4   5
ATOM      5  O   UNL A   1      31.949  26.258  22.128  1.00  0.00    -0.459 OA
BRANCH   5   6
ATOM      6  C   UNL A   1      32.780  25.302  21.659  1.00  0.00     0.354 C 
ATOM      7  O   UNL A   1      33.257  25.204  20.548  1.00  0.00    -0.245 OA
BRANCH   6   8
ATOM      8  C   UNL A   1      33.179  24.391  22.796  1.00  0.00     0.148 C 
ATOM      9  N   UNL A   1      33.656  22.634  23.880  1.00  0.00    -0.254 N 
ATOM     10  N   UNL A   1      33.342  23.109  22.641  1.00  0.00    -0.169 NA
ATOM     11  C   UNL A   1      33.412  23.632  24.945  1.00  0.00     0.180 C 
ATOM     12  C   UNL A   1      33.514  24.942  24.145  1.00  0.00     0.101 C 
BRANCH   9  13
ATOM     13  C   UNL A   1      33.704  21.262  24.090  1.00  0.00     0.060 A 
ATOM     14  C   UNL A   1      33.830  18.459  24.357  1.00  0.00     0.067 A 
ATOM     15  C   UNL A   1      32.705  19.049  23.779  1.00  0.00     0.022 A 
ATOM     16  C   UNL A   1      34.867  19.254  24.845  1.00  0.00     0.022 A 
ATOM     17  C   UNL A   1      32.648  20.445  23.655  1.00  0.00     0.029 A 
ATOM     18  C   UNL A   1      34.788  20.645  24.725  1.00  0.00     0.029 A 
BRANCH  14  19
ATOM     19  S   UNL A   1      33.992  16.688  24.408  1.00  0.00     0.175 S 
ATOM     20  C   UNL A   1      32.621  16.102  25.364  1.00  0.00     0.163 C 
ATOM     21  O   UNL A   1      35.197  16.384  25.158  1.00  0.00    -0.224 OA
ATOM     22  O   UNL A   1      33.830  16.222  23.044  1.00  0.00    -0.224 OA
ENDBRANCH  14  19
ENDBRANCH   9  13
BRANCH  11  23
ATOM     23  C   UNL A   1      32.112  23.555  25.698  1.00  0.00     0.128 A 
ATOM     24  C   UNL A   1      31.503  22.552  26.429  1.00  0.00     0.048 A 
ATOM     25  O   UNL A   1      31.332  24.678  25.733  1.00  0.00    -0.467 OA
ATOM     26  C   UNL A   1      30.284  23.088  26.913  1.00  0.00     0.042 A 
ATOM     27  C   UNL A   1      30.237  24.390  26.477  1.00  0.00     0.195 A 
ENDBRANCH  11  23
ENDBRANCH   6   8
ENDBRANCH   5   6
ENDBRANCH   4   5
ENDBRANCH   3   4
ENDBRANCH   2   3
ENDBRANCH   1   2
BRANCH   1  28
ATOM     28  C   UNL A   1      32.955  29.391  26.246  1.00  0.00     0.188 C 
BRANCH  28  29
ATOM     29  O   UNL A   1      32.625  30.323  27.247  1.00  0.00    -0.376 OA
BRANCH  29  30
ATOM     30  C   UNL A   1      33.320  31.560  27.296  1.00  0.00     0.202 C 
BRANCH  30  31
ATOM     31  C   UNL A   1      32.648  32.935  27.507  1.00  0.00     0.261 C 
BRANCH  31  32
ATOM     32  O   UNL A   1      33.472  34.054  27.847  1.00  0.00    -0.460 OA
BRANCH  32  33
ATOM     33  C   UNL A   1      33.498  34.418  29.156  1.00  0.00     0.338 C 
ATOM     34  O   UNL A   1      32.645  35.009  29.773  1.00  0.00    -0.246 OA
BRANCH  33  35
ATOM     35  C   UNL A   1      34.690  33.793  29.770  1.00  0.00     0.060 A 
ATOM     36  C   UNL A   1      35.958  34.108  29.262  1.00  0.00     0.016 A 
ATOM     37  C   UNL A   1      34.553  32.895  30.829  1.00  0.00     0.016 A 
ATOM     38  C   UNL A   1      37.096  33.510  29.805  1.00  0.00     0.010 A 
ATOM     39  C   UNL A   1      35.692  32.279  31.356  1.00  0.00     0.010 A 
ATOM     40  C   UNL A   1      36.966  32.562  30.828  1.00  0.00    -0.014 A 
BRANCH  40  41
ATOM     41  C   UNL A   1      38.135  31.746  31.235  1.00  0.00     0.031 A 
ATOM     42  C   UNL A   1      38.860  32.109  32.501  1.00  0.00     0.074 A 
ATOM     43  C   UNL A   1      38.544  30.695  30.503  1.00  0.00     0.049 A 
ATOM     44  N   UNL A   1      39.937  31.581  33.024  1.00  0.00    -0.248 NA
ATOM     45  C   UNL A   1      38.291  33.219  33.285  1.00  0.00     0.031 C 
ATOM     46  C   UNL A   1      37.898  30.205  29.286  1.00  0.00     0.029 A 
ATOM     47  N   UNL A   1      39.616  29.856  30.679  1.00  0.00    -0.354 N 
ATOM     48  C   UNL A   1      40.183  32.302  34.186  1.00  0.00     0.074 A 
ATOM     49  C   UNL A   1      39.159  33.318  34.281  1.00  0.00     0.031 C 
ATOM     50  C   UNL A   1      38.599  29.159  28.815  1.00  0.00     0.029 A 
ATOM     51  C   UNL A   1      39.759  28.931  29.673  1.00  0.00     0.049 A 
ATOM     52  H   UNL A   1      40.224  29.911  31.451  1.00  0.00     0.167 HD
ATOM     53  C   UNL A   1      41.173  32.132  35.094  1.00  0.00     0.031 A 
ATOM     54  C   UNL A   1      40.733  28.025  29.456  1.00  0.00     0.031 A 
ATOM     55  C   UNL A   1      42.205  31.137  34.989  1.00  0.00     0.049 A 
ATOM     56  C   UNL A   1      41.876  27.918  30.432  1.00  0.00     0.074 A 
ATOM     57  C   UNL A   1      43.244  30.876  35.867  1.00  0.00     0.029 A 
ATOM     58  N   UNL A   1      42.340  30.248  33.934  1.00  0.00    -0.354 N 
ATOM     59  N   UNL A   1      42.081  28.581  31.544  1.00  0.00    -0.248 NA
ATOM     60  C   UNL A   1      42.918  26.927  30.124  1.00  0.00     0.031 C 
ATOM     61  C   UNL A   1      44.043  29.872  35.311  1.00  0.00     0.029 A 
ATOM     62  C   UNL A   1      43.460  29.457  34.124  1.00  0.00     0.049 A 
ATOM     63  H   UNL A   1      41.729  30.188  33.164  1.00  0.00     0.167 HD
ATOM     64  C   UNL A   1      43.255  28.067  32.083  1.00  0.00     0.074 A 
ATOM     65  C   UNL A   1      43.707  27.025  31.184  1.00  0.00     0.031 C 
ATOM     66  C   UNL A   1      43.899  28.422  33.223  1.00  0.00     0.031 A 
BRANCH  53  67
ATOM     67  C   UNL A   1      41.208  33.078  36.262  1.00  0.00    -0.014 A 
ATOM     68  C   UNL A   1      40.553  32.781  37.467  1.00  0.00     0.009 A 
ATOM     69  C   UNL A   1      41.937  34.275  36.164  1.00  0.00     0.009 A 
ATOM     70  C   UNL A   1      40.596  33.678  38.536  1.00  0.00     0.001 A 
ATOM     71  C   UNL A   1      42.003  35.155  37.245  1.00  0.00     0.001 A 
ATOM     72  C   UNL A   1      41.326  34.861  38.426  1.00  0.00     0.000 A 
ENDBRANCH  53  67
BRANCH  54  73
ATOM     73  C   UNL A   1      40.691  27.157  28.248  1.00  0.00    -0.014 A 
ATOM     74  C   UNL A   1      41.284  27.574  27.045  1.00  0.00     0.009 A 
ATOM     75  C   UNL A   1      40.032  25.918  28.284  1.00  0.00     0.009 A 
ATOM     76  C   UNL A   1      41.192  26.780  25.899  1.00  0.00     0.001 A 
ATOM     77  C   UNL A   1      39.970  25.113  27.145  1.00  0.00     0.001 A 
ATOM     78  C   UNL A   1      40.540  25.549  25.951  1.00  0.00     0.000 A 
ENDBRANCH  54  73
BRANCH  66  79
ATOM     79  C   UNL A   1      45.135  27.647  33.593  1.00  0.00    -0.014 A 
ATOM     80  C   UNL A   1      45.066  26.469  34.353  1.00  0.00     0.009 A 
ATOM     81  C   UNL A   1      46.388  28.084  33.132  1.00  0.00     0.009 A 
ATOM     82  C   UNL A   1      46.230  25.766  34.673  1.00  0.00     0.001 A 
ATOM     83  C   UNL A   1      47.545  27.361  33.425  1.00  0.00     0.001 A 
ATOM     84  C   UNL A   1      47.466  26.209  34.204  1.00  0.00     0.000 A 
ENDBRANCH  66  79
ENDBRANCH  40  41
ENDBRANCH  33  35
ENDBRANCH  32  33
ENDBRANCH  31  32
ENDBRANCH  30  31
ENDBRANCH  29  30
ENDBRANCH  28  29
ENDBRANCH   1  28
TORSDOF 20
ENDMDL
MODEL 2
REMARK VINA RESULT:     -10.2      1.615      2.301
REMARK SMILES CS(=O)(=O)c1ccc(N2N=C(C(=O)OCCOCCOCCOC(=O)c3ccc(-c4c5nc(c(-c6ccccc6)c6ccc([nH]6)c(-c6ccccc6)c6nc(c(-c7ccccc7)c7ccc4[nH]7)C=C6)C=C5)cc3)C[C@H]2c2ccco2)cc1
REMARK SMILES IDX 18 1 17 2 16 3 15 4 14 5 12 6 13 7 11 8 9 9 10 10 75 11
REMARK SMILES IDX 74 12 8 13 5 14 6 15 82 16 7 17 81 18 2 19 1 20 3 21 4 22
REMARK SMILES IDX 76 23 77 24 80 25 78 26 79 27 19 28 20 29 21 30 22 31 23 32
REMARK SMILES IDX 24 33 25 34 26 35 27 36 73 37 28 38 72 39 29 40 30 41 31 42
REMARK SMILES IDX 66 43 32 44 71 45 65 46 67 47 33 48 70 49 64 50 63 51 34 53
REMARK SMILES IDX 56 54 41 55 55 56 42 57 45 58 54 59 68 60 43 61 44 62 53 64
REMARK SMILES IDX 69 65 46 66 35 67 36 68 40 69 37 70 39 71 38 72 57 73 58 74
REMARK SMILES IDX 62 75 59 76 61 77 60 78 47 79 48 80 52 81 49 82 51 83 50 84
REMARK H PARENT 67 52 45 63
REMARK Flexibility Score: inf
ROOT
ATOM      1  C   UNL A   1      30.281  29.680  23.830  1.00  0.00     0.188 C 
ENDROOT
BRANCH   1   2
ATOM      2  O   UNL A   1      29.852  28.616  22.989  1.00  0.00    -0.376 OA
BRANCH   2   3
ATOM      3  C   UNL A   1      28.898  27.674  23.469  1.00  0.00     0.202 C 
BRANCH   3   4
ATOM      4  C   UNL A   1      29.343  26.263  23.892  1.00  0.00     0.261 C 
BRANCH   4   5
ATOM      5  O   UNL A   1      30.546  26.236  24.674  1.00  0.00    -0.459 OA
BRANCH   5   6
ATOM      6  C   UNL A   1      30.738  25.128  25.422  1.00  0.00     0.354 C 
ATOM      7  O   UNL A   1      30.273  24.870  26.512  1.00  0.00    -0.245 OA
BRANCH   6   8
ATOM      8  C   UNL A   1      31.539  24.126  24.625  1.00  0.00     0.148 C 
ATOM      9  N   UNL A   1      32.327  22.281  23.941  1.00  0.00    -0.254 N 
ATOM     10  N   UNL A   1      31.431  22.842  24.804  1.00  0.00    -0.169 NA
ATOM     11  C   UNL A   1      33.259  23.279  23.371  1.00  0.00     0.180 C 
ATOM     12  C   UNL A   1      32.426  24.565  23.504  1.00  0.00     0.101 C 
BRANCH   9  13
ATOM     13  C   UNL A   1      32.593  20.921  24.028  1.00  0.00     0.060 A 
ATOM     14  C   UNL A   1      33.240  18.178  24.083  1.00  0.00     0.067 A 
ATOM     15  C   UNL A   1      32.435  18.679  23.058  1.00  0.00     0.022 A 
ATOM     16  C   UNL A   1      33.683  19.020  25.103  1.00  0.00     0.022 A 
ATOM     17  C   UNL A   1      32.113  20.044  23.042  1.00  0.00     0.029 A 
ATOM     18  C   UNL A   1      33.342  20.376  25.077  1.00  0.00     0.029 A 
BRANCH  14  19
ATOM     19  S   UNL A   1      33.775  16.482  24.060  1.00  0.00     0.175 S 
ATOM     20  C   UNL A   1      35.171  16.398  25.146  1.00  0.00     0.163 C 
ATOM     21  O   UNL A   1      34.258  16.196  22.721  1.00  0.00    -0.224 OA
ATOM     22  O   UNL A   1      32.697  15.704  24.641  1.00  0.00    -0.224 OA
ENDBRANCH  14  19
ENDBRANCH   9  13
BRANCH  11  23
ATOM     23  C   UNL A   1      34.608  23.435  24.019  1.00  0.00     0.128 A 
ATOM     24  C   UNL A   1      35.018  23.962  25.229  1.00  0.00     0.048 A 
ATOM     25  O   UNL A   1      35.696  22.958  23.341  1.00  0.00    -0.467 OA
ATOM     26  C   UNL A   1      36.426  23.815  25.278  1.00  0.00     0.042 A 
ATOM     27  C   UNL A   1      36.786  23.181  24.113  1.00  0.00     0.195 A 
ENDBRANCH  11  23
ENDBRANCH   6   8
ENDBRANCH   5   6
ENDBRANCH   4   5
ENDBRANCH   3   4
ENDBRANCH   2   3
ENDBRANCH   1   2
BRANCH   1  28
ATOM     28  C   UNL A   1      31.615  29.558  24.596  1.00  0.00     0.188 C 
BRANCH  28  29
ATOM     29  O   UNL A   1      31.480  29.248  25.961  1.00  0.00    -0.376 OA
BRANCH  29  30
ATOM     30  C   UNL A   1      31.944  30.175  26.930  1.00  0.00     0.202 C 
BRANCH  30  31
ATOM     31  C   UNL A   1      31.744  31.705  26.845  1.00  0.00     0.261 C 
BRANCH  31  32
ATOM     32  O   UNL A   1      32.900  32.540  26.721  1.00  0.00    -0.460 OA
BRANCH  32  33
ATOM     33  C   UNL A   1      33.125  33.423  27.727  1.00  0.00     0.338 C 
ATOM     34  O   UNL A   1      32.385  34.290  28.126  1.00  0.00    -0.246 OA
BRANCH  33  35
ATOM     35  C   UNL A   1      34.381  33.025  28.400  1.00  0.00     0.060 A 
ATOM     36  C   UNL A   1      35.605  33.335  27.790  1.00  0.00     0.016 A 
ATOM     37  C   UNL A   1      34.348  32.339  29.615  1.00  0.00     0.016 A 
ATOM     38  C   UNL A   1      36.802  32.944  28.390  1.00  0.00     0.010 A 
ATOM     39  C   UNL A   1      35.548  31.927  30.203  1.00  0.00     0.010 A 
ATOM     40  C   UNL A   1      36.779  32.204  29.579  1.00  0.00    -0.014 A 
BRANCH  40  41
ATOM     41  C   UNL A   1      38.023  31.576  30.086  1.00  0.00     0.031 A 
ATOM     42  C   UNL A   1      38.793  32.278  31.170  1.00  0.00     0.074 A 
ATOM     43  C   UNL A   1      38.460  30.400  29.603  1.00  0.00     0.049 A 
ATOM     44  N   UNL A   1      39.932  31.952  31.725  1.00  0.00    -0.248 NA
ATOM     45  C   UNL A   1      38.195  33.514  31.701  1.00  0.00     0.031 C 
ATOM     46  C   UNL A   1      37.781  29.592  28.591  1.00  0.00     0.029 A 
ATOM     47  N   UNL A   1      39.596  29.687  29.898  1.00  0.00    -0.354 N 
ATOM     48  C   UNL A   1      40.194  32.949  32.657  1.00  0.00     0.074 A 
ATOM     49  C   UNL A   1      39.109  33.902  32.577  1.00  0.00     0.031 C 
ATOM     50  C   UNL A   1      38.524  28.501  28.337  1.00  0.00     0.029 A 
ATOM     51  C   UNL A   1      39.745  28.553  29.139  1.00  0.00     0.049 A 
ATOM     52  H   UNL A   1      40.242  29.963  30.588  1.00  0.00     0.167 HD
ATOM     53  C   UNL A   1      41.243  33.060  33.505  1.00  0.00     0.031 A 
ATOM     54  C   UNL A   1      40.764  27.674  29.077  1.00  0.00     0.031 A 
ATOM     55  C   UNL A   1      42.334  32.126  33.569  1.00  0.00     0.049 A 
ATOM     56  C   UNL A   1      41.966  27.871  29.965  1.00  0.00     0.074 A 
ATOM     57  C   UNL A   1      43.437  32.144  34.407  1.00  0.00     0.029 A 
ATOM     58  N   UNL A   1      42.469  31.013  32.755  1.00  0.00    -0.354 N 
ATOM     59  N   UNL A   1      42.189  28.797  30.865  1.00  0.00    -0.248 NA
ATOM     60  C   UNL A   1      43.055  26.891  29.831  1.00  0.00     0.031 C 
ATOM     61  C   UNL A   1      44.270  31.078  34.055  1.00  0.00     0.029 A 
ATOM     62  C   UNL A   1      43.650  30.353  33.049  1.00  0.00     0.049 A 
ATOM     63  H   UNL A   1      41.821  30.733  32.069  1.00  0.00     0.167 HD
ATOM     64  C   UNL A   1      43.424  28.494  31.426  1.00  0.00     0.074 A 
ATOM     65  C   UNL A   1      43.895  27.289  30.776  1.00  0.00     0.031 C 
ATOM     66  C   UNL A   1      44.107  29.153  32.396  1.00  0.00     0.031 A 
BRANCH  53  67
ATOM     67  C   UNL A   1      41.281  34.265  34.404  1.00  0.00    -0.014 A 
ATOM     68  C   UNL A   1      40.716  34.240  35.689  1.00  0.00     0.009 A 
ATOM     69  C   UNL A   1      41.919  35.438  33.967  1.00  0.00     0.009 A 
ATOM     70  C   UNL A   1      40.758  35.374  36.502  1.00  0.00     0.001 A 
ATOM     71  C   UNL A   1      41.987  36.559  34.794  1.00  0.00     0.001 A 
ATOM     72  C   UNL A   1      41.399  36.530  36.057  1.00  0.00     0.000 A 
ENDBRANCH  53  67
BRANCH  54  73
ATOM     73  C   UNL A   1      40.714  26.534  28.122  1.00  0.00    -0.014 A 
ATOM     74  C   UNL A   1      41.082  26.708  26.778  1.00  0.00     0.009 A 
ATOM     75  C   UNL A   1      40.268  25.271  28.543  1.00  0.00     0.009 A 
ATOM     76  C   UNL A   1      40.978  25.649  25.873  1.00  0.00     0.001 A 
ATOM     77  C   UNL A   1      40.195  24.207  27.643  1.00  0.00     0.001 A 
ATOM     78  C   UNL A   1      40.540  24.398  26.307  1.00  0.00     0.000 A 
ENDBRANCH  54  73
BRANCH  66  79
ATOM     79  C   UNL A   1      45.413  28.559  32.852  1.00  0.00    -0.014 A 
ATOM     80  C   UNL A   1      45.469  27.603  33.878  1.00  0.00     0.009 A 
ATOM     81  C   UNL A   1      46.604  28.934  32.209  1.00  0.00     0.009 A 
ATOM     82  C   UNL A   1      46.695  27.063  34.274  1.00  0.00     0.001 A 
ATOM     83  C   UNL A   1      47.823  28.367  32.583  1.00  0.00     0.001 A 
ATOM     84  C   UNL A   1      47.869  27.441  33.623  1.00  0.00     0.000 A 
ENDBRANCH  66  79
ENDBRANCH  40  41
ENDBRANCH  33  35
ENDBRANCH  32  33
ENDBRANCH  31  32
ENDBRANCH  30  31
ENDBRANCH  29  30
ENDBRANCH  28  29
ENDBRANCH   1  28
TORSDOF 20
ENDMDL
MODEL 3
REMARK VINA RESULT:     -10.2      1.384      5.952
REMARK SMILES CS(=O)(=O)c1ccc(N2N=C(C(=O)OCCOCCOCCOC(=O)c3ccc(-c4c5nc(c(-c6ccccc6)c6ccc([nH]6)c(-c6ccccc6)c6nc(c(-c7ccccc7)c7ccc4[nH]7)C=C6)C=C5)cc3)C[C@H]2c2ccco2)cc1
REMARK SMILES IDX 18 1 17 2 16 3 15 4 14 5 12 6 13 7 11 8 9 9 10 10 75 11
REMARK SMILES IDX 74 12 8 13 5 14 6 15 82 16 7 17 81 18 2 19 1 20 3 21 4 22
REMARK SMILES IDX 76 23 77 24 80 25 78 26 79 27 19 28 20 29 21 30 22 31 23 32
REMARK SMILES IDX 24 33 25 34 26 35 27 36 73 37 28 38 72 39 29 40 30 41 31 42
REMARK SMILES IDX 66 43 32 44 71 45 65 46 67 47 33 48 70 49 64 50 63 51 34 53
REMARK SMILES IDX 56 54 41 55 55 56 42 57 45 58 54 59 68 60 43 61 44 62 53 64
REMARK SMILES IDX 69 65 46 66 35 67 36 68 40 69 37 70 39 71 38 72 57 73 58 74
REMARK SMILES IDX 62 75 59 76 61 77 60 78 47 79 48 80 52 81 49 82 51 83 50 84
REMARK H PARENT 67 52 45 63
REMARK Flexibility Score: inf
ROOT
ATOM      1  C   UNL A   1      34.130  28.251  25.995  1.00  0.00     0.188 C 
ENDROOT
BRANCH   1   2
ATOM      2  O   UNL A   1      32.954  28.474  25.225  1.00  0.00    -0.376 OA
BRANCH   2   3
ATOM      3  C   UNL A   1      31.922  27.493  25.207  1.00  0.00     0.202 C 
BRANCH   3   4
ATOM      4  C   UNL A   1      32.077  26.186  26.005  1.00  0.00     0.261 C 
BRANCH   4   5
ATOM      5  O   UNL A   1      30.970  25.282  25.873  1.00  0.00    -0.459 OA
BRANCH   5   6
ATOM      6  C   UNL A   1      30.501  25.106  24.619  1.00  0.00     0.354 C 
ATOM      7  O   UNL A   1      29.649  25.748  24.041  1.00  0.00    -0.245 OA
BRANCH   6   8
ATOM      8  C   UNL A   1      31.315  24.035  23.932  1.00  0.00     0.148 C 
ATOM      9  N   UNL A   1      32.115  22.135  23.440  1.00  0.00    -0.254 N 
ATOM     10  N   UNL A   1      31.207  22.773  24.233  1.00  0.00    -0.169 NA
ATOM     11  C   UNL A   1      33.052  23.076  22.786  1.00  0.00     0.180 C 
ATOM     12  C   UNL A   1      32.214  24.366  22.785  1.00  0.00     0.101 C 
BRANCH   9  13
ATOM     13  C   UNL A   1      32.383  20.790  23.661  1.00  0.00     0.060 A 
ATOM     14  C   UNL A   1      33.062  18.078  24.020  1.00  0.00     0.067 A 
ATOM     15  C   UNL A   1      32.543  18.505  22.797  1.00  0.00     0.022 A 
ATOM     16  C   UNL A   1      33.200  18.978  25.077  1.00  0.00     0.022 A 
ATOM     17  C   UNL A   1      32.202  19.856  22.628  1.00  0.00     0.029 A 
ATOM     18  C   UNL A   1      32.844  20.318  24.896  1.00  0.00     0.029 A 
BRANCH  14  19
ATOM     19  S   UNL A   1      33.626  16.404  24.223  1.00  0.00     0.175 S 
ATOM     20  C   UNL A   1      35.011  16.488  25.323  1.00  0.00     0.163 C 
ATOM     21  O   UNL A   1      34.130  15.956  22.936  1.00  0.00    -0.224 OA
ATOM     22  O   UNL A   1      32.556  15.688  24.890  1.00  0.00    -0.224 OA
ENDBRANCH  14  19
ENDBRANCH   9  13
BRANCH  11  23
ATOM     23  C   UNL A   1      34.392  23.299  23.432  1.00  0.00     0.128 A 
ATOM     24  C   UNL A   1      34.774  23.707  24.697  1.00  0.00     0.048 A 
ATOM     25  O   UNL A   1      35.507  23.040  22.684  1.00  0.00    -0.467 OA
ATOM     26  C   UNL A   1      36.191  23.716  24.708  1.00  0.00     0.042 A 
ATOM     27  C   UNL A   1      36.587  23.284  23.465  1.00  0.00     0.195 A 
ENDBRANCH  11  23
ENDBRANCH   6   8
ENDBRANCH   5   6
ENDBRANCH   4   5
ENDBRANCH   3   4
ENDBRANCH   2   3
ENDBRANCH   1   2
BRANCH   1  28
ATOM     28  C   UNL A   1      34.502  29.237  27.122  1.00  0.00     0.188 C 
BRANCH  28  29
ATOM     29  O   UNL A   1      34.128  30.571  26.879  1.00  0.00    -0.376 OA
BRANCH  29  30
ATOM     30  C   UNL A   1      32.811  30.990  27.201  1.00  0.00     0.202 C 
BRANCH  30  31
ATOM     31  C   UNL A   1      32.348  32.463  27.257  1.00  0.00     0.261 C 
BRANCH  31  32
ATOM     32  O   UNL A   1      33.336  33.483  27.439  1.00  0.00    -0.460 OA
BRANCH  32  33
ATOM     33  C   UNL A   1      33.384  34.076  28.660  1.00  0.00     0.338 C 
ATOM     34  O   UNL A   1      32.501  34.681  29.220  1.00  0.00    -0.246 OA
BRANCH  33  35
ATOM     35  C   UNL A   1      34.666  33.693  29.292  1.00  0.00     0.060 A 
ATOM     36  C   UNL A   1      35.864  34.154  28.729  1.00  0.00     0.016 A 
ATOM     37  C   UNL A   1      34.681  32.876  30.424  1.00  0.00     0.016 A 
ATOM     38  C   UNL A   1      37.086  33.783  29.290  1.00  0.00     0.010 A 
ATOM     39  C   UNL A   1      35.908  32.486  30.970  1.00  0.00     0.010 A 
ATOM     40  C   UNL A   1      37.116  32.915  30.389  1.00  0.00    -0.014 A 
BRANCH  40  41
ATOM     41  C   UNL A   1      38.401  32.323  30.831  1.00  0.00     0.031 A 
ATOM     42  C   UNL A   1      38.860  31.040  30.195  1.00  0.00     0.074 A 
ATOM     43  C   UNL A   1      39.158  32.915  31.772  1.00  0.00     0.049 A 
ATOM     44  N   UNL A   1      39.912  30.310  30.459  1.00  0.00    -0.248 NA
ATOM     45  C   UNL A   1      38.014  30.510  29.111  1.00  0.00     0.031 C 
ATOM     46  C   UNL A   1      38.855  34.186  32.429  1.00  0.00     0.029 A 
ATOM     47  N   UNL A   1      40.337  32.509  32.347  1.00  0.00    -0.354 N 
ATOM     48  C   UNL A   1      39.848  29.230  29.589  1.00  0.00     0.074 A 
ATOM     49  C   UNL A   1      38.643  29.386  28.805  1.00  0.00     0.031 C 
ATOM     50  C   UNL A   1      39.818  34.448  33.331  1.00  0.00     0.029 A 
ATOM     51  C   UNL A   1      40.780  33.348  33.340  1.00  0.00     0.049 A 
ATOM     52  H   UNL A   1      40.819  31.696  32.073  1.00  0.00     0.167 HD
ATOM     53  C   UNL A   1      40.716  28.199  29.452  1.00  0.00     0.031 A 
ATOM     54  C   UNL A   1      41.826  33.225  34.181  1.00  0.00     0.031 A 
ATOM     55  C   UNL A   1      41.903  28.031  30.247  1.00  0.00     0.049 A 
ATOM     56  C   UNL A   1      42.726  32.020  34.072  1.00  0.00     0.074 A 
ATOM     57  C   UNL A   1      42.854  27.027  30.173  1.00  0.00     0.029 A 
ATOM     58  N   UNL A   1      42.294  28.879  31.270  1.00  0.00    -0.354 N 
ATOM     59  N   UNL A   1      42.675  31.022  33.225  1.00  0.00    -0.248 NA
ATOM     60  C   UNL A   1      43.834  31.934  35.035  1.00  0.00     0.031 C 
ATOM     61  C   UNL A   1      43.786  27.234  31.195  1.00  0.00     0.029 A 
ATOM     62  C   UNL A   1      43.456  28.406  31.856  1.00  0.00     0.049 A 
ATOM     63  H   UNL A   1      41.816  29.696  31.541  1.00  0.00     0.167 HD
ATOM     64  C   UNL A   1      43.759  30.207  33.531  1.00  0.00     0.074 A 
ATOM     65  C   UNL A   1      44.459  30.838  34.631  1.00  0.00     0.031 C 
ATOM     66  C   UNL A   1      44.145  29.044  32.949  1.00  0.00     0.031 A 
BRANCH  53  67
ATOM     67  C   UNL A   1      40.385  27.147  28.430  1.00  0.00    -0.014 A 
ATOM     68  C   UNL A   1      40.867  27.227  27.114  1.00  0.00     0.009 A 
ATOM     69  C   UNL A   1      39.601  26.042  28.799  1.00  0.00     0.009 A 
ATOM     70  C   UNL A   1      40.541  26.240  26.180  1.00  0.00     0.001 A 
ATOM     71  C   UNL A   1      39.303  25.042  27.873  1.00  0.00     0.001 A 
ATOM     72  C   UNL A   1      39.765  25.146  26.562  1.00  0.00     0.000 A 
ENDBRANCH  53  67
BRANCH  54  73
ATOM     73  C   UNL A   1      42.074  34.257  35.224  1.00  0.00    -0.014 A 
ATOM     74  C   UNL A   1      42.901  35.359  34.959  1.00  0.00     0.009 A 
ATOM     75  C   UNL A   1      41.506  34.128  36.501  1.00  0.00     0.009 A 
ATOM     76  C   UNL A   1      43.176  36.294  35.960  1.00  0.00     0.001 A 
ATOM     77  C   UNL A   1      41.757  35.082  37.490  1.00  0.00     0.001 A 
ATOM     78  C   UNL A   1      42.600  36.158  37.222  1.00  0.00     0.000 A 
ENDBRANCH  54  73
BRANCH  66  79
ATOM     79  C   UNL A   1      45.406  28.398  33.456  1.00  0.00    -0.014 A 
ATOM     80  C   UNL A   1      45.381  27.433  34.475  1.00  0.00     0.009 A 
ATOM     81  C   UNL A   1      46.638  28.732  32.869  1.00  0.00     0.009 A 
ATOM     82  C   UNL A   1      46.568  26.844  34.919  1.00  0.00     0.001 A 
ATOM     83  C   UNL A   1      47.816  28.117  33.291  1.00  0.00     0.001 A 
ATOM     84  C   UNL A   1      47.782  27.182  34.323  1.00  0.00     0.000 A 
ENDBRANCH  66  79
ENDBRANCH  40  41
ENDBRANCH  33  35
ENDBRANCH  32  33
ENDBRANCH  31  32
ENDBRANCH  30  31
ENDBRANCH  29  30
ENDBRANCH  28  29
ENDBRANCH   1  28
TORSDOF 20
ENDMDL
