MODEL 1
REMARK VINA RESULT:      -9.5      0.000      0.000
REMARK SMILES CC[NH2+][C@@]1(C(=O)OCCOCCOCCOC(=O)c2ccc(-c3c4nc(c(-c5ccccc5)c5ccc([nH]5)c(-c5ccccc5)c5nc(c(-c6ccccc6)c6ccc3[nH]6)C=C5)C=C4)cc2)CCC[C@@H]([N@@H+](C)[C@@H](C)C2CC2)C1
REMARK SMILES IDX 11 1 10 2 9 3 8 4 7 5 5 6 6 7 4 8 67 9 78 10 68 11 70 12
REMARK SMILES IDX 69 13 3 14 2 17 1 18 71 19 72 20 73 22 74 23 75 24 76 25
REMARK SMILES IDX 77 26 12 27 13 28 14 29 15 30 16 31 17 32 18 33 19 34 20 35
REMARK SMILES IDX 66 36 21 37 65 38 22 39 23 40 24 41 59 42 25 43 64 44 58 45
REMARK SMILES IDX 60 46 26 47 63 48 57 49 56 50 27 52 49 53 34 54 48 55 35 56
REMARK SMILES IDX 38 57 47 58 61 59 36 60 37 61 46 63 62 64 39 65 28 66 29 67
REMARK SMILES IDX 33 68 30 69 32 70 31 71 50 72 51 73 55 74 52 75 54 76 53 77
REMARK SMILES IDX 40 78 41 79 45 80 42 81 44 82 43 83
REMARK H PARENT 3 15 3 16 71 21 60 51 38 62
REMARK Flexibility Score: inf
ROOT
ATOM      1  C   UNL A   1      39.775  21.761  26.376  1.00  0.00     0.188 C 
ENDROOT
BRANCH   1   2
ATOM      2  O   UNL A   1      38.664  21.776  25.488  1.00  0.00    -0.376 OA
BRANCH   2   3
ATOM      3  C   UNL A   1      37.464  22.374  25.974  1.00  0.00     0.202 C 
BRANCH   3   4
ATOM      4  C   UNL A   1      36.917  23.583  25.198  1.00  0.00     0.261 C 
BRANCH   4   5
ATOM      5  O   UNL A   1      35.602  23.396  24.636  1.00  0.00    -0.459 OA
BRANCH   5   6
ATOM      6  C   UNL A   1      34.624  24.169  25.184  1.00  0.00     0.368 C 
ATOM      7  O   UNL A   1      34.786  25.348  25.498  1.00  0.00    -0.245 OA
BRANCH   6   8
ATOM      8  C   UNL A   1      33.255  23.434  25.391  1.00  0.00     0.200 C 
ATOM      9  C   UNL A   1      33.031  23.457  26.919  1.00  0.00     0.081 C 
ATOM     10  C   UNL A   1      33.121  21.969  24.924  1.00  0.00     0.146 C 
ATOM     11  C   UNL A   1      34.062  22.566  27.624  1.00  0.00     0.013 C 
ATOM     12  C   UNL A   1      33.973  20.923  25.641  1.00  0.00     0.190 C 
ATOM     13  C   UNL A   1      33.958  21.107  27.176  1.00  0.00     0.065 C 
BRANCH   8  14
ATOM     14  N   UNL A   1      32.281  24.205  24.559  1.00  0.00    -0.332 N 
ATOM     15  H   UNL A   1      31.482  24.424  25.155  1.00  0.00     0.347 HD
ATOM     16  H   UNL A   1      32.818  25.002  24.219  1.00  0.00     0.347 HD
BRANCH  14  17
ATOM     17  C   UNL A   1      31.760  23.586  23.354  1.00  0.00     0.257 C 
ATOM     18  C   UNL A   1      30.332  24.077  23.127  1.00  0.00     0.071 C 
ENDBRANCH  14  17
ENDBRANCH   8  14
BRANCH  12  19
ATOM     19  N   UNL A   1      33.721  19.554  25.104  1.00  0.00    -0.332 N 
ATOM     20  C   UNL A   1      32.528  19.569  24.241  1.00  0.00     0.333 C 
ATOM     21  H   UNL A   1      33.619  19.054  25.988  1.00  0.00     0.348 HD
BRANCH  19  22
ATOM     22  C   UNL A   1      34.782  18.713  24.494  1.00  0.00     0.184 C 
ATOM     23  C   UNL A   1      36.236  19.170  24.627  1.00  0.00     0.075 C 
BRANCH  22  24
ATOM     24  C   UNL A   1      34.698  17.199  24.628  1.00  0.00     0.047 C 
ATOM     25  C   UNL A   1      33.529  16.339  25.055  1.00  0.00     0.010 C 
ATOM     26  C   UNL A   1      33.999  16.316  23.626  1.00  0.00     0.010 C 
ENDBRANCH  22  24
ENDBRANCH  19  22
ENDBRANCH  12  19
ENDBRANCH   6   8
ENDBRANCH   5   6
ENDBRANCH   4   5
ENDBRANCH   3   4
ENDBRANCH   2   3
ENDBRANCH   1   2
BRANCH   1  27
ATOM     27  C   UNL A   1      40.627  20.492  26.385  1.00  0.00     0.188 C 
BRANCH  27  28
ATOM     28  O   UNL A   1      41.989  20.659  26.763  1.00  0.00    -0.376 OA
BRANCH  28  29
ATOM     29  C   UNL A   1      42.948  20.301  25.759  1.00  0.00     0.202 C 
BRANCH  29  30
ATOM     30  C   UNL A   1      43.922  21.427  25.342  1.00  0.00     0.261 C 
BRANCH  30  31
ATOM     31  O   UNL A   1      43.283  22.636  24.876  1.00  0.00    -0.460 OA
BRANCH  31  32
ATOM     32  C   UNL A   1      43.989  23.786  24.972  1.00  0.00     0.338 C 
ATOM     33  O   UNL A   1      44.912  24.131  24.253  1.00  0.00    -0.246 OA
BRANCH  32  34
ATOM     34  C   UNL A   1      43.295  24.691  25.927  1.00  0.00     0.060 A 
ATOM     35  C   UNL A   1      43.740  26.019  26.018  1.00  0.00     0.016 A 
ATOM     36  C   UNL A   1      42.185  24.280  26.671  1.00  0.00     0.016 A 
ATOM     37  C   UNL A   1      43.111  26.918  26.885  1.00  0.00     0.010 A 
ATOM     38  C   UNL A   1      41.563  25.179  27.548  1.00  0.00     0.010 A 
ATOM     39  C   UNL A   1      42.044  26.493  27.686  1.00  0.00    -0.014 A 
BRANCH  39  40
ATOM     40  C   UNL A   1      41.569  27.351  28.804  1.00  0.00     0.031 A 
ATOM     41  C   UNL A   1      42.298  27.278  30.120  1.00  0.00     0.074 A 
ATOM     42  C   UNL A   1      40.534  28.200  28.668  1.00  0.00     0.049 A 
ATOM     43  N   UNL A   1      42.064  27.917  31.239  1.00  0.00    -0.248 NA
ATOM     44  C   UNL A   1      43.451  26.364  30.178  1.00  0.00     0.031 C 
ATOM     45  C   UNL A   1      39.761  28.414  27.448  1.00  0.00     0.029 A 
ATOM     46  N   UNL A   1      39.956  29.046  29.586  1.00  0.00    -0.354 N 
ATOM     47  C   UNL A   1      43.035  27.480  32.131  1.00  0.00     0.074 A 
ATOM     48  C   UNL A   1      43.841  26.500  31.436  1.00  0.00     0.031 C 
ATOM     49  C   UNL A   1      38.803  29.328  27.694  1.00  0.00     0.029 A 
ATOM     50  C   UNL A   1      38.878  29.741  29.095  1.00  0.00     0.049 A 
ATOM     51  H   UNL A   1      40.285  29.143  30.509  1.00  0.00     0.167 HD
ATOM     52  C   UNL A   1      43.248  27.859  33.414  1.00  0.00     0.031 A 
ATOM     53  C   UNL A   1      38.037  30.598  29.711  1.00  0.00     0.031 A 
ATOM     54  C   UNL A   1      42.446  28.815  34.127  1.00  0.00     0.049 A 
ATOM     55  C   UNL A   1      38.237  30.934  31.167  1.00  0.00     0.074 A 
ATOM     56  C   UNL A   1      42.598  29.267  35.426  1.00  0.00     0.029 A 
ATOM     57  N   UNL A   1      41.333  29.456  33.608  1.00  0.00    -0.354 N 
ATOM     58  N   UNL A   1      39.177  30.539  31.989  1.00  0.00    -0.248 NA
ATOM     59  C   UNL A   1      37.254  31.844  31.778  1.00  0.00     0.031 C 
ATOM     60  C   UNL A   1      41.542  30.139  35.712  1.00  0.00     0.029 A 
ATOM     61  C   UNL A   1      40.770  30.277  34.571  1.00  0.00     0.049 A 
ATOM     62  H   UNL A   1      40.993  29.344  32.690  1.00  0.00     0.167 HD
ATOM     63  C   UNL A   1      38.918  31.174  33.200  1.00  0.00     0.074 A 
ATOM     64  C   UNL A   1      37.741  31.991  33.002  1.00  0.00     0.031 C 
ATOM     65  C   UNL A   1      39.598  31.088  34.369  1.00  0.00     0.031 A 
BRANCH  52  66
ATOM     66  C   UNL A   1      44.385  27.202  34.142  1.00  0.00    -0.014 A 
ATOM     67  C   UNL A   1      45.671  27.766  34.147  1.00  0.00     0.009 A 
ATOM     68  C   UNL A   1      44.159  26.016  34.858  1.00  0.00     0.009 A 
ATOM     69  C   UNL A   1      46.716  27.136  34.825  1.00  0.00     0.001 A 
ATOM     70  C   UNL A   1      45.198  25.403  35.558  1.00  0.00     0.001 A 
ATOM     71  C   UNL A   1      46.477  25.959  35.534  1.00  0.00     0.000 A 
ENDBRANCH  52  66
BRANCH  53  72
ATOM     72  C   UNL A   1      36.898  31.194  28.962  1.00  0.00    -0.014 A 
ATOM     73  C   UNL A   1      36.888  32.559  28.635  1.00  0.00     0.009 A 
ATOM     74  C   UNL A   1      35.788  30.407  28.616  1.00  0.00     0.009 A 
ATOM     75  C   UNL A   1      35.781  33.128  28.001  1.00  0.00     0.001 A 
ATOM     76  C   UNL A   1      34.694  30.973  27.957  1.00  0.00     0.001 A 
ATOM     77  C   UNL A   1      34.687  32.335  27.659  1.00  0.00     0.000 A 
ENDBRANCH  53  72
BRANCH  65  78
ATOM     78  C   UNL A   1      39.113  31.927  35.520  1.00  0.00    -0.014 A 
ATOM     79  C   UNL A   1      39.444  33.286  35.627  1.00  0.00     0.009 A 
ATOM     80  C   UNL A   1      38.273  31.355  36.490  1.00  0.00     0.009 A 
ATOM     81  C   UNL A   1      38.972  34.046  36.700  1.00  0.00     0.001 A 
ATOM     82  C   UNL A   1      37.778  32.125  37.545  1.00  0.00     0.001 A 
ATOM     83  C   UNL A   1      38.136  33.467  37.654  1.00  0.00     0.000 A 
ENDBRANCH  65  78
ENDBRANCH  39  40
ENDBRANCH  32  34
ENDBRANCH  31  32
ENDBRANCH  30  31
ENDBRANCH  29  30
ENDBRANCH  28  29
ENDBRANCH  27  28
ENDBRANCH   1  27
TORSDOF 22
ENDMDL
MODEL 2
REMARK VINA RESULT:      -9.1      3.802      7.493
REMARK SMILES CC[NH2+][C@@]1(C(=O)OCCOCCOCCOC(=O)c2ccc(-c3c4nc(c(-c5ccccc5)c5ccc([nH]5)c(-c5ccccc5)c5nc(c(-c6ccccc6)c6ccc3[nH]6)C=C5)C=C4)cc2)CCC[C@@H]([N@@H+](C)[C@@H](C)C2CC2)C1
REMARK SMILES IDX 11 1 10 2 9 3 8 4 7 5 5 6 6 7 4 8 67 9 78 10 68 11 70 12
REMARK SMILES IDX 69 13 3 14 2 17 1 18 71 19 72 20 73 22 74 23 75 24 76 25
REMARK SMILES IDX 77 26 12 27 13 28 14 29 15 30 16 31 17 32 18 33 19 34 20 35
REMARK SMILES IDX 66 36 21 37 65 38 22 39 23 40 24 41 59 42 25 43 64 44 58 45
REMARK SMILES IDX 60 46 26 47 63 48 57 49 56 50 27 52 49 53 34 54 48 55 35 56
REMARK SMILES IDX 38 57 47 58 61 59 36 60 37 61 46 63 62 64 39 65 28 66 29 67
REMARK SMILES IDX 33 68 30 69 32 70 31 71 50 72 51 73 55 74 52 75 54 76 53 77
REMARK SMILES IDX 40 78 41 79 45 80 42 81 44 82 43 83
REMARK H PARENT 3 15 3 16 71 21 60 51 38 62
REMARK Flexibility Score: inf
ROOT
ATOM      1  C   UNL A   1      32.680  22.485  24.996  1.00  0.00     0.188 C 
ENDROOT
BRANCH   1   2
ATOM      2  O   UNL A   1      31.543  23.188  25.481  1.00  0.00    -0.376 OA
BRANCH   2   3
ATOM      3  C   UNL A   1      31.788  24.223  26.431  1.00  0.00     0.202 C 
BRANCH   3   4
ATOM      4  C   UNL A   1      32.184  25.602  25.880  1.00  0.00     0.261 C 
BRANCH   4   5
ATOM      5  O   UNL A   1      31.079  26.419  25.440  1.00  0.00    -0.459 OA
BRANCH   5   6
ATOM      6  C   UNL A   1      30.964  26.556  24.090  1.00  0.00     0.368 C 
ATOM      7  O   UNL A   1      30.870  25.604  23.316  1.00  0.00    -0.245 OA
BRANCH   6   8
ATOM      8  C   UNL A   1      30.963  28.041  23.587  1.00  0.00     0.200 C 
ATOM      9  C   UNL A   1      31.990  28.060  22.434  1.00  0.00     0.081 C 
ATOM     10  C   UNL A   1      31.353  29.160  24.575  1.00  0.00     0.146 C 
ATOM     11  C   UNL A   1      33.407  27.835  22.977  1.00  0.00     0.013 C 
ATOM     12  C   UNL A   1      32.790  29.170  25.092  1.00  0.00     0.190 C 
ATOM     13  C   UNL A   1      33.820  28.926  23.967  1.00  0.00     0.065 C 
BRANCH   8  14
ATOM     14  N   UNL A   1      29.539  28.316  23.220  1.00  0.00    -0.332 N 
ATOM     15  H   UNL A   1      29.375  27.889  22.308  1.00  0.00     0.347 HD
ATOM     16  H   UNL A   1      29.002  27.931  23.997  1.00  0.00     0.347 HD
BRANCH  14  17
ATOM     17  C   UNL A   1      29.102  29.697  23.133  1.00  0.00     0.257 C 
ATOM     18  C   UNL A   1      28.576  29.959  21.724  1.00  0.00     0.071 C 
ENDBRANCH  14  17
ENDBRANCH   8  14
BRANCH  12  19
ATOM     19  N   UNL A   1      33.029  30.318  26.014  1.00  0.00    -0.332 N 
ATOM     20  C   UNL A   1      31.745  30.933  26.389  1.00  0.00     0.333 C 
ATOM     21  H   UNL A   1      33.629  30.883  25.412  1.00  0.00     0.348 HD
BRANCH  19  22
ATOM     22  C   UNL A   1      33.921  30.237  27.200  1.00  0.00     0.184 C 
ATOM     23  C   UNL A   1      34.796  28.993  27.364  1.00  0.00     0.075 C 
BRANCH  22  24
ATOM     24  C   UNL A   1      34.690  31.475  27.638  1.00  0.00     0.047 C 
ATOM     25  C   UNL A   1      34.163  32.835  28.040  1.00  0.00     0.010 C 
ATOM     26  C   UNL A   1      34.779  31.931  29.071  1.00  0.00     0.010 C 
ENDBRANCH  22  24
ENDBRANCH  19  22
ENDBRANCH  12  19
ENDBRANCH   6   8
ENDBRANCH   5   6
ENDBRANCH   4   5
ENDBRANCH   3   4
ENDBRANCH   2   3
ENDBRANCH   1   2
BRANCH   1  27
ATOM     27  C   UNL A   1      32.913  21.084  25.563  1.00  0.00     0.188 C 
BRANCH  27  28
ATOM     28  O   UNL A   1      34.165  20.486  25.249  1.00  0.00    -0.376 OA
BRANCH  28  29
ATOM     29  C   UNL A   1      35.283  21.383  25.239  1.00  0.00     0.202 C 
BRANCH  29  30
ATOM     30  C   UNL A   1      36.673  20.713  25.329  1.00  0.00     0.261 C 
BRANCH  30  31
ATOM     31  O   UNL A   1      37.790  21.619  25.194  1.00  0.00    -0.460 OA
BRANCH  31  32
ATOM     32  C   UNL A   1      38.907  21.336  25.904  1.00  0.00     0.338 C 
ATOM     33  O   UNL A   1      39.521  20.282  25.898  1.00  0.00    -0.246 OA
BRANCH  32  34
ATOM     34  C   UNL A   1      39.426  22.598  26.495  1.00  0.00     0.060 A 
ATOM     35  C   UNL A   1      38.806  23.802  26.129  1.00  0.00     0.016 A 
ATOM     36  C   UNL A   1      40.454  22.609  27.444  1.00  0.00     0.016 A 
ATOM     37  C   UNL A   1      39.241  25.016  26.669  1.00  0.00     0.010 A 
ATOM     38  C   UNL A   1      40.896  23.828  27.977  1.00  0.00     0.010 A 
ATOM     39  C   UNL A   1      40.316  25.041  27.566  1.00  0.00    -0.014 A 
BRANCH  39  40
ATOM     40  C   UNL A   1      40.962  26.335  27.912  1.00  0.00     0.031 A 
ATOM     41  C   UNL A   1      42.327  26.627  27.346  1.00  0.00     0.074 A 
ATOM     42  C   UNL A   1      40.358  27.254  28.688  1.00  0.00     0.049 A 
ATOM     43  N   UNL A   1      43.092  27.675  27.515  1.00  0.00    -0.248 NA
ATOM     44  C   UNL A   1      42.902  25.596  26.466  1.00  0.00     0.031 C 
ATOM     45  C   UNL A   1      39.024  27.135  29.271  1.00  0.00     0.029 A 
ATOM     46  N   UNL A   1      40.806  28.481  29.119  1.00  0.00    -0.354 N 
ATOM     47  C   UNL A   1      44.237  27.429  26.767  1.00  0.00     0.074 A 
ATOM     48  C   UNL A   1      44.081  26.121  26.169  1.00  0.00     0.031 C 
ATOM     49  C   UNL A   1      38.763  28.242  29.990  1.00  0.00     0.029 A 
ATOM     50  C   UNL A   1      39.922  29.134  29.942  1.00  0.00     0.049 A 
ATOM     51  H   UNL A   1      41.679  28.856  28.861  1.00  0.00     0.167 HD
ATOM     52  C   UNL A   1      45.322  28.219  26.584  1.00  0.00     0.031 A 
ATOM     53  C   UNL A   1      40.041  30.308  30.597  1.00  0.00     0.031 A 
ATOM     54  C   UNL A   1      45.503  29.511  27.185  1.00  0.00     0.049 A 
ATOM     55  C   UNL A   1      41.298  31.127  30.453  1.00  0.00     0.074 A 
ATOM     56  C   UNL A   1      46.568  30.384  27.044  1.00  0.00     0.029 A 
ATOM     57  N   UNL A   1      44.606  30.112  28.053  1.00  0.00    -0.354 N 
ATOM     58  N   UNL A   1      42.359  30.897  29.717  1.00  0.00    -0.248 NA
ATOM     59  C   UNL A   1      41.370  32.375  31.230  1.00  0.00     0.031 C 
ATOM     60  C   UNL A   1      46.341  31.489  27.872  1.00  0.00     0.029 A 
ATOM     61  C   UNL A   1      45.106  31.330  28.480  1.00  0.00     0.049 A 
ATOM     62  H   UNL A   1      43.741  29.728  28.325  1.00  0.00     0.167 HD
ATOM     63  C   UNL A   1      43.206  31.983  29.919  1.00  0.00     0.074 A 
ATOM     64  C   UNL A   1      42.531  32.878  30.835  1.00  0.00     0.031 C 
ATOM     65  C   UNL A   1      44.432  32.217  29.391  1.00  0.00     0.031 A 
BRANCH  52  66
ATOM     66  C   UNL A   1      46.422  27.678  25.716  1.00  0.00    -0.014 A 
ATOM     67  C   UNL A   1      46.487  27.984  24.346  1.00  0.00     0.009 A 
ATOM     68  C   UNL A   1      47.424  26.875  26.282  1.00  0.00     0.009 A 
ATOM     69  C   UNL A   1      47.514  27.467  23.555  1.00  0.00     0.001 A 
ATOM     70  C   UNL A   1      48.465  26.383  25.495  1.00  0.00     0.001 A 
ATOM     71  C   UNL A   1      48.505  26.671  24.132  1.00  0.00     0.000 A 
ENDBRANCH  52  66
BRANCH  53  72
ATOM     72  C   UNL A   1      38.943  30.786  31.481  1.00  0.00    -0.014 A 
ATOM     73  C   UNL A   1      37.976  31.685  31.004  1.00  0.00     0.009 A 
ATOM     74  C   UNL A   1      38.889  30.383  32.824  1.00  0.00     0.009 A 
ATOM     75  C   UNL A   1      36.995  32.189  31.860  1.00  0.00     0.001 A 
ATOM     76  C   UNL A   1      37.889  30.867  33.671  1.00  0.00     0.001 A 
ATOM     77  C   UNL A   1      36.949  31.777  33.191  1.00  0.00     0.000 A 
ENDBRANCH  53  72
BRANCH  65  78
ATOM     78  C   UNL A   1      45.113  33.508  29.755  1.00  0.00    -0.014 A 
ATOM     79  C   UNL A   1      44.907  34.680  29.011  1.00  0.00     0.009 A 
ATOM     80  C   UNL A   1      45.940  33.561  30.889  1.00  0.00     0.009 A 
ATOM     81  C   UNL A   1      45.543  35.870  29.377  1.00  0.00     0.001 A 
ATOM     82  C   UNL A   1      46.550  34.758  31.268  1.00  0.00     0.001 A 
ATOM     83  C   UNL A   1      46.358  35.909  30.506  1.00  0.00     0.000 A 
ENDBRANCH  65  78
ENDBRANCH  39  40
ENDBRANCH  32  34
ENDBRANCH  31  32
ENDBRANCH  30  31
ENDBRANCH  29  30
ENDBRANCH  28  29
ENDBRANCH  27  28
ENDBRANCH   1  27
TORSDOF 22
ENDMDL
MODEL 3
REMARK VINA RESULT:      -8.6      3.531      8.653
REMARK SMILES CC[NH2+][C@@]1(C(=O)OCCOCCOCCOC(=O)c2ccc(-c3c4nc(c(-c5ccccc5)c5ccc([nH]5)c(-c5ccccc5)c5nc(c(-c6ccccc6)c6ccc3[nH]6)C=C5)C=C4)cc2)CCC[C@@H]([N@@H+](C)[C@@H](C)C2CC2)C1
REMARK SMILES IDX 11 1 10 2 9 3 8 4 7 5 5 6 6 7 4 8 67 9 78 10 68 11 70 12
REMARK SMILES IDX 69 13 3 14 2 17 1 18 71 19 72 20 73 22 74 23 75 24 76 25
REMARK SMILES IDX 77 26 12 27 13 28 14 29 15 30 16 31 17 32 18 33 19 34 20 35
REMARK SMILES IDX 66 36 21 37 65 38 22 39 23 40 24 41 59 42 25 43 64 44 58 45
REMARK SMILES IDX 60 46 26 47 63 48 57 49 56 50 27 52 49 53 34 54 48 55 35 56
REMARK SMILES IDX 38 57 47 58 61 59 36 60 37 61 46 63 62 64 39 65 28 66 29 67
REMARK SMILES IDX 33 68 30 69 32 70 31 71 50 72 51 73 55 74 52 75 54 76 53 77
REMARK SMILES IDX 40 78 41 79 45 80 42 81 44 82 43 83
REMARK H PARENT 3 15 3 16 71 21 60 51 38 62
REMARK Flexibility Score: inf
ROOT
ATOM      1  C   UNL A   1      32.400  27.283  26.440  1.00  0.00     0.188 C 
ENDROOT
BRANCH   1   2
ATOM      2  O   UNL A   1      31.074  26.898  26.779  1.00  0.00    -0.376 OA
BRANCH   2   3
ATOM      3  C   UNL A   1      30.471  25.895  25.964  1.00  0.00     0.202 C 
BRANCH   3   4
ATOM      4  C   UNL A   1      30.700  24.430  26.368  1.00  0.00     0.261 C 
BRANCH   4   5
ATOM      5  O   UNL A   1      31.922  23.848  25.869  1.00  0.00    -0.459 OA
BRANCH   5   6
ATOM      6  C   UNL A   1      31.775  22.655  25.229  1.00  0.00     0.368 C 
ATOM      7  O   UNL A   1      31.175  21.695  25.711  1.00  0.00    -0.245 OA
BRANCH   6   8
ATOM      8  C   UNL A   1      32.440  22.593  23.810  1.00  0.00     0.200 C 
ATOM      9  C   UNL A   1      33.911  22.213  24.087  1.00  0.00     0.081 C 
ATOM     10  C   UNL A   1      32.446  23.866  22.937  1.00  0.00     0.146 C 
ATOM     11  C   UNL A   1      34.633  23.360  24.805  1.00  0.00     0.013 C 
ATOM     12  C   UNL A   1      33.258  25.058  23.440  1.00  0.00     0.190 C 
ATOM     13  C   UNL A   1      34.649  24.639  23.967  1.00  0.00     0.065 C 
BRANCH   8  14
ATOM     14  N   UNL A   1      31.621  21.597  23.051  1.00  0.00    -0.332 N 
ATOM     15  H   UNL A   1      30.900  21.255  23.687  1.00  0.00     0.347 HD
ATOM     16  H   UNL A   1      31.292  22.113  22.236  1.00  0.00     0.347 HD
BRANCH  14  17
ATOM     17  C   UNL A   1      32.288  20.436  22.494  1.00  0.00     0.257 C 
ATOM     18  C   UNL A   1      32.286  19.319  23.535  1.00  0.00     0.071 C 
ENDBRANCH  14  17
ENDBRANCH   8  14
BRANCH  12  19
ATOM     19  N   UNL A   1      33.193  26.203  22.486  1.00  0.00    -0.332 N 
ATOM     20  C   UNL A   1      32.709  25.734  21.176  1.00  0.00     0.333 C 
ATOM     21  H   UNL A   1      34.171  26.490  22.517  1.00  0.00     0.348 HD
BRANCH  19  22
ATOM     22  C   UNL A   1      32.568  27.508  22.823  1.00  0.00     0.184 C 
ATOM     23  C   UNL A   1      33.443  28.762  22.783  1.00  0.00     0.075 C 
BRANCH  22  24
ATOM     24  C   UNL A   1      31.178  27.825  22.291  1.00  0.00     0.047 C 
ATOM     25  C   UNL A   1      29.855  27.849  23.024  1.00  0.00     0.010 C 
ATOM     26  C   UNL A   1      30.473  29.133  22.544  1.00  0.00     0.010 C 
ENDBRANCH  22  24
ENDBRANCH  19  22
ENDBRANCH  12  19
ENDBRANCH   6   8
ENDBRANCH   5   6
ENDBRANCH   4   5
ENDBRANCH   3   4
ENDBRANCH   2   3
ENDBRANCH   1   2
BRANCH   1  27
ATOM     27  C   UNL A   1      32.817  28.705  26.814  1.00  0.00     0.188 C 
BRANCH  27  28
ATOM     28  O   UNL A   1      31.757  29.604  27.120  1.00  0.00    -0.376 OA
BRANCH  28  29
ATOM     29  C   UNL A   1      31.916  30.932  26.602  1.00  0.00     0.202 C 
BRANCH  29  30
ATOM     30  C   UNL A   1      32.826  31.864  27.435  1.00  0.00     0.261 C 
BRANCH  30  31
ATOM     31  O   UNL A   1      32.399  33.244  27.475  1.00  0.00    -0.460 OA
BRANCH  31  32
ATOM     32  C   UNL A   1      33.044  34.067  28.335  1.00  0.00     0.338 C 
ATOM     33  O   UNL A   1      32.564  35.025  28.919  1.00  0.00    -0.246 OA
BRANCH  32  34
ATOM     34  C   UNL A   1      34.364  33.466  28.667  1.00  0.00     0.060 A 
ATOM     35  C   UNL A   1      34.439  32.615  29.781  1.00  0.00     0.016 A 
ATOM     36  C   UNL A   1      35.496  33.668  27.872  1.00  0.00     0.016 A 
ATOM     37  C   UNL A   1      35.650  32.008  30.127  1.00  0.00     0.010 A 
ATOM     38  C   UNL A   1      36.712  33.068  28.227  1.00  0.00     0.010 A 
ATOM     39  C   UNL A   1      36.804  32.263  29.376  1.00  0.00    -0.014 A 
BRANCH  39  40
ATOM     40  C   UNL A   1      38.135  31.859  29.903  1.00  0.00     0.031 A 
ATOM     41  C   UNL A   1      38.722  30.553  29.437  1.00  0.00     0.074 A 
ATOM     42  C   UNL A   1      38.835  32.632  30.754  1.00  0.00     0.049 A 
ATOM     43  N   UNL A   1      39.855  29.984  29.764  1.00  0.00    -0.248 NA
ATOM     44  C   UNL A   1      37.921  29.787  28.467  1.00  0.00     0.031 C 
ATOM     45  C   UNL A   1      38.420  33.939  31.258  1.00  0.00     0.029 A 
ATOM     46  N   UNL A   1      40.056  32.413  31.348  1.00  0.00    -0.354 N 
ATOM     47  C   UNL A   1      39.901  28.797  29.045  1.00  0.00     0.074 A 
ATOM     48  C   UNL A   1      38.670  28.709  28.289  1.00  0.00     0.031 C 
ATOM     49  C   UNL A   1      39.369  34.404  32.092  1.00  0.00     0.029 A 
ATOM     50  C   UNL A   1      40.443  33.417  32.202  1.00  0.00     0.049 A 
ATOM     51  H   UNL A   1      40.602  31.612  31.176  1.00  0.00     0.167 HD
ATOM     52  C   UNL A   1      40.878  27.860  29.006  1.00  0.00     0.031 A 
ATOM     53  C   UNL A   1      41.529  33.518  32.996  1.00  0.00     0.031 A 
ATOM     54  C   UNL A   1      42.097  27.920  29.764  1.00  0.00     0.049 A 
ATOM     55  C   UNL A   1      42.559  32.418  33.008  1.00  0.00     0.074 A 
ATOM     56  C   UNL A   1      43.149  27.019  29.776  1.00  0.00     0.029 A 
ATOM     57  N   UNL A   1      42.425  28.928  30.656  1.00  0.00    -0.354 N 
ATOM     58  N   UNL A   1      42.606  31.317  32.299  1.00  0.00    -0.248 NA
ATOM     59  C   UNL A   1      43.694  32.582  33.931  1.00  0.00     0.031 C 
ATOM     60  C   UNL A   1      44.087  27.454  30.719  1.00  0.00     0.029 A 
ATOM     61  C   UNL A   1      43.647  28.656  31.247  1.00  0.00     0.049 A 
ATOM     62  H   UNL A   1      41.870  29.720  30.841  1.00  0.00     0.167 HD
ATOM     63  C   UNL A   1      43.785  30.675  32.667  1.00  0.00     0.074 A 
ATOM     64  C   UNL A   1      44.432  31.516  33.651  1.00  0.00     0.031 C 
ATOM     65  C   UNL A   1      44.286  29.496  32.225  1.00  0.00     0.031 A 
BRANCH  52  66
ATOM     66  C   UNL A   1      40.644  26.662  28.130  1.00  0.00    -0.014 A 
ATOM     67  C   UNL A   1      39.952  25.536  28.605  1.00  0.00     0.009 A 
ATOM     68  C   UNL A   1      41.099  26.673  26.802  1.00  0.00     0.009 A 
ATOM     69  C   UNL A   1      39.751  24.431  27.776  1.00  0.00     0.001 A 
ATOM     70  C   UNL A   1      40.872  25.579  25.968  1.00  0.00     0.001 A 
ATOM     71  C   UNL A   1      40.206  24.456  26.458  1.00  0.00     0.000 A 
ENDBRANCH  52  66
BRANCH  53  72
ATOM     72  C   UNL A   1      41.700  34.703  33.881  1.00  0.00    -0.014 A 
ATOM     73  C   UNL A   1      42.451  35.811  33.460  1.00  0.00     0.009 A 
ATOM     74  C   UNL A   1      41.154  34.707  35.174  1.00  0.00     0.009 A 
ATOM     75  C   UNL A   1      42.673  36.886  34.323  1.00  0.00     0.001 A 
ATOM     76  C   UNL A   1      41.354  35.796  36.025  1.00  0.00     0.001 A 
ATOM     77  C   UNL A   1      42.121  36.880  35.603  1.00  0.00     0.000 A 
ENDBRANCH  53  72
BRANCH  65  78
ATOM     78  C   UNL A   1      45.618  29.057  32.771  1.00  0.00    -0.014 A 
ATOM     79  C   UNL A   1      46.822  29.433  32.155  1.00  0.00     0.009 A 
ATOM     80  C   UNL A   1      45.669  28.293  33.948  1.00  0.00     0.009 A 
ATOM     81  C   UNL A   1      48.047  29.021  32.687  1.00  0.00     0.001 A 
ATOM     82  C   UNL A   1      46.895  27.909  34.494  1.00  0.00     0.001 A 
ATOM     83  C   UNL A   1      48.082  28.265  33.858  1.00  0.00     0.000 A 
ENDBRANCH  65  78
ENDBRANCH  39  40
ENDBRANCH  32  34
ENDBRANCH  31  32
ENDBRANCH  30  31
ENDBRANCH  29  30
ENDBRANCH  28  29
ENDBRANCH  27  28
ENDBRANCH   1  27
TORSDOF 22
ENDMDL
