MODEL 1
REMARK VINA RESULT:     -10.9      0.000      0.000
REMARK SMILES Cc1cccc(-n2c(C)cc(/C=N\c3ccc(O)c(C(=O)OCCOCCOCCOC(=O)c4ccc(-c5c6nc(c(-c7ccccc7)c7ccc([nH]7)c(-c7ccccc7)c7nc(c(-c8ccccc8)c8ccc5[nH]8)C=C7)C=C6)cc4)c3)c2C)c1
REMARK SMILES IDX 26 1 25 2 24 3 23 4 22 5 20 6 21 7 19 8 14 9 15 10 82 11
REMARK SMILES IDX 16 12 17 13 13 14 12 15 11 16 7 17 8 18 83 19 9 20 10 21
REMARK SMILES IDX 84 22 6 23 1 24 2 25 3 26 85 27 4 28 5 29 18 30 27 32 28 33
REMARK SMILES IDX 29 34 30 35 31 36 32 37 33 38 34 39 35 40 81 41 36 42 80 43
REMARK SMILES IDX 37 44 38 45 39 46 74 47 40 48 79 49 73 50 75 51 41 52 78 53
REMARK SMILES IDX 72 54 71 55 42 57 64 58 49 59 63 60 50 61 53 62 62 63 76 64
REMARK SMILES IDX 51 65 52 66 61 68 77 69 54 70 43 71 44 72 48 73 45 74 47 75
REMARK SMILES IDX 46 76 65 77 66 78 70 79 67 80 69 81 68 82 55 83 56 84 60 85
REMARK SMILES IDX 57 86 59 87 58 88
REMARK H PARENT 18 31 75 56 53 67
REMARK Flexibility Score: inf
ROOT
ATOM      1  C   UNL A   1      32.578  20.364  24.433  1.00  0.00     0.188 C 
ENDROOT
BRANCH   1   2
ATOM      2  O   UNL A   1      32.133  21.605  23.873  1.00  0.00    -0.376 OA
BRANCH   2   3
ATOM      3  C   UNL A   1      32.699  22.169  22.676  1.00  0.00     0.202 C 
BRANCH   3   4
ATOM      4  C   UNL A   1      34.102  22.983  22.564  1.00  0.00     0.261 C 
BRANCH   4   5
ATOM      5  O   UNL A   1      34.241  24.428  23.001  1.00  0.00    -0.460 OA
BRANCH   5   6
ATOM      6  C   UNL A   1      33.613  25.628  22.748  1.00  0.00     0.342 C 
ATOM      7  O   UNL A   1      33.681  26.132  21.629  1.00  0.00    -0.246 OA
BRANCH   6   8
ATOM      8  C   UNL A   1      32.786  26.484  23.962  1.00  0.00     0.103 A 
ATOM      9  C   UNL A   1      31.954  28.539  25.365  1.00  0.00     0.064 A 
ATOM     10  C   UNL A   1      31.475  27.657  26.303  1.00  0.00     0.032 A 
ATOM     11  C   UNL A   1      32.516  27.919  24.202  1.00  0.00     0.048 A 
ATOM     12  C   UNL A   1      31.664  26.270  26.128  1.00  0.00     0.049 A 
ATOM     13  C   UNL A   1      32.335  25.705  25.017  1.00  0.00     0.130 A 
BRANCH   9  14
ATOM     14  N   UNL A   1      31.709  29.942  25.456  1.00  0.00    -0.256 NA
ATOM     15  C   UNL A   1      32.226  30.879  26.220  1.00  0.00     0.121 C 
BRANCH  15  16
ATOM     16  C   UNL A   1      33.372  30.918  27.149  1.00  0.00     0.014 A 
ATOM     17  N   UNL A   1      34.849  31.715  28.692  1.00  0.00    -0.318 N 
ATOM     18  C   UNL A   1      35.189  30.397  28.479  1.00  0.00     0.021 A 
ATOM     19  C   UNL A   1      33.711  31.975  27.962  1.00  0.00     0.029 A 
ATOM     20  C   UNL A   1      36.331  29.759  29.192  1.00  0.00     0.065 C 
ATOM     21  C   UNL A   1      34.254  29.870  27.584  1.00  0.00     0.033 A 
ATOM     22  C   UNL A   1      33.030  33.252  28.013  1.00  0.00     0.065 C 
BRANCH  17  23
ATOM     23  C   UNL A   1      35.601  32.741  29.334  1.00  0.00     0.046 A 
ATOM     24  C   UNL A   1      36.543  33.428  32.951  1.00  0.00     0.044 C 
ATOM     25  C   UNL A   1      36.575  33.385  31.452  1.00  0.00    -0.049 A 
ATOM     26  C   UNL A   1      37.706  33.860  30.771  1.00  0.00     0.003 A 
ATOM     27  C   UNL A   1      35.515  32.821  30.727  1.00  0.00     0.030 A 
ATOM     28  C   UNL A   1      37.754  33.847  29.378  1.00  0.00     0.002 A 
ATOM     29  C   UNL A   1      36.685  33.319  28.656  1.00  0.00     0.026 A 
ENDBRANCH  17  23
ENDBRANCH  15  16
ENDBRANCH   9  14
BRANCH  13  30
ATOM     30  O   UNL A   1      32.521  24.350  25.065  1.00  0.00    -0.507 OA
ATOM     31  H   UNL A   1      33.197  23.987  25.604  1.00  0.00     0.293 HD
ENDBRANCH  13  30
ENDBRANCH   6   8
ENDBRANCH   5   6
ENDBRANCH   4   5
ENDBRANCH   3   4
ENDBRANCH   2   3
ENDBRANCH   1   2
BRANCH   1  32
ATOM     32  C   UNL A   1      33.691  20.263  25.443  1.00  0.00     0.188 C 
BRANCH  32  33
ATOM     33  O   UNL A   1      34.929  20.292  24.763  1.00  0.00    -0.376 OA
BRANCH  33  34
ATOM     34  C   UNL A   1      35.884  21.184  25.306  1.00  0.00     0.202 C 
BRANCH  34  35
ATOM     35  C   UNL A   1      37.345  20.778  25.020  1.00  0.00     0.261 C 
BRANCH  35  36
ATOM     36  O   UNL A   1      38.241  21.908  25.202  1.00  0.00    -0.460 OA
BRANCH  36  37
ATOM     37  C   UNL A   1      39.344  21.753  26.001  1.00  0.00     0.338 C 
ATOM     38  O   UNL A   1      40.030  20.732  26.045  1.00  0.00    -0.246 OA
BRANCH  37  39
ATOM     39  C   UNL A   1      39.457  22.895  26.974  1.00  0.00     0.060 A 
ATOM     40  C   UNL A   1      38.865  24.165  26.850  1.00  0.00     0.016 A 
ATOM     41  C   UNL A   1      40.509  22.818  27.827  1.00  0.00     0.016 A 
ATOM     42  C   UNL A   1      39.477  25.359  27.427  1.00  0.00     0.010 A 
ATOM     43  C   UNL A   1      41.212  24.001  28.027  1.00  0.00     0.010 A 
ATOM     44  C   UNL A   1      40.766  25.345  27.974  1.00  0.00    -0.014 A 
BRANCH  44  45
ATOM     45  C   UNL A   1      41.714  26.617  28.384  1.00  0.00     0.031 A 
ATOM     46  C   UNL A   1      41.358  28.128  28.883  1.00  0.00     0.074 A 
ATOM     47  C   UNL A   1      42.988  26.295  28.705  1.00  0.00     0.049 A 
ATOM     48  N   UNL A   1      42.009  28.770  29.819  1.00  0.00    -0.248 NA
ATOM     49  C   UNL A   1      40.234  29.010  28.544  1.00  0.00     0.031 C 
ATOM     50  C   UNL A   1      43.998  26.995  29.511  1.00  0.00     0.029 A 
ATOM     51  N   UNL A   1      43.712  25.201  28.249  1.00  0.00    -0.354 N 
ATOM     52  C   UNL A   1      41.340  29.918  30.215  1.00  0.00     0.074 A 
ATOM     53  C   UNL A   1      40.168  29.995  29.436  1.00  0.00     0.031 C 
ATOM     54  C   UNL A   1      45.220  26.560  29.159  1.00  0.00     0.029 A 
ATOM     55  C   UNL A   1      45.021  25.667  28.038  1.00  0.00     0.049 A 
ATOM     56  H   UNL A   1      43.378  24.287  28.103  1.00  0.00     0.167 HD
ATOM     57  C   UNL A   1      41.925  30.891  30.954  1.00  0.00     0.031 A 
ATOM     58  C   UNL A   1      45.405  25.839  26.745  1.00  0.00     0.031 A 
ATOM     59  C   UNL A   1      43.344  30.850  30.658  1.00  0.00     0.049 A 
ATOM     60  C   UNL A   1      45.531  27.327  26.458  1.00  0.00     0.074 A 
ATOM     61  C   UNL A   1      44.475  30.333  31.250  1.00  0.00     0.029 A 
ATOM     62  N   UNL A   1      43.659  31.025  29.315  1.00  0.00    -0.354 N 
ATOM     63  N   UNL A   1      45.144  28.265  27.291  1.00  0.00    -0.248 NA
ATOM     64  C   UNL A   1      46.130  27.898  25.262  1.00  0.00     0.031 C 
ATOM     65  C   UNL A   1      45.439  30.117  30.202  1.00  0.00     0.029 A 
ATOM     66  C   UNL A   1      44.909  30.549  28.993  1.00  0.00     0.049 A 
ATOM     67  H   UNL A   1      43.052  31.445  28.663  1.00  0.00     0.167 HD
ATOM     68  C   UNL A   1      45.501  29.497  26.847  1.00  0.00     0.074 A 
ATOM     69  C   UNL A   1      46.045  29.220  25.522  1.00  0.00     0.031 C 
ATOM     70  C   UNL A   1      45.348  30.636  27.596  1.00  0.00     0.031 A 
BRANCH  57  71
ATOM     71  C   UNL A   1      41.199  31.934  31.777  1.00  0.00    -0.014 A 
ATOM     72  C   UNL A   1      41.402  33.293  31.481  1.00  0.00     0.009 A 
ATOM     73  C   UNL A   1      40.441  31.671  32.942  1.00  0.00     0.009 A 
ATOM     74  C   UNL A   1      40.897  34.321  32.298  1.00  0.00     0.001 A 
ATOM     75  C   UNL A   1      39.902  32.695  33.742  1.00  0.00     0.001 A 
ATOM     76  C   UNL A   1      40.143  34.024  33.428  1.00  0.00     0.000 A 
ENDBRANCH  57  71
BRANCH  58  77
ATOM     77  C   UNL A   1      44.918  24.666  25.920  1.00  0.00    -0.014 A 
ATOM     78  C   UNL A   1      45.547  23.413  26.198  1.00  0.00     0.009 A 
ATOM     79  C   UNL A   1      43.677  24.614  25.276  1.00  0.00     0.009 A 
ATOM     80  C   UNL A   1      44.883  22.190  26.040  1.00  0.00     0.001 A 
ATOM     81  C   UNL A   1      43.050  23.368  25.035  1.00  0.00     0.001 A 
ATOM     82  C   UNL A   1      43.618  22.170  25.477  1.00  0.00     0.000 A 
ENDBRANCH  58  77
BRANCH  70  83
ATOM     83  C   UNL A   1      45.570  31.999  26.998  1.00  0.00    -0.014 A 
ATOM     84  C   UNL A   1      46.839  32.577  26.908  1.00  0.00     0.009 A 
ATOM     85  C   UNL A   1      44.485  32.763  26.519  1.00  0.00     0.009 A 
ATOM     86  C   UNL A   1      47.029  33.787  26.235  1.00  0.00     0.001 A 
ATOM     87  C   UNL A   1      44.664  33.991  25.886  1.00  0.00     0.001 A 
ATOM     88  C   UNL A   1      45.945  34.486  25.712  1.00  0.00     0.000 A 
ENDBRANCH  70  83
ENDBRANCH  44  45
ENDBRANCH  37  39
ENDBRANCH  36  37
ENDBRANCH  35  36
ENDBRANCH  34  35
ENDBRANCH  33  34
ENDBRANCH  32  33
ENDBRANCH   1  32
TORSDOF 21
ENDMDL
MODEL 2
REMARK VINA RESULT:     -10.5      1.788      3.189
REMARK SMILES Cc1cccc(-n2c(C)cc(/C=N\c3ccc(O)c(C(=O)OCCOCCOCCOC(=O)c4ccc(-c5c6nc(c(-c7ccccc7)c7ccc([nH]7)c(-c7ccccc7)c7nc(c(-c8ccccc8)c8ccc5[nH]8)C=C7)C=C6)cc4)c3)c2C)c1
REMARK SMILES IDX 26 1 25 2 24 3 23 4 22 5 20 6 21 7 19 8 14 9 15 10 82 11
REMARK SMILES IDX 16 12 17 13 13 14 12 15 11 16 7 17 8 18 83 19 9 20 10 21
REMARK SMILES IDX 84 22 6 23 1 24 2 25 3 26 85 27 4 28 5 29 18 30 27 32 28 33
REMARK SMILES IDX 29 34 30 35 31 36 32 37 33 38 34 39 35 40 81 41 36 42 80 43
REMARK SMILES IDX 37 44 38 45 39 46 74 47 40 48 79 49 73 50 75 51 41 52 78 53
REMARK SMILES IDX 72 54 71 55 42 57 64 58 49 59 63 60 50 61 53 62 62 63 76 64
REMARK SMILES IDX 51 65 52 66 61 68 77 69 54 70 43 71 44 72 48 73 45 74 47 75
REMARK SMILES IDX 46 76 65 77 66 78 70 79 67 80 69 81 68 82 55 83 56 84 60 85
REMARK SMILES IDX 57 86 59 87 58 88
REMARK H PARENT 18 31 75 56 53 67
REMARK Flexibility Score: inf
ROOT
ATOM      1  C   UNL A   1      35.411  20.698  25.312  1.00  0.00     0.188 C 
ENDROOT
BRANCH   1   2
ATOM      2  O   UNL A   1      34.227  21.060  24.592  1.00  0.00    -0.376 OA
BRANCH   2   3
ATOM      3  C   UNL A   1      32.959  20.414  24.800  1.00  0.00     0.202 C 
BRANCH   3   4
ATOM      4  C   UNL A   1      31.603  21.111  25.365  1.00  0.00     0.261 C 
BRANCH   4   5
ATOM      5  O   UNL A   1      31.380  22.610  25.319  1.00  0.00    -0.460 OA
BRANCH   5   6
ATOM      6  C   UNL A   1      31.768  23.714  26.045  1.00  0.00     0.342 C 
ATOM      7  O   UNL A   1      31.735  23.685  27.273  1.00  0.00    -0.246 OA
BRANCH   6   8
ATOM      8  C   UNL A   1      32.241  25.164  25.292  1.00  0.00     0.103 A 
ATOM      9  C   UNL A   1      32.113  27.669  24.521  1.00  0.00     0.064 A 
ATOM     10  C   UNL A   1      33.175  27.426  23.684  1.00  0.00     0.032 A 
ATOM     11  C   UNL A   1      31.742  26.556  25.345  1.00  0.00     0.048 A 
ATOM     12  C   UNL A   1      33.727  26.130  23.604  1.00  0.00     0.049 A 
ATOM     13  C   UNL A   1      33.248  25.027  24.350  1.00  0.00     0.130 A 
BRANCH   9  14
ATOM     14  N   UNL A   1      31.580  28.980  24.701  1.00  0.00    -0.256 NA
ATOM     15  C   UNL A   1      31.906  29.961  25.514  1.00  0.00     0.121 C 
BRANCH  15  16
ATOM     16  C   UNL A   1      33.041  30.190  26.428  1.00  0.00     0.014 A 
ATOM     17  N   UNL A   1      34.382  31.219  27.959  1.00  0.00    -0.318 N 
ATOM     18  C   UNL A   1      34.939  29.980  27.731  1.00  0.00     0.021 A 
ATOM     19  C   UNL A   1      33.206  31.285  27.246  1.00  0.00     0.029 A 
ATOM     20  C   UNL A   1      36.184  29.542  28.424  1.00  0.00     0.065 C 
ATOM     21  C   UNL A   1      34.096  29.306  26.843  1.00  0.00     0.033 A 
ATOM     22  C   UNL A   1      32.317  32.425  27.316  1.00  0.00     0.065 C 
BRANCH  17  23
ATOM     23  C   UNL A   1      34.956  32.354  28.600  1.00  0.00     0.046 A 
ATOM     24  C   UNL A   1      35.062  33.557  32.204  1.00  0.00     0.044 C 
ATOM     25  C   UNL A   1      35.426  33.317  30.769  1.00  0.00    -0.049 A 
ATOM     26  C   UNL A   1      36.672  33.751  30.291  1.00  0.00     0.003 A 
ATOM     27  C   UNL A   1      34.562  32.613  29.916  1.00  0.00     0.030 A 
ATOM     28  C   UNL A   1      37.027  33.555  28.957  1.00  0.00     0.002 A 
ATOM     29  C   UNL A   1      36.153  32.888  28.100  1.00  0.00     0.026 A 
ENDBRANCH  17  23
ENDBRANCH  15  16
ENDBRANCH   9  14
BRANCH  13  30
ATOM     30  O   UNL A   1      33.834  23.822  24.065  1.00  0.00    -0.507 OA
ATOM     31  H   UNL A   1      33.323  23.128  23.699  1.00  0.00     0.293 HD
ENDBRANCH  13  30
ENDBRANCH   6   8
ENDBRANCH   5   6
ENDBRANCH   4   5
ENDBRANCH   3   4
ENDBRANCH   2   3
ENDBRANCH   1   2
BRANCH   1  32
ATOM     32  C   UNL A   1      36.772  20.600  24.673  1.00  0.00     0.188 C 
BRANCH  32  33
ATOM     33  O   UNL A   1      37.624  21.561  25.260  1.00  0.00    -0.376 OA
BRANCH  33  34
ATOM     34  C   UNL A   1      37.177  22.898  25.148  1.00  0.00     0.202 C 
BRANCH  34  35
ATOM     35  C   UNL A   1      37.602  23.795  26.330  1.00  0.00     0.261 C 
BRANCH  35  36
ATOM     36  O   UNL A   1      38.957  24.289  26.142  1.00  0.00    -0.460 OA
BRANCH  36  37
ATOM     37  C   UNL A   1      39.981  23.674  26.815  1.00  0.00     0.338 C 
ATOM     38  O   UNL A   1      39.933  22.522  27.248  1.00  0.00    -0.246 OA
BRANCH  37  39
ATOM     39  C   UNL A   1      41.063  24.664  27.152  1.00  0.00     0.060 A 
ATOM     40  C   UNL A   1      41.820  24.709  28.337  1.00  0.00     0.016 A 
ATOM     41  C   UNL A   1      41.031  25.812  26.430  1.00  0.00     0.016 A 
ATOM     42  C   UNL A   1      42.351  25.963  28.863  1.00  0.00     0.010 A 
ATOM     43  C   UNL A   1      41.237  26.984  27.151  1.00  0.00     0.010 A 
ATOM     44  C   UNL A   1      41.990  27.207  28.331  1.00  0.00    -0.014 A 
BRANCH  44  45
ATOM     45  C   UNL A   1      42.239  28.699  28.962  1.00  0.00     0.031 A 
ATOM     46  C   UNL A   1      41.220  29.794  29.608  1.00  0.00     0.074 A 
ATOM     47  C   UNL A   1      43.513  28.947  29.342  1.00  0.00     0.049 A 
ATOM     48  N   UNL A   1      41.488  30.522  30.662  1.00  0.00    -0.248 NA
ATOM     49  C   UNL A   1      39.821  30.108  29.289  1.00  0.00     0.031 C 
ATOM     50  C   UNL A   1      44.076  29.908  30.302  1.00  0.00     0.029 A 
ATOM     51  N   UNL A   1      44.667  28.379  28.817  1.00  0.00    -0.354 N 
ATOM     52  C   UNL A   1      40.359  31.172  31.138  1.00  0.00     0.074 A 
ATOM     53  C   UNL A   1      39.296  30.818  30.284  1.00  0.00     0.031 C 
ATOM     54  C   UNL A   1      45.365  30.130  29.997  1.00  0.00     0.029 A 
ATOM     55  C   UNL A   1      45.617  29.413  28.766  1.00  0.00     0.049 A 
ATOM     56  H   UNL A   1      44.793  27.444  28.538  1.00  0.00     0.167 HD
ATOM     57  C   UNL A   1      40.420  32.189  32.031  1.00  0.00     0.031 A 
ATOM     58  C   UNL A   1      45.897  29.922  27.537  1.00  0.00     0.031 A 
ATOM     59  C   UNL A   1      41.703  32.840  31.844  1.00  0.00     0.049 A 
ATOM     60  C   UNL A   1      45.329  31.329  27.440  1.00  0.00     0.074 A 
ATOM     61  C   UNL A   1      42.935  32.814  32.458  1.00  0.00     0.029 A 
ATOM     62  N   UNL A   1      41.922  33.327  30.561  1.00  0.00    -0.354 N 
ATOM     63  N   UNL A   1      44.541  31.860  28.345  1.00  0.00    -0.248 NA
ATOM     64  C   UNL A   1      45.615  32.273  26.370  1.00  0.00     0.031 C 
ATOM     65  C   UNL A   1      43.906  33.210  31.471  1.00  0.00     0.029 A 
ATOM     66  C   UNL A   1      43.254  33.522  30.283  1.00  0.00     0.049 A 
ATOM     67  H   UNL A   1      41.199  33.513  29.918  1.00  0.00     0.167 HD
ATOM     68  C   UNL A   1      44.296  33.169  28.080  1.00  0.00     0.074 A 
ATOM     69  C   UNL A   1      44.927  33.360  26.779  1.00  0.00     0.031 C 
ATOM     70  C   UNL A   1      43.625  33.995  28.946  1.00  0.00     0.031 A 
BRANCH  57  71
ATOM     71  C   UNL A   1      39.283  32.660  32.913  1.00  0.00    -0.014 A 
ATOM     72  C   UNL A   1      39.033  34.040  33.019  1.00  0.00     0.009 A 
ATOM     73  C   UNL A   1      38.530  31.837  33.782  1.00  0.00     0.009 A 
ATOM     74  C   UNL A   1      38.107  34.565  33.939  1.00  0.00     0.001 A 
ATOM     75  C   UNL A   1      37.577  32.354  34.679  1.00  0.00     0.001 A 
ATOM     76  C   UNL A   1      37.375  33.723  34.768  1.00  0.00     0.000 A 
ENDBRANCH  57  71
BRANCH  58  77
ATOM     77  C   UNL A   1      46.018  28.786  26.542  1.00  0.00    -0.014 A 
ATOM     78  C   UNL A   1      47.235  28.040  26.602  1.00  0.00     0.009 A 
ATOM     79  C   UNL A   1      44.931  28.161  25.922  1.00  0.00     0.009 A 
ATOM     80  C   UNL A   1      47.301  26.683  26.262  1.00  0.00     0.001 A 
ATOM     81  C   UNL A   1      45.031  26.815  25.494  1.00  0.00     0.001 A 
ATOM     82  C   UNL A   1      46.185  26.061  25.727  1.00  0.00     0.000 A 
ENDBRANCH  58  77
BRANCH  70  83
ATOM     83  C   UNL A   1      43.204  35.380  28.533  1.00  0.00    -0.014 A 
ATOM     84  C   UNL A   1      42.327  35.607  27.470  1.00  0.00     0.009 A 
ATOM     85  C   UNL A   1      43.704  36.517  29.202  1.00  0.00     0.009 A 
ATOM     86  C   UNL A   1      41.856  36.893  27.191  1.00  0.00     0.001 A 
ATOM     87  C   UNL A   1      43.273  37.806  28.900  1.00  0.00     0.001 A 
ATOM     88  C   UNL A   1      42.317  37.990  27.915  1.00  0.00     0.000 A 
ENDBRANCH  70  83
ENDBRANCH  44  45
ENDBRANCH  37  39
ENDBRANCH  36  37
ENDBRANCH  35  36
ENDBRANCH  34  35
ENDBRANCH  33  34
ENDBRANCH  32  33
ENDBRANCH   1  32
TORSDOF 21
ENDMDL
MODEL 3
REMARK VINA RESULT:     -10.4      1.385      2.206
REMARK SMILES Cc1cccc(-n2c(C)cc(/C=N\c3ccc(O)c(C(=O)OCCOCCOCCOC(=O)c4ccc(-c5c6nc(c(-c7ccccc7)c7ccc([nH]7)c(-c7ccccc7)c7nc(c(-c8ccccc8)c8ccc5[nH]8)C=C7)C=C6)cc4)c3)c2C)c1
REMARK SMILES IDX 26 1 25 2 24 3 23 4 22 5 20 6 21 7 19 8 14 9 15 10 82 11
REMARK SMILES IDX 16 12 17 13 13 14 12 15 11 16 7 17 8 18 83 19 9 20 10 21
REMARK SMILES IDX 84 22 6 23 1 24 2 25 3 26 85 27 4 28 5 29 18 30 27 32 28 33
REMARK SMILES IDX 29 34 30 35 31 36 32 37 33 38 34 39 35 40 81 41 36 42 80 43
REMARK SMILES IDX 37 44 38 45 39 46 74 47 40 48 79 49 73 50 75 51 41 52 78 53
REMARK SMILES IDX 72 54 71 55 42 57 64 58 49 59 63 60 50 61 53 62 62 63 76 64
REMARK SMILES IDX 51 65 52 66 61 68 77 69 54 70 43 71 44 72 48 73 45 74 47 75
REMARK SMILES IDX 46 76 65 77 66 78 70 79 67 80 69 81 68 82 55 83 56 84 60 85
REMARK SMILES IDX 57 86 59 87 58 88
REMARK H PARENT 18 31 75 56 53 67
REMARK Flexibility Score: inf
ROOT
ATOM      1  C   UNL A   1      33.587  20.213  24.956  1.00  0.00     0.188 C 
ENDROOT
BRANCH   1   2
ATOM      2  O   UNL A   1      33.080  20.534  26.256  1.00  0.00    -0.376 OA
BRANCH   2   3
ATOM      3  C   UNL A   1      33.762  21.418  27.164  1.00  0.00     0.202 C 
BRANCH   3   4
ATOM      4  C   UNL A   1      33.107  22.675  27.960  1.00  0.00     0.261 C 
BRANCH   4   5
ATOM      5  O   UNL A   1      31.902  23.431  27.435  1.00  0.00    -0.460 OA
BRANCH   5   6
ATOM      6  C   UNL A   1      31.339  23.714  26.210  1.00  0.00     0.342 C 
ATOM      7  O   UNL A   1      30.509  22.950  25.724  1.00  0.00    -0.246 OA
BRANCH   6   8
ATOM      8  C   UNL A   1      31.802  25.076  25.302  1.00  0.00     0.103 A 
ATOM      9  C   UNL A   1      31.710  27.515  24.340  1.00  0.00     0.064 A 
ATOM     10  C   UNL A   1      32.682  27.156  23.439  1.00  0.00     0.032 A 
ATOM     11  C   UNL A   1      31.367  26.490  25.281  1.00  0.00     0.048 A 
ATOM     12  C   UNL A   1      33.172  25.833  23.420  1.00  0.00     0.049 A 
ATOM     13  C   UNL A   1      32.716  24.816  24.293  1.00  0.00     0.130 A 
BRANCH   9  14
ATOM     14  N   UNL A   1      31.248  28.860  24.455  1.00  0.00    -0.256 NA
ATOM     15  C   UNL A   1      31.611  29.854  25.237  1.00  0.00     0.121 C 
BRANCH  15  16
ATOM     16  C   UNL A   1      32.737  30.055  26.169  1.00  0.00     0.014 A 
ATOM     17  N   UNL A   1      34.031  31.008  27.787  1.00  0.00    -0.318 N 
ATOM     18  C   UNL A   1      34.646  29.822  27.450  1.00  0.00     0.021 A 
ATOM     19  C   UNL A   1      32.851  31.079  27.081  1.00  0.00     0.029 A 
ATOM     20  C   UNL A   1      35.913  29.386  28.104  1.00  0.00     0.065 C 
ATOM     21  C   UNL A   1      33.834  29.190  26.505  1.00  0.00     0.033 A 
ATOM     22  C   UNL A   1      31.907  32.165  27.251  1.00  0.00     0.065 C 
BRANCH  17  23
ATOM     23  C   UNL A   1      34.551  32.108  28.527  1.00  0.00     0.046 A 
ATOM     24  C   UNL A   1      34.030  35.868  28.350  1.00  0.00     0.044 C 
ATOM     25  C   UNL A   1      34.315  34.491  28.870  1.00  0.00    -0.049 A 
ATOM     26  C   UNL A   1      34.497  34.297  30.248  1.00  0.00     0.003 A 
ATOM     27  C   UNL A   1      34.342  33.387  28.004  1.00  0.00     0.030 A 
ATOM     28  C   UNL A   1      34.780  33.029  30.754  1.00  0.00     0.002 A 
ATOM     29  C   UNL A   1      34.842  31.938  29.889  1.00  0.00     0.026 A 
ENDBRANCH  17  23
ENDBRANCH  15  16
ENDBRANCH   9  14
BRANCH  13  30
ATOM     30  O   UNL A   1      33.224  23.566  24.061  1.00  0.00    -0.507 OA
ATOM     31  H   UNL A   1      33.504  23.326  23.199  1.00  0.00     0.293 HD
ENDBRANCH  13  30
ENDBRANCH   6   8
ENDBRANCH   5   6
ENDBRANCH   4   5
ENDBRANCH   3   4
ENDBRANCH   2   3
ENDBRANCH   1   2
BRANCH   1  32
ATOM     32  C   UNL A   1      34.914  19.537  24.728  1.00  0.00     0.188 C 
BRANCH  32  33
ATOM     33  O   UNL A   1      35.934  20.325  25.306  1.00  0.00    -0.376 OA
BRANCH  33  34
ATOM     34  C   UNL A   1      37.180  20.266  24.639  1.00  0.00     0.202 C 
BRANCH  34  35
ATOM     35  C   UNL A   1      38.134  21.422  25.004  1.00  0.00     0.261 C 
BRANCH  35  36
ATOM     36  O   UNL A   1      39.121  20.990  25.980  1.00  0.00    -0.460 OA
BRANCH  36  37
ATOM     37  C   UNL A   1      40.268  21.726  26.128  1.00  0.00     0.338 C 
ATOM     38  O   UNL A   1      41.377  21.370  25.728  1.00  0.00    -0.246 OA
BRANCH  37  39
ATOM     39  C   UNL A   1      40.029  22.899  27.041  1.00  0.00     0.060 A 
ATOM     40  C   UNL A   1      39.261  24.042  26.756  1.00  0.00     0.016 A 
ATOM     41  C   UNL A   1      40.929  23.031  28.048  1.00  0.00     0.016 A 
ATOM     42  C   UNL A   1      39.563  25.340  27.352  1.00  0.00     0.010 A 
ATOM     43  C   UNL A   1      41.382  24.323  28.287  1.00  0.00     0.010 A 
ATOM     44  C   UNL A   1      40.732  25.568  28.090  1.00  0.00    -0.014 A 
BRANCH  44  45
ATOM     45  C   UNL A   1      41.374  26.997  28.568  1.00  0.00     0.031 A 
ATOM     46  C   UNL A   1      40.698  28.446  28.885  1.00  0.00     0.074 A 
ATOM     47  C   UNL A   1      42.599  26.906  29.134  1.00  0.00     0.049 A 
ATOM     48  N   UNL A   1      41.053  29.228  29.872  1.00  0.00    -0.248 NA
ATOM     49  C   UNL A   1      39.534  29.112  28.288  1.00  0.00     0.031 C 
ATOM     50  C   UNL A   1      43.319  27.800  30.053  1.00  0.00     0.029 A 
ATOM     51  N   UNL A   1      43.560  25.931  28.895  1.00  0.00    -0.354 N 
ATOM     52  C   UNL A   1      40.150  30.263  30.058  1.00  0.00     0.074 A 
ATOM     53  C   UNL A   1      39.148  30.109  29.079  1.00  0.00     0.031 C 
ATOM     54  C   UNL A   1      44.637  27.561  29.957  1.00  0.00     0.029 A 
ATOM     55  C   UNL A   1      44.794  26.600  28.887  1.00  0.00     0.049 A 
ATOM     56  H   UNL A   1      43.406  24.969  28.759  1.00  0.00     0.167 HD
ATOM     57  C   UNL A   1      40.427  31.351  30.816  1.00  0.00     0.031 A 
ATOM     58  C   UNL A   1      45.382  26.779  27.674  1.00  0.00     0.031 A 
ATOM     59  C   UNL A   1      41.865  31.536  30.781  1.00  0.00     0.049 A 
ATOM     60  C   UNL A   1      45.325  28.253  27.306  1.00  0.00     0.074 A 
ATOM     61  C   UNL A   1      42.931  31.242  31.602  1.00  0.00     0.029 A 
ATOM     62  N   UNL A   1      42.394  31.704  29.507  1.00  0.00    -0.354 N 
ATOM     63  N   UNL A   1      44.647  29.148  27.986  1.00  0.00    -0.248 NA
ATOM     64  C   UNL A   1      46.041  28.865  26.197  1.00  0.00     0.031 C 
ATOM     65  C   UNL A   1      44.096  31.146  30.760  1.00  0.00     0.029 A 
ATOM     66  C   UNL A   1      43.741  31.431  29.448  1.00  0.00     0.049 A 
ATOM     67  H   UNL A   1      41.862  31.988  28.729  1.00  0.00     0.167 HD
ATOM     68  C   UNL A   1      44.882  30.402  27.523  1.00  0.00     0.074 A 
ATOM     69  C   UNL A   1      45.702  30.163  26.341  1.00  0.00     0.031 C 
ATOM     70  C   UNL A   1      44.415  31.530  28.149  1.00  0.00     0.031 A 
BRANCH  57  71
ATOM     71  C   UNL A   1      39.405  32.292  31.419  1.00  0.00    -0.014 A 
ATOM     72  C   UNL A   1      38.998  33.416  30.678  1.00  0.00     0.009 A 
ATOM     73  C   UNL A   1      38.926  32.233  32.748  1.00  0.00     0.009 A 
ATOM     74  C   UNL A   1      38.181  34.420  31.229  1.00  0.00     0.001 A 
ATOM     75  C   UNL A   1      38.080  33.217  33.293  1.00  0.00     0.001 A 
ATOM     76  C   UNL A   1      37.718  34.321  32.536  1.00  0.00     0.000 A 
ENDBRANCH  57  71
BRANCH  58  77
ATOM     77  C   UNL A   1      45.249  25.507  26.862  1.00  0.00    -0.014 A 
ATOM     78  C   UNL A   1      45.689  24.312  27.512  1.00  0.00     0.009 A 
ATOM     79  C   UNL A   1      44.373  25.346  25.784  1.00  0.00     0.009 A 
ATOM     80  C   UNL A   1      45.123  23.059  27.242  1.00  0.00     0.001 A 
ATOM     81  C   UNL A   1      43.874  24.063  25.455  1.00  0.00     0.001 A 
ATOM     82  C   UNL A   1      44.193  22.939  26.223  1.00  0.00     0.000 A 
ENDBRANCH  58  77
BRANCH  70  83
ATOM     83  C   UNL A   1      44.529  32.884  27.502  1.00  0.00    -0.014 A 
ATOM     84  C   UNL A   1      44.248  33.091  26.150  1.00  0.00     0.009 A 
ATOM     85  C   UNL A   1      44.952  34.007  28.246  1.00  0.00     0.009 A 
ATOM     86  C   UNL A   1      44.241  34.380  25.608  1.00  0.00     0.001 A 
ATOM     87  C   UNL A   1      44.990  35.288  27.699  1.00  0.00     0.001 A 
ATOM     88  C   UNL A   1      44.597  35.478  26.386  1.00  0.00     0.000 A 
ENDBRANCH  70  83
ENDBRANCH  44  45
ENDBRANCH  37  39
ENDBRANCH  36  37
ENDBRANCH  35  36
ENDBRANCH  34  35
ENDBRANCH  33  34
ENDBRANCH  32  33
ENDBRANCH   1  32
TORSDOF 21
ENDMDL
