MODEL 1
REMARK VINA RESULT:      -9.8      0.000      0.000
REMARK SMILES CC[C@@](C)(NC(=O)c1cccc(Br)c1C)C(=O)OCCOCCOCCOC(=O)c1ccc(-c2c3nc(c(-c4ccccc4)c4ccc([nH]4)c(-c4ccccc4)c4nc(c(-c5ccccc5)c5ccc2[nH]5)C=C4)C=C3)cc1
REMARK SMILES IDX 22 1 21 2 20 3 19 4 18 5 16 6 17 7 3 8 4 9 2 10 1 11 5 12
REMARK SMILES IDX 6 13 7 15 8 16 9 17 14 18 10 19 12 20 15 21 11 22 13 23
REMARK SMILES IDX 23 24 24 25 25 26 26 27 27 28 28 29 29 30 30 31 31 32 77 33
REMARK SMILES IDX 32 34 76 35 33 36 34 37 35 38 70 39 36 40 75 41 69 42 71 43
REMARK SMILES IDX 37 44 74 45 68 46 67 47 38 49 60 50 45 51 59 52 46 53 49 54
REMARK SMILES IDX 58 55 72 56 47 57 48 58 57 60 73 61 50 62 39 63 40 64 44 65
REMARK SMILES IDX 41 66 43 67 42 68 61 69 62 70 66 71 63 72 65 73 64 74 51 75
REMARK SMILES IDX 52 76 56 77 53 78 55 79 54 80
REMARK H PARENT 5 14 71 48 49 59
REMARK Flexibility Score: inf
ROOT
ATOM      1  C   UNL A   1      39.743  21.703  26.685  1.00  0.00     0.188 C 
ENDROOT
BRANCH   1   2
ATOM      2  O   UNL A   1      38.720  21.708  25.690  1.00  0.00    -0.376 OA
BRANCH   2   3
ATOM      3  C   UNL A   1      37.891  22.888  25.732  1.00  0.00     0.202 C 
BRANCH   3   4
ATOM      4  C   UNL A   1      37.022  23.219  24.492  1.00  0.00     0.261 C 
BRANCH   4   5
ATOM      5  O   UNL A   1      35.633  23.308  24.802  1.00  0.00    -0.462 OA
BRANCH   5   6
ATOM      6  C   UNL A   1      34.714  23.249  23.820  1.00  0.00     0.331 C 
ATOM      7  O   UNL A   1      34.916  23.619  22.672  1.00  0.00    -0.249 OA
BRANCH   6   8
ATOM      8  C   UNL A   1      33.393  22.612  24.351  1.00  0.00     0.135 C 
ATOM      9  C   UNL A   1      32.295  22.776  23.296  1.00  0.00     0.047 C 
BRANCH   8  10
ATOM     10  C   UNL A   1      33.650  21.056  24.553  1.00  0.00     0.037 C 
ATOM     11  C   UNL A   1      32.561  20.213  25.219  1.00  0.00     0.007 C 
ENDBRANCH   8  10
BRANCH   8  12
ATOM     12  N   UNL A   1      32.853  23.111  25.692  1.00  0.00    -0.336 N 
ATOM     13  C   UNL A   1      31.930  24.011  26.200  1.00  0.00     0.252 C 
ATOM     14  H   UNL A   1      33.305  22.642  26.431  1.00  0.00     0.165 HD
ATOM     15  O   UNL A   1      31.446  23.731  27.301  1.00  0.00    -0.269 OA
BRANCH  13  16
ATOM     16  C   UNL A   1      31.522  25.332  25.620  1.00  0.00     0.043 A 
ATOM     17  C   UNL A   1      30.244  25.462  25.050  1.00  0.00     0.014 A 
ATOM     18  C   UNL A   1      32.424  26.378  25.394  1.00  0.00    -0.024 A 
ATOM     19  C   UNL A   1      29.783  26.599  24.393  1.00  0.00     0.002 A 
ATOM     20  C   UNL A   1      31.953  27.548  24.741  1.00  0.00     0.021 A 
ATOM     21  C   UNL A   1      33.842  26.245  25.854  1.00  0.00     0.046 C 
ATOM     22  C   UNL A   1      30.645  27.659  24.249  1.00  0.00     0.016 A 
ATOM     23  Br  UNL A   1      33.059  29.070  24.466  1.00  0.00    -0.051 Br
ENDBRANCH  13  16
ENDBRANCH   8  12
ENDBRANCH   6   8
ENDBRANCH   5   6
ENDBRANCH   4   5
ENDBRANCH   3   4
ENDBRANCH   2   3
ENDBRANCH   1   2
BRANCH   1  24
ATOM     24  C   UNL A   1      41.008  20.884  26.390  1.00  0.00     0.188 C 
BRANCH  24  25
ATOM     25  O   UNL A   1      42.253  21.515  26.582  1.00  0.00    -0.376 OA
BRANCH  25  26
ATOM     26  C   UNL A   1      43.268  21.363  25.584  1.00  0.00     0.202 C 
BRANCH  26  27
ATOM     27  C   UNL A   1      44.658  21.962  25.902  1.00  0.00     0.261 C 
BRANCH  27  28
ATOM     28  O   UNL A   1      44.633  23.234  26.580  1.00  0.00    -0.460 OA
BRANCH  28  29
ATOM     29  C   UNL A   1      44.423  24.321  25.795  1.00  0.00     0.338 C 
ATOM     30  O   UNL A   1      44.687  24.443  24.616  1.00  0.00    -0.246 OA
BRANCH  29  31
ATOM     31  C   UNL A   1      43.484  25.205  26.526  1.00  0.00     0.060 A 
ATOM     32  C   UNL A   1      43.764  26.584  26.524  1.00  0.00     0.016 A 
ATOM     33  C   UNL A   1      42.313  24.715  27.105  1.00  0.00     0.016 A 
ATOM     34  C   UNL A   1      42.890  27.476  27.129  1.00  0.00     0.010 A 
ATOM     35  C   UNL A   1      41.482  25.599  27.795  1.00  0.00     0.010 A 
ATOM     36  C   UNL A   1      41.807  26.967  27.851  1.00  0.00    -0.014 A 
BRANCH  36  37
ATOM     37  C   UNL A   1      41.324  27.793  28.976  1.00  0.00     0.031 A 
ATOM     38  C   UNL A   1      42.124  27.710  30.251  1.00  0.00     0.074 A 
ATOM     39  C   UNL A   1      40.303  28.652  28.847  1.00  0.00     0.049 A 
ATOM     40  N   UNL A   1      41.948  28.327  31.388  1.00  0.00    -0.248 NA
ATOM     41  C   UNL A   1      43.297  26.815  30.229  1.00  0.00     0.031 C 
ATOM     42  C   UNL A   1      39.539  28.893  27.625  1.00  0.00     0.029 A 
ATOM     43  N   UNL A   1      39.747  29.498  29.770  1.00  0.00    -0.354 N 
ATOM     44  C   UNL A   1      42.978  27.884  32.211  1.00  0.00     0.074 A 
ATOM     45  C   UNL A   1      43.766  26.942  31.456  1.00  0.00     0.031 C 
ATOM     46  C   UNL A   1      38.605  29.829  27.877  1.00  0.00     0.029 A 
ATOM     47  C   UNL A   1      38.685  30.217  29.284  1.00  0.00     0.049 A 
ATOM     48  H   UNL A   1      40.078  29.582  30.692  1.00  0.00     0.167 HD
ATOM     49  C   UNL A   1      43.242  28.228  33.490  1.00  0.00     0.031 A 
ATOM     50  C   UNL A   1      37.863  31.070  29.924  1.00  0.00     0.031 A 
ATOM     51  C   UNL A   1      42.433  29.142  34.243  1.00  0.00     0.049 A 
ATOM     52  C   UNL A   1      38.102  31.344  31.387  1.00  0.00     0.074 A 
ATOM     53  C   UNL A   1      42.581  29.549  35.554  1.00  0.00     0.029 A 
ATOM     54  N   UNL A   1      41.308  29.781  33.742  1.00  0.00    -0.354 N 
ATOM     55  N   UNL A   1      39.066  30.911  32.166  1.00  0.00    -0.248 NA
ATOM     56  C   UNL A   1      37.139  32.229  32.057  1.00  0.00     0.031 C 
ATOM     57  C   UNL A   1      41.506  30.388  35.867  1.00  0.00     0.029 A 
ATOM     58  C   UNL A   1      40.732  30.559  34.728  1.00  0.00     0.049 A 
ATOM     59  H   UNL A   1      40.971  29.694  32.821  1.00  0.00     0.167 HD
ATOM     60  C   UNL A   1      38.846  31.498  33.407  1.00  0.00     0.074 A 
ATOM     61  C   UNL A   1      37.665  32.326  33.269  1.00  0.00     0.031 C 
ATOM     62  C   UNL A   1      39.555  31.371  34.558  1.00  0.00     0.031 A 
BRANCH  49  63
ATOM     63  C   UNL A   1      44.400  27.542  34.160  1.00  0.00    -0.014 A 
ATOM     64  C   UNL A   1      44.246  26.324  34.843  1.00  0.00     0.009 A 
ATOM     65  C   UNL A   1      45.667  28.145  34.126  1.00  0.00     0.009 A 
ATOM     66  C   UNL A   1      45.329  25.747  35.510  1.00  0.00     0.001 A 
ATOM     67  C   UNL A   1      46.755  27.549  34.766  1.00  0.00     0.001 A 
ATOM     68  C   UNL A   1      46.582  26.356  35.466  1.00  0.00     0.000 A 
ENDBRANCH  49  63
BRANCH  50  69
ATOM     69  C   UNL A   1      36.725  31.702  29.204  1.00  0.00    -0.014 A 
ATOM     70  C   UNL A   1      36.816  33.021  28.732  1.00  0.00     0.009 A 
ATOM     71  C   UNL A   1      35.529  30.994  29.006  1.00  0.00     0.009 A 
ATOM     72  C   UNL A   1      35.724  33.623  28.101  1.00  0.00     0.001 A 
ATOM     73  C   UNL A   1      34.451  31.589  28.347  1.00  0.00     0.001 A 
ATOM     74  C   UNL A   1      34.545  32.906  27.905  1.00  0.00     0.000 A 
ENDBRANCH  50  69
BRANCH  62  75
ATOM     75  C   UNL A   1      39.099  32.186  35.735  1.00  0.00    -0.014 A 
ATOM     76  C   UNL A   1      38.097  31.727  36.603  1.00  0.00     0.009 A 
ATOM     77  C   UNL A   1      39.718  33.418  35.998  1.00  0.00     0.009 A 
ATOM     78  C   UNL A   1      37.692  32.510  37.686  1.00  0.00     0.001 A 
ATOM     79  C   UNL A   1      39.336  34.181  37.102  1.00  0.00     0.001 A 
ATOM     80  C   UNL A   1      38.315  33.732  37.936  1.00  0.00     0.000 A 
ENDBRANCH  62  75
ENDBRANCH  36  37
ENDBRANCH  29  31
ENDBRANCH  28  29
ENDBRANCH  27  28
ENDBRANCH  26  27
ENDBRANCH  25  26
ENDBRANCH  24  25
ENDBRANCH   1  24
TORSDOF 20
ENDMDL
MODEL 2
REMARK VINA RESULT:      -9.7      3.074      8.114
REMARK SMILES CC[C@@](C)(NC(=O)c1cccc(Br)c1C)C(=O)OCCOCCOCCOC(=O)c1ccc(-c2c3nc(c(-c4ccccc4)c4ccc([nH]4)c(-c4ccccc4)c4nc(c(-c5ccccc5)c5ccc2[nH]5)C=C4)C=C3)cc1
REMARK SMILES IDX 22 1 21 2 20 3 19 4 18 5 16 6 17 7 3 8 4 9 2 10 1 11 5 12
REMARK SMILES IDX 6 13 7 15 8 16 9 17 14 18 10 19 12 20 15 21 11 22 13 23
REMARK SMILES IDX 23 24 24 25 25 26 26 27 27 28 28 29 29 30 30 31 31 32 77 33
REMARK SMILES IDX 32 34 76 35 33 36 34 37 35 38 70 39 36 40 75 41 69 42 71 43
REMARK SMILES IDX 37 44 74 45 68 46 67 47 38 49 60 50 45 51 59 52 46 53 49 54
REMARK SMILES IDX 58 55 72 56 47 57 48 58 57 60 73 61 50 62 39 63 40 64 44 65
REMARK SMILES IDX 41 66 43 67 42 68 61 69 62 70 66 71 63 72 65 73 64 74 51 75
REMARK SMILES IDX 52 76 56 77 53 78 55 79 54 80
REMARK H PARENT 5 14 71 48 49 59
REMARK Flexibility Score: inf
ROOT
ATOM      1  C   UNL A   1      32.196  28.642  27.485  1.00  0.00     0.188 C 
ENDROOT
BRANCH   1   2
ATOM      2  O   UNL A   1      31.449  27.426  27.503  1.00  0.00    -0.376 OA
BRANCH   2   3
ATOM      3  C   UNL A   1      31.823  26.513  26.450  1.00  0.00     0.202 C 
BRANCH   3   4
ATOM      4  C   UNL A   1      31.337  25.044  26.545  1.00  0.00     0.261 C 
BRANCH   4   5
ATOM      5  O   UNL A   1      32.410  24.121  26.719  1.00  0.00    -0.462 OA
BRANCH   5   6
ATOM      6  C   UNL A   1      32.423  22.960  26.036  1.00  0.00     0.331 C 
ATOM      7  O   UNL A   1      31.552  22.107  26.123  1.00  0.00    -0.249 OA
BRANCH   6   8
ATOM      8  C   UNL A   1      33.674  22.892  25.106  1.00  0.00     0.135 C 
ATOM      9  C   UNL A   1      34.626  24.039  25.459  1.00  0.00     0.047 C 
BRANCH   8  10
ATOM     10  C   UNL A   1      34.424  21.522  25.400  1.00  0.00     0.037 C 
ATOM     11  C   UNL A   1      35.681  21.187  24.596  1.00  0.00     0.007 C 
ENDBRANCH   8  10
BRANCH   8  12
ATOM     12  N   UNL A   1      33.437  22.908  23.595  1.00  0.00    -0.336 N 
ATOM     13  C   UNL A   1      33.333  23.804  22.544  1.00  0.00     0.252 C 
ATOM     14  H   UNL A   1      33.324  21.988  23.264  1.00  0.00     0.165 HD
ATOM     15  O   UNL A   1      33.655  23.376  21.431  1.00  0.00    -0.269 OA
BRANCH  13  16
ATOM     16  C   UNL A   1      32.784  25.198  22.577  1.00  0.00     0.043 A 
ATOM     17  C   UNL A   1      33.672  26.284  22.497  1.00  0.00     0.014 A 
ATOM     18  C   UNL A   1      31.460  25.489  22.924  1.00  0.00    -0.024 A 
ATOM     19  C   UNL A   1      33.302  27.620  22.617  1.00  0.00     0.002 A 
ATOM     20  C   UNL A   1      31.072  26.852  23.029  1.00  0.00     0.021 A 
ATOM     21  C   UNL A   1      30.493  24.371  23.160  1.00  0.00     0.046 C 
ATOM     22  C   UNL A   1      31.983  27.907  22.873  1.00  0.00     0.016 A 
ATOM     23  Br  UNL A   1      29.281  27.370  23.399  1.00  0.00    -0.051 Br
ENDBRANCH  13  16
ENDBRANCH   8  12
ENDBRANCH   6   8
ENDBRANCH   5   6
ENDBRANCH   4   5
ENDBRANCH   3   4
ENDBRANCH   2   3
ENDBRANCH   1   2
BRANCH   1  24
ATOM     24  C   UNL A   1      31.841  29.669  26.400  1.00  0.00     0.188 C 
BRANCH  24  25
ATOM     25  O   UNL A   1      32.403  30.956  26.511  1.00  0.00    -0.376 OA
BRANCH  25  26
ATOM     26  C   UNL A   1      31.573  32.040  26.941  1.00  0.00     0.202 C 
BRANCH  26  27
ATOM     27  C   UNL A   1      32.219  33.444  26.980  1.00  0.00     0.261 C 
BRANCH  27  28
ATOM     28  O   UNL A   1      32.221  34.078  28.275  1.00  0.00    -0.460 OA
BRANCH  28  29
ATOM     29  C   UNL A   1      33.267  34.905  28.529  1.00  0.00     0.338 C 
ATOM     30  O   UNL A   1      33.226  36.094  28.772  1.00  0.00    -0.246 OA
BRANCH  29  31
ATOM     31  C   UNL A   1      34.437  34.043  28.822  1.00  0.00     0.060 A 
ATOM     32  C   UNL A   1      34.281  33.065  29.822  1.00  0.00     0.016 A 
ATOM     33  C   UNL A   1      35.611  34.117  28.072  1.00  0.00     0.016 A 
ATOM     34  C   UNL A   1      35.311  32.178  30.100  1.00  0.00     0.010 A 
ATOM     35  C   UNL A   1      36.680  33.288  28.414  1.00  0.00     0.010 A 
ATOM     36  C   UNL A   1      36.543  32.362  29.465  1.00  0.00    -0.014 A 
BRANCH  36  37
ATOM     37  C   UNL A   1      37.736  31.906  30.206  1.00  0.00     0.031 A 
ATOM     38  C   UNL A   1      38.440  30.696  29.648  1.00  0.00     0.074 A 
ATOM     39  C   UNL A   1      38.236  32.587  31.247  1.00  0.00     0.049 A 
ATOM     40  N   UNL A   1      39.511  30.084  30.074  1.00  0.00    -0.248 NA
ATOM     41  C   UNL A   1      37.857  30.106  28.427  1.00  0.00     0.031 C 
ATOM     42  C   UNL A   1      37.698  33.832  31.791  1.00  0.00     0.029 A 
ATOM     43  N   UNL A   1      39.332  32.320  32.024  1.00  0.00    -0.354 N 
ATOM     44  C   UNL A   1      39.718  29.037  29.182  1.00  0.00     0.074 A 
ATOM     45  C   UNL A   1      38.663  29.085  28.201  1.00  0.00     0.031 C 
ATOM     46  C   UNL A   1      38.470  34.222  32.822  1.00  0.00     0.029 A 
ATOM     47  C   UNL A   1      39.525  33.232  33.030  1.00  0.00     0.049 A 
ATOM     48  H   UNL A   1      39.924  31.549  31.874  1.00  0.00     0.167 HD
ATOM     49  C   UNL A   1      40.701  28.110  29.182  1.00  0.00     0.031 A 
ATOM     50  C   UNL A   1      40.442  33.239  34.016  1.00  0.00     0.031 A 
ATOM     51  C   UNL A   1      41.728  28.052  30.182  1.00  0.00     0.049 A 
ATOM     52  C   UNL A   1      41.454  32.123  34.070  1.00  0.00     0.074 A 
ATOM     53  C   UNL A   1      42.762  27.145  30.307  1.00  0.00     0.029 A 
ATOM     54  N   UNL A   1      41.836  28.942  31.241  1.00  0.00    -0.354 N 
ATOM     55  N   UNL A   1      41.637  31.126  33.235  1.00  0.00    -0.248 NA
ATOM     56  C   UNL A   1      42.391  32.137  35.203  1.00  0.00     0.031 C 
ATOM     57  C   UNL A   1      43.459  27.449  31.480  1.00  0.00     0.029 A 
ATOM     58  C   UNL A   1      42.904  28.588  32.043  1.00  0.00     0.049 A 
ATOM     59  H   UNL A   1      41.241  29.711  31.397  1.00  0.00     0.167 HD
ATOM     60  C   UNL A   1      42.728  30.416  33.722  1.00  0.00     0.074 A 
ATOM     61  C   UNL A   1      43.172  31.106  34.916  1.00  0.00     0.031 C 
ATOM     62  C   UNL A   1      43.317  29.297  33.227  1.00  0.00     0.031 A 
BRANCH  49  63
ATOM     63  C   UNL A   1      40.644  27.050  28.118  1.00  0.00    -0.014 A 
ATOM     64  C   UNL A   1      41.286  27.209  26.879  1.00  0.00     0.009 A 
ATOM     65  C   UNL A   1      39.910  25.878  28.356  1.00  0.00     0.009 A 
ATOM     66  C   UNL A   1      41.159  26.233  25.887  1.00  0.00     0.001 A 
ATOM     67  C   UNL A   1      39.812  24.890  27.375  1.00  0.00     0.001 A 
ATOM     68  C   UNL A   1      40.428  25.073  26.139  1.00  0.00     0.000 A 
ENDBRANCH  49  63
BRANCH  50  69
ATOM     69  C   UNL A   1      40.430  34.310  35.047  1.00  0.00    -0.014 A 
ATOM     70  C   UNL A   1      39.667  34.175  36.217  1.00  0.00     0.009 A 
ATOM     71  C   UNL A   1      41.166  35.490  34.854  1.00  0.00     0.009 A 
ATOM     72  C   UNL A   1      39.622  35.208  37.157  1.00  0.00     0.001 A 
ATOM     73  C   UNL A   1      41.145  36.508  35.810  1.00  0.00     0.001 A 
ATOM     74  C   UNL A   1      40.365  36.371  36.955  1.00  0.00     0.000 A 
ENDBRANCH  50  69
BRANCH  62  75
ATOM     75  C   UNL A   1      44.533  28.788  33.950  1.00  0.00    -0.014 A 
ATOM     76  C   UNL A   1      44.435  27.820  34.960  1.00  0.00     0.009 A 
ATOM     77  C   UNL A   1      45.801  29.262  33.579  1.00  0.00     0.009 A 
ATOM     78  C   UNL A   1      45.582  27.370  35.617  1.00  0.00     0.001 A 
ATOM     79  C   UNL A   1      46.948  28.784  34.212  1.00  0.00     0.001 A 
ATOM     80  C   UNL A   1      46.836  27.849  35.239  1.00  0.00     0.000 A 
ENDBRANCH  62  75
ENDBRANCH  36  37
ENDBRANCH  29  31
ENDBRANCH  28  29
ENDBRANCH  27  28
ENDBRANCH  26  27
ENDBRANCH  25  26
ENDBRANCH  24  25
ENDBRANCH   1  24
TORSDOF 20
ENDMDL
MODEL 3
REMARK VINA RESULT:      -9.5      3.413      8.675
REMARK SMILES CC[C@@](C)(NC(=O)c1cccc(Br)c1C)C(=O)OCCOCCOCCOC(=O)c1ccc(-c2c3nc(c(-c4ccccc4)c4ccc([nH]4)c(-c4ccccc4)c4nc(c(-c5ccccc5)c5ccc2[nH]5)C=C4)C=C3)cc1
REMARK SMILES IDX 22 1 21 2 20 3 19 4 18 5 16 6 17 7 3 8 4 9 2 10 1 11 5 12
REMARK SMILES IDX 6 13 7 15 8 16 9 17 14 18 10 19 12 20 15 21 11 22 13 23
REMARK SMILES IDX 23 24 24 25 25 26 26 27 27 28 28 29 29 30 30 31 31 32 77 33
REMARK SMILES IDX 32 34 76 35 33 36 34 37 35 38 70 39 36 40 75 41 69 42 71 43
REMARK SMILES IDX 37 44 74 45 68 46 67 47 38 49 60 50 45 51 59 52 46 53 49 54
REMARK SMILES IDX 58 55 72 56 47 57 48 58 57 60 73 61 50 62 39 63 40 64 44 65
REMARK SMILES IDX 41 66 43 67 42 68 61 69 62 70 66 71 63 72 65 73 64 74 51 75
REMARK SMILES IDX 52 76 56 77 53 78 55 79 54 80
REMARK H PARENT 5 14 71 48 49 59
REMARK Flexibility Score: inf
ROOT
ATOM      1  C   UNL A   1      33.526  29.840  26.527  1.00  0.00     0.188 C 
ENDROOT
BRANCH   1   2
ATOM      2  O   UNL A   1      32.266  29.272  26.883  1.00  0.00    -0.376 OA
BRANCH   2   3
ATOM      3  C   UNL A   1      31.403  29.043  25.750  1.00  0.00     0.202 C 
BRANCH   3   4
ATOM      4  C   UNL A   1      31.955  29.349  24.334  1.00  0.00     0.261 C 
BRANCH   4   5
ATOM      5  O   UNL A   1      32.630  28.234  23.755  1.00  0.00    -0.462 OA
BRANCH   5   6
ATOM      6  C   UNL A   1      31.928  27.246  23.167  1.00  0.00     0.331 C 
ATOM      7  O   UNL A   1      31.015  27.435  22.376  1.00  0.00    -0.249 OA
BRANCH   6   8
ATOM      8  C   UNL A   1      32.472  25.854  23.613  1.00  0.00     0.135 C 
ATOM      9  C   UNL A   1      33.420  26.042  24.802  1.00  0.00     0.047 C 
BRANCH   8  10
ATOM     10  C   UNL A   1      31.237  24.982  24.101  1.00  0.00     0.037 C 
ATOM     11  C   UNL A   1      30.445  25.452  25.322  1.00  0.00     0.007 C 
ENDBRANCH   8  10
BRANCH   8  12
ATOM     12  N   UNL A   1      33.181  25.000  22.561  1.00  0.00    -0.336 N 
ATOM     13  C   UNL A   1      33.585  23.692  22.348  1.00  0.00     0.252 C 
ATOM     14  H   UNL A   1      33.427  25.557  21.787  1.00  0.00     0.165 HD
ATOM     15  O   UNL A   1      33.653  23.328  21.169  1.00  0.00    -0.269 OA
BRANCH  13  16
ATOM     16  C   UNL A   1      34.044  22.696  23.369  1.00  0.00     0.043 A 
ATOM     17  C   UNL A   1      35.377  22.736  23.812  1.00  0.00     0.014 A 
ATOM     18  C   UNL A   1      33.291  21.574  23.733  1.00  0.00    -0.024 A 
ATOM     19  C   UNL A   1      35.952  21.810  24.677  1.00  0.00     0.002 A 
ATOM     20  C   UNL A   1      33.866  20.635  24.632  1.00  0.00     0.021 A 
ATOM     21  C   UNL A   1      31.910  21.399  23.185  1.00  0.00     0.046 C 
ATOM     22  C   UNL A   1      35.182  20.754  25.103  1.00  0.00     0.016 A 
ATOM     23  Br  UNL A   1      32.906  19.125  25.273  1.00  0.00    -0.051 Br
ENDBRANCH  13  16
ENDBRANCH   8  12
ENDBRANCH   6   8
ENDBRANCH   5   6
ENDBRANCH   4   5
ENDBRANCH   3   4
ENDBRANCH   2   3
ENDBRANCH   1   2
BRANCH   1  24
ATOM     24  C   UNL A   1      34.276  30.625  27.612  1.00  0.00     0.188 C 
BRANCH  24  25
ATOM     25  O   UNL A   1      34.206  32.032  27.567  1.00  0.00    -0.376 OA
BRANCH  25  26
ATOM     26  C   UNL A   1      32.924  32.665  27.627  1.00  0.00     0.202 C 
BRANCH  26  27
ATOM     27  C   UNL A   1      32.906  34.187  27.895  1.00  0.00     0.261 C 
BRANCH  27  28
ATOM     28  O   UNL A   1      32.528  34.566  29.234  1.00  0.00    -0.460 OA
BRANCH  28  29
ATOM     29  C   UNL A   1      33.463  35.248  29.944  1.00  0.00     0.338 C 
ATOM     30  O   UNL A   1      33.294  36.236  30.628  1.00  0.00    -0.246 OA
BRANCH  29  31
ATOM     31  C   UNL A   1      34.654  34.370  30.041  1.00  0.00     0.060 A 
ATOM     32  C   UNL A   1      34.580  33.281  30.929  1.00  0.00     0.016 A 
ATOM     33  C   UNL A   1      35.764  34.544  29.215  1.00  0.00     0.016 A 
ATOM     34  C   UNL A   1      35.630  32.379  31.020  1.00  0.00     0.010 A 
ATOM     35  C   UNL A   1      36.859  33.693  29.372  1.00  0.00     0.010 A 
ATOM     36  C   UNL A   1      36.808  32.649  30.316  1.00  0.00    -0.014 A 
BRANCH  36  37
ATOM     37  C   UNL A   1      38.057  32.124  30.901  1.00  0.00     0.031 A 
ATOM     38  C   UNL A   1      38.617  30.880  30.261  1.00  0.00     0.074 A 
ATOM     39  C   UNL A   1      38.720  32.769  31.872  1.00  0.00     0.049 A 
ATOM     40  N   UNL A   1      39.698  30.207  30.550  1.00  0.00    -0.248 NA
ATOM     41  C   UNL A   1      37.855  30.331  29.123  1.00  0.00     0.031 C 
ATOM     42  C   UNL A   1      38.325  34.039  32.478  1.00  0.00     0.029 A 
ATOM     43  N   UNL A   1      39.888  32.438  32.505  1.00  0.00    -0.354 N 
ATOM     44  C   UNL A   1      39.733  29.157  29.640  1.00  0.00     0.074 A 
ATOM     45  C   UNL A   1      38.567  29.268  28.799  1.00  0.00     0.031 C 
ATOM     46  C   UNL A   1      39.239  34.379  33.404  1.00  0.00     0.029 A 
ATOM     47  C   UNL A   1      40.256  33.331  33.478  1.00  0.00     0.049 A 
ATOM     48  H   UNL A   1      40.413  31.636  32.283  1.00  0.00     0.167 HD
ATOM     49  C   UNL A   1      40.655  28.176  29.518  1.00  0.00     0.031 A 
ATOM     50  C   UNL A   1      41.288  33.281  34.342  1.00  0.00     0.031 A 
ATOM     51  C   UNL A   1      41.794  28.056  30.381  1.00  0.00     0.049 A 
ATOM     52  C   UNL A   1      42.235  32.111  34.269  1.00  0.00     0.074 A 
ATOM     53  C   UNL A   1      42.784  27.092  30.376  1.00  0.00     0.029 A 
ATOM     54  N   UNL A   1      42.083  28.932  31.417  1.00  0.00    -0.354 N 
ATOM     55  N   UNL A   1      42.256  31.111  33.419  1.00  0.00    -0.248 NA
ATOM     56  C   UNL A   1      43.305  32.067  35.276  1.00  0.00     0.031 C 
ATOM     57  C   UNL A   1      43.638  27.350  31.452  1.00  0.00     0.029 A 
ATOM     58  C   UNL A   1      43.221  28.515  32.080  1.00  0.00     0.049 A 
ATOM     59  H   UNL A   1      41.556  29.731  31.646  1.00  0.00     0.167 HD
ATOM     60  C   UNL A   1      43.359  30.339  33.766  1.00  0.00     0.074 A 
ATOM     61  C   UNL A   1      43.986  30.996  34.895  1.00  0.00     0.031 C 
ATOM     62  C   UNL A   1      43.819  29.192  33.202  1.00  0.00     0.031 A 
BRANCH  49  63
ATOM     63  C   UNL A   1      40.407  27.128  28.470  1.00  0.00    -0.014 A 
ATOM     64  C   UNL A   1      39.651  25.975  28.740  1.00  0.00     0.009 A 
ATOM     65  C   UNL A   1      40.966  27.288  27.193  1.00  0.00     0.009 A 
ATOM     66  C   UNL A   1      39.494  24.988  27.763  1.00  0.00     0.001 A 
ATOM     67  C   UNL A   1      40.781  26.315  26.209  1.00  0.00     0.001 A 
ATOM     68  C   UNL A   1      40.054  25.162  26.498  1.00  0.00     0.000 A 
ENDBRANCH  49  63
BRANCH  50  69
ATOM     69  C   UNL A   1      41.465  34.345  35.366  1.00  0.00    -0.014 A 
ATOM     70  C   UNL A   1      42.256  35.474  35.101  1.00  0.00     0.009 A 
ATOM     71  C   UNL A   1      40.861  34.225  36.628  1.00  0.00     0.009 A 
ATOM     72  C   UNL A   1      42.458  36.444  36.086  1.00  0.00     0.001 A 
ATOM     73  C   UNL A   1      41.039  35.213  37.599  1.00  0.00     0.001 A 
ATOM     74  C   UNL A   1      41.845  36.315  37.331  1.00  0.00     0.000 A 
ENDBRANCH  50  69
BRANCH  62  75
ATOM     75  C   UNL A   1      45.084  28.612  33.767  1.00  0.00    -0.014 A 
ATOM     76  C   UNL A   1      46.347  29.002  33.296  1.00  0.00     0.009 A 
ATOM     77  C   UNL A   1      45.005  27.686  34.820  1.00  0.00     0.009 A 
ATOM     78  C   UNL A   1      47.504  28.440  33.837  1.00  0.00     0.001 A 
ATOM     79  C   UNL A   1      46.165  27.154  35.383  1.00  0.00     0.001 A 
ATOM     80  C   UNL A   1      47.412  27.522  34.883  1.00  0.00     0.000 A 
ENDBRANCH  62  75
ENDBRANCH  36  37
ENDBRANCH  29  31
ENDBRANCH  28  29
ENDBRANCH  27  28
ENDBRANCH  26  27
ENDBRANCH  25  26
ENDBRANCH  24  25
ENDBRANCH   1  24
TORSDOF 20
ENDMDL
