MODEL 1
REMARK VINA RESULT:     -10.1      0.000      0.000
REMARK SMILES CS(=O)(=O)c1ccc(/C=C(/C(=O)OCCOCCOCCOC(=O)c2ccc(-c3c4nc(c(-c5ccccc5)c5ccc([nH]5)c(-c5ccccc5)c5nc(c(-c6ccccc6)c6ccc3[nH]6)C=C5)C=C4)cc2)c2cccc(Br)c2)cc1
REMARK SMILES IDX 17 1 16 2 15 3 14 4 13 5 11 6 12 7 10 8 9 9 8 10 5 11 6 12
REMARK SMILES IDX 81 13 7 14 80 15 2 16 1 17 3 18 4 19 73 20 74 21 79 22 75 23
REMARK SMILES IDX 77 24 76 25 78 26 18 27 19 28 20 29 21 30 22 31 23 32 24 33
REMARK SMILES IDX 25 34 26 35 72 36 27 37 71 38 28 39 29 40 30 41 65 42 31 43
REMARK SMILES IDX 70 44 64 45 66 46 32 47 69 48 63 49 62 50 33 52 55 53 40 54
REMARK SMILES IDX 54 55 41 56 44 57 53 58 67 59 42 60 43 61 52 63 68 64 45 65
REMARK SMILES IDX 34 66 35 67 39 68 36 69 38 70 37 71 56 72 57 73 61 74 58 75
REMARK SMILES IDX 60 76 59 77 46 78 47 79 51 80 48 81 50 82 49 83
REMARK H PARENT 66 51 44 62
REMARK Flexibility Score: inf
ROOT
ATOM      1  C   UNL A   1      41.010  20.836  27.102  1.00  0.00     0.188 C 
ENDROOT
BRANCH   1   2
ATOM      2  O   UNL A   1      39.790  21.412  26.673  1.00  0.00    -0.376 OA
BRANCH   2   3
ATOM      3  C   UNL A   1      39.618  22.800  26.905  1.00  0.00     0.202 C 
BRANCH   3   4
ATOM      4  C   UNL A   1      38.487  23.503  26.142  1.00  0.00     0.261 C 
BRANCH   4   5
ATOM      5  O   UNL A   1      37.225  22.816  26.110  1.00  0.00    -0.460 OA
BRANCH   5   6
ATOM      6  C   UNL A   1      36.694  22.519  24.899  1.00  0.00     0.338 C 
ATOM      7  O   UNL A   1      37.178  21.740  24.093  1.00  0.00    -0.246 OA
BRANCH   6   8
ATOM      8  C   UNL A   1      35.362  23.198  24.720  1.00  0.00     0.067 C 
ATOM      9  C   UNL A   1      35.242  24.521  24.994  1.00  0.00     0.024 C 
BRANCH   9  10
ATOM     10  C   UNL A   1      34.085  25.424  24.771  1.00  0.00    -0.025 A 
ATOM     11  C   UNL A   1      31.816  26.896  24.014  1.00  0.00     0.067 A 
ATOM     12  C   UNL A   1      31.804  26.173  25.203  1.00  0.00     0.021 A 
ATOM     13  C   UNL A   1      32.985  26.994  23.260  1.00  0.00     0.021 A 
ATOM     14  C   UNL A   1      32.950  25.473  25.594  1.00  0.00     0.009 A 
ATOM     15  C   UNL A   1      34.110  26.255  23.639  1.00  0.00     0.009 A 
BRANCH  11  16
ATOM     16  S   UNL A   1      30.322  27.648  23.414  1.00  0.00     0.175 S 
ATOM     17  C   UNL A   1      30.393  29.303  24.056  1.00  0.00     0.163 C 
ATOM     18  O   UNL A   1      29.216  26.956  24.043  1.00  0.00    -0.224 OA
ATOM     19  O   UNL A   1      30.426  27.743  21.969  1.00  0.00    -0.224 OA
ENDBRANCH  11  16
ENDBRANCH   9  10
BRANCH   8  20
ATOM     20  C   UNL A   1      34.231  22.381  24.232  1.00  0.00    -0.010 A 
ATOM     21  C   UNL A   1      33.532  22.791  23.083  1.00  0.00     0.009 A 
ATOM     22  C   UNL A   1      33.921  21.147  24.816  1.00  0.00     0.024 A 
ATOM     23  C   UNL A   1      32.562  21.968  22.510  1.00  0.00     0.002 A 
ATOM     24  C   UNL A   1      32.959  20.324  24.227  1.00  0.00     0.018 A 
ATOM     25  C   UNL A   1      32.281  20.728  23.078  1.00  0.00     0.016 A 
ATOM     26  Br  UNL A   1      32.620  18.616  24.961  1.00  0.00    -0.051 Br
ENDBRANCH   8  20
ENDBRANCH   6   8
ENDBRANCH   5   6
ENDBRANCH   4   5
ENDBRANCH   3   4
ENDBRANCH   2   3
ENDBRANCH   1   2
BRANCH   1  27
ATOM     27  C   UNL A   1      41.629  19.877  26.065  1.00  0.00     0.188 C 
BRANCH  27  28
ATOM     28  O   UNL A   1      42.962  20.070  25.607  1.00  0.00    -0.376 OA
BRANCH  28  29
ATOM     29  C   UNL A   1      43.575  21.343  25.747  1.00  0.00     0.202 C 
BRANCH  29  30
ATOM     30  C   UNL A   1      43.294  22.416  24.688  1.00  0.00     0.261 C 
BRANCH  30  31
ATOM     31  O   UNL A   1      42.868  23.686  25.206  1.00  0.00    -0.460 OA
BRANCH  31  32
ATOM     32  C   UNL A   1      43.857  24.596  25.382  1.00  0.00     0.338 C 
ATOM     33  O   UNL A   1      44.737  24.901  24.597  1.00  0.00    -0.246 OA
BRANCH  32  34
ATOM     34  C   UNL A   1      43.636  25.329  26.646  1.00  0.00     0.060 A 
ATOM     35  C   UNL A   1      42.898  24.695  27.655  1.00  0.00     0.016 A 
ATOM     36  C   UNL A   1      44.086  26.640  26.817  1.00  0.00     0.016 A 
ATOM     37  C   UNL A   1      42.590  25.376  28.832  1.00  0.00     0.010 A 
ATOM     38  C   UNL A   1      43.751  27.333  27.985  1.00  0.00     0.010 A 
ATOM     39  C   UNL A   1      42.982  26.712  28.985  1.00  0.00    -0.014 A 
BRANCH  39  40
ATOM     40  C   UNL A   1      42.436  27.508  30.110  1.00  0.00     0.031 A 
ATOM     41  C   UNL A   1      41.144  28.250  29.910  1.00  0.00     0.074 A 
ATOM     42  C   UNL A   1      43.065  27.557  31.298  1.00  0.00     0.049 A 
ATOM     43  N   UNL A   1      40.489  29.013  30.747  1.00  0.00    -0.248 NA
ATOM     44  C   UNL A   1      40.509  28.112  28.590  1.00  0.00     0.031 C 
ATOM     45  C   UNL A   1      44.301  26.856  31.633  1.00  0.00     0.029 A 
ATOM     46  N   UNL A   1      42.738  28.238  32.445  1.00  0.00    -0.354 N 
ATOM     47  C   UNL A   1      39.365  29.447  30.056  1.00  0.00     0.074 A 
ATOM     48  C   UNL A   1      39.438  28.879  28.727  1.00  0.00     0.031 C 
ATOM     49  C   UNL A   1      44.627  27.138  32.907  1.00  0.00     0.029 A 
ATOM     50  C   UNL A   1      43.647  28.072  33.459  1.00  0.00     0.049 A 
ATOM     51  H   UNL A   1      41.929  28.792  32.530  1.00  0.00     0.167 HD
ATOM     52  C   UNL A   1      38.361  30.249  30.485  1.00  0.00     0.031 A 
ATOM     53  C   UNL A   1      43.694  28.629  34.684  1.00  0.00     0.031 A 
ATOM     54  C   UNL A   1      38.302  30.850  31.789  1.00  0.00     0.049 A 
ATOM     55  C   UNL A   1      42.616  29.595  35.105  1.00  0.00     0.074 A 
ATOM     56  C   UNL A   1      37.326  31.679  32.314  1.00  0.00     0.029 A 
ATOM     57  N   UNL A   1      39.270  30.698  32.770  1.00  0.00    -0.354 N 
ATOM     58  N   UNL A   1      41.544  29.975  34.453  1.00  0.00    -0.248 NA
ATOM     59  C   UNL A   1      42.759  30.209  36.434  1.00  0.00     0.031 C 
ATOM     60  C   UNL A   1      37.732  32.075  33.593  1.00  0.00     0.029 A 
ATOM     61  C   UNL A   1      38.930  31.445  33.886  1.00  0.00     0.049 A 
ATOM     62  H   UNL A   1      40.078  30.143  32.685  1.00  0.00     0.167 HD
ATOM     63  C   UNL A   1      40.874  30.850  35.301  1.00  0.00     0.074 A 
ATOM     64  C   UNL A   1      41.653  30.934  36.518  1.00  0.00     0.031 C 
ATOM     65  C   UNL A   1      39.715  31.522  35.090  1.00  0.00     0.031 A 
BRANCH  52  66
ATOM     66  C   UNL A   1      37.269  30.558  29.502  1.00  0.00    -0.014 A 
ATOM     67  C   UNL A   1      36.294  29.603  29.171  1.00  0.00     0.009 A 
ATOM     68  C   UNL A   1      37.208  31.828  28.907  1.00  0.00     0.009 A 
ATOM     69  C   UNL A   1      35.302  29.904  28.235  1.00  0.00     0.001 A 
ATOM     70  C   UNL A   1      36.200  32.133  27.992  1.00  0.00     0.001 A 
ATOM     71  C   UNL A   1      35.255  31.168  27.649  1.00  0.00     0.000 A 
ENDBRANCH  52  66
BRANCH  53  72
ATOM     72  C   UNL A   1      44.816  28.314  35.606  1.00  0.00    -0.014 A 
ATOM     73  C   UNL A   1      46.000  29.066  35.573  1.00  0.00     0.009 A 
ATOM     74  C   UNL A   1      44.720  27.238  36.502  1.00  0.00     0.009 A 
ATOM     75  C   UNL A   1      47.074  28.731  36.402  1.00  0.00     0.001 A 
ATOM     76  C   UNL A   1      45.785  26.923  37.349  1.00  0.00     0.001 A 
ATOM     77  C   UNL A   1      46.964  27.664  37.291  1.00  0.00     0.000 A 
ENDBRANCH  53  72
BRANCH  65  78
ATOM     78  C   UNL A   1      39.199  32.382  36.211  1.00  0.00    -0.014 A 
ATOM     79  C   UNL A   1      39.594  33.722  36.346  1.00  0.00     0.009 A 
ATOM     80  C   UNL A   1      38.264  31.853  37.116  1.00  0.00     0.009 A 
ATOM     81  C   UNL A   1      39.084  34.506  37.383  1.00  0.00     0.001 A 
ATOM     82  C   UNL A   1      37.736  32.648  38.135  1.00  0.00     0.001 A 
ATOM     83  C   UNL A   1      38.152  33.971  38.272  1.00  0.00     0.000 A 
ENDBRANCH  65  78
ENDBRANCH  39  40
ENDBRANCH  32  34
ENDBRANCH  31  32
ENDBRANCH  30  31
ENDBRANCH  29  30
ENDBRANCH  28  29
ENDBRANCH  27  28
ENDBRANCH   1  27
TORSDOF 20
ENDMDL
MODEL 2
REMARK VINA RESULT:      -9.5      5.210     10.662
REMARK SMILES CS(=O)(=O)c1ccc(/C=C(/C(=O)OCCOCCOCCOC(=O)c2ccc(-c3c4nc(c(-c5ccccc5)c5ccc([nH]5)c(-c5ccccc5)c5nc(c(-c6ccccc6)c6ccc3[nH]6)C=C5)C=C4)cc2)c2cccc(Br)c2)cc1
REMARK SMILES IDX 17 1 16 2 15 3 14 4 13 5 11 6 12 7 10 8 9 9 8 10 5 11 6 12
REMARK SMILES IDX 81 13 7 14 80 15 2 16 1 17 3 18 4 19 73 20 74 21 79 22 75 23
REMARK SMILES IDX 77 24 76 25 78 26 18 27 19 28 20 29 21 30 22 31 23 32 24 33
REMARK SMILES IDX 25 34 26 35 72 36 27 37 71 38 28 39 29 40 30 41 65 42 31 43
REMARK SMILES IDX 70 44 64 45 66 46 32 47 69 48 63 49 62 50 33 52 55 53 40 54
REMARK SMILES IDX 54 55 41 56 44 57 53 58 67 59 42 60 43 61 52 63 68 64 45 65
REMARK SMILES IDX 34 66 35 67 39 68 36 69 38 70 37 71 56 72 57 73 61 74 58 75
REMARK SMILES IDX 60 76 59 77 46 78 47 79 51 80 48 81 50 82 49 83
REMARK H PARENT 66 51 44 62
REMARK Flexibility Score: inf
ROOT
ATOM      1  C   UNL A   1      35.046  35.224  32.675  1.00  0.00     0.188 C 
ENDROOT
BRANCH   1   2
ATOM      2  O   UNL A   1      34.295  35.442  31.495  1.00  0.00    -0.376 OA
BRANCH   2   3
ATOM      3  C   UNL A   1      34.186  34.355  30.592  1.00  0.00     0.202 C 
BRANCH   3   4
ATOM      4  C   UNL A   1      33.823  34.684  29.138  1.00  0.00     0.261 C 
BRANCH   4   5
ATOM      5  O   UNL A   1      33.769  33.569  28.232  1.00  0.00    -0.460 OA
BRANCH   5   6
ATOM      6  C   UNL A   1      34.939  32.985  27.875  1.00  0.00     0.338 C 
ATOM      7  O   UNL A   1      35.981  33.581  27.653  1.00  0.00    -0.246 OA
BRANCH   6   8
ATOM      8  C   UNL A   1      34.813  31.484  27.894  1.00  0.00     0.067 C 
ATOM      9  C   UNL A   1      33.730  30.896  27.327  1.00  0.00     0.024 C 
BRANCH   9  10
ATOM     10  C   UNL A   1      33.454  29.454  27.109  1.00  0.00    -0.025 A 
ATOM     11  C   UNL A   1      32.632  26.854  26.434  1.00  0.00     0.067 A 
ATOM     12  C   UNL A   1      33.902  27.292  26.072  1.00  0.00     0.021 A 
ATOM     13  C   UNL A   1      31.813  27.651  27.234  1.00  0.00     0.021 A 
ATOM     14  C   UNL A   1      34.320  28.574  26.445  1.00  0.00     0.009 A 
ATOM     15  C   UNL A   1      32.225  28.947  27.563  1.00  0.00     0.009 A 
BRANCH  11  16
ATOM     16  S   UNL A   1      32.018  25.302  25.826  1.00  0.00     0.175 S 
ATOM     17  C   UNL A   1      33.491  24.391  25.429  1.00  0.00     0.163 C 
ATOM     18  O   UNL A   1      31.303  25.580  24.597  1.00  0.00    -0.224 OA
ATOM     19  O   UNL A   1      31.375  24.617  26.933  1.00  0.00    -0.224 OA
ENDBRANCH  11  16
ENDBRANCH   9  10
BRANCH   8  20
ATOM     20  C   UNL A   1      35.901  30.708  28.525  1.00  0.00    -0.010 A 
ATOM     21  C   UNL A   1      35.720  30.203  29.825  1.00  0.00     0.009 A 
ATOM     22  C   UNL A   1      37.055  30.362  27.812  1.00  0.00     0.024 A 
ATOM     23  C   UNL A   1      36.661  29.342  30.390  1.00  0.00     0.002 A 
ATOM     24  C   UNL A   1      37.984  29.489  28.381  1.00  0.00     0.018 A 
ATOM     25  C   UNL A   1      37.792  28.978  29.663  1.00  0.00     0.016 A 
ATOM     26  Br  UNL A   1      39.488  28.945  27.373  1.00  0.00    -0.051 Br
ENDBRANCH   8  20
ENDBRANCH   6   8
ENDBRANCH   5   6
ENDBRANCH   4   5
ENDBRANCH   3   4
ENDBRANCH   2   3
ENDBRANCH   1   2
BRANCH   1  27
ATOM     27  C   UNL A   1      34.386  34.220  33.641  1.00  0.00     0.188 C 
BRANCH  27  28
ATOM     28  O   UNL A   1      34.969  32.942  33.865  1.00  0.00    -0.376 OA
BRANCH  28  29
ATOM     29  C   UNL A   1      36.195  32.608  33.231  1.00  0.00     0.202 C 
BRANCH  29  30
ATOM     30  C   UNL A   1      37.497  32.734  34.032  1.00  0.00     0.261 C 
BRANCH  30  31
ATOM     31  O   UNL A   1      38.656  32.169  33.401  1.00  0.00    -0.460 OA
BRANCH  31  32
ATOM     32  C   UNL A   1      38.889  30.864  33.685  1.00  0.00     0.338 C 
ATOM     33  O   UNL A   1      38.308  30.164  34.496  1.00  0.00    -0.246 OA
BRANCH  32  34
ATOM     34  C   UNL A   1      39.875  30.317  32.731  1.00  0.00     0.060 A 
ATOM     35  C   UNL A   1      40.663  29.233  33.145  1.00  0.00     0.016 A 
ATOM     36  C   UNL A   1      40.074  30.896  31.476  1.00  0.00     0.016 A 
ATOM     37  C   UNL A   1      41.665  28.737  32.313  1.00  0.00     0.010 A 
ATOM     38  C   UNL A   1      41.099  30.416  30.654  1.00  0.00     0.010 A 
ATOM     39  C   UNL A   1      41.913  29.352  31.080  1.00  0.00    -0.014 A 
BRANCH  39  40
ATOM     40  C   UNL A   1      43.134  28.995  30.319  1.00  0.00     0.031 A 
ATOM     41  C   UNL A   1      43.148  27.711  29.536  1.00  0.00     0.074 A 
ATOM     42  C   UNL A   1      44.208  29.803  30.307  1.00  0.00     0.049 A 
ATOM     43  N   UNL A   1      44.105  27.195  28.808  1.00  0.00    -0.248 NA
ATOM     44  C   UNL A   1      41.917  26.906  29.580  1.00  0.00     0.031 C 
ATOM     45  C   UNL A   1      44.310  31.090  30.991  1.00  0.00     0.029 A 
ATOM     46  N   UNL A   1      45.424  29.651  29.688  1.00  0.00    -0.354 N 
ATOM     47  C   UNL A   1      43.594  26.004  28.309  1.00  0.00     0.074 A 
ATOM     48  C   UNL A   1      42.252  25.865  28.832  1.00  0.00     0.031 C 
ATOM     49  C   UNL A   1      45.525  31.614  30.749  1.00  0.00     0.029 A 
ATOM     50  C   UNL A   1      46.297  30.681  29.931  1.00  0.00     0.049 A 
ATOM     51  H   UNL A   1      45.648  28.876  29.123  1.00  0.00     0.167 HD
ATOM     52  C   UNL A   1      44.187  25.102  27.491  1.00  0.00     0.031 A 
ATOM     53  C   UNL A   1      47.580  30.840  29.554  1.00  0.00     0.031 A 
ATOM     54  C   UNL A   1      45.534  25.212  27.001  1.00  0.00     0.049 A 
ATOM     55  C   UNL A   1      48.251  29.777  28.723  1.00  0.00     0.074 A 
ATOM     56  C   UNL A   1      46.223  24.347  26.169  1.00  0.00     0.029 A 
ATOM     57  N   UNL A   1      46.403  26.246  27.313  1.00  0.00    -0.354 N 
ATOM     58  N   UNL A   1      47.748  28.669  28.234  1.00  0.00    -0.248 NA
ATOM     59  C   UNL A   1      49.669  29.988  28.395  1.00  0.00     0.031 C 
ATOM     60  C   UNL A   1      47.529  24.828  26.024  1.00  0.00     0.029 A 
ATOM     61  C   UNL A   1      47.633  26.023  26.717  1.00  0.00     0.049 A 
ATOM     62  H   UNL A   1      46.180  27.021  27.876  1.00  0.00     0.167 HD
ATOM     63  C   UNL A   1      48.779  28.067  27.521  1.00  0.00     0.074 A 
ATOM     64  C   UNL A   1      49.930  28.938  27.630  1.00  0.00     0.031 C 
ATOM     65  C   UNL A   1      48.771  26.897  26.835  1.00  0.00     0.031 A 
BRANCH  52  66
ATOM     66  C   UNL A   1      43.386  23.888  27.120  1.00  0.00    -0.014 A 
ATOM     67  C   UNL A   1      42.790  23.767  25.853  1.00  0.00     0.009 A 
ATOM     68  C   UNL A   1      43.233  22.846  28.046  1.00  0.00     0.009 A 
ATOM     69  C   UNL A   1      42.027  22.641  25.538  1.00  0.00     0.001 A 
ATOM     70  C   UNL A   1      42.491  21.710  27.718  1.00  0.00     0.001 A 
ATOM     71  C   UNL A   1      41.881  21.613  26.469  1.00  0.00     0.000 A 
ENDBRANCH  52  66
BRANCH  53  72
ATOM     72  C   UNL A   1      48.339  32.046  29.978  1.00  0.00    -0.014 A 
ATOM     73  C   UNL A   1      48.376  33.189  29.166  1.00  0.00     0.009 A 
ATOM     74  C   UNL A   1      49.057  32.046  31.184  1.00  0.00     0.009 A 
ATOM     75  C   UNL A   1      49.136  34.300  29.542  1.00  0.00     0.001 A 
ATOM     76  C   UNL A   1      49.793  33.168  31.570  1.00  0.00     0.001 A 
ATOM     77  C   UNL A   1      49.840  34.289  30.745  1.00  0.00     0.000 A 
ENDBRANCH  53  72
BRANCH  65  78
ATOM     78  C   UNL A   1      50.035  26.505  26.119  1.00  0.00    -0.014 A 
ATOM     79  C   UNL A   1      50.367  27.050  24.870  1.00  0.00     0.009 A 
ATOM     80  C   UNL A   1      50.929  25.612  26.733  1.00  0.00     0.009 A 
ATOM     81  C   UNL A   1      51.557  26.685  24.235  1.00  0.00     0.001 A 
ATOM     82  C   UNL A   1      52.130  25.271  26.107  1.00  0.00     0.001 A 
ATOM     83  C   UNL A   1      52.439  25.802  24.856  1.00  0.00     0.000 A 
ENDBRANCH  65  78
ENDBRANCH  39  40
ENDBRANCH  32  34
ENDBRANCH  31  32
ENDBRANCH  30  31
ENDBRANCH  29  30
ENDBRANCH  28  29
ENDBRANCH  27  28
ENDBRANCH   1  27
TORSDOF 20
ENDMDL
MODEL 3
REMARK VINA RESULT:      -8.4      2.687      7.168
REMARK SMILES CS(=O)(=O)c1ccc(/C=C(/C(=O)OCCOCCOCCOC(=O)c2ccc(-c3c4nc(c(-c5ccccc5)c5ccc([nH]5)c(-c5ccccc5)c5nc(c(-c6ccccc6)c6ccc3[nH]6)C=C5)C=C4)cc2)c2cccc(Br)c2)cc1
REMARK SMILES IDX 17 1 16 2 15 3 14 4 13 5 11 6 12 7 10 8 9 9 8 10 5 11 6 12
REMARK SMILES IDX 81 13 7 14 80 15 2 16 1 17 3 18 4 19 73 20 74 21 79 22 75 23
REMARK SMILES IDX 77 24 76 25 78 26 18 27 19 28 20 29 21 30 22 31 23 32 24 33
REMARK SMILES IDX 25 34 26 35 72 36 27 37 71 38 28 39 29 40 30 41 65 42 31 43
REMARK SMILES IDX 70 44 64 45 66 46 32 47 69 48 63 49 62 50 33 52 55 53 40 54
REMARK SMILES IDX 54 55 41 56 44 57 53 58 67 59 42 60 43 61 52 63 68 64 45 65
REMARK SMILES IDX 34 66 35 67 39 68 36 69 38 70 37 71 56 72 57 73 61 74 58 75
REMARK SMILES IDX 60 76 59 77 46 78 47 79 51 80 48 81 50 82 49 83
REMARK H PARENT 66 51 44 62
REMARK Flexibility Score: inf
ROOT
ATOM      1  C   UNL A   1      45.753  23.014  23.921  1.00  0.00     0.188 C 
ENDROOT
BRANCH   1   2
ATOM      2  O   UNL A   1      44.379  22.690  23.821  1.00  0.00    -0.376 OA
BRANCH   2   3
ATOM      3  C   UNL A   1      43.510  23.275  24.775  1.00  0.00     0.202 C 
BRANCH   3   4
ATOM      4  C   UNL A   1      42.917  22.349  25.847  1.00  0.00     0.261 C 
BRANCH   4   5
ATOM      5  O   UNL A   1      41.611  21.817  25.569  1.00  0.00    -0.460 OA
BRANCH   5   6
ATOM      6  C   UNL A   1      40.749  21.677  26.605  1.00  0.00     0.338 C 
ATOM      7  O   UNL A   1      40.953  21.001  27.601  1.00  0.00    -0.246 OA
BRANCH   6   8
ATOM      8  C   UNL A   1      39.543  22.560  26.418  1.00  0.00     0.067 C 
ATOM      9  C   UNL A   1      38.411  22.042  25.880  1.00  0.00     0.024 C 
BRANCH   9  10
ATOM     10  C   UNL A   1      37.076  22.671  25.723  1.00  0.00    -0.025 A 
ATOM     11  C   UNL A   1      34.562  23.719  25.033  1.00  0.00     0.067 A 
ATOM     12  C   UNL A   1      34.651  22.710  25.987  1.00  0.00     0.021 A 
ATOM     13  C   UNL A   1      35.719  24.297  24.509  1.00  0.00     0.021 A 
ATOM     14  C   UNL A   1      35.908  22.219  26.355  1.00  0.00     0.009 A 
ATOM     15  C   UNL A   1      36.967  23.768  24.852  1.00  0.00     0.009 A 
BRANCH  11  16
ATOM     16  S   UNL A   1      32.974  24.235  24.427  1.00  0.00     0.175 S 
ATOM     17  C   UNL A   1      33.328  25.728  23.531  1.00  0.00     0.163 C 
ATOM     18  O   UNL A   1      32.167  24.570  25.582  1.00  0.00    -0.224 OA
ATOM     19  O   UNL A   1      32.530  23.248  23.459  1.00  0.00    -0.224 OA
ENDBRANCH  11  16
ENDBRANCH   9  10
BRANCH   8  20
ATOM     20  C   UNL A   1      39.647  23.970  26.851  1.00  0.00    -0.010 A 
ATOM     21  C   UNL A   1      39.118  24.346  28.098  1.00  0.00     0.009 A 
ATOM     22  C   UNL A   1      40.367  24.908  26.103  1.00  0.00     0.024 A 
ATOM     23  C   UNL A   1      39.332  25.630  28.602  1.00  0.00     0.002 A 
ATOM     24  C   UNL A   1      40.587  26.186  26.622  1.00  0.00     0.018 A 
ATOM     25  C   UNL A   1      40.075  26.549  27.866  1.00  0.00     0.016 A 
ATOM     26  Br  UNL A   1      41.646  27.415  25.652  1.00  0.00    -0.051 Br
ENDBRANCH   8  20
ENDBRANCH   6   8
ENDBRANCH   5   6
ENDBRANCH   4   5
ENDBRANCH   3   4
ENDBRANCH   2   3
ENDBRANCH   1   2
BRANCH   1  27
ATOM     27  C   UNL A   1      46.338  22.765  25.326  1.00  0.00     0.188 C 
BRANCH  27  28
ATOM     28  O   UNL A   1      46.831  23.847  26.106  1.00  0.00    -0.376 OA
BRANCH  28  29
ATOM     29  C   UNL A   1      47.003  25.123  25.508  1.00  0.00     0.202 C 
BRANCH  29  30
ATOM     30  C   UNL A   1      46.051  26.258  25.906  1.00  0.00     0.261 C 
BRANCH  30  31
ATOM     31  O   UNL A   1      45.878  26.440  27.320  1.00  0.00    -0.460 OA
BRANCH  31  32
ATOM     32  C   UNL A   1      44.839  25.760  27.865  1.00  0.00     0.338 C 
ATOM     33  O   UNL A   1      44.603  24.568  27.780  1.00  0.00    -0.246 OA
BRANCH  32  34
ATOM     34  C   UNL A   1      44.073  26.657  28.756  1.00  0.00     0.060 A 
ATOM     35  C   UNL A   1      44.022  28.020  28.432  1.00  0.00     0.016 A 
ATOM     36  C   UNL A   1      43.471  26.184  29.923  1.00  0.00     0.016 A 
ATOM     37  C   UNL A   1      43.383  28.919  29.285  1.00  0.00     0.010 A 
ATOM     38  C   UNL A   1      42.856  27.091  30.793  1.00  0.00     0.010 A 
ATOM     39  C   UNL A   1      42.832  28.463  30.490  1.00  0.00    -0.014 A 
BRANCH  39  40
ATOM     40  C   UNL A   1      42.390  29.446  31.507  1.00  0.00     0.031 A 
ATOM     41  C   UNL A   1      43.272  29.698  32.699  1.00  0.00     0.074 A 
ATOM     42  C   UNL A   1      41.235  30.120  31.369  1.00  0.00     0.049 A 
ATOM     43  N   UNL A   1      43.084  30.503  33.713  1.00  0.00    -0.248 NA
ATOM     44  C   UNL A   1      44.533  28.942  32.751  1.00  0.00     0.031 C 
ATOM     45  C   UNL A   1      40.310  29.996  30.246  1.00  0.00     0.029 A 
ATOM     46  N   UNL A   1      40.647  31.047  32.193  1.00  0.00    -0.354 N 
ATOM     47  C   UNL A   1      44.200  30.349  34.525  1.00  0.00     0.074 A 
ATOM     48  C   UNL A   1      45.050  29.362  33.895  1.00  0.00     0.031 C 
ATOM     49  C   UNL A   1      39.269  30.824  30.449  1.00  0.00     0.029 A 
ATOM     50  C   UNL A   1      39.436  31.500  31.734  1.00  0.00     0.049 A 
ATOM     51  H   UNL A   1      41.055  31.356  33.034  1.00  0.00     0.167 HD
ATOM     52  C   UNL A   1      44.494  30.971  35.692  1.00  0.00     0.031 A 
ATOM     53  C   UNL A   1      38.553  32.347  32.298  1.00  0.00     0.031 A 
ATOM     54  C   UNL A   1      43.636  31.922  36.344  1.00  0.00     0.049 A 
ATOM     55  C   UNL A   1      38.858  32.952  33.645  1.00  0.00     0.074 A 
ATOM     56  C   UNL A   1      43.847  32.603  37.531  1.00  0.00     0.029 A 
ATOM     57  N   UNL A   1      42.394  32.315  35.872  1.00  0.00    -0.354 N 
ATOM     58  N   UNL A   1      39.930  32.821  34.388  1.00  0.00    -0.248 NA
ATOM     59  C   UNL A   1      37.826  33.823  34.228  1.00  0.00     0.031 C 
ATOM     60  C   UNL A   1      42.706  33.365  37.805  1.00  0.00     0.029 A 
ATOM     61  C   UNL A   1      41.812  33.204  36.760  1.00  0.00     0.049 A 
ATOM     62  H   UNL A   1      41.986  32.007  35.031  1.00  0.00     0.167 HD
ATOM     63  C   UNL A   1      39.711  33.611  35.512  1.00  0.00     0.074 A 
ATOM     64  C   UNL A   1      38.413  34.228  35.345  1.00  0.00     0.031 C 
ATOM     65  C   UNL A   1      40.517  33.809  36.584  1.00  0.00     0.031 A 
BRANCH  52  66
ATOM     66  C   UNL A   1      45.785  30.593  36.359  1.00  0.00    -0.014 A 
ATOM     67  C   UNL A   1      45.847  29.532  37.277  1.00  0.00     0.009 A 
ATOM     68  C   UNL A   1      46.957  31.302  36.058  1.00  0.00     0.009 A 
ATOM     69  C   UNL A   1      47.052  29.214  37.906  1.00  0.00     0.001 A 
ATOM     70  C   UNL A   1      48.165  30.965  36.669  1.00  0.00     0.001 A 
ATOM     71  C   UNL A   1      48.210  29.928  37.599  1.00  0.00     0.000 A 
ENDBRANCH  52  66
BRANCH  53  72
ATOM     72  C   UNL A   1      37.274  32.660  31.610  1.00  0.00    -0.014 A 
ATOM     73  C   UNL A   1      36.097  31.972  31.941  1.00  0.00     0.009 A 
ATOM     74  C   UNL A   1      37.232  33.629  30.595  1.00  0.00     0.009 A 
ATOM     75  C   UNL A   1      34.909  32.231  31.253  1.00  0.00     0.001 A 
ATOM     76  C   UNL A   1      36.037  33.905  29.928  1.00  0.00     0.001 A 
ATOM     77  C   UNL A   1      34.879  33.199  30.250  1.00  0.00     0.000 A 
ENDBRANCH  53  72
BRANCH  65  78
ATOM     78  C   UNL A   1      40.035  34.757  37.647  1.00  0.00    -0.014 A 
ATOM     79  C   UNL A   1      39.289  34.304  38.747  1.00  0.00     0.009 A 
ATOM     80  C   UNL A   1      40.376  36.117  37.570  1.00  0.00     0.009 A 
ATOM     81  C   UNL A   1      38.870  35.200  39.733  1.00  0.00     0.001 A 
ATOM     82  C   UNL A   1      39.979  37.005  38.572  1.00  0.00     0.001 A 
ATOM     83  C   UNL A   1      39.220  36.548  39.648  1.00  0.00     0.000 A 
ENDBRANCH  65  78
ENDBRANCH  39  40
ENDBRANCH  32  34
ENDBRANCH  31  32
ENDBRANCH  30  31
ENDBRANCH  29  30
ENDBRANCH  28  29
ENDBRANCH  27  28
ENDBRANCH   1  27
TORSDOF 20
ENDMDL
