MODEL 1
REMARK VINA RESULT:      -9.0      0.000      0.000
REMARK SMILES C#CCN(CC(=O)OCCOCCOCCOC(=O)c1ccc(-c2c3nc(c(-c4ccccc4)c4ccc([nH]4)c(-c4ccccc4)c4nc(c(-c5ccccc5)c5ccc2[nH]5)C=C4)C=C3)cc1)C(=O)NCc1ccnc(C)n1
REMARK SMILES IDX 12 1 11 2 10 3 9 4 8 5 6 6 7 7 5 8 4 9 3 10 2 11 1 12 68 13
REMARK SMILES IDX 69 14 70 15 71 17 72 18 73 19 78 20 74 21 76 22 75 23 77 24
REMARK SMILES IDX 13 25 14 26 15 27 16 28 17 29 18 30 19 31 20 32 21 33 67 34
REMARK SMILES IDX 22 35 66 36 23 37 24 38 25 39 60 40 26 41 65 42 59 43 61 44
REMARK SMILES IDX 27 45 64 46 58 47 57 48 28 50 50 51 35 52 49 53 36 54 39 55
REMARK SMILES IDX 48 56 62 57 37 58 38 59 47 61 63 62 40 63 29 64 30 65 34 66
REMARK SMILES IDX 31 67 33 68 32 69 51 70 52 71 56 72 53 73 55 74 54 75 41 76
REMARK SMILES IDX 42 77 46 78 43 79 45 80 44 81
REMARK H PARENT 70 16 61 49 39 60
REMARK Flexibility Score: inf
ROOT
ATOM      1  C   UNL A   1      40.826  21.712  27.399  1.00  0.00     0.188 C 
ENDROOT
BRANCH   1   2
ATOM      2  O   UNL A   1      39.722  22.510  26.972  1.00  0.00    -0.376 OA
BRANCH   2   3
ATOM      3  C   UNL A   1      38.875  21.770  26.074  1.00  0.00     0.202 C 
BRANCH   3   4
ATOM      4  C   UNL A   1      37.544  22.445  25.652  1.00  0.00     0.261 C 
BRANCH   4   5
ATOM      5  O   UNL A   1      37.020  21.937  24.402  1.00  0.00    -0.462 OA
BRANCH   5   6
ATOM      6  C   UNL A   1      36.511  22.860  23.542  1.00  0.00     0.325 C 
ATOM      7  O   UNL A   1      36.771  22.888  22.343  1.00  0.00    -0.250 OA
BRANCH   6   8
ATOM      8  C   UNL A   1      35.635  23.941  24.211  1.00  0.00     0.245 C 
BRANCH   8   9
ATOM      9  N   UNL A   1      34.172  23.804  24.242  1.00  0.00    -0.303 N 
BRANCH   9  10
ATOM     10  C   UNL A   1      33.501  23.773  25.596  1.00  0.00     0.211 C 
BRANCH  10  11
ATOM     11  C   UNL A   1      32.911  25.126  25.960  1.00  0.00    -0.085 C 
ATOM     12  C   UNL A   1      32.405  26.287  26.272  1.00  0.00     0.006 C 
ENDBRANCH  10  11
ENDBRANCH   9  10
BRANCH   9  13
ATOM     13  C   UNL A   1      33.370  23.752  23.132  1.00  0.00     0.319 C 
ATOM     14  O   UNL A   1      32.962  22.670  22.697  1.00  0.00    -0.249 OA
ATOM     15  N   UNL A   1      33.010  24.804  22.369  1.00  0.00    -0.332 N 
ATOM     16  H   UNL A   1      32.421  24.477  21.651  1.00  0.00     0.165 HD
BRANCH  15  17
ATOM     17  C   UNL A   1      33.171  26.263  22.210  1.00  0.00     0.174 C 
BRANCH  17  18
ATOM     18  C   UNL A   1      31.937  27.082  22.641  1.00  0.00     0.063 A 
ATOM     19  C   UNL A   1      32.015  28.457  22.704  1.00  0.00     0.046 A 
ATOM     20  N   UNL A   1      30.802  26.447  23.038  1.00  0.00    -0.236 NA
ATOM     21  C   UNL A   1      30.919  29.153  23.157  1.00  0.00     0.115 A 
ATOM     22  C   UNL A   1      29.772  27.221  23.482  1.00  0.00     0.125 A 
ATOM     23  N   UNL A   1      29.785  28.563  23.540  1.00  0.00    -0.242 NA
ATOM     24  C   UNL A   1      28.489  26.577  23.914  1.00  0.00     0.089 C 
ENDBRANCH  17  18
ENDBRANCH  15  17
ENDBRANCH   9  13
ENDBRANCH   8   9
ENDBRANCH   6   8
ENDBRANCH   5   6
ENDBRANCH   4   5
ENDBRANCH   3   4
ENDBRANCH   2   3
ENDBRANCH   1   2
BRANCH   1  25
ATOM     25  C   UNL A   1      41.762  21.163  26.331  1.00  0.00     0.188 C 
BRANCH  25  26
ATOM     26  O   UNL A   1      43.087  21.648  26.448  1.00  0.00    -0.376 OA
BRANCH  26  27
ATOM     27  C   UNL A   1      43.948  21.191  25.399  1.00  0.00     0.202 C 
BRANCH  27  28
ATOM     28  C   UNL A   1      44.293  22.289  24.373  1.00  0.00     0.261 C 
BRANCH  28  29
ATOM     29  O   UNL A   1      43.586  23.532  24.640  1.00  0.00    -0.460 OA
BRANCH  29  30
ATOM     30  C   UNL A   1      44.357  24.570  25.077  1.00  0.00     0.338 C 
ATOM     31  O   UNL A   1      45.456  24.868  24.666  1.00  0.00    -0.246 OA
BRANCH  30  32
ATOM     32  C   UNL A   1      43.660  25.367  26.131  1.00  0.00     0.060 A 
ATOM     33  C   UNL A   1      44.008  26.719  26.274  1.00  0.00     0.016 A 
ATOM     34  C   UNL A   1      42.731  24.807  27.015  1.00  0.00     0.016 A 
ATOM     35  C   UNL A   1      43.412  27.510  27.265  1.00  0.00     0.010 A 
ATOM     36  C   UNL A   1      42.166  25.592  28.039  1.00  0.00     0.010 A 
ATOM     37  C   UNL A   1      42.505  26.949  28.177  1.00  0.00    -0.014 A 
BRANCH  37  38
ATOM     38  C   UNL A   1      42.049  27.760  29.344  1.00  0.00     0.031 A 
ATOM     39  C   UNL A   1      40.752  28.520  29.242  1.00  0.00     0.074 A 
ATOM     40  C   UNL A   1      42.728  27.787  30.508  1.00  0.00     0.049 A 
ATOM     41  N   UNL A   1      40.101  29.184  30.165  1.00  0.00    -0.248 NA
ATOM     42  C   UNL A   1      40.100  28.519  27.924  1.00  0.00     0.031 C 
ATOM     43  C   UNL A   1      43.977  27.082  30.777  1.00  0.00     0.029 A 
ATOM     44  N   UNL A   1      42.443  28.428  31.693  1.00  0.00    -0.354 N 
ATOM     45  C   UNL A   1      38.947  29.651  29.549  1.00  0.00     0.074 A 
ATOM     46  C   UNL A   1      39.005  29.224  28.167  1.00  0.00     0.031 C 
ATOM     47  C   UNL A   1      44.348  27.317  32.049  1.00  0.00     0.029 A 
ATOM     48  C   UNL A   1      43.373  28.204  32.682  1.00  0.00     0.049 A 
ATOM     49  H   UNL A   1      41.647  28.992  31.821  1.00  0.00     0.167 HD
ATOM     50  C   UNL A   1      37.926  30.370  30.078  1.00  0.00     0.031 A 
ATOM     51  C   UNL A   1      43.434  28.663  33.949  1.00  0.00     0.031 A 
ATOM     52  C   UNL A   1      37.884  30.870  31.427  1.00  0.00     0.049 A 
ATOM     53  C   UNL A   1      42.341  29.557  34.480  1.00  0.00     0.074 A 
ATOM     54  C   UNL A   1      36.898  31.627  32.036  1.00  0.00     0.029 A 
ATOM     55  N   UNL A   1      38.884  30.687  32.368  1.00  0.00    -0.354 N 
ATOM     56  N   UNL A   1      41.229  29.943  33.902  1.00  0.00    -0.248 NA
ATOM     57  C   UNL A   1      42.514  30.076  35.848  1.00  0.00     0.031 C 
ATOM     58  C   UNL A   1      37.330  31.956  33.325  1.00  0.00     0.029 A 
ATOM     59  C   UNL A   1      38.557  31.349  33.540  1.00  0.00     0.049 A 
ATOM     60  H   UNL A   1      39.706  30.165  32.224  1.00  0.00     0.167 HD
ATOM     61  C   UNL A   1      40.563  30.725  34.840  1.00  0.00     0.074 A 
ATOM     62  C   UNL A   1      41.383  30.741  36.033  1.00  0.00     0.031 C 
ATOM     63  C   UNL A   1      39.379  31.373  34.722  1.00  0.00     0.031 A 
BRANCH  50  64
ATOM     64  C   UNL A   1      36.782  30.697  29.161  1.00  0.00    -0.014 A 
ATOM     65  C   UNL A   1      36.525  32.020  28.768  1.00  0.00     0.009 A 
ATOM     66  C   UNL A   1      35.957  29.670  28.678  1.00  0.00     0.009 A 
ATOM     67  C   UNL A   1      35.441  32.311  27.937  1.00  0.00     0.001 A 
ATOM     68  C   UNL A   1      34.889  29.960  27.827  1.00  0.00     0.001 A 
ATOM     69  C   UNL A   1      34.627  31.281  27.466  1.00  0.00     0.000 A 
ENDBRANCH  50  64
BRANCH  51  70
ATOM     70  C   UNL A   1      44.587  28.310  34.826  1.00  0.00    -0.014 A 
ATOM     71  C   UNL A   1      44.528  27.199  35.683  1.00  0.00     0.009 A 
ATOM     72  C   UNL A   1      45.729  29.125  34.855  1.00  0.00     0.009 A 
ATOM     73  C   UNL A   1      45.573  26.933  36.572  1.00  0.00     0.001 A 
ATOM     74  C   UNL A   1      46.785  28.839  35.722  1.00  0.00     0.001 A 
ATOM     75  C   UNL A   1      46.702  27.750  36.589  1.00  0.00     0.000 A 
ENDBRANCH  51  70
BRANCH  63  76
ATOM     76  C   UNL A   1      38.883  32.139  35.920  1.00  0.00    -0.014 A 
ATOM     77  C   UNL A   1      39.161  33.506  36.081  1.00  0.00     0.009 A 
ATOM     78  C   UNL A   1      38.098  31.491  36.886  1.00  0.00     0.009 A 
ATOM     79  C   UNL A   1      38.696  34.196  37.202  1.00  0.00     0.001 A 
ATOM     80  C   UNL A   1      37.608  32.192  37.991  1.00  0.00     0.001 A 
ATOM     81  C   UNL A   1      37.917  33.540  38.153  1.00  0.00     0.000 A 
ENDBRANCH  63  76
ENDBRANCH  37  38
ENDBRANCH  30  32
ENDBRANCH  29  30
ENDBRANCH  28  29
ENDBRANCH  27  28
ENDBRANCH  26  27
ENDBRANCH  25  26
ENDBRANCH   1  25
TORSDOF 23
ENDMDL
MODEL 2
REMARK VINA RESULT:      -8.7      2.215      6.869
REMARK SMILES C#CCN(CC(=O)OCCOCCOCCOC(=O)c1ccc(-c2c3nc(c(-c4ccccc4)c4ccc([nH]4)c(-c4ccccc4)c4nc(c(-c5ccccc5)c5ccc2[nH]5)C=C4)C=C3)cc1)C(=O)NCc1ccnc(C)n1
REMARK SMILES IDX 12 1 11 2 10 3 9 4 8 5 6 6 7 7 5 8 4 9 3 10 2 11 1 12 68 13
REMARK SMILES IDX 69 14 70 15 71 17 72 18 73 19 78 20 74 21 76 22 75 23 77 24
REMARK SMILES IDX 13 25 14 26 15 27 16 28 17 29 18 30 19 31 20 32 21 33 67 34
REMARK SMILES IDX 22 35 66 36 23 37 24 38 25 39 60 40 26 41 65 42 59 43 61 44
REMARK SMILES IDX 27 45 64 46 58 47 57 48 28 50 50 51 35 52 49 53 36 54 39 55
REMARK SMILES IDX 48 56 62 57 37 58 38 59 47 61 63 62 40 63 29 64 30 65 34 66
REMARK SMILES IDX 31 67 33 68 32 69 51 70 52 71 56 72 53 73 55 74 54 75 41 76
REMARK SMILES IDX 42 77 46 78 43 79 45 80 44 81
REMARK H PARENT 70 16 61 49 39 60
REMARK Flexibility Score: inf
ROOT
ATOM      1  C   UNL A   1      40.422  22.063  27.289  1.00  0.00     0.188 C 
ENDROOT
BRANCH   1   2
ATOM      2  O   UNL A   1      39.520  22.923  26.592  1.00  0.00    -0.376 OA
BRANCH   2   3
ATOM      3  C   UNL A   1      38.501  22.158  25.924  1.00  0.00     0.202 C 
BRANCH   3   4
ATOM      4  C   UNL A   1      37.145  22.869  25.674  1.00  0.00     0.261 C 
BRANCH   4   5
ATOM      5  O   UNL A   1      36.314  22.184  24.706  1.00  0.00    -0.462 OA
BRANCH   5   6
ATOM      6  C   UNL A   1      35.961  22.898  23.604  1.00  0.00     0.325 C 
ATOM      7  O   UNL A   1      36.639  22.950  22.581  1.00  0.00    -0.250 OA
BRANCH   6   8
ATOM      8  C   UNL A   1      34.666  23.723  23.765  1.00  0.00     0.245 C 
BRANCH   8   9
ATOM      9  N   UNL A   1      33.436  23.094  24.264  1.00  0.00    -0.303 N 
BRANCH   9  10
ATOM     10  C   UNL A   1      32.818  23.663  25.520  1.00  0.00     0.211 C 
BRANCH  10  11
ATOM     11  C   UNL A   1      33.434  23.058  26.771  1.00  0.00    -0.085 C 
ATOM     12  C   UNL A   1      33.962  22.538  27.844  1.00  0.00     0.006 C 
ENDBRANCH  10  11
ENDBRANCH   9  10
BRANCH   9  13
ATOM     13  C   UNL A   1      32.782  22.060  23.645  1.00  0.00     0.319 C 
ATOM     14  O   UNL A   1      32.272  22.211  22.530  1.00  0.00    -0.249 OA
ATOM     15  N   UNL A   1      32.555  20.841  24.175  1.00  0.00    -0.332 N 
ATOM     16  H   UNL A   1      32.081  20.297  23.505  1.00  0.00     0.165 HD
BRANCH  15  17
ATOM     17  C   UNL A   1      32.752  20.019  25.386  1.00  0.00     0.174 C 
BRANCH  17  18
ATOM     18  C   UNL A   1      32.994  18.523  25.097  1.00  0.00     0.063 A 
ATOM     19  C   UNL A   1      32.534  17.572  25.983  1.00  0.00     0.046 A 
ATOM     20  N   UNL A   1      33.728  18.147  24.017  1.00  0.00    -0.236 NA
ATOM     21  C   UNL A   1      32.825  16.251  25.731  1.00  0.00     0.115 A 
ATOM     22  C   UNL A   1      33.973  16.817  23.857  1.00  0.00     0.125 A 
ATOM     23  N   UNL A   1      33.530  15.846  24.673  1.00  0.00    -0.242 NA
ATOM     24  C   UNL A   1      34.761  16.342  22.673  1.00  0.00     0.089 C 
ENDBRANCH  17  18
ENDBRANCH  15  17
ENDBRANCH   9  13
ENDBRANCH   8   9
ENDBRANCH   6   8
ENDBRANCH   5   6
ENDBRANCH   4   5
ENDBRANCH   3   4
ENDBRANCH   2   3
ENDBRANCH   1   2
BRANCH   1  25
ATOM     25  C   UNL A   1      41.389  21.226  26.462  1.00  0.00     0.188 C 
BRANCH  25  26
ATOM     26  O   UNL A   1      42.748  21.528  26.720  1.00  0.00    -0.376 OA
BRANCH  26  27
ATOM     27  C   UNL A   1      43.612  21.221  25.619  1.00  0.00     0.202 C 
BRANCH  27  28
ATOM     28  C   UNL A   1      43.703  22.358  24.583  1.00  0.00     0.261 C 
BRANCH  28  29
ATOM     29  O   UNL A   1      43.122  23.597  25.073  1.00  0.00    -0.460 OA
BRANCH  29  30
ATOM     30  C   UNL A   1      44.002  24.614  25.305  1.00  0.00     0.338 C 
ATOM     31  O   UNL A   1      44.961  24.900  24.622  1.00  0.00    -0.246 OA
BRANCH  30  32
ATOM     32  C   UNL A   1      43.623  25.405  26.514  1.00  0.00     0.060 A 
ATOM     33  C   UNL A   1      42.623  24.890  27.353  1.00  0.00     0.016 A 
ATOM     34  C   UNL A   1      44.174  26.657  26.804  1.00  0.00     0.016 A 
ATOM     35  C   UNL A   1      42.202  25.601  28.485  1.00  0.00     0.010 A 
ATOM     36  C   UNL A   1      43.720  27.391  27.917  1.00  0.00     0.010 A 
ATOM     37  C   UNL A   1      42.725  26.872  28.764  1.00  0.00    -0.014 A 
BRANCH  37  38
ATOM     38  C   UNL A   1      42.112  27.690  29.851  1.00  0.00     0.031 A 
ATOM     39  C   UNL A   1      42.737  27.669  31.222  1.00  0.00     0.074 A 
ATOM     40  C   UNL A   1      41.053  28.494  29.633  1.00  0.00     0.049 A 
ATOM     41  N   UNL A   1      42.453  28.391  32.278  1.00  0.00    -0.248 NA
ATOM     42  C   UNL A   1      43.837  26.714  31.420  1.00  0.00     0.031 C 
ATOM     43  C   UNL A   1      40.356  28.652  28.360  1.00  0.00     0.029 A 
ATOM     44  N   UNL A   1      40.388  29.347  30.486  1.00  0.00    -0.354 N 
ATOM     45  C   UNL A   1      43.360  28.001  33.255  1.00  0.00     0.074 A 
ATOM     46  C   UNL A   1      44.179  26.955  32.677  1.00  0.00     0.031 C 
ATOM     47  C   UNL A   1      39.370  29.554  28.509  1.00  0.00     0.029 A 
ATOM     48  C   UNL A   1      39.351  30.028  29.893  1.00  0.00     0.049 A 
ATOM     49  H   UNL A   1      40.634  29.460  31.432  1.00  0.00     0.167 HD
ATOM     50  C   UNL A   1      43.506  28.464  34.521  1.00  0.00     0.031 A 
ATOM     51  C   UNL A   1      38.483  30.926  30.404  1.00  0.00     0.031 A 
ATOM     52  C   UNL A   1      42.656  29.446  35.141  1.00  0.00     0.049 A 
ATOM     53  C   UNL A   1      38.595  31.341  31.850  1.00  0.00     0.074 A 
ATOM     54  C   UNL A   1      42.720  29.954  36.427  1.00  0.00     0.029 A 
ATOM     55  N   UNL A   1      41.569  30.048  34.529  1.00  0.00    -0.354 N 
ATOM     56  N   UNL A   1      39.493  31.005  32.744  1.00  0.00    -0.248 NA
ATOM     57  C   UNL A   1      37.569  32.270  32.355  1.00  0.00     0.031 C 
ATOM     58  C   UNL A   1      41.635  30.816  36.613  1.00  0.00     0.029 A 
ATOM     59  C   UNL A   1      40.932  30.894  35.422  1.00  0.00     0.049 A 
ATOM     60  H   UNL A   1      41.291  29.898  33.596  1.00  0.00     0.167 HD
ATOM     61  C   UNL A   1      39.155  31.696  33.903  1.00  0.00     0.074 A 
ATOM     62  C   UNL A   1      37.984  32.489  33.594  1.00  0.00     0.031 C 
ATOM     63  C   UNL A   1      39.761  31.674  35.116  1.00  0.00     0.031 A 
BRANCH  50  64
ATOM     64  C   UNL A   1      44.616  27.866  35.338  1.00  0.00    -0.014 A 
ATOM     65  C   UNL A   1      44.400  26.727  36.129  1.00  0.00     0.009 A 
ATOM     66  C   UNL A   1      45.895  28.443  35.308  1.00  0.00     0.009 A 
ATOM     67  C   UNL A   1      45.435  26.199  36.904  1.00  0.00     0.001 A 
ATOM     68  C   UNL A   1      46.935  27.899  36.064  1.00  0.00     0.001 A 
ATOM     69  C   UNL A   1      46.701  26.784  36.868  1.00  0.00     0.000 A 
ENDBRANCH  50  64
BRANCH  51  70
ATOM     70  C   UNL A   1      37.398  31.496  29.556  1.00  0.00    -0.014 A 
ATOM     71  C   UNL A   1      37.518  32.780  29.000  1.00  0.00     0.009 A 
ATOM     72  C   UNL A   1      36.208  30.782  29.354  1.00  0.00     0.009 A 
ATOM     73  C   UNL A   1      36.456  33.347  28.289  1.00  0.00     0.001 A 
ATOM     74  C   UNL A   1      35.161  31.338  28.616  1.00  0.00     0.001 A 
ATOM     75  C   UNL A   1      35.280  32.625  28.094  1.00  0.00     0.000 A 
ENDBRANCH  51  70
BRANCH  63  76
ATOM     76  C   UNL A   1      39.184  32.548  36.197  1.00  0.00    -0.014 A 
ATOM     77  C   UNL A   1      38.173  32.082  37.053  1.00  0.00     0.009 A 
ATOM     78  C   UNL A   1      39.681  33.847  36.384  1.00  0.00     0.009 A 
ATOM     79  C   UNL A   1      37.648  32.911  38.047  1.00  0.00     0.001 A 
ATOM     80  C   UNL A   1      39.175  34.663  37.398  1.00  0.00     0.001 A 
ATOM     81  C   UNL A   1      38.152  34.199  38.221  1.00  0.00     0.000 A 
ENDBRANCH  63  76
ENDBRANCH  37  38
ENDBRANCH  30  32
ENDBRANCH  29  30
ENDBRANCH  28  29
ENDBRANCH  27  28
ENDBRANCH  26  27
ENDBRANCH  25  26
ENDBRANCH   1  25
TORSDOF 23
ENDMDL
MODEL 3
REMARK VINA RESULT:      -8.5      3.809      9.500
REMARK SMILES C#CCN(CC(=O)OCCOCCOCCOC(=O)c1ccc(-c2c3nc(c(-c4ccccc4)c4ccc([nH]4)c(-c4ccccc4)c4nc(c(-c5ccccc5)c5ccc2[nH]5)C=C4)C=C3)cc1)C(=O)NCc1ccnc(C)n1
REMARK SMILES IDX 12 1 11 2 10 3 9 4 8 5 6 6 7 7 5 8 4 9 3 10 2 11 1 12 68 13
REMARK SMILES IDX 69 14 70 15 71 17 72 18 73 19 78 20 74 21 76 22 75 23 77 24
REMARK SMILES IDX 13 25 14 26 15 27 16 28 17 29 18 30 19 31 20 32 21 33 67 34
REMARK SMILES IDX 22 35 66 36 23 37 24 38 25 39 60 40 26 41 65 42 59 43 61 44
REMARK SMILES IDX 27 45 64 46 58 47 57 48 28 50 50 51 35 52 49 53 36 54 39 55
REMARK SMILES IDX 48 56 62 57 37 58 38 59 47 61 63 62 40 63 29 64 30 65 34 66
REMARK SMILES IDX 31 67 33 68 32 69 51 70 52 71 56 72 53 73 55 74 54 75 41 76
REMARK SMILES IDX 42 77 46 78 43 79 45 80 44 81
REMARK H PARENT 70 16 61 49 39 60
REMARK Flexibility Score: inf
ROOT
ATOM      1  C   UNL A   1      33.456  31.181  27.455  1.00  0.00     0.188 C 
ENDROOT
BRANCH   1   2
ATOM      2  O   UNL A   1      34.265  30.146  26.896  1.00  0.00    -0.376 OA
BRANCH   2   3
ATOM      3  C   UNL A   1      33.718  28.851  27.202  1.00  0.00     0.202 C 
BRANCH   3   4
ATOM      4  C   UNL A   1      32.184  28.771  27.409  1.00  0.00     0.261 C 
BRANCH   4   5
ATOM      5  O   UNL A   1      31.456  28.535  26.179  1.00  0.00    -0.462 OA
BRANCH   5   6
ATOM      6  C   UNL A   1      31.365  27.241  25.772  1.00  0.00     0.325 C 
ATOM      7  O   UNL A   1      30.803  26.362  26.419  1.00  0.00    -0.250 OA
BRANCH   6   8
ATOM      8  C   UNL A   1      32.109  26.932  24.455  1.00  0.00     0.245 C 
BRANCH   8   9
ATOM      9  N   UNL A   1      31.411  26.281  23.337  1.00  0.00    -0.303 N 
BRANCH   9  10
ATOM     10  C   UNL A   1      30.872  27.167  22.237  1.00  0.00     0.211 C 
BRANCH  10  11
ATOM     11  C   UNL A   1      30.077  28.334  22.799  1.00  0.00    -0.085 C 
ATOM     12  C   UNL A   1      29.395  29.336  23.280  1.00  0.00     0.006 C 
ENDBRANCH  10  11
ENDBRANCH   9  10
BRANCH   9  13
ATOM     13  C   UNL A   1      31.258  24.926  23.196  1.00  0.00     0.319 C 
ATOM     14  O   UNL A   1      30.147  24.399  23.320  1.00  0.00    -0.249 OA
ATOM     15  N   UNL A   1      32.252  24.036  22.998  1.00  0.00    -0.332 N 
ATOM     16  H   UNL A   1      31.852  23.140  22.918  1.00  0.00     0.165 HD
BRANCH  15  17
ATOM     17  C   UNL A   1      33.716  23.906  22.856  1.00  0.00     0.174 C 
BRANCH  17  18
ATOM     18  C   UNL A   1      34.424  23.369  24.117  1.00  0.00     0.063 A 
ATOM     19  C   UNL A   1      33.788  22.444  24.918  1.00  0.00     0.046 A 
ATOM     20  N   UNL A   1      35.635  23.865  24.482  1.00  0.00    -0.236 NA
ATOM     21  C   UNL A   1      34.418  22.036  26.070  1.00  0.00     0.115 A 
ATOM     22  C   UNL A   1      36.176  23.408  25.646  1.00  0.00     0.125 A 
ATOM     23  N   UNL A   1      35.613  22.491  26.451  1.00  0.00    -0.242 NA
ATOM     24  C   UNL A   1      37.519  23.905  26.090  1.00  0.00     0.089 C 
ENDBRANCH  17  18
ENDBRANCH  15  17
ENDBRANCH   9  13
ENDBRANCH   8   9
ENDBRANCH   6   8
ENDBRANCH   5   6
ENDBRANCH   4   5
ENDBRANCH   3   4
ENDBRANCH   2   3
ENDBRANCH   1   2
BRANCH   1  25
ATOM     25  C   UNL A   1      34.079  32.074  28.520  1.00  0.00     0.188 C 
BRANCH  25  26
ATOM     26  O   UNL A   1      34.171  33.430  28.125  1.00  0.00    -0.376 OA
BRANCH  26  27
ATOM     27  C   UNL A   1      32.963  34.166  28.355  1.00  0.00     0.202 C 
BRANCH  27  28
ATOM     28  C   UNL A   1      33.124  35.287  29.401  1.00  0.00     0.261 C 
BRANCH  28  29
ATOM     29  O   UNL A   1      32.326  35.046  30.592  1.00  0.00    -0.460 OA
BRANCH  29  30
ATOM     30  C   UNL A   1      32.813  35.579  31.750  1.00  0.00     0.338 C 
ATOM     31  O   UNL A   1      32.337  36.506  32.367  1.00  0.00    -0.246 OA
BRANCH  30  32
ATOM     32  C   UNL A   1      34.022  34.844  32.229  1.00  0.00     0.060 A 
ATOM     33  C   UNL A   1      35.278  35.434  32.021  1.00  0.00     0.016 A 
ATOM     34  C   UNL A   1      33.956  33.574  32.812  1.00  0.00     0.016 A 
ATOM     35  C   UNL A   1      36.451  34.778  32.419  1.00  0.00     0.010 A 
ATOM     36  C   UNL A   1      35.137  32.898  33.172  1.00  0.00     0.010 A 
ATOM     37  C   UNL A   1      36.396  33.491  32.974  1.00  0.00    -0.014 A 
BRANCH  37  38
ATOM     38  C   UNL A   1      37.665  32.737  33.194  1.00  0.00     0.031 A 
ATOM     39  C   UNL A   1      38.461  32.999  34.446  1.00  0.00     0.074 A 
ATOM     40  C   UNL A   1      38.092  31.787  32.339  1.00  0.00     0.049 A 
ATOM     41  N   UNL A   1      39.519  32.378  34.905  1.00  0.00    -0.248 NA
ATOM     42  C   UNL A   1      37.990  34.101  35.298  1.00  0.00     0.031 C 
ATOM     43  C   UNL A   1      37.422  31.393  31.105  1.00  0.00     0.029 A 
ATOM     44  N   UNL A   1      39.196  30.964  32.398  1.00  0.00    -0.354 N 
ATOM     45  C   UNL A   1      39.821  32.992  36.115  1.00  0.00     0.074 A 
ATOM     46  C   UNL A   1      38.856  34.055  36.299  1.00  0.00     0.031 C 
ATOM     47  C   UNL A   1      38.118  30.399  30.526  1.00  0.00     0.029 A 
ATOM     48  C   UNL A   1      39.295  30.094  31.338  1.00  0.00     0.049 A 
ATOM     49  H   UNL A   1      39.852  30.996  33.131  1.00  0.00     0.167 HD
ATOM     50  C   UNL A   1      40.809  32.704  36.997  1.00  0.00     0.031 A 
ATOM     51  C   UNL A   1      40.227  29.161  31.051  1.00  0.00     0.031 A 
ATOM     52  C   UNL A   1      41.824  31.703  36.798  1.00  0.00     0.049 A 
ATOM     53  C   UNL A   1      41.383  28.938  31.996  1.00  0.00     0.074 A 
ATOM     54  C   UNL A   1      42.875  31.364  37.632  1.00  0.00     0.029 A 
ATOM     55  N   UNL A   1      41.933  30.901  35.674  1.00  0.00    -0.354 N 
ATOM     56  N   UNL A   1      41.622  29.487  33.161  1.00  0.00    -0.248 NA
ATOM     57  C   UNL A   1      42.398  27.954  31.580  1.00  0.00     0.031 C 
ATOM     58  C   UNL A   1      43.657  30.401  36.985  1.00  0.00     0.029 A 
ATOM     59  C   UNL A   1      43.055  30.095  35.775  1.00  0.00     0.049 A 
ATOM     60  H   UNL A   1      41.305  30.905  34.915  1.00  0.00     0.167 HD
ATOM     61  C   UNL A   1      42.795  28.902  33.626  1.00  0.00     0.074 A 
ATOM     62  C   UNL A   1      43.208  27.938  32.629  1.00  0.00     0.031 C 
ATOM     63  C   UNL A   1      43.469  29.144  34.777  1.00  0.00     0.031 A 
BRANCH  50  64
ATOM     64  C   UNL A   1      40.858  33.529  38.252  1.00  0.00    -0.014 A 
ATOM     65  C   UNL A   1      41.619  34.707  38.314  1.00  0.00     0.009 A 
ATOM     66  C   UNL A   1      40.128  33.128  39.381  1.00  0.00     0.009 A 
ATOM     67  C   UNL A   1      41.676  35.449  39.496  1.00  0.00     0.001 A 
ATOM     68  C   UNL A   1      40.168  33.884  40.554  1.00  0.00     0.001 A 
ATOM     69  C   UNL A   1      40.949  35.038  40.613  1.00  0.00     0.000 A 
ENDBRANCH  50  64
BRANCH  51  70
ATOM     70  C   UNL A   1      40.137  28.363  29.796  1.00  0.00    -0.014 A 
ATOM     71  C   UNL A   1      39.452  27.137  29.769  1.00  0.00     0.009 A 
ATOM     72  C   UNL A   1      40.795  28.794  28.634  1.00  0.00     0.009 A 
ATOM     73  C   UNL A   1      39.455  26.348  28.615  1.00  0.00     0.001 A 
ATOM     74  C   UNL A   1      40.771  28.018  27.474  1.00  0.00     0.001 A 
ATOM     75  C   UNL A   1      40.111  26.790  27.468  1.00  0.00     0.000 A 
ENDBRANCH  51  70
BRANCH  63  76
ATOM     76  C   UNL A   1      44.716  28.339  35.034  1.00  0.00    -0.014 A 
ATOM     77  C   UNL A   1      45.966  28.749  34.543  1.00  0.00     0.009 A 
ATOM     78  C   UNL A   1      44.644  27.169  35.806  1.00  0.00     0.009 A 
ATOM     79  C   UNL A   1      47.109  27.984  34.789  1.00  0.00     0.001 A 
ATOM     80  C   UNL A   1      45.793  26.423  36.076  1.00  0.00     0.001 A 
ATOM     81  C   UNL A   1      47.022  26.825  35.558  1.00  0.00     0.000 A 
ENDBRANCH  63  76
ENDBRANCH  37  38
ENDBRANCH  30  32
ENDBRANCH  29  30
ENDBRANCH  28  29
ENDBRANCH  27  28
ENDBRANCH  26  27
ENDBRANCH  25  26
ENDBRANCH   1  25
TORSDOF 23
ENDMDL
