MODEL 1
REMARK VINA RESULT:      -9.7      0.000      0.000
REMARK SMILES CC[C@@H](C)N(C)C(=O)N1[C@@H](C(=O)OCCOCCOCCOC(=O)c2ccc(-c3c4nc(c(-c5ccccc5)c5ccc([nH]5)c(-c5ccccc5)c5nc(c(-c6ccccc6)c6ccc3[nH]6)C=C5)C=C4)cc2)CC[C@H]2CCCC[C@H]21
REMARK SMILES IDX 17 1 16 2 15 3 14 4 13 5 11 6 12 7 10 8 9 9 80 10 73 11
REMARK SMILES IDX 75 12 79 13 74 14 76 15 78 16 77 17 7 18 8 19 5 20 6 21 3 22
REMARK SMILES IDX 4 23 2 24 1 25 18 26 19 27 20 28 21 29 22 30 23 31 24 32
REMARK SMILES IDX 25 33 26 34 72 35 27 36 71 37 28 38 29 39 30 40 65 41 31 42
REMARK SMILES IDX 70 43 64 44 66 45 32 46 69 47 63 48 62 49 33 51 55 52 40 53
REMARK SMILES IDX 54 54 41 55 44 56 53 57 67 58 42 59 43 60 52 62 68 63 45 64
REMARK SMILES IDX 34 65 35 66 39 67 36 68 38 69 37 70 56 71 57 72 61 73 58 74
REMARK SMILES IDX 60 75 59 76 46 77 47 78 51 79 48 80 50 81 49 82
REMARK H PARENT 66 50 44 61
REMARK Flexibility Score: inf
ROOT
ATOM      1  C   UNL A   1      38.777  21.978  25.437  1.00  0.00     0.188 C 
ENDROOT
BRANCH   1   2
ATOM      2  O   UNL A   1      37.717  22.821  25.838  1.00  0.00    -0.376 OA
BRANCH   2   3
ATOM      3  C   UNL A   1      36.421  22.597  25.318  1.00  0.00     0.202 C 
BRANCH   3   4
ATOM      4  C   UNL A   1      36.121  22.944  23.859  1.00  0.00     0.261 C 
BRANCH   4   5
ATOM      5  O   UNL A   1      34.889  22.457  23.294  1.00  0.00    -0.462 OA
BRANCH   5   6
ATOM      6  C   UNL A   1      34.105  23.378  22.663  1.00  0.00     0.329 C 
ATOM      7  O   UNL A   1      33.688  23.259  21.514  1.00  0.00    -0.250 OA
BRANCH   6   8
ATOM      8  C   UNL A   1      33.837  24.641  23.511  1.00  0.00     0.197 C 
ATOM      9  N   UNL A   1      32.820  24.512  24.572  1.00  0.00    -0.308 N 
ATOM     10  C   UNL A   1      32.643  25.708  25.418  1.00  0.00     0.091 C 
ATOM     11  C   UNL A   1      33.658  25.927  22.691  1.00  0.00     0.038 C 
ATOM     12  C   UNL A   1      32.549  27.049  24.667  1.00  0.00     0.012 C 
ATOM     13  C   UNL A   1      31.573  25.643  26.508  1.00  0.00     0.025 C 
ATOM     14  C   UNL A   1      33.627  27.162  23.590  1.00  0.00     0.008 C 
ATOM     15  C   UNL A   1      31.169  27.401  24.106  1.00  0.00     0.006 C 
ATOM     16  C   UNL A   1      30.160  26.063  26.101  1.00  0.00     0.002 C 
ATOM     17  C   UNL A   1      29.974  26.696  24.726  1.00  0.00     0.000 C 
BRANCH   9  18
ATOM     18  C   UNL A   1      31.833  23.549  24.457  1.00  0.00     0.320 C 
ATOM     19  O   UNL A   1      31.060  23.534  23.507  1.00  0.00    -0.248 OA
BRANCH  18  20
ATOM     20  N   UNL A   1      31.719  22.645  25.514  1.00  0.00    -0.325 N 
ATOM     21  C   UNL A   1      30.445  22.221  26.104  1.00  0.00     0.149 C 
BRANCH  20  22
ATOM     22  C   UNL A   1      32.869  21.785  25.874  1.00  0.00     0.083 C 
ATOM     23  C   UNL A   1      32.810  20.343  25.353  1.00  0.00     0.031 C 
BRANCH  22  24
ATOM     24  C   UNL A   1      33.097  21.826  27.394  1.00  0.00     0.021 C 
ATOM     25  C   UNL A   1      34.036  22.940  27.826  1.00  0.00     0.006 C 
ENDBRANCH  22  24
ENDBRANCH  20  22
ENDBRANCH  18  20
ENDBRANCH   9  18
ENDBRANCH   6   8
ENDBRANCH   5   6
ENDBRANCH   4   5
ENDBRANCH   3   4
ENDBRANCH   2   3
ENDBRANCH   1   2
BRANCH   1  26
ATOM     26  C   UNL A   1      39.856  21.581  26.452  1.00  0.00     0.188 C 
BRANCH  26  27
ATOM     27  O   UNL A   1      40.820  20.617  26.134  1.00  0.00    -0.376 OA
BRANCH  27  28
ATOM     28  C   UNL A   1      42.166  20.787  26.518  1.00  0.00     0.202 C 
BRANCH  28  29
ATOM     29  C   UNL A   1      43.203  21.631  25.749  1.00  0.00     0.261 C 
BRANCH  29  30
ATOM     30  O   UNL A   1      42.750  22.762  24.993  1.00  0.00    -0.460 OA
BRANCH  30  31
ATOM     31  C   UNL A   1      43.506  23.885  25.056  1.00  0.00     0.338 C 
ATOM     32  O   UNL A   1      44.492  24.141  24.381  1.00  0.00    -0.246 OA
BRANCH  31  33
ATOM     33  C   UNL A   1      42.814  24.891  25.906  1.00  0.00     0.060 A 
ATOM     34  C   UNL A   1      43.434  26.132  26.119  1.00  0.00     0.016 A 
ATOM     35  C   UNL A   1      41.573  24.627  26.488  1.00  0.00     0.016 A 
ATOM     36  C   UNL A   1      42.845  27.089  26.952  1.00  0.00     0.010 A 
ATOM     37  C   UNL A   1      40.996  25.575  27.344  1.00  0.00     0.010 A 
ATOM     38  C   UNL A   1      41.649  26.794  27.616  1.00  0.00    -0.014 A 
BRANCH  38  39
ATOM     39  C   UNL A   1      41.216  27.639  28.763  1.00  0.00     0.031 A 
ATOM     40  C   UNL A   1      41.993  27.539  30.053  1.00  0.00     0.074 A 
ATOM     41  C   UNL A   1      40.194  28.509  28.676  1.00  0.00     0.049 A 
ATOM     42  N   UNL A   1      41.806  28.159  31.193  1.00  0.00    -0.248 NA
ATOM     43  C   UNL A   1      43.136  26.614  30.052  1.00  0.00     0.031 C 
ATOM     44  C   UNL A   1      39.393  28.767  27.483  1.00  0.00     0.029 A 
ATOM     45  N   UNL A   1      39.660  29.345  29.629  1.00  0.00    -0.354 N 
ATOM     46  C   UNL A   1      42.800  27.690  32.043  1.00  0.00     0.074 A 
ATOM     47  C   UNL A   1      43.561  26.708  31.302  1.00  0.00     0.031 C 
ATOM     48  C   UNL A   1      38.471  29.703  27.772  1.00  0.00     0.029 A 
ATOM     49  C   UNL A   1      38.594  30.084  29.179  1.00  0.00     0.049 A 
ATOM     50  H   UNL A   1      40.009  29.408  30.546  1.00  0.00     0.167 HD
ATOM     51  C   UNL A   1      43.070  28.044  33.323  1.00  0.00     0.031 A 
ATOM     52  C   UNL A   1      37.801  30.959  29.830  1.00  0.00     0.031 A 
ATOM     53  C   UNL A   1      42.304  28.997  34.083  1.00  0.00     0.049 A 
ATOM     54  C   UNL A   1      38.047  31.255  31.288  1.00  0.00     0.074 A 
ATOM     55  C   UNL A   1      42.499  29.418  35.387  1.00  0.00     0.029 A 
ATOM     56  N   UNL A   1      41.186  29.667  33.611  1.00  0.00    -0.354 N 
ATOM     57  N   UNL A   1      38.998  30.817  32.077  1.00  0.00    -0.248 NA
ATOM     58  C   UNL A   1      37.106  32.179  31.941  1.00  0.00     0.031 C 
ATOM     59  C   UNL A   1      41.461  30.295  35.724  1.00  0.00     0.029 A 
ATOM     60  C   UNL A   1      40.663  30.477  34.607  1.00  0.00     0.049 A 
ATOM     61  H   UNL A   1      40.818  29.580  32.702  1.00  0.00     0.167 HD
ATOM     62  C   UNL A   1      38.794  31.441  33.304  1.00  0.00     0.074 A 
ATOM     63  C   UNL A   1      37.637  32.297  33.150  1.00  0.00     0.031 C 
ATOM     64  C   UNL A   1      39.507  31.322  34.452  1.00  0.00     0.031 A 
BRANCH  51  65
ATOM     65  C   UNL A   1      44.225  27.348  33.992  1.00  0.00    -0.014 A 
ATOM     66  C   UNL A   1      45.528  27.872  33.940  1.00  0.00     0.009 A 
ATOM     67  C   UNL A   1      44.008  26.143  34.680  1.00  0.00     0.009 A 
ATOM     68  C   UNL A   1      46.595  27.176  34.512  1.00  0.00     0.001 A 
ATOM     69  C   UNL A   1      45.071  25.468  35.282  1.00  0.00     0.001 A 
ATOM     70  C   UNL A   1      46.366  25.976  35.184  1.00  0.00     0.000 A 
ENDBRANCH  51  65
BRANCH  52  71
ATOM     71  C   UNL A   1      36.687  31.638  29.113  1.00  0.00    -0.014 A 
ATOM     72  C   UNL A   1      36.847  32.946  28.625  1.00  0.00     0.009 A 
ATOM     73  C   UNL A   1      35.448  30.999  28.942  1.00  0.00     0.009 A 
ATOM     74  C   UNL A   1      35.785  33.605  28.003  1.00  0.00     0.001 A 
ATOM     75  C   UNL A   1      34.398  31.652  28.292  1.00  0.00     0.001 A 
ATOM     76  C   UNL A   1      34.564  32.957  27.831  1.00  0.00     0.000 A 
ENDBRANCH  52  71
BRANCH  64  77
ATOM     77  C   UNL A   1      39.086  32.176  35.621  1.00  0.00    -0.014 A 
ATOM     78  C   UNL A   1      38.176  31.714  36.584  1.00  0.00     0.009 A 
ATOM     79  C   UNL A   1      39.626  33.465  35.765  1.00  0.00     0.009 A 
ATOM     80  C   UNL A   1      37.778  32.543  37.638  1.00  0.00     0.001 A 
ATOM     81  C   UNL A   1      39.254  34.278  36.838  1.00  0.00     0.001 A 
ATOM     82  C   UNL A   1      38.319  33.822  37.765  1.00  0.00     0.000 A 
ENDBRANCH  64  77
ENDBRANCH  38  39
ENDBRANCH  31  33
ENDBRANCH  30  31
ENDBRANCH  29  30
ENDBRANCH  28  29
ENDBRANCH  27  28
ENDBRANCH  26  27
ENDBRANCH   1  26
TORSDOF 21
ENDMDL
MODEL 2
REMARK VINA RESULT:      -9.6      4.435      6.495
REMARK SMILES CC[C@@H](C)N(C)C(=O)N1[C@@H](C(=O)OCCOCCOCCOC(=O)c2ccc(-c3c4nc(c(-c5ccccc5)c5ccc([nH]5)c(-c5ccccc5)c5nc(c(-c6ccccc6)c6ccc3[nH]6)C=C5)C=C4)cc2)CC[C@H]2CCCC[C@H]21
REMARK SMILES IDX 17 1 16 2 15 3 14 4 13 5 11 6 12 7 10 8 9 9 80 10 73 11
REMARK SMILES IDX 75 12 79 13 74 14 76 15 78 16 77 17 7 18 8 19 5 20 6 21 3 22
REMARK SMILES IDX 4 23 2 24 1 25 18 26 19 27 20 28 21 29 22 30 23 31 24 32
REMARK SMILES IDX 25 33 26 34 72 35 27 36 71 37 28 38 29 39 30 40 65 41 31 42
REMARK SMILES IDX 70 43 64 44 66 45 32 46 69 47 63 48 62 49 33 51 55 52 40 53
REMARK SMILES IDX 54 54 41 55 44 56 53 57 67 58 42 59 43 60 52 62 68 63 45 64
REMARK SMILES IDX 34 65 35 66 39 67 36 68 38 69 37 70 56 71 57 72 61 73 58 74
REMARK SMILES IDX 60 75 59 76 46 77 47 78 51 79 48 80 50 81 49 82
REMARK H PARENT 66 50 44 61
REMARK Flexibility Score: inf
ROOT
ATOM      1  C   UNL A   1      40.100  22.128  26.721  1.00  0.00     0.188 C 
ENDROOT
BRANCH   1   2
ATOM      2  O   UNL A   1      39.707  23.465  26.955  1.00  0.00    -0.376 OA
BRANCH   2   3
ATOM      3  C   UNL A   1      38.525  23.952  26.352  1.00  0.00     0.202 C 
BRANCH   3   4
ATOM      4  C   UNL A   1      37.466  22.967  25.856  1.00  0.00     0.261 C 
BRANCH   4   5
ATOM      5  O   UNL A   1      37.336  22.783  24.433  1.00  0.00    -0.462 OA
BRANCH   5   6
ATOM      6  C   UNL A   1      36.171  23.217  23.870  1.00  0.00     0.329 C 
ATOM      7  O   UNL A   1      35.955  23.244  22.661  1.00  0.00    -0.250 OA
BRANCH   6   8
ATOM      8  C   UNL A   1      35.150  23.746  24.901  1.00  0.00     0.197 C 
ATOM      9  N   UNL A   1      34.000  22.867  25.192  1.00  0.00    -0.308 N 
ATOM     10  C   UNL A   1      33.085  23.360  26.239  1.00  0.00     0.091 C 
ATOM     11  C   UNL A   1      34.722  25.203  24.678  1.00  0.00     0.038 C 
ATOM     12  C   UNL A   1      32.685  24.843  26.132  1.00  0.00     0.012 C 
ATOM     13  C   UNL A   1      31.854  22.508  26.552  1.00  0.00     0.025 C 
ATOM     14  C   UNL A   1      33.898  25.729  25.853  1.00  0.00     0.008 C 
ATOM     15  C   UNL A   1      31.539  25.155  25.166  1.00  0.00     0.006 C 
ATOM     16  C   UNL A   1      30.604  22.787  25.717  1.00  0.00     0.002 C 
ATOM     17  C   UNL A   1      30.617  24.005  24.799  1.00  0.00     0.000 C 
BRANCH   9  18
ATOM     18  C   UNL A   1      33.594  21.940  24.248  1.00  0.00     0.320 C 
ATOM     19  O   UNL A   1      32.983  22.276  23.242  1.00  0.00    -0.248 OA
BRANCH  18  20
ATOM     20  N   UNL A   1      33.854  20.600  24.540  1.00  0.00    -0.325 N 
ATOM     21  C   UNL A   1      35.105  20.112  25.129  1.00  0.00     0.149 C 
BRANCH  20  22
ATOM     22  C   UNL A   1      32.738  19.630  24.596  1.00  0.00     0.083 C 
ATOM     23  C   UNL A   1      32.858  18.539  25.668  1.00  0.00     0.031 C 
BRANCH  22  24
ATOM     24  C   UNL A   1      32.500  19.025  23.202  1.00  0.00     0.021 C 
ATOM     25  C   UNL A   1      33.064  17.621  23.058  1.00  0.00     0.006 C 
ENDBRANCH  22  24
ENDBRANCH  20  22
ENDBRANCH  18  20
ENDBRANCH   9  18
ENDBRANCH   6   8
ENDBRANCH   5   6
ENDBRANCH   4   5
ENDBRANCH   3   4
ENDBRANCH   2   3
ENDBRANCH   1   2
BRANCH   1  26
ATOM     26  C   UNL A   1      41.131  21.468  27.645  1.00  0.00     0.188 C 
BRANCH  26  27
ATOM     27  O   UNL A   1      41.191  20.075  27.775  1.00  0.00    -0.376 OA
BRANCH  27  28
ATOM     28  C   UNL A   1      42.296  19.350  27.285  1.00  0.00     0.202 C 
BRANCH  28  29
ATOM     29  C   UNL A   1      42.695  19.247  25.798  1.00  0.00     0.261 C 
BRANCH  29  30
ATOM     30  O   UNL A   1      44.086  19.157  25.461  1.00  0.00    -0.460 OA
BRANCH  30  31
ATOM     31  C   UNL A   1      44.495  19.832  24.359  1.00  0.00     0.338 C 
ATOM     32  O   UNL A   1      44.381  19.472  23.197  1.00  0.00    -0.246 OA
BRANCH  31  33
ATOM     33  C   UNL A   1      44.893  21.211  24.753  1.00  0.00     0.060 A 
ATOM     34  C   UNL A   1      45.354  21.430  26.061  1.00  0.00     0.016 A 
ATOM     35  C   UNL A   1      44.817  22.277  23.856  1.00  0.00     0.016 A 
ATOM     36  C   UNL A   1      45.690  22.717  26.491  1.00  0.00     0.010 A 
ATOM     37  C   UNL A   1      45.129  23.572  24.295  1.00  0.00     0.010 A 
ATOM     38  C   UNL A   1      45.525  23.806  25.628  1.00  0.00    -0.014 A 
BRANCH  38  39
ATOM     39  C   UNL A   1      45.527  25.190  26.179  1.00  0.00     0.031 A 
ATOM     40  C   UNL A   1      46.832  25.948  26.191  1.00  0.00     0.074 A 
ATOM     41  C   UNL A   1      44.410  25.794  26.621  1.00  0.00     0.049 A 
ATOM     42  N   UNL A   1      47.094  27.155  26.628  1.00  0.00    -0.248 NA
ATOM     43  C   UNL A   1      47.996  25.244  25.631  1.00  0.00     0.031 C 
ATOM     44  C   UNL A   1      43.069  25.220  26.612  1.00  0.00     0.029 A 
ATOM     45  N   UNL A   1      44.239  27.046  27.167  1.00  0.00    -0.354 N 
ATOM     46  C   UNL A   1      48.453  27.349  26.404  1.00  0.00     0.074 A 
ATOM     47  C   UNL A   1      48.965  26.123  25.832  1.00  0.00     0.031 C 
ATOM     48  C   UNL A   1      42.208  26.118  27.124  1.00  0.00     0.029 A 
ATOM     49  C   UNL A   1      42.942  27.317  27.528  1.00  0.00     0.049 A 
ATOM     50  H   UNL A   1      44.976  27.686  27.286  1.00  0.00     0.167 HD
ATOM     51  C   UNL A   1      49.212  28.445  26.643  1.00  0.00     0.031 A 
ATOM     52  C   UNL A   1      42.411  28.402  28.127  1.00  0.00     0.031 A 
ATOM     53  C   UNL A   1      48.724  29.660  27.240  1.00  0.00     0.049 A 
ATOM     54  C   UNL A   1      43.295  29.568  28.489  1.00  0.00     0.074 A 
ATOM     55  C   UNL A   1      49.419  30.823  27.524  1.00  0.00     0.029 A 
ATOM     56  N   UNL A   1      47.418  29.863  27.659  1.00  0.00    -0.354 N 
ATOM     57  N   UNL A   1      44.574  29.746  28.261  1.00  0.00    -0.248 NA
ATOM     58  C   UNL A   1      42.651  30.692  29.188  1.00  0.00     0.031 C 
ATOM     59  C   UNL A   1      48.548  31.707  28.173  1.00  0.00     0.029 A 
ATOM     60  C   UNL A   1      47.293  31.123  28.226  1.00  0.00     0.049 A 
ATOM     61  H   UNL A   1      46.687  29.210  27.568  1.00  0.00     0.167 HD
ATOM     62  C   UNL A   1      44.877  31.013  28.750  1.00  0.00     0.074 A 
ATOM     63  C   UNL A   1      43.646  31.564  29.275  1.00  0.00     0.031 C 
ATOM     64  C   UNL A   1      46.067  31.665  28.755  1.00  0.00     0.031 A 
BRANCH  51  65
ATOM     65  C   UNL A   1      50.674  28.349  26.295  1.00  0.00    -0.014 A 
ATOM     66  C   UNL A   1      51.184  28.901  25.108  1.00  0.00     0.009 A 
ATOM     67  C   UNL A   1      51.555  27.686  27.166  1.00  0.00     0.009 A 
ATOM     68  C   UNL A   1      52.531  28.743  24.774  1.00  0.00     0.001 A 
ATOM     69  C   UNL A   1      52.908  27.561  26.847  1.00  0.00     0.001 A 
ATOM     70  C   UNL A   1      53.392  28.075  25.645  1.00  0.00     0.000 A 
ENDBRANCH  51  65
BRANCH  52  71
ATOM     71  C   UNL A   1      40.953  28.455  28.426  1.00  0.00    -0.014 A 
ATOM     72  C   UNL A   1      40.057  29.012  27.500  1.00  0.00     0.009 A 
ATOM     73  C   UNL A   1      40.455  27.982  29.651  1.00  0.00     0.009 A 
ATOM     74  C   UNL A   1      38.697  29.114  27.802  1.00  0.00     0.001 A 
ATOM     75  C   UNL A   1      39.090  28.059  29.937  1.00  0.00     0.001 A 
ATOM     76  C   UNL A   1      38.213  28.632  29.017  1.00  0.00     0.000 A 
ENDBRANCH  52  71
BRANCH  64  77
ATOM     77  C   UNL A   1      46.086  33.069  29.302  1.00  0.00    -0.014 A 
ATOM     78  C   UNL A   1      45.732  34.175  28.514  1.00  0.00     0.009 A 
ATOM     79  C   UNL A   1      46.452  33.284  30.641  1.00  0.00     0.009 A 
ATOM     80  C   UNL A   1      45.794  35.469  29.040  1.00  0.00     0.001 A 
ATOM     81  C   UNL A   1      46.479  34.574  31.175  1.00  0.00     0.001 A 
ATOM     82  C   UNL A   1      46.164  35.666  30.370  1.00  0.00     0.000 A 
ENDBRANCH  64  77
ENDBRANCH  38  39
ENDBRANCH  31  33
ENDBRANCH  30  31
ENDBRANCH  29  30
ENDBRANCH  28  29
ENDBRANCH  27  28
ENDBRANCH  26  27
ENDBRANCH   1  26
TORSDOF 21
ENDMDL
MODEL 3
REMARK VINA RESULT:      -9.5      4.358      6.806
REMARK SMILES CC[C@@H](C)N(C)C(=O)N1[C@@H](C(=O)OCCOCCOCCOC(=O)c2ccc(-c3c4nc(c(-c5ccccc5)c5ccc([nH]5)c(-c5ccccc5)c5nc(c(-c6ccccc6)c6ccc3[nH]6)C=C5)C=C4)cc2)CC[C@H]2CCCC[C@H]21
REMARK SMILES IDX 17 1 16 2 15 3 14 4 13 5 11 6 12 7 10 8 9 9 80 10 73 11
REMARK SMILES IDX 75 12 79 13 74 14 76 15 78 16 77 17 7 18 8 19 5 20 6 21 3 22
REMARK SMILES IDX 4 23 2 24 1 25 18 26 19 27 20 28 21 29 22 30 23 31 24 32
REMARK SMILES IDX 25 33 26 34 72 35 27 36 71 37 28 38 29 39 30 40 65 41 31 42
REMARK SMILES IDX 70 43 64 44 66 45 32 46 69 47 63 48 62 49 33 51 55 52 40 53
REMARK SMILES IDX 54 54 41 55 44 56 53 57 67 58 42 59 43 60 52 62 68 63 45 64
REMARK SMILES IDX 34 65 35 66 39 67 36 68 38 69 37 70 56 71 57 72 61 73 58 74
REMARK SMILES IDX 60 75 59 76 46 77 47 78 51 79 48 80 50 81 49 82
REMARK H PARENT 66 50 44 61
REMARK Flexibility Score: inf
ROOT
ATOM      1  C   UNL A   1      39.685  21.897  26.508  1.00  0.00     0.188 C 
ENDROOT
BRANCH   1   2
ATOM      2  O   UNL A   1      39.434  23.284  26.592  1.00  0.00    -0.376 OA
BRANCH   2   3
ATOM      3  C   UNL A   1      38.111  23.758  26.437  1.00  0.00     0.202 C 
BRANCH   3   4
ATOM      4  C   UNL A   1      37.447  23.714  25.060  1.00  0.00     0.261 C 
BRANCH   4   5
ATOM      5  O   UNL A   1      36.588  22.596  24.766  1.00  0.00    -0.462 OA
BRANCH   5   6
ATOM      6  C   UNL A   1      35.799  22.712  23.659  1.00  0.00     0.329 C 
ATOM      7  O   UNL A   1      36.176  23.180  22.587  1.00  0.00    -0.250 OA
BRANCH   6   8
ATOM      8  C   UNL A   1      34.342  22.257  23.893  1.00  0.00     0.197 C 
ATOM      9  N   UNL A   1      33.339  23.329  24.046  1.00  0.00    -0.308 N 
ATOM     10  C   UNL A   1      31.945  22.866  24.187  1.00  0.00     0.091 C 
ATOM     11  C   UNL A   1      34.184  21.162  24.957  1.00  0.00     0.038 C 
ATOM     12  C   UNL A   1      31.723  21.703  25.171  1.00  0.00     0.012 C 
ATOM     13  C   UNL A   1      30.870  23.934  24.389  1.00  0.00     0.025 C 
ATOM     14  C   UNL A   1      32.763  20.600  24.974  1.00  0.00     0.008 C 
ATOM     15  C   UNL A   1      31.606  22.094  26.647  1.00  0.00     0.006 C 
ATOM     16  C   UNL A   1      30.585  24.348  25.833  1.00  0.00     0.002 C 
ATOM     17  C   UNL A   1      31.235  23.536  26.949  1.00  0.00     0.000 C 
BRANCH   9  18
ATOM     18  C   UNL A   1      33.739  24.579  24.484  1.00  0.00     0.320 C 
ATOM     19  O   UNL A   1      34.170  24.754  25.617  1.00  0.00    -0.248 OA
BRANCH  18  20
ATOM     20  N   UNL A   1      33.556  25.639  23.594  1.00  0.00    -0.325 N 
ATOM     21  C   UNL A   1      33.540  25.497  22.134  1.00  0.00     0.149 C 
BRANCH  20  22
ATOM     22  C   UNL A   1      33.012  26.925  24.084  1.00  0.00     0.083 C 
ATOM     23  C   UNL A   1      31.630  27.313  23.541  1.00  0.00     0.031 C 
BRANCH  22  24
ATOM     24  C   UNL A   1      34.039  28.047  23.860  1.00  0.00     0.021 C 
ATOM     25  C   UNL A   1      33.541  29.130  22.916  1.00  0.00     0.006 C 
ENDBRANCH  22  24
ENDBRANCH  20  22
ENDBRANCH  18  20
ENDBRANCH   9  18
ENDBRANCH   6   8
ENDBRANCH   5   6
ENDBRANCH   4   5
ENDBRANCH   3   4
ENDBRANCH   2   3
ENDBRANCH   1   2
BRANCH   1  26
ATOM     26  C   UNL A   1      40.966  21.318  27.122  1.00  0.00     0.188 C 
BRANCH  26  27
ATOM     27  O   UNL A   1      41.063  19.956  27.430  1.00  0.00    -0.376 OA
BRANCH  27  28
ATOM     28  C   UNL A   1      42.291  19.274  27.312  1.00  0.00     0.202 C 
BRANCH  28  29
ATOM     29  C   UNL A   1      42.813  18.615  26.018  1.00  0.00     0.261 C 
BRANCH  29  30
ATOM     30  O   UNL A   1      43.013  19.434  24.858  1.00  0.00    -0.460 OA
BRANCH  30  31
ATOM     31  C   UNL A   1      44.293  19.626  24.456  1.00  0.00     0.338 C 
ATOM     32  O   UNL A   1      44.959  18.878  23.755  1.00  0.00    -0.246 OA
BRANCH  31  33
ATOM     33  C   UNL A   1      44.705  21.016  24.790  1.00  0.00     0.060 A 
ATOM     34  C   UNL A   1      45.268  21.265  26.053  1.00  0.00     0.016 A 
ATOM     35  C   UNL A   1      44.546  22.064  23.883  1.00  0.00     0.016 A 
ATOM     36  C   UNL A   1      45.622  22.564  26.430  1.00  0.00     0.010 A 
ATOM     37  C   UNL A   1      44.877  23.370  24.271  1.00  0.00     0.010 A 
ATOM     38  C   UNL A   1      45.376  23.634  25.563  1.00  0.00    -0.014 A 
BRANCH  38  39
ATOM     39  C   UNL A   1      45.407  25.028  26.086  1.00  0.00     0.031 A 
ATOM     40  C   UNL A   1      46.718  25.774  26.045  1.00  0.00     0.074 A 
ATOM     41  C   UNL A   1      44.309  25.652  26.548  1.00  0.00     0.049 A 
ATOM     42  N   UNL A   1      47.004  26.987  26.451  1.00  0.00    -0.248 NA
ATOM     43  C   UNL A   1      47.859  25.048  25.466  1.00  0.00     0.031 C 
ATOM     44  C   UNL A   1      42.962  25.090  26.590  1.00  0.00     0.029 A 
ATOM     45  N   UNL A   1      44.165  26.915  27.074  1.00  0.00    -0.354 N 
ATOM     46  C   UNL A   1      48.357  27.163  26.184  1.00  0.00     0.074 A 
ATOM     47  C   UNL A   1      48.841  25.921  25.621  1.00  0.00     0.031 C 
ATOM     48  C   UNL A   1      42.125  26.007  27.108  1.00  0.00     0.029 A 
ATOM     49  C   UNL A   1      42.882  27.206  27.467  1.00  0.00     0.049 A 
ATOM     50  H   UNL A   1      44.911  27.551  27.159  1.00  0.00     0.167 HD
ATOM     51  C   UNL A   1      49.133  28.256  26.379  1.00  0.00     0.031 A 
ATOM     52  C   UNL A   1      42.378  28.308  28.059  1.00  0.00     0.031 A 
ATOM     53  C   UNL A   1      48.673  29.487  26.966  1.00  0.00     0.049 A 
ATOM     54  C   UNL A   1      43.283  29.472  28.372  1.00  0.00     0.074 A 
ATOM     55  C   UNL A   1      49.386  30.649  27.206  1.00  0.00     0.029 A 
ATOM     56  N   UNL A   1      47.382  29.711  27.418  1.00  0.00    -0.354 N 
ATOM     57  N   UNL A   1      44.556  29.633  28.104  1.00  0.00    -0.248 NA
ATOM     58  C   UNL A   1      42.669  30.616  29.067  1.00  0.00     0.031 C 
ATOM     59  C   UNL A   1      48.543  31.554  27.862  1.00  0.00     0.029 A 
ATOM     60  C   UNL A   1      47.285  30.983  27.963  1.00  0.00     0.049 A 
ATOM     61  H   UNL A   1      46.643  29.064  27.361  1.00  0.00     0.167 HD
ATOM     62  C   UNL A   1      44.885  30.907  28.558  1.00  0.00     0.074 A 
ATOM     63  C   UNL A   1      43.674  31.479  29.108  1.00  0.00     0.031 C 
ATOM     64  C   UNL A   1      46.080  31.547  28.516  1.00  0.00     0.031 A 
BRANCH  51  65
ATOM     65  C   UNL A   1      50.583  28.139  25.991  1.00  0.00    -0.014 A 
ATOM     66  C   UNL A   1      51.018  28.412  24.683  1.00  0.00     0.009 A 
ATOM     67  C   UNL A   1      51.530  27.739  26.948  1.00  0.00     0.009 A 
ATOM     68  C   UNL A   1      52.357  28.234  24.329  1.00  0.00     0.001 A 
ATOM     69  C   UNL A   1      52.874  27.597  26.601  1.00  0.00     0.001 A 
ATOM     70  C   UNL A   1      53.284  27.829  25.289  1.00  0.00     0.000 A 
ENDBRANCH  51  65
BRANCH  52  71
ATOM     71  C   UNL A   1      40.930  28.380  28.399  1.00  0.00    -0.014 A 
ATOM     72  C   UNL A   1      40.017  28.964  27.505  1.00  0.00     0.009 A 
ATOM     73  C   UNL A   1      40.458  27.900  29.631  1.00  0.00     0.009 A 
ATOM     74  C   UNL A   1      38.669  29.084  27.847  1.00  0.00     0.001 A 
ATOM     75  C   UNL A   1      39.102  27.995  29.956  1.00  0.00     0.001 A 
ATOM     76  C   UNL A   1      38.210  28.595  29.068  1.00  0.00     0.000 A 
ENDBRANCH  52  71
BRANCH  64  77
ATOM     77  C   UNL A   1      46.127  32.961  29.035  1.00  0.00    -0.014 A 
ATOM     78  C   UNL A   1      46.442  33.248  30.372  1.00  0.00     0.009 A 
ATOM     79  C   UNL A   1      45.865  34.028  28.159  1.00  0.00     0.009 A 
ATOM     80  C   UNL A   1      46.442  34.568  30.832  1.00  0.00     0.001 A 
ATOM     81  C   UNL A   1      45.902  35.348  28.613  1.00  0.00     0.001 A 
ATOM     82  C   UNL A   1      46.176  35.617  29.952  1.00  0.00     0.000 A 
ENDBRANCH  64  77
ENDBRANCH  38  39
ENDBRANCH  31  33
ENDBRANCH  30  31
ENDBRANCH  29  30
ENDBRANCH  28  29
ENDBRANCH  27  28
ENDBRANCH  26  27
ENDBRANCH   1  26
TORSDOF 21
ENDMDL
