MODEL 1
REMARK VINA RESULT:     -11.0      0.000      0.000
REMARK SMILES Cc1noc(-c2cc(=O)n(CC(=O)OCCOCCOCCOC(=O)c3ccc(-c4c5nc(c(-c6ccccc6)c6ccc([nH]6)c(-c6ccccc6)c6nc(c(-c7ccccc7)c7ccc4[nH]7)C=C6)C=C5)cc3)c3ccccc23)n1
REMARK SMILES IDX 18 1 17 2 16 3 15 4 14 5 12 6 13 7 11 8 10 9 6 10 7 11 79 12
REMARK SMILES IDX 8 13 74 14 78 15 9 16 75 17 77 18 76 19 5 20 1 21 2 22 3 23
REMARK SMILES IDX 80 24 4 25 19 26 20 27 21 28 22 29 23 30 24 31 25 32 26 33
REMARK SMILES IDX 27 34 73 35 28 36 72 37 29 38 30 39 31 40 66 41 32 42 71 43
REMARK SMILES IDX 65 44 67 45 33 46 70 47 64 48 63 49 34 51 56 52 41 53 55 54
REMARK SMILES IDX 42 55 45 56 54 57 68 58 43 59 44 60 53 62 69 63 46 64 35 65
REMARK SMILES IDX 36 66 40 67 37 68 39 69 38 70 57 71 58 72 62 73 59 74 61 75
REMARK SMILES IDX 60 76 47 77 48 78 52 79 49 80 51 81 50 82
REMARK H PARENT 67 50 45 61
REMARK Flexibility Score: inf
ROOT
ATOM      1  C   UNL A   1      30.407  28.047  23.465  1.00  0.00     0.188 C 
ENDROOT
BRANCH   1   2
ATOM      2  O   UNL A   1      30.502  27.668  22.096  1.00  0.00    -0.376 OA
BRANCH   2   3
ATOM      3  C   UNL A   1      31.389  26.603  21.768  1.00  0.00     0.202 C 
BRANCH   3   4
ATOM      4  C   UNL A   1      31.599  25.585  22.888  1.00  0.00     0.261 C 
BRANCH   4   5
ATOM      5  O   UNL A   1      32.885  25.764  23.522  1.00  0.00    -0.462 OA
BRANCH   5   6
ATOM      6  C   UNL A   1      33.712  24.687  23.507  1.00  0.00     0.326 C 
ATOM      7  O   UNL A   1      34.364  24.332  22.528  1.00  0.00    -0.250 OA
BRANCH   6   8
ATOM      8  C   UNL A   1      33.822  23.949  24.847  1.00  0.00     0.248 C 
BRANCH   8   9
ATOM      9  N   UNL A   1      33.820  22.482  24.875  1.00  0.00    -0.297 N 
ATOM     10  C   UNL A   1      33.586  19.642  24.764  1.00  0.00     0.055 A 
ATOM     11  C   UNL A   1      32.493  20.418  24.763  1.00  0.00     0.086 A 
ATOM     12  C   UNL A   1      34.908  20.290  24.864  1.00  0.00     0.011 A 
ATOM     13  C   UNL A   1      32.564  21.889  24.879  1.00  0.00     0.252 A 
ATOM     14  C   UNL A   1      35.015  21.694  24.806  1.00  0.00     0.053 A 
ATOM     15  C   UNL A   1      36.070  19.495  24.931  1.00  0.00     0.011 A 
ATOM     16  O   UNL A   1      31.512  22.524  24.926  1.00  0.00    -0.269 OA
ATOM     17  C   UNL A   1      36.297  22.247  24.674  1.00  0.00     0.027 A 
ATOM     18  C   UNL A   1      37.331  20.065  24.832  1.00  0.00     0.001 A 
ATOM     19  C   UNL A   1      37.438  21.433  24.648  1.00  0.00     0.002 A 
BRANCH  10  20
ATOM     20  C   UNL A   1      33.399  18.243  24.532  1.00  0.00     0.258 A 
ATOM     21  C   UNL A   1      32.783  14.868  25.384  1.00  0.00     0.093 C 
ATOM     22  C   UNL A   1      33.120  16.157  24.754  1.00  0.00     0.169 A 
ATOM     23  N   UNL A   1      33.653  16.252  23.534  1.00  0.00    -0.062 NA
ATOM     24  N   UNL A   1      32.935  17.352  25.393  1.00  0.00    -0.192 NA
ATOM     25  O   UNL A   1      33.829  17.623  23.372  1.00  0.00    -0.334 OA
ENDBRANCH  10  20
ENDBRANCH   8   9
ENDBRANCH   6   8
ENDBRANCH   5   6
ENDBRANCH   4   5
ENDBRANCH   3   4
ENDBRANCH   2   3
ENDBRANCH   1   2
BRANCH   1  26
ATOM     26  C   UNL A   1      30.365  29.552  23.797  1.00  0.00     0.188 C 
BRANCH  26  27
ATOM     27  O   UNL A   1      31.071  30.004  24.944  1.00  0.00    -0.376 OA
BRANCH  27  28
ATOM     28  C   UNL A   1      31.535  29.017  25.858  1.00  0.00     0.202 C 
BRANCH  28  29
ATOM     29  C   UNL A   1      32.437  29.567  26.960  1.00  0.00     0.261 C 
BRANCH  29  30
ATOM     30  O   UNL A   1      33.252  30.634  26.441  1.00  0.00    -0.460 OA
BRANCH  30  31
ATOM     31  C   UNL A   1      33.728  31.494  27.363  1.00  0.00     0.338 C 
ATOM     32  O   UNL A   1      33.165  32.464  27.849  1.00  0.00    -0.246 OA
BRANCH  31  33
ATOM     33  C   UNL A   1      35.077  31.074  27.764  1.00  0.00     0.060 A 
ATOM     34  C   UNL A   1      36.065  32.031  27.966  1.00  0.00     0.016 A 
ATOM     35  C   UNL A   1      35.314  29.737  28.089  1.00  0.00     0.016 A 
ATOM     36  C   UNL A   1      37.288  31.643  28.518  1.00  0.00     0.010 A 
ATOM     37  C   UNL A   1      36.510  29.361  28.700  1.00  0.00     0.010 A 
ATOM     38  C   UNL A   1      37.509  30.313  28.931  1.00  0.00    -0.014 A 
BRANCH  38  39
ATOM     39  C   UNL A   1      38.738  29.968  29.690  1.00  0.00     0.031 A 
ATOM     40  C   UNL A   1      38.909  30.344  31.133  1.00  0.00     0.074 A 
ATOM     41  C   UNL A   1      39.728  29.307  29.054  1.00  0.00     0.049 A 
ATOM     42  N   UNL A   1      39.824  29.938  31.979  1.00  0.00    -0.248 NA
ATOM     43  C   UNL A   1      37.956  31.310  31.700  1.00  0.00     0.031 C 
ATOM     44  C   UNL A   1      39.744  28.989  27.624  1.00  0.00     0.029 A 
ATOM     45  N   UNL A   1      40.895  28.761  29.529  1.00  0.00    -0.354 N 
ATOM     46  C   UNL A   1      39.547  30.586  33.176  1.00  0.00     0.074 A 
ATOM     47  C   UNL A   1      38.425  31.463  32.932  1.00  0.00     0.031 C 
ATOM     48  C   UNL A   1      40.827  28.246  27.353  1.00  0.00     0.029 A 
ATOM     49  C   UNL A   1      41.584  28.040  28.583  1.00  0.00     0.049 A 
ATOM     50  H   UNL A   1      41.206  28.875  30.456  1.00  0.00     0.167 HD
ATOM     51  C   UNL A   1      40.154  30.434  34.377  1.00  0.00     0.031 A 
ATOM     52  C   UNL A   1      42.677  27.261  28.697  1.00  0.00     0.031 A 
ATOM     53  C   UNL A   1      41.266  29.553  34.616  1.00  0.00     0.049 A 
ATOM     54  C   UNL A   1      43.296  27.053  30.051  1.00  0.00     0.074 A 
ATOM     55  C   UNL A   1      41.888  29.261  35.817  1.00  0.00     0.029 A 
ATOM     56  N   UNL A   1      41.922  28.827  33.635  1.00  0.00    -0.354 N 
ATOM     57  N   UNL A   1      42.933  27.555  31.206  1.00  0.00    -0.248 NA
ATOM     58  C   UNL A   1      44.455  26.151  30.123  1.00  0.00     0.031 C 
ATOM     59  C   UNL A   1      42.953  28.396  35.557  1.00  0.00     0.029 A 
ATOM     60  C   UNL A   1      42.959  28.106  34.202  1.00  0.00     0.049 A 
ATOM     61  H   UNL A   1      41.688  28.825  32.680  1.00  0.00     0.167 HD
ATOM     62  C   UNL A   1      43.802  27.014  32.144  1.00  0.00     0.074 A 
ATOM     63  C   UNL A   1      44.700  26.134  31.427  1.00  0.00     0.031 C 
ATOM     64  C   UNL A   1      43.848  27.233  33.480  1.00  0.00     0.031 A 
BRANCH  51  65
ATOM     65  C   UNL A   1      39.607  31.204  35.546  1.00  0.00    -0.014 A 
ATOM     66  C   UNL A   1      38.462  30.751  36.219  1.00  0.00     0.009 A 
ATOM     67  C   UNL A   1      40.167  32.439  35.914  1.00  0.00     0.009 A 
ATOM     68  C   UNL A   1      37.885  31.520  37.232  1.00  0.00     0.001 A 
ATOM     69  C   UNL A   1      39.603  33.193  36.945  1.00  0.00     0.001 A 
ATOM     70  C   UNL A   1      38.458  32.738  37.596  1.00  0.00     0.000 A 
ENDBRANCH  51  65
BRANCH  52  71
ATOM     71  C   UNL A   1      43.188  26.544  27.501  1.00  0.00    -0.014 A 
ATOM     72  C   UNL A   1      42.757  25.240  27.208  1.00  0.00     0.009 A 
ATOM     73  C   UNL A   1      44.154  27.140  26.676  1.00  0.00     0.009 A 
ATOM     74  C   UNL A   1      43.292  24.546  26.121  1.00  0.00     0.001 A 
ATOM     75  C   UNL A   1      44.669  26.452  25.576  1.00  0.00     0.001 A 
ATOM     76  C   UNL A   1      44.244  25.153  25.304  1.00  0.00     0.000 A 
ENDBRANCH  52  71
BRANCH  64  77
ATOM     77  C   UNL A   1      44.897  26.510  34.275  1.00  0.00    -0.014 A 
ATOM     78  C   UNL A   1      46.176  27.073  34.416  1.00  0.00     0.009 A 
ATOM     79  C   UNL A   1      44.657  25.226  34.787  1.00  0.00     0.009 A 
ATOM     80  C   UNL A   1      47.198  26.358  35.040  1.00  0.00     0.001 A 
ATOM     81  C   UNL A   1      45.675  24.524  35.433  1.00  0.00     0.001 A 
ATOM     82  C   UNL A   1      46.947  25.085  35.551  1.00  0.00     0.000 A 
ENDBRANCH  64  77
ENDBRANCH  38  39
ENDBRANCH  31  33
ENDBRANCH  30  31
ENDBRANCH  29  30
ENDBRANCH  28  29
ENDBRANCH  27  28
ENDBRANCH  26  27
ENDBRANCH   1  26
TORSDOF 19
ENDMDL
MODEL 2
REMARK VINA RESULT:     -10.6      2.704      8.592
REMARK SMILES Cc1noc(-c2cc(=O)n(CC(=O)OCCOCCOCCOC(=O)c3ccc(-c4c5nc(c(-c6ccccc6)c6ccc([nH]6)c(-c6ccccc6)c6nc(c(-c7ccccc7)c7ccc4[nH]7)C=C6)C=C5)cc3)c3ccccc23)n1
REMARK SMILES IDX 18 1 17 2 16 3 15 4 14 5 12 6 13 7 11 8 10 9 6 10 7 11 79 12
REMARK SMILES IDX 8 13 74 14 78 15 9 16 75 17 77 18 76 19 5 20 1 21 2 22 3 23
REMARK SMILES IDX 80 24 4 25 19 26 20 27 21 28 22 29 23 30 24 31 25 32 26 33
REMARK SMILES IDX 27 34 73 35 28 36 72 37 29 38 30 39 31 40 66 41 32 42 71 43
REMARK SMILES IDX 65 44 67 45 33 46 70 47 64 48 63 49 34 51 56 52 41 53 55 54
REMARK SMILES IDX 42 55 45 56 54 57 68 58 43 59 44 60 53 62 69 63 46 64 35 65
REMARK SMILES IDX 36 66 40 67 37 68 39 69 38 70 57 71 58 72 62 73 59 74 61 75
REMARK SMILES IDX 60 76 47 77 48 78 52 79 49 80 51 81 50 82
REMARK H PARENT 67 50 45 61
REMARK Flexibility Score: inf
ROOT
ATOM      1  C   UNL A   1      36.752  21.477  24.705  1.00  0.00     0.188 C 
ENDROOT
BRANCH   1   2
ATOM      2  O   UNL A   1      35.616  20.992  25.412  1.00  0.00    -0.376 OA
BRANCH   2   3
ATOM      3  C   UNL A   1      34.372  20.965  24.720  1.00  0.00     0.202 C 
BRANCH   3   4
ATOM      4  C   UNL A   1      34.118  22.179  23.826  1.00  0.00     0.261 C 
BRANCH   4   5
ATOM      5  O   UNL A   1      33.176  23.089  24.436  1.00  0.00    -0.462 OA
BRANCH   5   6
ATOM      6  C   UNL A   1      33.708  24.063  25.218  1.00  0.00     0.326 C 
ATOM      7  O   UNL A   1      33.806  23.990  26.440  1.00  0.00    -0.250 OA
BRANCH   6   8
ATOM      8  C   UNL A   1      34.242  25.277  24.448  1.00  0.00     0.248 C 
BRANCH   8   9
ATOM      9  N   UNL A   1      33.336  26.379  24.103  1.00  0.00    -0.297 N 
ATOM     10  C   UNL A   1      31.430  28.333  23.278  1.00  0.00     0.055 A 
ATOM     11  C   UNL A   1      31.795  27.344  22.451  1.00  0.00     0.086 A 
ATOM     12  C   UNL A   1      32.065  28.409  24.608  1.00  0.00     0.011 A 
ATOM     13  C   UNL A   1      32.822  26.345  22.812  1.00  0.00     0.252 A 
ATOM     14  C   UNL A   1      32.920  27.376  25.043  1.00  0.00     0.053 A 
ATOM     15  C   UNL A   1      31.745  29.475  25.473  1.00  0.00     0.011 A 
ATOM     16  O   UNL A   1      33.140  25.503  21.975  1.00  0.00    -0.269 OA
ATOM     17  C   UNL A   1      33.314  27.379  26.390  1.00  0.00     0.027 A 
ATOM     18  C   UNL A   1      32.172  29.474  26.793  1.00  0.00     0.001 A 
ATOM     19  C   UNL A   1      32.908  28.399  27.261  1.00  0.00     0.002 A 
BRANCH  10  20
ATOM     20  C   UNL A   1      30.345  29.170  22.863  1.00  0.00     0.258 A 
ATOM     21  C   UNL A   1      27.665  31.440  23.261  1.00  0.00     0.093 C 
ATOM     22  C   UNL A   1      28.670  30.461  22.809  1.00  0.00     0.169 A 
ATOM     23  N   UNL A   1      28.612  29.858  21.620  1.00  0.00    -0.062 NA
ATOM     24  N   UNL A   1      29.723  30.079  23.594  1.00  0.00    -0.192 NA
ATOM     25  O   UNL A   1      29.719  29.013  21.639  1.00  0.00    -0.334 OA
ENDBRANCH  10  20
ENDBRANCH   8   9
ENDBRANCH   6   8
ENDBRANCH   5   6
ENDBRANCH   4   5
ENDBRANCH   3   4
ENDBRANCH   2   3
ENDBRANCH   1   2
BRANCH   1  26
ATOM     26  C   UNL A   1      38.133  20.897  25.070  1.00  0.00     0.188 C 
BRANCH  26  27
ATOM     27  O   UNL A   1      39.030  21.717  25.806  1.00  0.00    -0.376 OA
BRANCH  27  28
ATOM     28  C   UNL A   1      40.080  21.067  26.513  1.00  0.00     0.202 C 
BRANCH  28  29
ATOM     29  C   UNL A   1      41.477  21.548  26.128  1.00  0.00     0.261 C 
BRANCH  29  30
ATOM     30  O   UNL A   1      41.431  22.936  25.747  1.00  0.00    -0.460 OA
BRANCH  30  31
ATOM     31  C   UNL A   1      42.478  23.679  26.156  1.00  0.00     0.338 C 
ATOM     32  O   UNL A   1      43.664  23.496  25.930  1.00  0.00    -0.246 OA
BRANCH  31  33
ATOM     33  C   UNL A   1      41.983  24.829  26.925  1.00  0.00     0.060 A 
ATOM     34  C   UNL A   1      40.992  24.643  27.882  1.00  0.00     0.016 A 
ATOM     35  C   UNL A   1      42.617  26.066  26.797  1.00  0.00     0.016 A 
ATOM     36  C   UNL A   1      40.655  25.700  28.730  1.00  0.00     0.010 A 
ATOM     37  C   UNL A   1      42.326  27.102  27.686  1.00  0.00     0.010 A 
ATOM     38  C   UNL A   1      41.347  26.927  28.670  1.00  0.00    -0.014 A 
BRANCH  38  39
ATOM     39  C   UNL A   1      41.106  27.965  29.706  1.00  0.00     0.031 A 
ATOM     40  C   UNL A   1      39.995  28.966  29.579  1.00  0.00     0.074 A 
ATOM     41  C   UNL A   1      41.919  28.006  30.782  1.00  0.00     0.049 A 
ATOM     42  N   UNL A   1      39.534  29.792  30.486  1.00  0.00    -0.248 NA
ATOM     43  C   UNL A   1      39.331  29.081  28.272  1.00  0.00     0.031 C 
ATOM     44  C   UNL A   1      43.108  27.173  30.971  1.00  0.00     0.029 A 
ATOM     45  N   UNL A   1      41.854  28.758  31.929  1.00  0.00    -0.354 N 
ATOM     46  C   UNL A   1      38.519  30.508  29.865  1.00  0.00     0.074 A 
ATOM     47  C   UNL A   1      38.477  30.073  28.488  1.00  0.00     0.031 C 
ATOM     48  C   UNL A   1      43.619  27.408  32.188  1.00  0.00     0.029 A 
ATOM     49  C   UNL A   1      42.801  28.411  32.863  1.00  0.00     0.049 A 
ATOM     50  H   UNL A   1      41.194  29.475  32.069  1.00  0.00     0.167 HD
ATOM     51  C   UNL A   1      37.677  31.420  30.407  1.00  0.00     0.031 A 
ATOM     52  C   UNL A   1      42.969  28.816  34.137  1.00  0.00     0.031 A 
ATOM     53  C   UNL A   1      37.719  31.843  31.781  1.00  0.00     0.049 A 
ATOM     54  C   UNL A   1      41.985  29.779  34.739  1.00  0.00     0.074 A 
ATOM     55  C   UNL A   1      36.850  32.692  32.446  1.00  0.00     0.029 A 
ATOM     56  N   UNL A   1      38.682  31.454  32.698  1.00  0.00    -0.354 N 
ATOM     57  N   UNL A   1      40.937  30.337  34.185  1.00  0.00    -0.248 NA
ATOM     58  C   UNL A   1      42.187  30.145  36.149  1.00  0.00     0.031 C 
ATOM     59  C   UNL A   1      37.315  32.855  33.753  1.00  0.00     0.029 A 
ATOM     60  C   UNL A   1      38.442  32.064  33.917  1.00  0.00     0.049 A 
ATOM     61  H   UNL A   1      39.424  30.837  32.511  1.00  0.00     0.167 HD
ATOM     62  C   UNL A   1      40.343  31.102  35.180  1.00  0.00     0.074 A 
ATOM     63  C   UNL A   1      41.138  30.924  36.377  1.00  0.00     0.031 C 
ATOM     64  C   UNL A   1      39.238  31.881  35.103  1.00  0.00     0.031 A 
BRANCH  51  65
ATOM     65  C   UNL A   1      36.604  32.000  29.528  1.00  0.00    -0.014 A 
ATOM     66  C   UNL A   1      35.445  31.260  29.245  1.00  0.00     0.009 A 
ATOM     67  C   UNL A   1      36.791  33.239  28.894  1.00  0.00     0.009 A 
ATOM     68  C   UNL A   1      34.498  31.746  28.341  1.00  0.00     0.001 A 
ATOM     69  C   UNL A   1      35.830  33.733  28.009  1.00  0.00     0.001 A 
ATOM     70  C   UNL A   1      34.690  32.983  27.727  1.00  0.00     0.000 A 
ENDBRANCH  51  65
BRANCH  52  71
ATOM     71  C   UNL A   1      44.064  28.227  34.950  1.00  0.00    -0.014 A 
ATOM     72  C   UNL A   1      45.406  28.517  34.662  1.00  0.00     0.009 A 
ATOM     73  C   UNL A   1      43.771  27.326  35.985  1.00  0.00     0.009 A 
ATOM     74  C   UNL A   1      46.433  27.907  35.386  1.00  0.00     0.001 A 
ATOM     75  C   UNL A   1      44.799  26.736  36.723  1.00  0.00     0.001 A 
ATOM     76  C   UNL A   1      46.129  27.020  36.418  1.00  0.00     0.000 A 
ENDBRANCH  52  71
BRANCH  64  77
ATOM     77  C   UNL A   1      38.802  32.608  36.343  1.00  0.00    -0.014 A 
ATOM     78  C   UNL A   1      39.171  33.950  36.530  1.00  0.00     0.009 A 
ATOM     79  C   UNL A   1      38.126  31.936  37.371  1.00  0.00     0.009 A 
ATOM     80  C   UNL A   1      38.885  34.600  37.731  1.00  0.00     0.001 A 
ATOM     81  C   UNL A   1      37.819  32.597  38.562  1.00  0.00     0.001 A 
ATOM     82  C   UNL A   1      38.207  33.924  38.745  1.00  0.00     0.000 A 
ENDBRANCH  64  77
ENDBRANCH  38  39
ENDBRANCH  31  33
ENDBRANCH  30  31
ENDBRANCH  29  30
ENDBRANCH  28  29
ENDBRANCH  27  28
ENDBRANCH  26  27
ENDBRANCH   1  26
TORSDOF 19
ENDMDL
MODEL 3
REMARK VINA RESULT:     -10.5      2.333      3.373
REMARK SMILES Cc1noc(-c2cc(=O)n(CC(=O)OCCOCCOCCOC(=O)c3ccc(-c4c5nc(c(-c6ccccc6)c6ccc([nH]6)c(-c6ccccc6)c6nc(c(-c7ccccc7)c7ccc4[nH]7)C=C6)C=C5)cc3)c3ccccc23)n1
REMARK SMILES IDX 18 1 17 2 16 3 15 4 14 5 12 6 13 7 11 8 10 9 6 10 7 11 79 12
REMARK SMILES IDX 8 13 74 14 78 15 9 16 75 17 77 18 76 19 5 20 1 21 2 22 3 23
REMARK SMILES IDX 80 24 4 25 19 26 20 27 21 28 22 29 23 30 24 31 25 32 26 33
REMARK SMILES IDX 27 34 73 35 28 36 72 37 29 38 30 39 31 40 66 41 32 42 71 43
REMARK SMILES IDX 65 44 67 45 33 46 70 47 64 48 63 49 34 51 56 52 41 53 55 54
REMARK SMILES IDX 42 55 45 56 54 57 68 58 43 59 44 60 53 62 69 63 46 64 35 65
REMARK SMILES IDX 36 66 40 67 37 68 39 69 38 70 57 71 58 72 62 73 59 74 61 75
REMARK SMILES IDX 60 76 47 77 48 78 52 79 49 80 51 81 50 82
REMARK H PARENT 67 50 45 61
REMARK Flexibility Score: inf
ROOT
ATOM      1  C   UNL A   1      31.482  26.279  23.438  1.00  0.00     0.188 C 
ENDROOT
BRANCH   1   2
ATOM      2  O   UNL A   1      32.091  26.054  22.172  1.00  0.00    -0.376 OA
BRANCH   2   3
ATOM      3  C   UNL A   1      33.441  25.601  22.162  1.00  0.00     0.202 C 
BRANCH   3   4
ATOM      4  C   UNL A   1      33.677  24.293  22.918  1.00  0.00     0.261 C 
BRANCH   4   5
ATOM      5  O   UNL A   1      34.858  24.373  23.745  1.00  0.00    -0.462 OA
BRANCH   5   6
ATOM      6  C   UNL A   1      35.681  23.293  23.716  1.00  0.00     0.326 C 
ATOM      7  O   UNL A   1      36.347  22.959  22.739  1.00  0.00    -0.250 OA
BRANCH   6   8
ATOM      8  C   UNL A   1      35.766  22.521  25.038  1.00  0.00     0.248 C 
BRANCH   8   9
ATOM      9  N   UNL A   1      37.057  21.995  25.495  1.00  0.00    -0.297 N 
ATOM     10  C   UNL A   1      39.572  20.819  26.147  1.00  0.00     0.055 A 
ATOM     11  C   UNL A   1      38.638  20.115  25.494  1.00  0.00     0.086 A 
ATOM     12  C   UNL A   1      39.254  22.201  26.555  1.00  0.00     0.011 A 
ATOM     13  C   UNL A   1      37.301  20.662  25.188  1.00  0.00     0.252 A 
ATOM     14  C   UNL A   1      38.054  22.806  26.131  1.00  0.00     0.053 A 
ATOM     15  C   UNL A   1      40.195  22.942  27.298  1.00  0.00     0.011 A 
ATOM     16  O   UNL A   1      36.481  19.932  24.634  1.00  0.00    -0.269 OA
ATOM     17  C   UNL A   1      37.903  24.183  26.349  1.00  0.00     0.027 A 
ATOM     18  C   UNL A   1      40.012  24.297  27.531  1.00  0.00     0.001 A 
ATOM     19  C   UNL A   1      38.893  24.925  27.008  1.00  0.00     0.002 A 
BRANCH  10  20
ATOM     20  C   UNL A   1      40.866  20.224  26.285  1.00  0.00     0.258 A 
ATOM     21  C   UNL A   1      43.925  18.825  25.196  1.00  0.00     0.093 C 
ATOM     22  C   UNL A   1      42.734  19.297  25.926  1.00  0.00     0.169 A 
ATOM     23  N   UNL A   1      42.498  18.994  27.204  1.00  0.00    -0.062 NA
ATOM     24  N   UNL A   1      41.767  20.060  25.330  1.00  0.00    -0.192 NA
ATOM     25  O   UNL A   1      41.276  19.610  27.455  1.00  0.00    -0.334 OA
ENDBRANCH  10  20
ENDBRANCH   8   9
ENDBRANCH   6   8
ENDBRANCH   5   6
ENDBRANCH   4   5
ENDBRANCH   3   4
ENDBRANCH   2   3
ENDBRANCH   1   2
BRANCH   1  26
ATOM     26  C   UNL A   1      30.369  27.342  23.527  1.00  0.00     0.188 C 
BRANCH  26  27
ATOM     27  O   UNL A   1      30.499  28.369  24.500  1.00  0.00    -0.376 OA
BRANCH  27  28
ATOM     28  C   UNL A   1      31.764  28.510  25.136  1.00  0.00     0.202 C 
BRANCH  28  29
ATOM     29  C   UNL A   1      32.077  29.934  25.587  1.00  0.00     0.261 C 
BRANCH  29  30
ATOM     30  O   UNL A   1      33.460  30.035  25.972  1.00  0.00    -0.460 OA
BRANCH  30  31
ATOM     31  C   UNL A   1      33.697  30.770  27.076  1.00  0.00     0.338 C 
ATOM     32  O   UNL A   1      32.925  31.509  27.667  1.00  0.00    -0.246 OA
BRANCH  31  33
ATOM     33  C   UNL A   1      35.074  30.530  27.530  1.00  0.00     0.060 A 
ATOM     34  C   UNL A   1      35.857  31.599  27.952  1.00  0.00     0.016 A 
ATOM     35  C   UNL A   1      35.530  29.219  27.680  1.00  0.00     0.016 A 
ATOM     36  C   UNL A   1      37.094  31.344  28.549  1.00  0.00     0.010 A 
ATOM     37  C   UNL A   1      36.735  28.962  28.334  1.00  0.00     0.010 A 
ATOM     38  C   UNL A   1      37.528  30.023  28.785  1.00  0.00    -0.014 A 
BRANCH  38  39
ATOM     39  C   UNL A   1      38.751  29.779  29.592  1.00  0.00     0.031 A 
ATOM     40  C   UNL A   1      38.870  30.253  31.011  1.00  0.00     0.074 A 
ATOM     41  C   UNL A   1      39.782  29.121  29.022  1.00  0.00     0.049 A 
ATOM     42  N   UNL A   1      39.780  29.941  31.902  1.00  0.00    -0.248 NA
ATOM     43  C   UNL A   1      37.865  31.214  31.493  1.00  0.00     0.031 C 
ATOM     44  C   UNL A   1      39.846  28.713  27.617  1.00  0.00     0.029 A 
ATOM     45  N   UNL A   1      40.957  28.655  29.558  1.00  0.00    -0.354 N 
ATOM     46  C   UNL A   1      39.447  30.652  33.047  1.00  0.00     0.074 A 
ATOM     47  C   UNL A   1      38.297  31.464  32.722  1.00  0.00     0.031 C 
ATOM     48  C   UNL A   1      40.965  28.000  27.419  1.00  0.00     0.029 A 
ATOM     49  C   UNL A   1      41.699  27.905  28.677  1.00  0.00     0.049 A 
ATOM     50  H   UNL A   1      41.241  28.841  30.482  1.00  0.00     0.167 HD
ATOM     51  C   UNL A   1      40.029  30.603  34.269  1.00  0.00     0.031 A 
ATOM     52  C   UNL A   1      42.819  27.181  28.866  1.00  0.00     0.031 A 
ATOM     53  C   UNL A   1      41.169  29.786  34.589  1.00  0.00     0.049 A 
ATOM     54  C   UNL A   1      43.412  27.086  30.243  1.00  0.00     0.074 A 
ATOM     55  C   UNL A   1      41.773  29.598  35.821  1.00  0.00     0.029 A 
ATOM     56  N   UNL A   1      41.879  29.027  33.673  1.00  0.00    -0.354 N 
ATOM     57  N   UNL A   1      43.000  27.645  31.355  1.00  0.00    -0.248 NA
ATOM     58  C   UNL A   1      44.604  26.240  30.400  1.00  0.00     0.031 C 
ATOM     59  C   UNL A   1      42.878  28.763  35.642  1.00  0.00     0.029 A 
ATOM     60  C   UNL A   1      42.929  28.387  34.308  1.00  0.00     0.049 A 
ATOM     61  H   UNL A   1      41.668  28.954  32.715  1.00  0.00     0.167 HD
ATOM     62  C   UNL A   1      43.867  27.203  32.346  1.00  0.00     0.074 A 
ATOM     63  C   UNL A   1      44.817  26.317  31.707  1.00  0.00     0.031 C 
ATOM     64  C   UNL A   1      43.870  27.508  33.665  1.00  0.00     0.031 A 
BRANCH  51  65
ATOM     65  C   UNL A   1      39.423  31.423  35.374  1.00  0.00    -0.014 A 
ATOM     66  C   UNL A   1      38.377  30.901  36.150  1.00  0.00     0.009 A 
ATOM     67  C   UNL A   1      39.818  32.755  35.574  1.00  0.00     0.009 A 
ATOM     68  C   UNL A   1      37.736  31.698  37.101  1.00  0.00     0.001 A 
ATOM     69  C   UNL A   1      39.192  33.542  36.544  1.00  0.00     0.001 A 
ATOM     70  C   UNL A   1      38.145  33.016  37.299  1.00  0.00     0.000 A 
ENDBRANCH  51  65
BRANCH  52  71
ATOM     71  C   UNL A   1      43.388  26.411  27.730  1.00  0.00    -0.014 A 
ATOM     72  C   UNL A   1      43.256  25.014  27.673  1.00  0.00     0.009 A 
ATOM     73  C   UNL A   1      44.116  27.065  26.724  1.00  0.00     0.009 A 
ATOM     74  C   UNL A   1      43.852  24.289  26.639  1.00  0.00     0.001 A 
ATOM     75  C   UNL A   1      44.690  26.339  25.679  1.00  0.00     0.001 A 
ATOM     76  C   UNL A   1      44.564  24.951  25.641  1.00  0.00     0.000 A 
ENDBRANCH  52  71
BRANCH  64  77
ATOM     77  C   UNL A   1      44.928  26.882  34.529  1.00  0.00    -0.014 A 
ATOM     78  C   UNL A   1      46.180  27.505  34.659  1.00  0.00     0.009 A 
ATOM     79  C   UNL A   1      44.725  25.626  35.119  1.00  0.00     0.009 A 
ATOM     80  C   UNL A   1      47.214  26.874  35.351  1.00  0.00     0.001 A 
ATOM     81  C   UNL A   1      45.755  25.010  35.832  1.00  0.00     0.001 A 
ATOM     82  C   UNL A   1      47.001  25.628  35.939  1.00  0.00     0.000 A 
ENDBRANCH  64  77
ENDBRANCH  38  39
ENDBRANCH  31  33
ENDBRANCH  30  31
ENDBRANCH  29  30
ENDBRANCH  28  29
ENDBRANCH  27  28
ENDBRANCH  26  27
ENDBRANCH   1  26
TORSDOF 19
ENDMDL
