MODEL 1
REMARK VINA RESULT:     -11.9      0.000      0.000
REMARK SMILES O=C(OCCOCCOCCOC(=O)c1ccc(-c2c3nc(c(-c4ccccc4)c4ccc([nH]4)c(-c4ccccc4)c4nc(c(-c5ccccc5)c5ccc2[nH]5)C=C4)C=C3)cc1)C1=Cc2cc(C(F)(F)F)ccc2O[C@@H]1C(F)(F)F
REMARK SMILES IDX 8 1 7 2 6 3 5 4 4 5 3 6 2 7 1 8 63 9 64 10 76 11 65 12 75 13
REMARK SMILES IDX 66 14 74 15 67 16 73 17 72 18 77 19 78 20 79 21 80 22 68 23
REMARK SMILES IDX 69 24 70 25 71 26 9 27 10 28 11 29 12 30 13 31 14 32 15 33
REMARK SMILES IDX 16 34 62 35 17 36 61 37 18 38 19 39 20 40 55 41 21 42 60 43
REMARK SMILES IDX 54 44 56 45 22 46 59 47 53 48 52 49 23 51 45 52 30 53 44 54
REMARK SMILES IDX 31 55 34 56 43 57 57 58 32 59 33 60 42 62 58 63 35 64 24 65
REMARK SMILES IDX 25 66 29 67 26 68 28 69 27 70 46 71 47 72 51 73 48 74 50 75
REMARK SMILES IDX 49 76 36 77 37 78 41 79 38 80 40 81 39 82
REMARK H PARENT 56 50 34 61
REMARK Flexibility Score: inf
ROOT
ATOM      1  C   UNL A   1      42.324  19.791  26.120  1.00  0.00     0.188 C 
ENDROOT
BRANCH   1   2
ATOM      2  C   UNL A   1      40.833  20.170  26.140  1.00  0.00     0.188 C 
BRANCH   2   3
ATOM      3  O   UNL A   1      39.722  19.303  25.761  1.00  0.00    -0.376 OA
BRANCH   3   4
ATOM      4  C   UNL A   1      38.362  19.617  24.867  1.00  0.00     0.202 C 
BRANCH   4   5
ATOM      5  C   UNL A   1      36.781  21.059  25.284  1.00  0.00     0.261 C 
BRANCH   5   6
ATOM      6  O   UNL A   1      36.700  22.497  24.736  1.00  0.00    -0.460 OA
BRANCH   6   7
ATOM      7  C   UNL A   1      35.650  22.687  23.927  1.00  0.00     0.338 C 
ATOM      8  O   UNL A   1      35.617  22.955  22.753  1.00  0.00    -0.246 OA
BRANCH   7   9
ATOM      9  C   UNL A   1      34.685  22.869  24.984  1.00  0.00     0.087 C 
ATOM     10  C   UNL A   1      34.738  24.225  25.564  1.00  0.00     0.027 C 
ATOM     11  C   UNL A   1      33.189  22.141  24.005  1.00  0.00     0.316 C 
ATOM     12  C   UNL A   1      33.487  25.491  25.259  1.00  0.00     0.018 A 
ATOM     13  O   UNL A   1      31.894  23.521  23.570  1.00  0.00    -0.475 OA
ATOM     14  C   UNL A   1      33.668  26.744  25.768  1.00  0.00     0.025 A 
ATOM     15  C   UNL A   1      32.114  25.205  24.241  1.00  0.00     0.128 A 
ATOM     16  C   UNL A   1      32.671  27.693  25.434  1.00  0.00     0.056 A 
ATOM     17  C   UNL A   1      31.170  26.153  23.978  1.00  0.00     0.048 A 
ATOM     18  C   UNL A   1      31.484  27.394  24.602  1.00  0.00     0.017 A 
BRANCH  11  19
ATOM     19  C   UNL A   1      33.054  20.775  24.877  1.00  0.00     0.430 C 
ATOM     20  F   UNL A   1      31.868  20.154  24.919  1.00  0.00    -0.167 F 
ATOM     21  F   UNL A   1      33.889  19.859  24.296  1.00  0.00    -0.167 F 
ATOM     22  F   UNL A   1      33.508  20.883  26.151  1.00  0.00    -0.167 F 
ENDBRANCH  11  19
BRANCH  16  23
ATOM     23  C   UNL A   1      32.896  29.098  25.989  1.00  0.00     0.416 C 
ATOM     24  F   UNL A   1      32.340  30.058  25.197  1.00  0.00    -0.166 F 
ATOM     25  F   UNL A   1      32.319  29.257  27.215  1.00  0.00    -0.166 F 
ATOM     26  F   UNL A   1      34.202  29.438  26.140  1.00  0.00    -0.166 F 
ENDBRANCH  16  23
ENDBRANCH   7   9
ENDBRANCH   6   7
ENDBRANCH   5   6
ENDBRANCH   4   5
ENDBRANCH   3   4
ENDBRANCH   2   3
ENDBRANCH   1   2
BRANCH   1  27
ATOM     27  O   UNL A   1      43.148  20.216  25.063  1.00  0.00    -0.376 OA
BRANCH  27  28
ATOM     28  C   UNL A   1      44.100  21.224  25.374  1.00  0.00     0.202 C 
BRANCH  28  29
ATOM     29  C   UNL A   1      44.298  22.359  24.360  1.00  0.00     0.261 C 
BRANCH  29  30
ATOM     30  O   UNL A   1      43.464  23.508  24.632  1.00  0.00    -0.460 OA
BRANCH  30  31
ATOM     31  C   UNL A   1      44.095  24.649  25.001  1.00  0.00     0.338 C 
ATOM     32  O   UNL A   1      45.199  25.027  24.648  1.00  0.00    -0.246 OA
BRANCH  31  33
ATOM     33  C   UNL A   1      43.176  25.504  25.786  1.00  0.00     0.060 A 
ATOM     34  C   UNL A   1      43.518  26.852  25.971  1.00  0.00     0.016 A 
ATOM     35  C   UNL A   1      42.017  24.984  26.365  1.00  0.00     0.016 A 
ATOM     36  C   UNL A   1      42.719  27.678  26.760  1.00  0.00     0.010 A 
ATOM     37  C   UNL A   1      41.241  25.800  27.197  1.00  0.00     0.010 A 
ATOM     38  C   UNL A   1      41.618  27.135  27.432  1.00  0.00    -0.014 A 
BRANCH  38  39
ATOM     39  C   UNL A   1      41.106  27.859  28.621  1.00  0.00     0.031 A 
ATOM     40  C   UNL A   1      41.857  27.661  29.912  1.00  0.00     0.074 A 
ATOM     41  C   UNL A   1      40.068  28.709  28.560  1.00  0.00     0.049 A 
ATOM     42  N   UNL A   1      41.677  28.223  31.079  1.00  0.00    -0.248 NA
ATOM     43  C   UNL A   1      42.970  26.694  29.876  1.00  0.00     0.031 C 
ATOM     44  C   UNL A   1      39.295  29.028  27.362  1.00  0.00     0.029 A 
ATOM     45  N   UNL A   1      39.494  29.471  29.547  1.00  0.00    -0.354 N 
ATOM     46  C   UNL A   1      42.654  27.682  31.907  1.00  0.00     0.074 A 
ATOM     47  C   UNL A   1      43.397  26.721  31.126  1.00  0.00     0.031 C 
ATOM     48  C   UNL A   1      38.345  29.926  27.685  1.00  0.00     0.029 A 
ATOM     49  C   UNL A   1      38.432  30.228  29.114  1.00  0.00     0.049 A 
ATOM     50  H   UNL A   1      39.814  29.477  30.478  1.00  0.00     0.167 HD
ATOM     51  C   UNL A   1      42.919  27.962  33.204  1.00  0.00     0.031 A 
ATOM     52  C   UNL A   1      37.627  31.063  29.801  1.00  0.00     0.031 A 
ATOM     53  C   UNL A   1      42.154  28.887  33.993  1.00  0.00     0.049 A 
ATOM     54  C   UNL A   1      37.882  31.289  31.271  1.00  0.00     0.074 A 
ATOM     55  C   UNL A   1      42.334  29.246  35.316  1.00  0.00     0.029 A 
ATOM     56  N   UNL A   1      41.048  29.585  33.531  1.00  0.00    -0.354 N 
ATOM     57  N   UNL A   1      38.833  30.806  32.035  1.00  0.00    -0.248 NA
ATOM     58  C   UNL A   1      36.960  32.198  31.968  1.00  0.00     0.031 C 
ATOM     59  C   UNL A   1      41.290  30.104  35.677  1.00  0.00     0.029 A 
ATOM     60  C   UNL A   1      40.516  30.351  34.553  1.00  0.00     0.049 A 
ATOM     61  H   UNL A   1      40.695  29.542  32.613  1.00  0.00     0.167 HD
ATOM     62  C   UNL A   1      38.654  31.389  33.285  1.00  0.00     0.074 A 
ATOM     63  C   UNL A   1      37.509  32.269  33.172  1.00  0.00     0.031 C 
ATOM     64  C   UNL A   1      39.376  31.223  34.422  1.00  0.00     0.031 A 
BRANCH  51  65
ATOM     65  C   UNL A   1      44.045  27.208  33.854  1.00  0.00    -0.014 A 
ATOM     66  C   UNL A   1      45.370  27.678  33.809  1.00  0.00     0.009 A 
ATOM     67  C   UNL A   1      43.776  26.003  34.522  1.00  0.00     0.009 A 
ATOM     68  C   UNL A   1      46.404  26.932  34.380  1.00  0.00     0.001 A 
ATOM     69  C   UNL A   1      44.807  25.279  35.122  1.00  0.00     0.001 A 
ATOM     70  C   UNL A   1      46.121  25.738  35.041  1.00  0.00     0.000 A 
ENDBRANCH  51  65
BRANCH  52  71
ATOM     71  C   UNL A   1      36.501  31.759  29.118  1.00  0.00    -0.014 A 
ATOM     72  C   UNL A   1      36.635  33.087  28.679  1.00  0.00     0.009 A 
ATOM     73  C   UNL A   1      35.266  31.115  28.943  1.00  0.00     0.009 A 
ATOM     74  C   UNL A   1      35.549  33.764  28.116  1.00  0.00     0.001 A 
ATOM     75  C   UNL A   1      34.192  31.783  28.349  1.00  0.00     0.001 A 
ATOM     76  C   UNL A   1      34.330  33.110  27.948  1.00  0.00     0.000 A 
ENDBRANCH  52  71
BRANCH  64  77
ATOM     77  C   UNL A   1      38.997  32.062  35.614  1.00  0.00    -0.014 A 
ATOM     78  C   UNL A   1      38.144  31.584  36.621  1.00  0.00     0.009 A 
ATOM     79  C   UNL A   1      39.539  33.352  35.743  1.00  0.00     0.009 A 
ATOM     80  C   UNL A   1      37.798  32.400  37.700  1.00  0.00     0.001 A 
ATOM     81  C   UNL A   1      39.226  34.150  36.843  1.00  0.00     0.001 A 
ATOM     82  C   UNL A   1      38.343  33.680  37.813  1.00  0.00     0.000 A 
ENDBRANCH  64  77
ENDBRANCH  38  39
ENDBRANCH  31  33
ENDBRANCH  30  31
ENDBRANCH  29  30
ENDBRANCH  28  29
ENDBRANCH  27  28
ENDBRANCH   1  27
TORSDOF 19
ENDMDL
MODEL 2
REMARK VINA RESULT:     -11.7      2.870      8.338
REMARK SMILES O=C(OCCOCCOCCOC(=O)c1ccc(-c2c3nc(c(-c4ccccc4)c4ccc([nH]4)c(-c4ccccc4)c4nc(c(-c5ccccc5)c5ccc2[nH]5)C=C4)C=C3)cc1)C1=Cc2cc(C(F)(F)F)ccc2O[C@@H]1C(F)(F)F
REMARK SMILES IDX 8 1 7 2 6 3 5 4 4 5 3 6 2 7 1 8 63 9 64 10 76 11 65 12 75 13
REMARK SMILES IDX 66 14 74 15 67 16 73 17 72 18 77 19 78 20 79 21 80 22 68 23
REMARK SMILES IDX 69 24 70 25 71 26 9 27 10 28 11 29 12 30 13 31 14 32 15 33
REMARK SMILES IDX 16 34 62 35 17 36 61 37 18 38 19 39 20 40 55 41 21 42 60 43
REMARK SMILES IDX 54 44 56 45 22 46 59 47 53 48 52 49 23 51 45 52 30 53 44 54
REMARK SMILES IDX 31 55 34 56 43 57 57 58 32 59 33 60 42 62 58 63 35 64 24 65
REMARK SMILES IDX 25 66 29 67 26 68 28 69 27 70 46 71 47 72 51 73 48 74 50 75
REMARK SMILES IDX 49 76 36 77 37 78 41 79 38 80 40 81 39 82
REMARK H PARENT 56 50 34 61
REMARK Flexibility Score: inf
ROOT
ATOM      1  C   UNL A   1      30.376  29.506  23.874  1.00  0.00     0.188 C 
ENDROOT
BRANCH   1   2
ATOM      2  C   UNL A   1      29.558  28.382  23.211  1.00  0.00     0.188 C 
BRANCH   2   3
ATOM      3  O   UNL A   1      30.007  27.012  22.988  1.00  0.00    -0.376 OA
BRANCH   3   4
ATOM      4  C   UNL A   1      30.184  25.747  24.044  1.00  0.00     0.202 C 
BRANCH   4   5
ATOM      5  C   UNL A   1      31.085  25.767  26.029  1.00  0.00     0.261 C 
BRANCH   5   6
ATOM      6  O   UNL A   1      32.354  25.003  26.455  1.00  0.00    -0.460 OA
BRANCH   6   7
ATOM      7  C   UNL A   1      32.379  23.743  26.001  1.00  0.00     0.338 C 
ATOM      8  O   UNL A   1      31.995  22.727  26.520  1.00  0.00    -0.246 OA
BRANCH   7   9
ATOM      9  C   UNL A   1      33.343  23.986  24.956  1.00  0.00     0.087 C 
ATOM     10  C   UNL A   1      34.615  24.522  25.479  1.00  0.00     0.027 C 
ATOM     11  C   UNL A   1      33.134  22.269  24.099  1.00  0.00     0.316 C 
ATOM     12  C   UNL A   1      36.135  23.554  25.590  1.00  0.00     0.018 A 
ATOM     13  O   UNL A   1      34.724  21.176  24.315  1.00  0.00    -0.475 OA
ATOM     14  C   UNL A   1      37.239  24.109  26.171  1.00  0.00     0.025 A 
ATOM     15  C   UNL A   1      36.213  21.897  25.088  1.00  0.00     0.128 A 
ATOM     16  C   UNL A   1      38.372  23.264  26.270  1.00  0.00     0.056 A 
ATOM     17  C   UNL A   1      37.344  21.141  25.184  1.00  0.00     0.048 A 
ATOM     18  C   UNL A   1      38.412  21.867  25.782  1.00  0.00     0.017 A 
BRANCH  11  19
ATOM     19  C   UNL A   1      32.383  22.825  22.767  1.00  0.00     0.430 C 
ATOM     20  F   UNL A   1      32.743  24.018  22.277  1.00  0.00    -0.167 F 
ATOM     21  F   UNL A   1      32.678  21.947  21.760  1.00  0.00    -0.167 F 
ATOM     22  F   UNL A   1      31.028  22.803  22.844  1.00  0.00    -0.167 F 
ENDBRANCH  11  19
BRANCH  16  23
ATOM     23  C   UNL A   1      39.592  23.887  26.944  1.00  0.00     0.416 C 
ATOM     24  F   UNL A   1      39.248  24.687  27.992  1.00  0.00    -0.166 F 
ATOM     25  F   UNL A   1      40.422  22.937  27.466  1.00  0.00    -0.166 F 
ATOM     26  F   UNL A   1      40.359  24.646  26.121  1.00  0.00    -0.166 F 
ENDBRANCH  16  23
ENDBRANCH   7   9
ENDBRANCH   6   7
ENDBRANCH   5   6
ENDBRANCH   4   5
ENDBRANCH   3   4
ENDBRANCH   2   3
ENDBRANCH   1   2
BRANCH   1  27
ATOM     27  O   UNL A   1      31.708  29.280  24.258  1.00  0.00    -0.376 OA
BRANCH  27  28
ATOM     28  C   UNL A   1      31.974  29.311  25.653  1.00  0.00     0.202 C 
BRANCH  28  29
ATOM     29  C   UNL A   1      32.129  30.684  26.322  1.00  0.00     0.261 C 
BRANCH  29  30
ATOM     30  O   UNL A   1      32.972  30.646  27.496  1.00  0.00    -0.460 OA
BRANCH  30  31
ATOM     31  C   UNL A   1      33.801  31.700  27.689  1.00  0.00     0.338 C 
ATOM     32  O   UNL A   1      33.489  32.873  27.798  1.00  0.00    -0.246 OA
BRANCH  31  33
ATOM     33  C   UNL A   1      35.180  31.220  27.932  1.00  0.00     0.060 A 
ATOM     34  C   UNL A   1      35.392  29.838  28.046  1.00  0.00     0.016 A 
ATOM     35  C   UNL A   1      36.244  32.112  28.086  1.00  0.00     0.016 A 
ATOM     36  C   UNL A   1      36.660  29.342  28.342  1.00  0.00     0.010 A 
ATOM     37  C   UNL A   1      37.507  31.617  28.433  1.00  0.00     0.010 A 
ATOM     38  C   UNL A   1      37.705  30.235  28.607  1.00  0.00    -0.014 A 
BRANCH  38  39
ATOM     39  C   UNL A   1      38.860  29.738  29.393  1.00  0.00     0.031 A 
ATOM     40  C   UNL A   1      38.935  30.169  30.836  1.00  0.00     0.074 A 
ATOM     41  C   UNL A   1      39.770  28.889  28.887  1.00  0.00     0.049 A 
ATOM     42  N   UNL A   1      39.787  29.827  31.767  1.00  0.00    -0.248 NA
ATOM     43  C   UNL A   1      37.899  31.115  31.287  1.00  0.00     0.031 C 
ATOM     44  C   UNL A   1      39.776  28.357  27.527  1.00  0.00     0.029 A 
ATOM     45  N   UNL A   1      40.868  28.317  29.481  1.00  0.00    -0.354 N 
ATOM     46  C   UNL A   1      39.385  30.511  32.908  1.00  0.00     0.074 A 
ATOM     47  C   UNL A   1      38.241  31.316  32.547  1.00  0.00     0.031 C 
ATOM     48  C   UNL A   1      40.830  27.530  27.390  1.00  0.00     0.029 A 
ATOM     49  C   UNL A   1      41.581  27.493  28.645  1.00  0.00     0.049 A 
ATOM     50  H   UNL A   1      41.120  28.481  30.418  1.00  0.00     0.167 HD
ATOM     51  C   UNL A   1      39.913  30.472  34.153  1.00  0.00     0.031 A 
ATOM     52  C   UNL A   1      42.710  26.794  28.875  1.00  0.00     0.031 A 
ATOM     53  C   UNL A   1      41.075  29.704  34.502  1.00  0.00     0.049 A 
ATOM     54  C   UNL A   1      43.337  26.839  30.248  1.00  0.00     0.074 A 
ATOM     55  C   UNL A   1      41.697  29.591  35.733  1.00  0.00     0.029 A 
ATOM     56  N   UNL A   1      41.803  28.931  33.609  1.00  0.00    -0.354 N 
ATOM     57  N   UNL A   1      42.926  27.455  31.331  1.00  0.00    -0.248 NA
ATOM     58  C   UNL A   1      44.576  26.069  30.431  1.00  0.00     0.031 C 
ATOM     59  C   UNL A   1      42.845  28.810  35.567  1.00  0.00     0.029 A 
ATOM     60  C   UNL A   1      42.886  28.362  34.256  1.00  0.00     0.049 A 
ATOM     61  H   UNL A   1      41.582  28.807  32.659  1.00  0.00     0.167 HD
ATOM     62  C   UNL A   1      43.826  27.107  32.333  1.00  0.00     0.074 A 
ATOM     63  C   UNL A   1      44.797  26.220  31.729  1.00  0.00     0.031 C 
ATOM     64  C   UNL A   1      43.843  27.478  33.638  1.00  0.00     0.031 A 
BRANCH  51  65
ATOM     65  C   UNL A   1      39.267  31.333  35.202  1.00  0.00    -0.014 A 
ATOM     66  C   UNL A   1      39.653  32.670  35.399  1.00  0.00     0.009 A 
ATOM     67  C   UNL A   1      38.255  30.794  36.012  1.00  0.00     0.009 A 
ATOM     68  C   UNL A   1      39.069  33.432  36.414  1.00  0.00     0.001 A 
ATOM     69  C   UNL A   1      37.649  31.569  37.001  1.00  0.00     0.001 A 
ATOM     70  C   UNL A   1      38.064  32.884  37.209  1.00  0.00     0.000 A 
ENDBRANCH  51  65
BRANCH  52  71
ATOM     71  C   UNL A   1      43.332  25.983  27.791  1.00  0.00    -0.014 A 
ATOM     72  C   UNL A   1      43.162  24.589  27.746  1.00  0.00     0.009 A 
ATOM     73  C   UNL A   1      44.141  26.593  26.820  1.00  0.00     0.009 A 
ATOM     74  C   UNL A   1      43.817  23.824  26.778  1.00  0.00     0.001 A 
ATOM     75  C   UNL A   1      44.767  25.829  25.831  1.00  0.00     0.001 A 
ATOM     76  C   UNL A   1      44.615  24.445  25.819  1.00  0.00     0.000 A 
ENDBRANCH  52  71
BRANCH  64  77
ATOM     77  C   UNL A   1      44.901  26.868  34.520  1.00  0.00    -0.014 A 
ATOM     78  C   UNL A   1      44.652  25.732  35.306  1.00  0.00     0.009 A 
ATOM     79  C   UNL A   1      46.188  27.432  34.535  1.00  0.00     0.009 A 
ATOM     80  C   UNL A   1      45.653  25.209  36.128  1.00  0.00     0.001 A 
ATOM     81  C   UNL A   1      47.198  26.883  35.325  1.00  0.00     0.001 A 
ATOM     82  C   UNL A   1      46.925  25.782  36.133  1.00  0.00     0.000 A 
ENDBRANCH  64  77
ENDBRANCH  38  39
ENDBRANCH  31  33
ENDBRANCH  30  31
ENDBRANCH  29  30
ENDBRANCH  28  29
ENDBRANCH  27  28
ENDBRANCH   1  27
TORSDOF 19
ENDMDL
MODEL 3
REMARK VINA RESULT:     -11.6      1.586      2.132
REMARK SMILES O=C(OCCOCCOCCOC(=O)c1ccc(-c2c3nc(c(-c4ccccc4)c4ccc([nH]4)c(-c4ccccc4)c4nc(c(-c5ccccc5)c5ccc2[nH]5)C=C4)C=C3)cc1)C1=Cc2cc(C(F)(F)F)ccc2O[C@@H]1C(F)(F)F
REMARK SMILES IDX 8 1 7 2 6 3 5 4 4 5 3 6 2 7 1 8 63 9 64 10 76 11 65 12 75 13
REMARK SMILES IDX 66 14 74 15 67 16 73 17 72 18 77 19 78 20 79 21 80 22 68 23
REMARK SMILES IDX 69 24 70 25 71 26 9 27 10 28 11 29 12 30 13 31 14 32 15 33
REMARK SMILES IDX 16 34 62 35 17 36 61 37 18 38 19 39 20 40 55 41 21 42 60 43
REMARK SMILES IDX 54 44 56 45 22 46 59 47 53 48 52 49 23 51 45 52 30 53 44 54
REMARK SMILES IDX 31 55 34 56 43 57 57 58 32 59 33 60 42 62 58 63 35 64 24 65
REMARK SMILES IDX 25 66 29 67 26 68 28 69 27 70 46 71 47 72 51 73 48 74 50 75
REMARK SMILES IDX 49 76 36 77 37 78 41 79 38 80 40 81 39 82
REMARK H PARENT 56 50 34 61
REMARK Flexibility Score: inf
ROOT
ATOM      1  C   UNL A   1      41.907  19.956  26.519  1.00  0.00     0.188 C 
ENDROOT
BRANCH   1   2
ATOM      2  C   UNL A   1      40.408  20.288  26.411  1.00  0.00     0.188 C 
BRANCH   2   3
ATOM      3  O   UNL A   1      39.401  19.490  25.720  1.00  0.00    -0.376 OA
BRANCH   3   4
ATOM      4  C   UNL A   1      38.229  19.932  24.634  1.00  0.00     0.202 C 
BRANCH   4   5
ATOM      5  C   UNL A   1      36.087  20.154  24.981  1.00  0.00     0.261 C 
BRANCH   5   6
ATOM      6  O   UNL A   1      35.370  21.449  25.407  1.00  0.00    -0.460 OA
BRANCH   6   7
ATOM      7  C   UNL A   1      35.470  22.424  24.495  1.00  0.00     0.338 C 
ATOM      8  O   UNL A   1      36.447  22.893  23.969  1.00  0.00    -0.246 OA
BRANCH   7   9
ATOM      9  C   UNL A   1      34.139  22.944  24.693  1.00  0.00     0.087 C 
ATOM     10  C   UNL A   1      34.120  24.097  25.614  1.00  0.00     0.027 C 
ATOM     11  C   UNL A   1      33.680  23.015  22.819  1.00  0.00     0.316 C 
ATOM     12  C   UNL A   1      33.868  25.802  25.073  1.00  0.00     0.018 A 
ATOM     13  O   UNL A   1      33.522  24.849  22.202  1.00  0.00    -0.475 OA
ATOM     14  C   UNL A   1      33.955  26.812  25.988  1.00  0.00     0.025 A 
ATOM     15  C   UNL A   1      33.634  26.216  23.407  1.00  0.00     0.128 A 
ATOM     16  C   UNL A   1      33.803  28.123  25.472  1.00  0.00     0.056 A 
ATOM     17  C   UNL A   1      33.466  27.499  22.974  1.00  0.00     0.048 A 
ATOM     18  C   UNL A   1      33.553  28.431  24.047  1.00  0.00     0.017 A 
BRANCH  11  19
ATOM     19  C   UNL A   1      32.604  21.795  22.854  1.00  0.00     0.430 C 
ATOM     20  F   UNL A   1      32.856  20.738  23.636  1.00  0.00    -0.167 F 
ATOM     21  F   UNL A   1      31.443  22.316  23.358  1.00  0.00    -0.167 F 
ATOM     22  F   UNL A   1      32.257  21.327  21.628  1.00  0.00    -0.167 F 
ENDBRANCH  11  19
BRANCH  16  23
ATOM     23  C   UNL A   1      33.927  29.245  26.500  1.00  0.00     0.416 C 
ATOM     24  F   UNL A   1      35.226  29.552  26.771  1.00  0.00    -0.166 F 
ATOM     25  F   UNL A   1      33.363  30.405  26.052  1.00  0.00    -0.166 F 
ATOM     26  F   UNL A   1      33.340  28.978  27.694  1.00  0.00    -0.166 F 
ENDBRANCH  16  23
ENDBRANCH   7   9
ENDBRANCH   6   7
ENDBRANCH   5   6
ENDBRANCH   4   5
ENDBRANCH   3   4
ENDBRANCH   2   3
ENDBRANCH   1   2
BRANCH   1  27
ATOM     27  O   UNL A   1      42.857  20.750  25.854  1.00  0.00    -0.376 OA
BRANCH  27  28
ATOM     28  C   UNL A   1      43.016  22.077  26.334  1.00  0.00     0.202 C 
BRANCH  28  29
ATOM     29  C   UNL A   1      42.638  23.230  25.393  1.00  0.00     0.261 C 
BRANCH  29  30
ATOM     30  O   UNL A   1      41.836  24.244  26.040  1.00  0.00    -0.460 OA
BRANCH  30  31
ATOM     31  C   UNL A   1      41.981  25.515  25.593  1.00  0.00     0.338 C 
ATOM     32  O   UNL A   1      42.493  25.876  24.548  1.00  0.00    -0.246 OA
BRANCH  31  33
ATOM     33  C   UNL A   1      41.259  26.449  26.487  1.00  0.00     0.060 A 
ATOM     34  C   UNL A   1      41.523  27.822  26.365  1.00  0.00     0.016 A 
ATOM     35  C   UNL A   1      40.368  25.985  27.457  1.00  0.00     0.016 A 
ATOM     36  C   UNL A   1      40.919  28.734  27.230  1.00  0.00     0.010 A 
ATOM     37  C   UNL A   1      39.801  26.895  28.357  1.00  0.00     0.010 A 
ATOM     38  C   UNL A   1      40.113  28.264  28.273  1.00  0.00    -0.014 A 
BRANCH  38  39
ATOM     39  C   UNL A   1      39.908  29.151  29.444  1.00  0.00     0.031 A 
ATOM     40  C   UNL A   1      40.871  28.993  30.593  1.00  0.00     0.074 A 
ATOM     41  C   UNL A   1      38.961  30.103  29.475  1.00  0.00     0.049 A 
ATOM     42  N   UNL A   1      40.972  29.680  31.700  1.00  0.00    -0.248 NA
ATOM     43  C   UNL A   1      41.860  27.907  30.467  1.00  0.00     0.031 C 
ATOM     44  C   UNL A   1      38.007  30.393  28.408  1.00  0.00     0.029 A 
ATOM     45  N   UNL A   1      38.661  31.017  30.455  1.00  0.00    -0.354 N 
ATOM     46  C   UNL A   1      42.034  29.113  32.394  1.00  0.00     0.074 A 
ATOM     47  C   UNL A   1      42.520  28.004  31.608  1.00  0.00     0.031 C 
ATOM     48  C   UNL A   1      37.225  31.420  28.792  1.00  0.00     0.029 A 
ATOM     49  C   UNL A   1      37.612  31.844  30.137  1.00  0.00     0.049 A 
ATOM     50  H   UNL A   1      39.153  31.074  31.307  1.00  0.00     0.167 HD
ATOM     51  C   UNL A   1      42.567  29.483  33.582  1.00  0.00     0.031 A 
ATOM     52  C   UNL A   1      37.035  32.827  30.857  1.00  0.00     0.031 A 
ATOM     53  C   UNL A   1      42.058  30.560  34.384  1.00  0.00     0.049 A 
ATOM     54  C   UNL A   1      37.588  33.161  32.222  1.00  0.00     0.074 A 
ATOM     55  C   UNL A   1      42.521  31.020  35.604  1.00  0.00     0.029 A 
ATOM     56  N   UNL A   1      40.954  31.332  34.053  1.00  0.00    -0.354 N 
ATOM     57  N   UNL A   1      38.618  32.648  32.852  1.00  0.00    -0.248 NA
ATOM     58  C   UNL A   1      36.906  34.231  32.965  1.00  0.00     0.031 C 
ATOM     59  C   UNL A   1      41.650  32.022  36.046  1.00  0.00     0.029 A 
ATOM     60  C   UNL A   1      40.702  32.246  35.060  1.00  0.00     0.049 A 
ATOM     61  H   UNL A   1      40.429  31.242  33.225  1.00  0.00     0.167 HD
ATOM     62  C   UNL A   1      38.737  33.364  34.038  1.00  0.00     0.074 A 
ATOM     63  C   UNL A   1      37.680  34.353  34.034  1.00  0.00     0.031 C 
ATOM     64  C   UNL A   1      39.645  33.226  35.037  1.00  0.00     0.031 A 
BRANCH  51  65
ATOM     65  C   UNL A   1      43.722  28.672  34.100  1.00  0.00    -0.014 A 
ATOM     66  C   UNL A   1      43.528  27.428  34.724  1.00  0.00     0.009 A 
ATOM     67  C   UNL A   1      45.029  29.165  33.964  1.00  0.00     0.009 A 
ATOM     68  C   UNL A   1      44.616  26.719  35.239  1.00  0.00     0.001 A 
ATOM     69  C   UNL A   1      46.117  28.436  34.448  1.00  0.00     0.001 A 
ATOM     70  C   UNL A   1      45.909  27.220  35.095  1.00  0.00     0.000 A 
ENDBRANCH  51  65
BRANCH  52  71
ATOM     71  C   UNL A   1      35.869  33.578  30.314  1.00  0.00    -0.014 A 
ATOM     72  C   UNL A   1      35.903  34.122  29.019  1.00  0.00     0.009 A 
ATOM     73  C   UNL A   1      34.731  33.798  31.106  1.00  0.00     0.009 A 
ATOM     74  C   UNL A   1      34.842  34.898  28.545  1.00  0.00     0.001 A 
ATOM     75  C   UNL A   1      33.657  34.546  30.618  1.00  0.00     0.001 A 
ATOM     76  C   UNL A   1      33.718  35.106  29.343  1.00  0.00     0.000 A 
ENDBRANCH  52  71
BRANCH  64  77
ATOM     77  C   UNL A   1      39.582  34.212  36.174  1.00  0.00    -0.014 A 
ATOM     78  C   UNL A   1      38.910  33.926  37.372  1.00  0.00     0.009 A 
ATOM     79  C   UNL A   1      40.244  35.445  36.048  1.00  0.00     0.009 A 
ATOM     80  C   UNL A   1      38.854  34.875  38.395  1.00  0.00     0.001 A 
ATOM     81  C   UNL A   1      40.223  36.375  37.087  1.00  0.00     0.001 A 
ATOM     82  C   UNL A   1      39.515  36.097  38.254  1.00  0.00     0.000 A 
ENDBRANCH  64  77
ENDBRANCH  38  39
ENDBRANCH  31  33
ENDBRANCH  30  31
ENDBRANCH  29  30
ENDBRANCH  28  29
ENDBRANCH  27  28
ENDBRANCH   1  27
TORSDOF 19
ENDMDL
