MODEL 1
REMARK VINA RESULT:      -9.6      0.000      0.000
REMARK SMILES CC(C)CCOCC[N@@H+]1[C@@H](C(=O)OCCOCCOCCOC(=O)c2ccc(-c3c4nc(c(-c5ccccc5)c5ccc([nH]5)c(-c5ccccc5)c5nc(c(-c6ccccc6)c6ccc3[nH]6)C=C5)C=C4)cc2)CC[C@H]2CCCC[C@H]21
REMARK SMILES IDX 15 1 14 2 13 3 11 4 12 5 10 6 9 7 80 8 73 10 75 11 79 12
REMARK SMILES IDX 74 13 76 14 78 15 77 16 8 17 7 18 6 19 5 20 4 21 2 22 1 23
REMARK SMILES IDX 3 24 16 25 17 26 18 27 19 28 20 29 21 30 22 31 23 32 24 33
REMARK SMILES IDX 25 34 26 35 72 36 27 37 71 38 28 39 29 40 30 41 65 42 31 43
REMARK SMILES IDX 70 44 64 45 66 46 32 47 69 48 63 49 62 50 33 52 55 53 40 54
REMARK SMILES IDX 54 55 41 56 44 57 53 58 67 59 42 60 43 61 52 63 68 64 45 65
REMARK SMILES IDX 34 66 35 67 39 68 36 69 38 70 37 71 56 72 57 73 61 74 58 75
REMARK SMILES IDX 60 76 59 77 46 78 47 79 51 80 48 81 50 82 49 83
REMARK H PARENT 9 9 66 51 44 62
REMARK Flexibility Score: inf
ROOT
ATOM      1  C   UNL A   1      34.601  22.566  23.746  1.00  0.00     0.202 C 
ENDROOT
BRANCH   1   2
ATOM      2  C   UNL A   1      33.632  23.548  22.974  1.00  0.00     0.261 C 
BRANCH   2   3
ATOM      3  O   UNL A   1      34.247  24.817  22.604  1.00  0.00    -0.459 OA
BRANCH   3   4
ATOM      4  C   UNL A   1      33.614  26.037  22.703  1.00  0.00     0.364 C 
ATOM      5  O   UNL A   1      33.713  26.932  21.876  1.00  0.00    -0.245 OA
BRANCH   4   6
ATOM      6  C   UNL A   1      32.707  26.046  23.991  1.00  0.00     0.295 C 
ATOM      7  N   UNL A   1      31.556  26.983  23.907  1.00  0.00    -0.319 N 
ATOM      8  C   UNL A   1      31.174  27.781  25.126  1.00  0.00     0.187 C 
ATOM      9  H   UNL A   1      31.932  27.709  23.298  1.00  0.00     0.349 HD
ATOM     10  C   UNL A   1      33.431  26.043  25.332  1.00  0.00     0.078 C 
ATOM     11  C   UNL A   1      31.682  27.331  26.531  1.00  0.00     0.048 C 
ATOM     12  C   UNL A   1      31.433  29.292  24.959  1.00  0.00     0.065 C 
ATOM     13  C   UNL A   1      32.392  25.994  26.457  1.00  0.00     0.016 C 
ATOM     14  C   UNL A   1      32.566  28.344  27.294  1.00  0.00     0.010 C 
ATOM     15  C   UNL A   1      32.890  29.698  25.152  1.00  0.00     0.006 C 
ATOM     16  C   UNL A   1      33.519  29.164  26.435  1.00  0.00     0.001 C 
BRANCH   7  17
ATOM     17  C   UNL A   1      30.355  26.325  23.282  1.00  0.00     0.291 C 
BRANCH  17  18
ATOM     18  C   UNL A   1      28.906  26.555  23.841  1.00  0.00     0.221 C 
BRANCH  18  19
ATOM     19  O   UNL A   1      28.115  27.734  23.607  1.00  0.00    -0.376 OA
BRANCH  19  20
ATOM     20  C   UNL A   1      28.416  28.730  22.634  1.00  0.00     0.160 C 
BRANCH  20  21
ATOM     21  C   UNL A   1      28.067  30.175  23.157  1.00  0.00     0.031 C 
BRANCH  21  22
ATOM     22  C   UNL A   1      28.681  31.333  22.329  1.00  0.00    -0.015 C 
ATOM     23  C   UNL A   1      28.167  31.615  20.929  1.00  0.00     0.007 C 
ATOM     24  C   UNL A   1      28.745  32.661  23.037  1.00  0.00     0.007 C 
ENDBRANCH  21  22
ENDBRANCH  20  21
ENDBRANCH  19  20
ENDBRANCH  18  19
ENDBRANCH  17  18
ENDBRANCH   7  17
ENDBRANCH   4   6
ENDBRANCH   3   4
ENDBRANCH   2   3
ENDBRANCH   1   2
BRANCH   1  25
ATOM     25  O   UNL A   1      34.837  22.906  25.134  1.00  0.00    -0.376 OA
BRANCH  25  26
ATOM     26  C   UNL A   1      35.973  22.238  25.740  1.00  0.00     0.188 C 
BRANCH  26  27
ATOM     27  C   UNL A   1      37.308  22.357  24.950  1.00  0.00     0.188 C 
BRANCH  27  28
ATOM     28  O   UNL A   1      38.360  21.464  25.327  1.00  0.00    -0.376 OA
BRANCH  28  29
ATOM     29  C   UNL A   1      39.251  21.864  26.365  1.00  0.00     0.202 C 
BRANCH  29  30
ATOM     30  C   UNL A   1      40.742  21.612  26.072  1.00  0.00     0.261 C 
BRANCH  30  31
ATOM     31  O   UNL A   1      41.579  22.429  26.894  1.00  0.00    -0.460 OA
BRANCH  31  32
ATOM     32  C   UNL A   1      42.077  23.507  26.235  1.00  0.00     0.338 C 
ATOM     33  O   UNL A   1      42.646  23.522  25.174  1.00  0.00    -0.246 OA
BRANCH  32  34
ATOM     34  C   UNL A   1      41.638  24.730  26.966  1.00  0.00     0.060 A 
ATOM     35  C   UNL A   1      42.240  25.942  26.622  1.00  0.00     0.016 A 
ATOM     36  C   UNL A   1      40.630  24.688  27.931  1.00  0.00     0.016 A 
ATOM     37  C   UNL A   1      41.860  27.118  27.269  1.00  0.00     0.010 A 
ATOM     38  C   UNL A   1      40.248  25.861  28.580  1.00  0.00     0.010 A 
ATOM     39  C   UNL A   1      40.889  27.074  28.278  1.00  0.00    -0.014 A 
BRANCH  39  40
ATOM     40  C   UNL A   1      40.743  28.206  29.218  1.00  0.00     0.031 A 
ATOM     41  C   UNL A   1      41.712  28.275  30.366  1.00  0.00     0.074 A 
ATOM     42  C   UNL A   1      39.775  29.128  29.090  1.00  0.00     0.049 A 
ATOM     43  N   UNL A   1      41.755  29.113  31.369  1.00  0.00    -0.248 NA
ATOM     44  C   UNL A   1      42.775  27.255  30.383  1.00  0.00     0.031 C 
ATOM     45  C   UNL A   1      38.802  29.205  28.003  1.00  0.00     0.029 A 
ATOM     46  N   UNL A   1      39.452  30.181  29.911  1.00  0.00    -0.354 N 
ATOM     47  C   UNL A   1      42.849  28.723  32.129  1.00  0.00     0.074 A 
ATOM     48  C   UNL A   1      43.425  27.561  31.493  1.00  0.00     0.031 C 
ATOM     49  C   UNL A   1      37.977  30.244  28.233  1.00  0.00     0.029 A 
ATOM     50  C   UNL A   1      38.347  30.883  29.497  1.00  0.00     0.049 A 
ATOM     51  H   UNL A   1      39.964  30.410  30.719  1.00  0.00     0.167 HD
ATOM     52  C   UNL A   1      43.336  29.280  33.262  1.00  0.00     0.031 A 
ATOM     53  C   UNL A   1      37.702  31.907  30.089  1.00  0.00     0.031 A 
ATOM     54  C   UNL A   1      42.747  30.402  33.930  1.00  0.00     0.049 A 
ATOM     55  C   UNL A   1      38.199  32.440  31.410  1.00  0.00     0.074 A 
ATOM     56  C   UNL A   1      43.158  31.026  35.094  1.00  0.00     0.029 A 
ATOM     57  N   UNL A   1      41.605  31.058  33.499  1.00  0.00    -0.354 N 
ATOM     58  N   UNL A   1      39.249  32.082  32.108  1.00  0.00    -0.248 NA
ATOM     59  C   UNL A   1      37.415  33.524  32.022  1.00  0.00     0.031 C 
ATOM     60  C   UNL A   1      42.232  32.032  35.396  1.00  0.00     0.029 A 
ATOM     61  C   UNL A   1      41.279  32.065  34.390  1.00  0.00     0.049 A 
ATOM     62  H   UNL A   1      41.102  30.840  32.683  1.00  0.00     0.167 HD
ATOM     63  C   UNL A   1      39.266  32.914  33.223  1.00  0.00     0.074 A 
ATOM     64  C   UNL A   1      38.130  33.801  33.104  1.00  0.00     0.031 C 
ATOM     65  C   UNL A   1      40.147  32.942  34.254  1.00  0.00     0.031 A 
BRANCH  52  66
ATOM     66  C   UNL A   1      44.549  28.634  33.860  1.00  0.00    -0.014 A 
ATOM     67  C   UNL A   1      44.430  27.556  34.752  1.00  0.00     0.009 A 
ATOM     68  C   UNL A   1      45.825  29.121  33.542  1.00  0.00     0.009 A 
ATOM     69  C   UNL A   1      45.567  27.001  35.340  1.00  0.00     0.001 A 
ATOM     70  C   UNL A   1      46.961  28.548  34.114  1.00  0.00     0.001 A 
ATOM     71  C   UNL A   1      46.831  27.495  35.018  1.00  0.00     0.000 A 
ENDBRANCH  52  66
BRANCH  53  72
ATOM     72  C   UNL A   1      36.486  32.493  29.465  1.00  0.00    -0.014 A 
ATOM     73  C   UNL A   1      35.215  31.977  29.758  1.00  0.00     0.009 A 
ATOM     74  C   UNL A   1      36.597  33.530  28.527  1.00  0.00     0.009 A 
ATOM     75  C   UNL A   1      34.083  32.465  29.099  1.00  0.00     0.001 A 
ATOM     76  C   UNL A   1      35.461  34.034  27.889  1.00  0.00     0.001 A 
ATOM     77  C   UNL A   1      34.207  33.493  28.166  1.00  0.00     0.000 A 
ENDBRANCH  53  72
BRANCH  65  78
ATOM     78  C   UNL A   1      39.942  33.986  35.314  1.00  0.00    -0.014 A 
ATOM     79  C   UNL A   1      39.219  33.708  36.483  1.00  0.00     0.009 A 
ATOM     80  C   UNL A   1      40.537  35.250  35.166  1.00  0.00     0.009 A 
ATOM     81  C   UNL A   1      39.072  34.684  37.472  1.00  0.00     0.001 A 
ATOM     82  C   UNL A   1      40.410  36.214  36.166  1.00  0.00     0.001 A 
ATOM     83  C   UNL A   1      39.672  35.934  37.315  1.00  0.00     0.000 A 
ENDBRANCH  65  78
ENDBRANCH  39  40
ENDBRANCH  32  34
ENDBRANCH  31  32
ENDBRANCH  30  31
ENDBRANCH  29  30
ENDBRANCH  28  29
ENDBRANCH  27  28
ENDBRANCH  26  27
ENDBRANCH  25  26
ENDBRANCH   1  25
TORSDOF 23
ENDMDL
MODEL 2
REMARK VINA RESULT:      -9.6      4.200      8.979
REMARK SMILES CC(C)CCOCC[N@@H+]1[C@@H](C(=O)OCCOCCOCCOC(=O)c2ccc(-c3c4nc(c(-c5ccccc5)c5ccc([nH]5)c(-c5ccccc5)c5nc(c(-c6ccccc6)c6ccc3[nH]6)C=C5)C=C4)cc2)CC[C@H]2CCCC[C@H]21
REMARK SMILES IDX 15 1 14 2 13 3 11 4 12 5 10 6 9 7 80 8 73 10 75 11 79 12
REMARK SMILES IDX 74 13 76 14 78 15 77 16 8 17 7 18 6 19 5 20 4 21 2 22 1 23
REMARK SMILES IDX 3 24 16 25 17 26 18 27 19 28 20 29 21 30 22 31 23 32 24 33
REMARK SMILES IDX 25 34 26 35 72 36 27 37 71 38 28 39 29 40 30 41 65 42 31 43
REMARK SMILES IDX 70 44 64 45 66 46 32 47 69 48 63 49 62 50 33 52 55 53 40 54
REMARK SMILES IDX 54 55 41 56 44 57 53 58 67 59 42 60 43 61 52 63 68 64 45 65
REMARK SMILES IDX 34 66 35 67 39 68 36 69 38 70 37 71 56 72 57 73 61 74 58 75
REMARK SMILES IDX 60 76 59 77 46 78 47 79 51 80 48 81 50 82 49 83
REMARK H PARENT 9 9 66 51 44 62
REMARK Flexibility Score: inf
ROOT
ATOM      1  C   UNL A   1      32.382  33.213  26.969  1.00  0.00     0.202 C 
ENDROOT
BRANCH   1   2
ATOM      2  C   UNL A   1      31.629  31.822  26.964  1.00  0.00     0.261 C 
BRANCH   2   3
ATOM      3  O   UNL A   1      32.486  30.687  26.644  1.00  0.00    -0.459 OA
BRANCH   3   4
ATOM      4  C   UNL A   1      32.028  29.395  26.497  1.00  0.00     0.364 C 
ATOM      5  O   UNL A   1      31.440  28.770  27.368  1.00  0.00    -0.245 OA
BRANCH   4   6
ATOM      6  C   UNL A   1      32.318  28.908  25.027  1.00  0.00     0.295 C 
ATOM      7  N   UNL A   1      31.205  28.128  24.424  1.00  0.00    -0.319 N 
ATOM      8  C   UNL A   1      31.531  26.925  23.578  1.00  0.00     0.187 C 
ATOM      9  H   UNL A   1      30.795  27.692  25.249  1.00  0.00     0.349 HD
ATOM     10  C   UNL A   1      33.709  28.347  24.759  1.00  0.00     0.078 C 
ATOM     11  C   UNL A   1      32.972  26.757  23.003  1.00  0.00     0.048 C 
ATOM     12  C   UNL A   1      31.092  25.597  24.228  1.00  0.00     0.065 C 
ATOM     13  C   UNL A   1      33.819  27.983  23.274  1.00  0.00     0.016 C 
ATOM     14  C   UNL A   1      33.740  25.489  23.444  1.00  0.00     0.010 C 
ATOM     15  C   UNL A   1      32.040  25.092  25.310  1.00  0.00     0.006 C 
ATOM     16  C   UNL A   1      33.504  25.045  24.881  1.00  0.00     0.001 C 
BRANCH   7  17
ATOM     17  C   UNL A   1      30.209  29.027  23.740  1.00  0.00     0.291 C 
BRANCH  17  18
ATOM     18  C   UNL A   1      30.507  29.675  22.342  1.00  0.00     0.221 C 
BRANCH  18  19
ATOM     19  O   UNL A   1      29.592  29.684  21.232  1.00  0.00    -0.376 OA
BRANCH  19  20
ATOM     20  C   UNL A   1      28.244  30.141  21.299  1.00  0.00     0.160 C 
BRANCH  20  21
ATOM     21  C   UNL A   1      28.166  31.715  21.280  1.00  0.00     0.031 C 
BRANCH  21  22
ATOM     22  C   UNL A   1      27.965  32.373  22.670  1.00  0.00    -0.015 C 
ATOM     23  C   UNL A   1      27.556  31.520  23.857  1.00  0.00     0.007 C 
ATOM     24  C   UNL A   1      29.104  33.241  23.137  1.00  0.00     0.007 C 
ENDBRANCH  21  22
ENDBRANCH  20  21
ENDBRANCH  19  20
ENDBRANCH  18  19
ENDBRANCH  17  18
ENDBRANCH   7  17
ENDBRANCH   4   6
ENDBRANCH   3   4
ENDBRANCH   2   3
ENDBRANCH   1   2
BRANCH   1  25
ATOM     25  O   UNL A   1      33.158  33.483  28.160  1.00  0.00    -0.376 OA
BRANCH  25  26
ATOM     26  C   UNL A   1      34.036  34.633  28.067  1.00  0.00     0.188 C 
BRANCH  26  27
ATOM     27  C   UNL A   1      33.701  35.801  29.038  1.00  0.00     0.188 C 
BRANCH  27  28
ATOM     28  O   UNL A   1      32.637  35.579  29.969  1.00  0.00    -0.376 OA
BRANCH  28  29
ATOM     29  C   UNL A   1      32.957  35.477  31.354  1.00  0.00     0.202 C 
BRANCH  29  30
ATOM     30  C   UNL A   1      34.326  34.840  31.658  1.00  0.00     0.261 C 
BRANCH  30  31
ATOM     31  O   UNL A   1      34.236  33.414  31.712  1.00  0.00    -0.460 OA
BRANCH  31  32
ATOM     32  C   UNL A   1      35.004  32.872  32.692  1.00  0.00     0.338 C 
ATOM     33  O   UNL A   1      34.800  32.882  33.878  1.00  0.00    -0.246 OA
BRANCH  32  34
ATOM     34  C   UNL A   1      36.085  32.081  32.036  1.00  0.00     0.060 A 
ATOM     35  C   UNL A   1      36.983  31.401  32.862  1.00  0.00     0.016 A 
ATOM     36  C   UNL A   1      36.181  31.976  30.647  1.00  0.00     0.016 A 
ATOM     37  C   UNL A   1      38.007  30.639  32.300  1.00  0.00     0.010 A 
ATOM     38  C   UNL A   1      37.204  31.216  30.082  1.00  0.00     0.010 A 
ATOM     39  C   UNL A   1      38.144  30.576  30.908  1.00  0.00    -0.014 A 
BRANCH  39  40
ATOM     40  C   UNL A   1      39.409  30.102  30.306  1.00  0.00     0.031 A 
ATOM     41  C   UNL A   1      40.524  31.102  30.174  1.00  0.00     0.074 A 
ATOM     42  C   UNL A   1      39.568  28.844  29.862  1.00  0.00     0.049 A 
ATOM     43  N   UNL A   1      41.698  30.969  29.615  1.00  0.00    -0.248 NA
ATOM     44  C   UNL A   1      40.273  32.436  30.747  1.00  0.00     0.031 C 
ATOM     45  C   UNL A   1      38.588  27.765  29.970  1.00  0.00     0.029 A 
ATOM     46  N   UNL A   1      40.634  28.272  29.211  1.00  0.00    -0.354 N 
ATOM     47  C   UNL A   1      42.325  32.198  29.777  1.00  0.00     0.074 A 
ATOM     48  C   UNL A   1      41.396  33.071  30.456  1.00  0.00     0.031 C 
ATOM     49  C   UNL A   1      39.095  26.662  29.388  1.00  0.00     0.029 A 
ATOM     50  C   UNL A   1      40.417  26.968  28.842  1.00  0.00     0.049 A 
ATOM     51  H   UNL A   1      41.472  28.753  29.025  1.00  0.00     0.167 HD
ATOM     52  C   UNL A   1      43.567  32.573  29.392  1.00  0.00     0.031 A 
ATOM     53  C   UNL A   1      41.195  26.132  28.126  1.00  0.00     0.031 A 
ATOM     54  C   UNL A   1      44.480  31.733  28.675  1.00  0.00     0.049 A 
ATOM     55  C   UNL A   1      42.531  26.609  27.613  1.00  0.00     0.074 A 
ATOM     56  C   UNL A   1      45.754  32.031  28.226  1.00  0.00     0.029 A 
ATOM     57  N   UNL A   1      44.206  30.432  28.286  1.00  0.00    -0.354 N 
ATOM     58  N   UNL A   1      43.126  27.763  27.792  1.00  0.00    -0.248 NA
ATOM     59  C   UNL A   1      43.302  25.659  26.795  1.00  0.00     0.031 C 
ATOM     60  C   UNL A   1      46.234  30.922  27.519  1.00  0.00     0.029 A 
ATOM     61  C   UNL A   1      45.278  29.920  27.577  1.00  0.00     0.049 A 
ATOM     62  H   UNL A   1      43.375  29.945  28.485  1.00  0.00     0.167 HD
ATOM     63  C   UNL A   1      44.348  27.667  27.136  1.00  0.00     0.074 A 
ATOM     64  C   UNL A   1      44.416  26.340  26.564  1.00  0.00     0.031 C 
ATOM     65  C   UNL A   1      45.330  28.595  27.018  1.00  0.00     0.031 A 
BRANCH  52  66
ATOM     66  C   UNL A   1      43.973  33.980  29.713  1.00  0.00    -0.014 A 
ATOM     67  C   UNL A   1      44.624  34.288  30.918  1.00  0.00     0.009 A 
ATOM     68  C   UNL A   1      43.685  35.011  28.807  1.00  0.00     0.009 A 
ATOM     69  C   UNL A   1      44.949  35.610  31.223  1.00  0.00     0.001 A 
ATOM     70  C   UNL A   1      44.032  36.329  29.106  1.00  0.00     0.001 A 
ATOM     71  C   UNL A   1      44.655  36.628  30.316  1.00  0.00     0.000 A 
ENDBRANCH  52  66
BRANCH  53  72
ATOM     72  C   UNL A   1      40.731  24.754  27.813  1.00  0.00    -0.014 A 
ATOM     73  C   UNL A   1      41.396  23.640  28.346  1.00  0.00     0.009 A 
ATOM     74  C   UNL A   1      39.660  24.547  26.931  1.00  0.00     0.009 A 
ATOM     75  C   UNL A   1      41.019  22.346  27.975  1.00  0.00     0.001 A 
ATOM     76  C   UNL A   1      39.269  23.252  26.582  1.00  0.00     0.001 A 
ATOM     77  C   UNL A   1      39.956  22.153  27.095  1.00  0.00     0.000 A 
ENDBRANCH  53  72
BRANCH  65  78
ATOM     78  C   UNL A   1      46.576  28.199  26.279  1.00  0.00    -0.014 A 
ATOM     79  C   UNL A   1      47.715  27.745  26.959  1.00  0.00     0.009 A 
ATOM     80  C   UNL A   1      46.586  28.223  24.875  1.00  0.00     0.009 A 
ATOM     81  C   UNL A   1      48.850  27.347  26.248  1.00  0.00     0.001 A 
ATOM     82  C   UNL A   1      47.712  27.802  24.167  1.00  0.00     0.001 A 
ATOM     83  C   UNL A   1      48.846  27.371  24.853  1.00  0.00     0.000 A 
ENDBRANCH  65  78
ENDBRANCH  39  40
ENDBRANCH  32  34
ENDBRANCH  31  32
ENDBRANCH  30  31
ENDBRANCH  29  30
ENDBRANCH  28  29
ENDBRANCH  27  28
ENDBRANCH  26  27
ENDBRANCH  25  26
ENDBRANCH   1  25
TORSDOF 23
ENDMDL
MODEL 3
REMARK VINA RESULT:      -9.5      2.333      4.377
REMARK SMILES CC(C)CCOCC[N@@H+]1[C@@H](C(=O)OCCOCCOCCOC(=O)c2ccc(-c3c4nc(c(-c5ccccc5)c5ccc([nH]5)c(-c5ccccc5)c5nc(c(-c6ccccc6)c6ccc3[nH]6)C=C5)C=C4)cc2)CC[C@H]2CCCC[C@H]21
REMARK SMILES IDX 15 1 14 2 13 3 11 4 12 5 10 6 9 7 80 8 73 10 75 11 79 12
REMARK SMILES IDX 74 13 76 14 78 15 77 16 8 17 7 18 6 19 5 20 4 21 2 22 1 23
REMARK SMILES IDX 3 24 16 25 17 26 18 27 19 28 20 29 21 30 22 31 23 32 24 33
REMARK SMILES IDX 25 34 26 35 72 36 27 37 71 38 28 39 29 40 30 41 65 42 31 43
REMARK SMILES IDX 70 44 64 45 66 46 32 47 69 48 63 49 62 50 33 52 55 53 40 54
REMARK SMILES IDX 54 55 41 56 44 57 53 58 67 59 42 60 43 61 52 63 68 64 45 65
REMARK SMILES IDX 34 66 35 67 39 68 36 69 38 70 37 71 56 72 57 73 61 74 58 75
REMARK SMILES IDX 60 76 59 77 46 78 47 79 51 80 48 81 50 82 49 83
REMARK H PARENT 9 9 66 51 44 62
REMARK Flexibility Score: inf
ROOT
ATOM      1  C   UNL A   1      38.127  22.141  25.373  1.00  0.00     0.202 C 
ENDROOT
BRANCH   1   2
ATOM      2  C   UNL A   1      37.275  23.356  25.918  1.00  0.00     0.261 C 
BRANCH   2   3
ATOM      3  O   UNL A   1      36.320  23.889  24.955  1.00  0.00    -0.459 OA
BRANCH   3   4
ATOM      4  C   UNL A   1      35.257  23.173  24.448  1.00  0.00     0.364 C 
ATOM      5  O   UNL A   1      35.368  22.133  23.814  1.00  0.00    -0.245 OA
BRANCH   4   6
ATOM      6  C   UNL A   1      33.911  23.867  24.884  1.00  0.00     0.295 C 
ATOM      7  N   UNL A   1      32.883  23.907  23.811  1.00  0.00    -0.319 N 
ATOM      8  C   UNL A   1      32.041  25.147  23.653  1.00  0.00     0.187 C 
ATOM      9  H   UNL A   1      33.466  23.949  22.976  1.00  0.00     0.349 HD
ATOM     10  C   UNL A   1      34.041  25.152  25.693  1.00  0.00     0.078 C 
ATOM     11  C   UNL A   1      31.951  26.169  24.828  1.00  0.00     0.048 C 
ATOM     12  C   UNL A   1      32.335  25.909  22.345  1.00  0.00     0.065 C 
ATOM     13  C   UNL A   1      32.639  25.643  26.070  1.00  0.00     0.016 C 
ATOM     14  C   UNL A   1      32.449  27.602  24.526  1.00  0.00     0.010 C 
ATOM     15  C   UNL A   1      33.592  26.771  22.397  1.00  0.00     0.006 C 
ATOM     16  C   UNL A   1      33.661  27.696  23.608  1.00  0.00     0.001 C 
BRANCH   7  17
ATOM     17  C   UNL A   1      32.035  22.664  23.814  1.00  0.00     0.291 C 
BRANCH  17  18
ATOM     18  C   UNL A   1      31.697  21.898  25.142  1.00  0.00     0.221 C 
BRANCH  18  19
ATOM     19  O   UNL A   1      31.913  20.492  25.354  1.00  0.00    -0.376 OA
BRANCH  19  20
ATOM     20  C   UNL A   1      33.112  19.798  25.022  1.00  0.00     0.160 C 
BRANCH  20  21
ATOM     21  C   UNL A   1      32.916  18.236  25.094  1.00  0.00     0.031 C 
BRANCH  21  22
ATOM     22  C   UNL A   1      32.814  17.530  23.718  1.00  0.00    -0.015 C 
ATOM     23  C   UNL A   1      32.389  18.320  22.493  1.00  0.00     0.007 C 
ATOM     24  C   UNL A   1      34.029  16.735  23.315  1.00  0.00     0.007 C 
ENDBRANCH  21  22
ENDBRANCH  20  21
ENDBRANCH  19  20
ENDBRANCH  18  19
ENDBRANCH  17  18
ENDBRANCH   7  17
ENDBRANCH   4   6
ENDBRANCH   3   4
ENDBRANCH   2   3
ENDBRANCH   1   2
BRANCH   1  25
ATOM     25  O   UNL A   1      39.235  21.745  26.216  1.00  0.00    -0.376 OA
BRANCH  25  26
ATOM     26  C   UNL A   1      39.676  20.375  26.038  1.00  0.00     0.188 C 
BRANCH  26  27
ATOM     27  C   UNL A   1      41.140  20.089  26.482  1.00  0.00     0.188 C 
BRANCH  27  28
ATOM     28  O   UNL A   1      42.101  19.891  25.440  1.00  0.00    -0.376 OA
BRANCH  28  29
ATOM     29  C   UNL A   1      43.485  19.997  25.764  1.00  0.00     0.202 C 
BRANCH  29  30
ATOM     30  C   UNL A   1      44.121  21.364  25.453  1.00  0.00     0.261 C 
BRANCH  30  31
ATOM     31  O   UNL A   1      43.370  22.432  26.036  1.00  0.00    -0.460 OA
BRANCH  31  32
ATOM     32  C   UNL A   1      43.609  23.631  25.444  1.00  0.00     0.338 C 
ATOM     33  O   UNL A   1      44.108  23.834  24.368  1.00  0.00    -0.246 OA
BRANCH  32  34
ATOM     34  C   UNL A   1      42.971  24.687  26.282  1.00  0.00     0.060 A 
ATOM     35  C   UNL A   1      43.589  25.938  26.330  1.00  0.00     0.016 A 
ATOM     36  C   UNL A   1      41.773  24.461  26.965  1.00  0.00     0.016 A 
ATOM     37  C   UNL A   1      43.029  26.963  27.092  1.00  0.00     0.010 A 
ATOM     38  C   UNL A   1      41.212  25.483  27.727  1.00  0.00     0.010 A 
ATOM     39  C   UNL A   1      41.859  26.727  27.825  1.00  0.00    -0.014 A 
BRANCH  39  40
ATOM     40  C   UNL A   1      41.463  27.649  28.910  1.00  0.00     0.031 A 
ATOM     41  C   UNL A   1      42.217  27.546  30.208  1.00  0.00     0.074 A 
ATOM     42  C   UNL A   1      40.456  28.528  28.778  1.00  0.00     0.049 A 
ATOM     43  N   UNL A   1      42.020  28.177  31.336  1.00  0.00    -0.248 NA
ATOM     44  C   UNL A   1      43.343  26.597  30.233  1.00  0.00     0.031 C 
ATOM     45  C   UNL A   1      39.676  28.762  27.564  1.00  0.00     0.029 A 
ATOM     46  N   UNL A   1      39.913  29.386  29.703  1.00  0.00    -0.354 N 
ATOM     47  C   UNL A   1      43.000  27.705  32.198  1.00  0.00     0.074 A 
ATOM     48  C   UNL A   1      43.770  26.717  31.478  1.00  0.00     0.031 C 
ATOM     49  C   UNL A   1      38.740  29.695  27.826  1.00  0.00     0.029 A 
ATOM     50  C   UNL A   1      38.839  30.097  29.229  1.00  0.00     0.049 A 
ATOM     51  H   UNL A   1      40.261  29.482  30.618  1.00  0.00     0.167 HD
ATOM     52  C   UNL A   1      43.242  28.058  33.482  1.00  0.00     0.031 A 
ATOM     53  C   UNL A   1      38.020  30.955  29.869  1.00  0.00     0.031 A 
ATOM     54  C   UNL A   1      42.457  29.000  34.223  1.00  0.00     0.049 A 
ATOM     55  C   UNL A   1      38.242  31.250  31.332  1.00  0.00     0.074 A 
ATOM     56  C   UNL A   1      42.613  29.410  35.535  1.00  0.00     0.029 A 
ATOM     57  N   UNL A   1      41.353  29.668  33.719  1.00  0.00    -0.354 N 
ATOM     58  N   UNL A   1      39.186  30.818  32.133  1.00  0.00    -0.248 NA
ATOM     59  C   UNL A   1      37.278  32.155  31.977  1.00  0.00     0.031 C 
ATOM     60  C   UNL A   1      41.570  30.291  35.841  1.00  0.00     0.029 A 
ATOM     61  C   UNL A   1      40.799  30.467  34.702  1.00  0.00     0.049 A 
ATOM     62  H   UNL A   1      41.014  29.585  32.799  1.00  0.00     0.167 HD
ATOM     63  C   UNL A   1      38.947  31.421  33.363  1.00  0.00     0.074 A 
ATOM     64  C   UNL A   1      37.776  32.255  33.202  1.00  0.00     0.031 C 
ATOM     65  C   UNL A   1      39.636  31.295  34.524  1.00  0.00     0.031 A 
BRANCH  52  66
ATOM     66  C   UNL A   1      44.387  27.372  34.163  1.00  0.00    -0.014 A 
ATOM     67  C   UNL A   1      44.205  26.151  34.832  1.00  0.00     0.009 A 
ATOM     68  C   UNL A   1      45.659  27.963  34.151  1.00  0.00     0.009 A 
ATOM     69  C   UNL A   1      45.271  25.553  35.505  1.00  0.00     0.001 A 
ATOM     70  C   UNL A   1      46.728  27.350  34.806  1.00  0.00     0.001 A 
ATOM     71  C   UNL A   1      46.531  26.151  35.489  1.00  0.00     0.000 A 
ENDBRANCH  52  66
BRANCH  53  72
ATOM     72  C   UNL A   1      36.881  31.587  29.151  1.00  0.00    -0.014 A 
ATOM     73  C   UNL A   1      37.018  32.861  28.579  1.00  0.00     0.009 A 
ATOM     74  C   UNL A   1      35.634  30.947  29.090  1.00  0.00     0.009 A 
ATOM     75  C   UNL A   1      35.921  33.494  27.989  1.00  0.00     0.001 A 
ATOM     76  C   UNL A   1      34.546  31.571  28.477  1.00  0.00     0.001 A 
ATOM     77  C   UNL A   1      34.686  32.849  27.938  1.00  0.00     0.000 A 
ENDBRANCH  53  72
BRANCH  65  78
ATOM     78  C   UNL A   1      39.170  32.106  35.700  1.00  0.00    -0.014 A 
ATOM     79  C   UNL A   1      39.610  33.423  35.898  1.00  0.00     0.009 A 
ATOM     80  C   UNL A   1      38.228  31.561  36.587  1.00  0.00     0.009 A 
ATOM     81  C   UNL A   1      39.135  34.170  36.979  1.00  0.00     0.001 A 
ATOM     82  C   UNL A   1      37.736  32.318  37.651  1.00  0.00     0.001 A 
ATOM     83  C   UNL A   1      38.195  33.619  37.851  1.00  0.00     0.000 A 
ENDBRANCH  65  78
ENDBRANCH  39  40
ENDBRANCH  32  34
ENDBRANCH  31  32
ENDBRANCH  30  31
ENDBRANCH  29  30
ENDBRANCH  28  29
ENDBRANCH  27  28
ENDBRANCH  26  27
ENDBRANCH  25  26
ENDBRANCH   1  25
TORSDOF 23
ENDMDL
