MODEL 1
REMARK VINA RESULT:     -10.8      0.000      0.000
REMARK SMILES Cc1cc2c(c(C)c1Cl)C=C(C(=O)OCCOCCOCCOC(=O)c1ccc(-c3c4nc(c(-c5ccccc5)c5ccc([nH]5)c(-c5ccccc5)c5nc(c(-c6ccccc6)c6ccc3[nH]6)C=C5)C=C4)cc1)[C@@H](C(F)(F)F)O2
REMARK SMILES IDX 19 1 18 2 17 3 16 4 15 5 14 6 12 7 13 8 11 9 1 10 2 11 3 12
REMARK SMILES IDX 8 13 4 14 6 15 9 16 5 17 79 18 7 19 10 20 74 21 75 22 76 23
REMARK SMILES IDX 77 24 78 25 20 26 21 27 22 28 23 29 24 30 25 31 26 32 27 33
REMARK SMILES IDX 73 34 28 35 72 36 29 37 30 38 31 39 66 40 32 41 71 42 65 43
REMARK SMILES IDX 67 44 33 45 70 46 64 47 63 48 34 50 56 51 41 52 55 53 42 54
REMARK SMILES IDX 45 55 54 56 68 57 43 58 44 59 53 61 69 62 46 63 35 64 36 65
REMARK SMILES IDX 40 66 37 67 39 68 38 69 57 70 58 71 62 72 59 73 61 74 60 75
REMARK SMILES IDX 47 76 48 77 52 78 49 79 51 80 50 81
REMARK H PARENT 67 49 45 60
REMARK Flexibility Score: inf
ROOT
ATOM      1  C   UNL A   1      40.359  20.738  26.724  1.00  0.00     0.188 C 
ENDROOT
BRANCH   1   2
ATOM      2  C   UNL A   1      39.324  21.585  25.954  1.00  0.00     0.188 C 
BRANCH   2   3
ATOM      3  O   UNL A   1      38.818  22.785  26.514  1.00  0.00    -0.376 OA
BRANCH   3   4
ATOM      4  C   UNL A   1      37.759  23.489  25.882  1.00  0.00     0.202 C 
BRANCH   4   5
ATOM      5  C   UNL A   1      36.375  22.850  25.677  1.00  0.00     0.261 C 
BRANCH   5   6
ATOM      6  O   UNL A   1      35.351  23.733  25.195  1.00  0.00    -0.460 OA
BRANCH   6   7
ATOM      7  C   UNL A   1      35.205  23.774  23.849  1.00  0.00     0.338 C 
ATOM      8  O   UNL A   1      35.796  23.095  23.027  1.00  0.00    -0.246 OA
BRANCH   7   9
ATOM      9  C   UNL A   1      34.079  24.668  23.502  1.00  0.00     0.087 C 
ATOM     10  C   UNL A   1      29.223  28.947  23.471  1.00  0.00     0.046 C 
ATOM     11  C   UNL A   1      30.546  28.239  23.593  1.00  0.00    -0.028 A 
ATOM     12  C   UNL A   1      30.745  27.055  22.873  1.00  0.00     0.052 A 
ATOM     13  C   UNL A   1      31.586  28.722  24.410  1.00  0.00     0.047 A 
ATOM     14  C   UNL A   1      31.916  26.315  23.023  1.00  0.00     0.128 A 
ATOM     15  C   UNL A   1      32.792  27.997  24.558  1.00  0.00    -0.021 A 
ATOM     16  Cl  UNL A   1      31.344  30.222  25.255  1.00  0.00    -0.084 Cl
ATOM     17  C   UNL A   1      32.923  26.752  23.891  1.00  0.00     0.022 A 
ATOM     18  O   UNL A   1      31.975  25.171  22.280  1.00  0.00    -0.475 OA
ATOM     19  C   UNL A   1      33.928  28.513  25.413  1.00  0.00     0.047 C 
ATOM     20  C   UNL A   1      34.052  25.855  24.124  1.00  0.00     0.027 C 
ATOM     21  C   UNL A   1      33.053  24.224  22.503  1.00  0.00     0.316 C 
BRANCH  21  22
ATOM     22  C   UNL A   1      32.438  22.864  22.857  1.00  0.00     0.430 C 
ATOM     23  F   UNL A   1      31.088  22.940  22.931  1.00  0.00    -0.167 F 
ATOM     24  F   UNL A   1      32.724  21.926  21.924  1.00  0.00    -0.167 F 
ATOM     25  F   UNL A   1      32.886  22.403  24.047  1.00  0.00    -0.167 F 
ENDBRANCH  21  22
ENDBRANCH   7   9
ENDBRANCH   6   7
ENDBRANCH   5   6
ENDBRANCH   4   5
ENDBRANCH   3   4
ENDBRANCH   2   3
ENDBRANCH   1   2
BRANCH   1  26
ATOM     26  O   UNL A   1      41.371  20.157  25.941  1.00  0.00    -0.376 OA
BRANCH  26  27
ATOM     27  C   UNL A   1      42.728  20.508  26.166  1.00  0.00     0.202 C 
BRANCH  27  28
ATOM     28  C   UNL A   1      43.556  21.514  25.336  1.00  0.00     0.261 C 
BRANCH  28  29
ATOM     29  O   UNL A   1      42.936  22.730  24.909  1.00  0.00    -0.460 OA
BRANCH  29  30
ATOM     30  C   UNL A   1      43.691  23.852  24.996  1.00  0.00     0.338 C 
ATOM     31  O   UNL A   1      44.697  24.116  24.366  1.00  0.00    -0.246 OA
BRANCH  30  32
ATOM     32  C   UNL A   1      42.979  24.831  25.845  1.00  0.00     0.060 A 
ATOM     33  C   UNL A   1      43.448  26.153  25.880  1.00  0.00     0.016 A 
ATOM     34  C   UNL A   1      41.885  24.445  26.620  1.00  0.00     0.016 A 
ATOM     35  C   UNL A   1      42.839  27.089  26.714  1.00  0.00     0.010 A 
ATOM     36  C   UNL A   1      41.298  25.376  27.483  1.00  0.00     0.010 A 
ATOM     37  C   UNL A   1      41.796  26.690  27.559  1.00  0.00    -0.014 A 
BRANCH  37  38
ATOM     38  C   UNL A   1      41.396  27.566  28.685  1.00  0.00     0.031 A 
ATOM     39  C   UNL A   1      42.196  27.485  29.957  1.00  0.00     0.074 A 
ATOM     40  C   UNL A   1      40.375  28.434  28.585  1.00  0.00     0.049 A 
ATOM     41  N   UNL A   1      41.997  28.082  31.103  1.00  0.00    -0.248 NA
ATOM     42  C   UNL A   1      43.384  26.615  29.926  1.00  0.00     0.031 C 
ATOM     43  C   UNL A   1      39.575  28.673  27.386  1.00  0.00     0.029 A 
ATOM     44  N   UNL A   1      39.838  29.278  29.525  1.00  0.00    -0.354 N 
ATOM     45  C   UNL A   1      43.030  27.656  31.930  1.00  0.00     0.074 A 
ATOM     46  C   UNL A   1      43.838  26.734  31.165  1.00  0.00     0.031 C 
ATOM     47  C   UNL A   1      38.642  29.600  27.666  1.00  0.00     0.029 A 
ATOM     48  C   UNL A   1      38.749  29.983  29.073  1.00  0.00     0.049 A 
ATOM     49  H   UNL A   1      40.199  29.371  30.436  1.00  0.00     0.167 HD
ATOM     50  C   UNL A   1      43.286  28.003  33.213  1.00  0.00     0.031 A 
ATOM     51  C   UNL A   1      37.919  30.817  29.731  1.00  0.00     0.031 A 
ATOM     52  C   UNL A   1      42.470  28.901  33.984  1.00  0.00     0.049 A 
ATOM     53  C   UNL A   1      38.151  31.091  31.195  1.00  0.00     0.074 A 
ATOM     54  C   UNL A   1      42.635  29.299  35.299  1.00  0.00     0.029 A 
ATOM     55  N   UNL A   1      41.332  29.535  33.512  1.00  0.00    -0.354 N 
ATOM     56  N   UNL A   1      39.118  30.670  31.975  1.00  0.00    -0.248 NA
ATOM     57  C   UNL A   1      37.172  31.957  31.870  1.00  0.00     0.031 C 
ATOM     58  C   UNL A   1      41.562  30.125  35.642  1.00  0.00     0.029 A 
ATOM     59  C   UNL A   1      40.766  30.298  34.520  1.00  0.00     0.049 A 
ATOM     60  H   UNL A   1      40.978  29.454  32.597  1.00  0.00     0.167 HD
ATOM     61  C   UNL A   1      38.876  31.235  33.223  1.00  0.00     0.074 A 
ATOM     62  C   UNL A   1      37.686  32.050  33.088  1.00  0.00     0.031 C 
ATOM     63  C   UNL A   1      39.574  31.093  34.376  1.00  0.00     0.031 A 
BRANCH  50  64
ATOM     64  C   UNL A   1      44.479  27.377  33.876  1.00  0.00    -0.014 A 
ATOM     65  C   UNL A   1      44.385  26.135  34.524  1.00  0.00     0.009 A 
ATOM     66  C   UNL A   1      45.727  28.018  33.812  1.00  0.00     0.009 A 
ATOM     67  C   UNL A   1      45.512  25.559  35.113  1.00  0.00     0.001 A 
ATOM     68  C   UNL A   1      46.857  27.425  34.375  1.00  0.00     0.001 A 
ATOM     69  C   UNL A   1      46.748  26.200  35.031  1.00  0.00     0.000 A 
ENDBRANCH  50  64
BRANCH  51  70
ATOM     70  C   UNL A   1      36.767  31.436  29.023  1.00  0.00    -0.014 A 
ATOM     71  C   UNL A   1      36.803  32.785  28.639  1.00  0.00     0.009 A 
ATOM     72  C   UNL A   1      35.612  30.685  28.745  1.00  0.00     0.009 A 
ATOM     73  C   UNL A   1      35.705  33.373  28.008  1.00  0.00     0.001 A 
ATOM     74  C   UNL A   1      34.528  31.268  28.085  1.00  0.00     0.001 A 
ATOM     75  C   UNL A   1      34.571  32.613  27.725  1.00  0.00     0.000 A 
ENDBRANCH  51  70
BRANCH  63  76
ATOM     76  C   UNL A   1      39.082  31.845  35.585  1.00  0.00    -0.014 A 
ATOM     77  C   UNL A   1      38.205  31.251  36.505  1.00  0.00     0.009 A 
ATOM     78  C   UNL A   1      39.542  33.149  35.832  1.00  0.00     0.009 A 
ATOM     79  C   UNL A   1      37.769  31.961  37.627  1.00  0.00     0.001 A 
ATOM     80  C   UNL A   1      39.132  33.843  36.971  1.00  0.00     0.001 A 
ATOM     81  C   UNL A   1      38.237  33.252  37.862  1.00  0.00     0.000 A 
ENDBRANCH  63  76
ENDBRANCH  37  38
ENDBRANCH  30  32
ENDBRANCH  29  30
ENDBRANCH  28  29
ENDBRANCH  27  28
ENDBRANCH  26  27
ENDBRANCH   1  26
TORSDOF 18
ENDMDL
MODEL 2
REMARK VINA RESULT:     -10.6      2.070      6.476
REMARK SMILES Cc1cc2c(c(C)c1Cl)C=C(C(=O)OCCOCCOCCOC(=O)c1ccc(-c3c4nc(c(-c5ccccc5)c5ccc([nH]5)c(-c5ccccc5)c5nc(c(-c6ccccc6)c6ccc3[nH]6)C=C5)C=C4)cc1)[C@@H](C(F)(F)F)O2
REMARK SMILES IDX 19 1 18 2 17 3 16 4 15 5 14 6 12 7 13 8 11 9 1 10 2 11 3 12
REMARK SMILES IDX 8 13 4 14 6 15 9 16 5 17 79 18 7 19 10 20 74 21 75 22 76 23
REMARK SMILES IDX 77 24 78 25 20 26 21 27 22 28 23 29 24 30 25 31 26 32 27 33
REMARK SMILES IDX 73 34 28 35 72 36 29 37 30 38 31 39 66 40 32 41 71 42 65 43
REMARK SMILES IDX 67 44 33 45 70 46 64 47 63 48 34 50 56 51 41 52 55 53 42 54
REMARK SMILES IDX 45 55 54 56 68 57 43 58 44 59 53 61 69 62 46 63 35 64 36 65
REMARK SMILES IDX 40 66 37 67 39 68 38 69 57 70 58 71 62 72 59 73 61 74 60 75
REMARK SMILES IDX 47 76 48 77 52 78 49 79 51 80 50 81
REMARK H PARENT 67 49 45 60
REMARK Flexibility Score: inf
ROOT
ATOM      1  C   UNL A   1      37.637  21.959  25.432  1.00  0.00     0.188 C 
ENDROOT
BRANCH   1   2
ATOM      2  C   UNL A   1      36.595  20.872  25.088  1.00  0.00     0.188 C 
BRANCH   2   3
ATOM      3  O   UNL A   1      35.357  20.820  25.776  1.00  0.00    -0.376 OA
BRANCH   3   4
ATOM      4  C   UNL A   1      34.885  21.947  26.500  1.00  0.00     0.202 C 
BRANCH   4   5
ATOM      5  C   UNL A   1      33.575  22.659  26.120  1.00  0.00     0.261 C 
BRANCH   5   6
ATOM      6  O   UNL A   1      33.641  24.092  26.071  1.00  0.00    -0.460 OA
BRANCH   6   7
ATOM      7  C   UNL A   1      33.663  24.631  24.828  1.00  0.00     0.338 C 
ATOM      8  O   UNL A   1      33.950  24.062  23.788  1.00  0.00    -0.246 OA
BRANCH   7   9
ATOM      9  C   UNL A   1      33.121  26.006  24.877  1.00  0.00     0.087 C 
ATOM     10  C   UNL A   1      31.204  31.956  26.553  1.00  0.00     0.046 C 
ATOM     11  C   UNL A   1      31.977  30.697  26.265  1.00  0.00    -0.028 A 
ATOM     12  C   UNL A   1      31.437  29.764  25.371  1.00  0.00     0.052 A 
ATOM     13  C   UNL A   1      33.219  30.422  26.868  1.00  0.00     0.047 A 
ATOM     14  C   UNL A   1      32.069  28.544  25.143  1.00  0.00     0.128 A 
ATOM     15  C   UNL A   1      33.889  29.198  26.630  1.00  0.00    -0.021 A 
ATOM     16  Cl  UNL A   1      33.903  31.614  27.932  1.00  0.00    -0.084 Cl
ATOM     17  C   UNL A   1      33.267  28.234  25.796  1.00  0.00     0.022 A 
ATOM     18  O   UNL A   1      31.428  27.717  24.265  1.00  0.00    -0.475 OA
ATOM     19  C   UNL A   1      35.235  28.897  27.250  1.00  0.00     0.047 C 
ATOM     20  C   UNL A   1      33.795  26.882  25.636  1.00  0.00     0.027 C 
ATOM     21  C   UNL A   1      31.885  26.349  24.101  1.00  0.00     0.316 C 
BRANCH  21  22
ATOM     22  C   UNL A   1      30.715  25.407  24.412  1.00  0.00     0.430 C 
ATOM     23  F   UNL A   1      30.697  25.062  25.721  1.00  0.00    -0.167 F 
ATOM     24  F   UNL A   1      29.521  25.985  24.145  1.00  0.00    -0.167 F 
ATOM     25  F   UNL A   1      30.782  24.264  23.691  1.00  0.00    -0.167 F 
ENDBRANCH  21  22
ENDBRANCH   7   9
ENDBRANCH   6   7
ENDBRANCH   5   6
ENDBRANCH   4   5
ENDBRANCH   3   4
ENDBRANCH   2   3
ENDBRANCH   1   2
BRANCH   1  26
ATOM     26  O   UNL A   1      38.944  21.497  25.658  1.00  0.00    -0.376 OA
BRANCH  26  27
ATOM     27  C   UNL A   1      39.752  22.115  26.647  1.00  0.00     0.202 C 
BRANCH  27  28
ATOM     28  C   UNL A   1      40.701  23.314  26.427  1.00  0.00     0.261 C 
BRANCH  28  29
ATOM     29  O   UNL A   1      40.148  24.559  25.988  1.00  0.00    -0.460 OA
BRANCH  29  30
ATOM     30  C   UNL A   1      41.002  25.610  25.938  1.00  0.00     0.338 C 
ATOM     31  O   UNL A   1      41.867  25.820  25.109  1.00  0.00    -0.246 OA
BRANCH  30  32
ATOM     32  C   UNL A   1      40.582  26.602  26.951  1.00  0.00     0.060 A 
ATOM     33  C   UNL A   1      41.274  27.821  27.020  1.00  0.00     0.016 A 
ATOM     34  C   UNL A   1      39.544  26.324  27.838  1.00  0.00     0.016 A 
ATOM     35  C   UNL A   1      40.946  28.756  28.000  1.00  0.00     0.010 A 
ATOM     36  C   UNL A   1      39.239  27.247  28.844  1.00  0.00     0.010 A 
ATOM     37  C   UNL A   1      39.963  28.449  28.949  1.00  0.00    -0.014 A 
BRANCH  37  38
ATOM     38  C   UNL A   1      39.865  29.263  30.184  1.00  0.00     0.031 A 
ATOM     39  C   UNL A   1      38.856  30.379  30.212  1.00  0.00     0.074 A 
ATOM     40  C   UNL A   1      40.619  29.009  31.266  1.00  0.00     0.049 A 
ATOM     41  N   UNL A   1      38.637  31.279  31.136  1.00  0.00    -0.248 NA
ATOM     42  C   UNL A   1      37.973  30.490  29.039  1.00  0.00     0.031 C 
ATOM     43  C   UNL A   1      41.571  27.908  31.402  1.00  0.00     0.029 A 
ATOM     44  N   UNL A   1      40.698  29.676  32.464  1.00  0.00    -0.354 N 
ATOM     45  C   UNL A   1      37.597  32.064  30.653  1.00  0.00     0.074 A 
ATOM     46  C   UNL A   1      37.245  31.552  29.348  1.00  0.00     0.031 C 
ATOM     47  C   UNL A   1      42.145  27.980  32.617  1.00  0.00     0.029 A 
ATOM     48  C   UNL A   1      41.637  29.156  33.322  1.00  0.00     0.049 A 
ATOM     49  H   UNL A   1      40.136  30.452  32.687  1.00  0.00     0.167 HD
ATOM     50  C   UNL A   1      36.986  33.117  31.244  1.00  0.00     0.031 A 
ATOM     51  C   UNL A   1      42.056  29.599  34.524  1.00  0.00     0.031 A 
ATOM     52  C   UNL A   1      37.350  33.643  32.531  1.00  0.00     0.049 A 
ATOM     53  C   UNL A   1      41.447  30.848  35.107  1.00  0.00     0.074 A 
ATOM     54  C   UNL A   1      36.804  34.720  33.206  1.00  0.00     0.029 A 
ATOM     55  N   UNL A   1      38.357  33.134  33.335  1.00  0.00    -0.354 N 
ATOM     56  N   UNL A   1      40.478  31.597  34.637  1.00  0.00    -0.248 NA
ATOM     57  C   UNL A   1      41.994  31.315  36.391  1.00  0.00     0.031 C 
ATOM     58  C   UNL A   1      37.522  34.902  34.391  1.00  0.00     0.029 A 
ATOM     59  C   UNL A   1      38.470  33.894  34.487  1.00  0.00     0.049 A 
ATOM     60  H   UNL A   1      38.910  32.349  33.119  1.00  0.00     0.167 HD
ATOM     61  C   UNL A   1      40.285  32.607  35.574  1.00  0.00     0.074 A 
ATOM     62  C   UNL A   1      41.220  32.360  36.652  1.00  0.00     0.031 C 
ATOM     63  C   UNL A   1      39.414  33.645  35.545  1.00  0.00     0.031 A 
BRANCH  50  64
ATOM     64  C   UNL A   1      35.882  33.795  30.483  1.00  0.00    -0.014 A 
ATOM     65  C   UNL A   1      36.086  34.279  29.181  1.00  0.00     0.009 A 
ATOM     66  C   UNL A   1      34.608  33.912  31.061  1.00  0.00     0.009 A 
ATOM     67  C   UNL A   1      35.040  34.884  28.481  1.00  0.00     0.001 A 
ATOM     68  C   UNL A   1      33.558  34.491  30.348  1.00  0.00     0.001 A 
ATOM     69  C   UNL A   1      33.776  34.982  29.062  1.00  0.00     0.000 A 
ENDBRANCH  50  64
BRANCH  51  70
ATOM     70  C   UNL A   1      43.132  28.876  35.253  1.00  0.00    -0.014 A 
ATOM     71  C   UNL A   1      44.483  29.165  35.007  1.00  0.00     0.009 A 
ATOM     72  C   UNL A   1      42.815  27.875  36.186  1.00  0.00     0.009 A 
ATOM     73  C   UNL A   1      45.491  28.458  35.665  1.00  0.00     0.001 A 
ATOM     74  C   UNL A   1      43.825  27.192  36.866  1.00  0.00     0.001 A 
ATOM     75  C   UNL A   1      45.162  27.477  36.600  1.00  0.00     0.000 A 
ENDBRANCH  51  70
BRANCH  63  76
ATOM     76  C   UNL A   1      39.417  34.588  36.719  1.00  0.00    -0.014 A 
ATOM     77  C   UNL A   1      38.728  34.280  37.903  1.00  0.00     0.009 A 
ATOM     78  C   UNL A   1      40.158  35.779  36.657  1.00  0.00     0.009 A 
ATOM     79  C   UNL A   1      38.753  35.163  38.986  1.00  0.00     0.001 A 
ATOM     80  C   UNL A   1      40.210  36.643  37.753  1.00  0.00     0.001 A 
ATOM     81  C   UNL A   1      39.497  36.339  38.912  1.00  0.00     0.000 A 
ENDBRANCH  63  76
ENDBRANCH  37  38
ENDBRANCH  30  32
ENDBRANCH  29  30
ENDBRANCH  28  29
ENDBRANCH  27  28
ENDBRANCH  26  27
ENDBRANCH   1  26
TORSDOF 18
ENDMDL
MODEL 3
REMARK VINA RESULT:     -10.3      1.188      5.919
REMARK SMILES Cc1cc2c(c(C)c1Cl)C=C(C(=O)OCCOCCOCCOC(=O)c1ccc(-c3c4nc(c(-c5ccccc5)c5ccc([nH]5)c(-c5ccccc5)c5nc(c(-c6ccccc6)c6ccc3[nH]6)C=C5)C=C4)cc1)[C@@H](C(F)(F)F)O2
REMARK SMILES IDX 19 1 18 2 17 3 16 4 15 5 14 6 12 7 13 8 11 9 1 10 2 11 3 12
REMARK SMILES IDX 8 13 4 14 6 15 9 16 5 17 79 18 7 19 10 20 74 21 75 22 76 23
REMARK SMILES IDX 77 24 78 25 20 26 21 27 22 28 23 29 24 30 25 31 26 32 27 33
REMARK SMILES IDX 73 34 28 35 72 36 29 37 30 38 31 39 66 40 32 41 71 42 65 43
REMARK SMILES IDX 67 44 33 45 70 46 64 47 63 48 34 50 56 51 41 52 55 53 42 54
REMARK SMILES IDX 45 55 54 56 68 57 43 58 44 59 53 61 69 62 46 63 35 64 36 65
REMARK SMILES IDX 40 66 37 67 39 68 38 69 57 70 58 71 62 72 59 73 61 74 60 75
REMARK SMILES IDX 47 76 48 77 52 78 49 79 51 80 50 81
REMARK H PARENT 67 49 45 60
REMARK Flexibility Score: inf
ROOT
ATOM      1  C   UNL A   1      41.909  21.919  27.250  1.00  0.00     0.188 C 
ENDROOT
BRANCH   1   2
ATOM      2  C   UNL A   1      40.416  22.247  27.474  1.00  0.00     0.188 C 
BRANCH   2   3
ATOM      3  O   UNL A   1      39.441  21.826  26.536  1.00  0.00    -0.376 OA
BRANCH   3   4
ATOM      4  C   UNL A   1      38.426  22.718  26.098  1.00  0.00     0.202 C 
BRANCH   4   5
ATOM      5  C   UNL A   1      37.228  22.232  25.264  1.00  0.00     0.261 C 
BRANCH   5   6
ATOM      6  O   UNL A   1      36.284  23.245  24.888  1.00  0.00    -0.460 OA
BRANCH   6   7
ATOM      7  C   UNL A   1      35.923  23.247  23.583  1.00  0.00     0.338 C 
ATOM      8  O   UNL A   1      36.586  22.852  22.639  1.00  0.00    -0.246 OA
BRANCH   7   9
ATOM      9  C   UNL A   1      34.508  23.659  23.463  1.00  0.00     0.087 C 
ATOM     10  C   UNL A   1      28.712  26.491  24.002  1.00  0.00     0.046 C 
ATOM     11  C   UNL A   1      30.166  26.168  23.783  1.00  0.00    -0.028 A 
ATOM     12  C   UNL A   1      30.531  24.839  23.532  1.00  0.00     0.052 A 
ATOM     13  C   UNL A   1      31.171  27.153  23.827  1.00  0.00     0.047 A 
ATOM     14  C   UNL A   1      31.871  24.476  23.415  1.00  0.00     0.128 A 
ATOM     15  C   UNL A   1      32.536  26.808  23.686  1.00  0.00    -0.021 A 
ATOM     16  Cl  UNL A   1      30.697  28.806  24.083  1.00  0.00    -0.084 Cl
ATOM     17  C   UNL A   1      32.879  25.440  23.532  1.00  0.00     0.022 A 
ATOM     18  O   UNL A   1      32.092  23.147  23.192  1.00  0.00    -0.475 OA
ATOM     19  C   UNL A   1      33.626  27.857  23.707  1.00  0.00     0.047 C 
ATOM     20  C   UNL A   1      34.263  24.974  23.556  1.00  0.00     0.027 C 
ATOM     21  C   UNL A   1      33.445  22.624  23.248  1.00  0.00     0.316 C 
BRANCH  21  22
ATOM     22  C   UNL A   1      33.489  21.509  24.302  1.00  0.00     0.430 C 
ATOM     23  F   UNL A   1      33.577  22.019  25.554  1.00  0.00    -0.167 F 
ATOM     24  F   UNL A   1      32.371  20.746  24.272  1.00  0.00    -0.167 F 
ATOM     25  F   UNL A   1      34.547  20.686  24.122  1.00  0.00    -0.167 F 
ENDBRANCH  21  22
ENDBRANCH   7   9
ENDBRANCH   6   7
ENDBRANCH   5   6
ENDBRANCH   4   5
ENDBRANCH   3   4
ENDBRANCH   2   3
ENDBRANCH   1   2
BRANCH   1  26
ATOM     26  O   UNL A   1      42.362  22.028  25.924  1.00  0.00    -0.376 OA
BRANCH  26  27
ATOM     27  C   UNL A   1      43.732  21.814  25.626  1.00  0.00     0.202 C 
BRANCH  27  28
ATOM     28  C   UNL A   1      44.690  22.836  24.973  1.00  0.00     0.261 C 
BRANCH  28  29
ATOM     29  O   UNL A   1      44.187  24.130  24.630  1.00  0.00    -0.460 OA
BRANCH  29  30
ATOM     30  C   UNL A   1      44.884  25.190  25.104  1.00  0.00     0.338 C 
ATOM     31  O   UNL A   1      45.954  25.609  24.706  1.00  0.00    -0.246 OA
BRANCH  30  32
ATOM     32  C   UNL A   1      44.033  25.914  26.074  1.00  0.00     0.060 A 
ATOM     33  C   UNL A   1      44.335  27.253  26.360  1.00  0.00     0.016 A 
ATOM     34  C   UNL A   1      42.973  25.272  26.714  1.00  0.00     0.016 A 
ATOM     35  C   UNL A   1      43.593  27.949  27.312  1.00  0.00     0.010 A 
ATOM     36  C   UNL A   1      42.251  25.960  27.695  1.00  0.00     0.010 A 
ATOM     37  C   UNL A   1      42.582  27.289  28.022  1.00  0.00    -0.014 A 
BRANCH  37  38
ATOM     38  C   UNL A   1      42.045  27.898  29.261  1.00  0.00     0.031 A 
ATOM     39  C   UNL A   1      40.710  28.586  29.185  1.00  0.00     0.074 A 
ATOM     40  C   UNL A   1      42.699  27.823  30.433  1.00  0.00     0.049 A 
ATOM     41  N   UNL A   1      40.069  29.263  30.103  1.00  0.00    -0.248 NA
ATOM     42  C   UNL A   1      39.999  28.492  27.898  1.00  0.00     0.031 C 
ATOM     43  C   UNL A   1      43.956  27.115  30.663  1.00  0.00     0.029 A 
ATOM     44  N   UNL A   1      42.384  28.361  31.656  1.00  0.00    -0.354 N 
ATOM     45  C   UNL A   1      38.886  29.678  29.503  1.00  0.00     0.074 A 
ATOM     46  C   UNL A   1      38.907  29.200  28.139  1.00  0.00     0.031 C 
ATOM     47  C   UNL A   1      44.309  27.268  31.952  1.00  0.00     0.029 A 
ATOM     48  C   UNL A   1      43.330  28.123  32.623  1.00  0.00     0.049 A 
ATOM     49  H   UNL A   1      41.557  28.869  31.825  1.00  0.00     0.167 HD
ATOM     50  C   UNL A   1      37.870  30.393  30.040  1.00  0.00     0.031 A 
ATOM     51  C   UNL A   1      43.409  28.569  33.892  1.00  0.00     0.031 A 
ATOM     52  C   UNL A   1      37.857  30.890  31.388  1.00  0.00     0.049 A 
ATOM     53  C   UNL A   1      42.325  29.469  34.430  1.00  0.00     0.074 A 
ATOM     54  C   UNL A   1      36.882  31.642  32.019  1.00  0.00     0.029 A 
ATOM     55  N   UNL A   1      38.871  30.691  32.312  1.00  0.00    -0.354 N 
ATOM     56  N   UNL A   1      41.219  29.874  33.851  1.00  0.00    -0.248 NA
ATOM     57  C   UNL A   1      42.503  29.975  35.799  1.00  0.00     0.031 C 
ATOM     58  C   UNL A   1      37.333  31.951  33.305  1.00  0.00     0.029 A 
ATOM     59  C   UNL A   1      38.558  31.332  33.499  1.00  0.00     0.049 A 
ATOM     60  H   UNL A   1      39.691  30.171  32.148  1.00  0.00     0.167 HD
ATOM     61  C   UNL A   1      40.562  30.661  34.790  1.00  0.00     0.074 A 
ATOM     62  C   UNL A   1      41.381  30.656  35.985  1.00  0.00     0.031 C 
ATOM     63  C   UNL A   1      39.389  31.330  34.676  1.00  0.00     0.031 A 
BRANCH  50  64
ATOM     64  C   UNL A   1      36.702  30.713  29.151  1.00  0.00    -0.014 A 
ATOM     65  C   UNL A   1      36.429  32.031  28.753  1.00  0.00     0.009 A 
ATOM     66  C   UNL A   1      35.890  29.674  28.669  1.00  0.00     0.009 A 
ATOM     67  C   UNL A   1      35.352  32.304  27.906  1.00  0.00     0.001 A 
ATOM     68  C   UNL A   1      34.833  29.947  27.799  1.00  0.00     0.001 A 
ATOM     69  C   UNL A   1      34.561  31.261  27.424  1.00  0.00     0.000 A 
ENDBRANCH  50  64
BRANCH  51  70
ATOM     70  C   UNL A   1      44.572  28.201  34.743  1.00  0.00    -0.014 A 
ATOM     71  C   UNL A   1      44.506  27.098  35.607  1.00  0.00     0.009 A 
ATOM     72  C   UNL A   1      45.750  28.965  34.711  1.00  0.00     0.009 A 
ATOM     73  C   UNL A   1      45.586  26.777  36.432  1.00  0.00     0.001 A 
ATOM     74  C   UNL A   1      46.840  28.623  35.515  1.00  0.00     0.001 A 
ATOM     75  C   UNL A   1      46.755  27.535  36.381  1.00  0.00     0.000 A 
ENDBRANCH  51  70
BRANCH  63  76
ATOM     76  C   UNL A   1      38.906  32.101  35.876  1.00  0.00    -0.014 A 
ATOM     77  C   UNL A   1      39.217  33.459  36.042  1.00  0.00     0.009 A 
ATOM     78  C   UNL A   1      38.089  31.471  36.829  1.00  0.00     0.009 A 
ATOM     79  C   UNL A   1      38.750  34.160  37.157  1.00  0.00     0.001 A 
ATOM     80  C   UNL A   1      37.595  32.182  37.923  1.00  0.00     0.001 A 
ATOM     81  C   UNL A   1      37.936  33.524  38.092  1.00  0.00     0.000 A 
ENDBRANCH  63  76
ENDBRANCH  37  38
ENDBRANCH  30  32
ENDBRANCH  29  30
ENDBRANCH  28  29
ENDBRANCH  27  28
ENDBRANCH  26  27
ENDBRANCH   1  26
TORSDOF 18
ENDMDL
