MODEL 1
REMARK VINA RESULT:     -10.8      0.000      0.000
REMARK SMILES CCNC(=O)c1cccc(-c2ccc(Cl)c(C(=O)OCCOCCOCCOC(=O)c3ccc(-c4c5nc(c(-c6ccccc6)c6ccc([nH]6)c(-c6ccccc6)c6nc(c(-c7ccccc7)c7ccc4[nH]7)C=C6)C=C5)cc3)c2)c1
REMARK SMILES IDX 23 1 22 2 21 3 20 4 19 5 17 6 18 7 16 8 11 9 12 10 79 11
REMARK SMILES IDX 13 12 14 13 15 14 10 15 6 16 7 17 80 18 8 19 9 20 4 21 3 22
REMARK SMILES IDX 5 24 2 25 1 26 24 27 25 28 26 29 27 30 28 31 29 32 30 33
REMARK SMILES IDX 31 34 32 35 78 36 33 37 77 38 34 39 35 40 36 41 71 42 37 43
REMARK SMILES IDX 76 44 70 45 72 46 38 47 75 48 69 49 68 50 39 52 61 53 46 54
REMARK SMILES IDX 60 55 47 56 50 57 59 58 73 59 48 60 49 61 58 63 74 64 51 65
REMARK SMILES IDX 40 66 41 67 45 68 42 69 44 70 43 71 62 72 63 73 67 74 64 75
REMARK SMILES IDX 66 76 65 77 52 78 53 79 57 80 54 81 56 82 55 83
REMARK H PARENT 3 23 72 51 50 62
REMARK Flexibility Score: inf
ROOT
ATOM      1  C   UNL A   1      46.084  18.743  25.432  1.00  0.00     0.188 C 
ENDROOT
BRANCH   1   2
ATOM      2  O   UNL A   1      44.812  18.170  25.194  1.00  0.00    -0.376 OA
BRANCH   2   3
ATOM      3  C   UNL A   1      43.666  18.995  25.038  1.00  0.00     0.202 C 
BRANCH   3   4
ATOM      4  C   UNL A   1      42.534  18.956  26.065  1.00  0.00     0.261 C 
BRANCH   4   5
ATOM      5  O   UNL A   1      41.753  20.155  26.065  1.00  0.00    -0.460 OA
BRANCH   5   6
ATOM      6  C   UNL A   1      41.003  20.372  27.179  1.00  0.00     0.339 C 
ATOM      7  O   UNL A   1      40.994  19.721  28.196  1.00  0.00    -0.246 OA
BRANCH   6   8
ATOM      8  C   UNL A   1      40.226  21.613  26.962  1.00  0.00     0.079 A 
ATOM      9  C   UNL A   1      38.291  22.676  25.899  1.00  0.00    -0.017 A 
ATOM     10  C   UNL A   1      38.672  23.886  26.496  1.00  0.00     0.010 A 
ATOM     11  C   UNL A   1      39.103  21.551  26.124  1.00  0.00     0.026 A 
ATOM     12  C   UNL A   1      39.810  23.961  27.310  1.00  0.00     0.022 A 
ATOM     13  C   UNL A   1      40.584  22.824  27.554  1.00  0.00     0.055 A 
ATOM     14  Cl  UNL A   1      41.992  23.016  28.534  1.00  0.00    -0.083 Cl
BRANCH   9  15
ATOM     15  C   UNL A   1      37.023  22.536  25.162  1.00  0.00    -0.018 A 
ATOM     16  C   UNL A   1      34.742  21.658  25.133  1.00  0.00     0.040 A 
ATOM     17  C   UNL A   1      34.484  22.326  23.937  1.00  0.00     0.014 A 
ATOM     18  C   UNL A   1      36.015  21.720  25.699  1.00  0.00     0.022 A 
ATOM     19  C   UNL A   1      35.485  23.106  23.357  1.00  0.00     0.001 A 
ATOM     20  C   UNL A   1      36.739  23.224  23.974  1.00  0.00     0.009 A 
BRANCH  16  21
ATOM     21  C   UNL A   1      33.682  20.856  25.783  1.00  0.00     0.251 C 
ATOM     22  N   UNL A   1      32.912  21.403  26.782  1.00  0.00    -0.352 N 
ATOM     23  H   UNL A   1      32.347  20.761  27.268  1.00  0.00     0.163 HD
ATOM     24  O   UNL A   1      33.499  19.696  25.428  1.00  0.00    -0.269 OA
BRANCH  22  25
ATOM     25  C   UNL A   1      32.802  22.784  27.234  1.00  0.00     0.112 C 
ATOM     26  C   UNL A   1      31.715  23.523  26.478  1.00  0.00     0.027 C 
ENDBRANCH  22  25
ENDBRANCH  16  21
ENDBRANCH   9  15
ENDBRANCH   6   8
ENDBRANCH   5   6
ENDBRANCH   4   5
ENDBRANCH   3   4
ENDBRANCH   2   3
ENDBRANCH   1   2
BRANCH   1  27
ATOM     27  C   UNL A   1      46.462  20.127  24.859  1.00  0.00     0.188 C 
BRANCH  27  28
ATOM     28  O   UNL A   1      46.232  21.316  25.588  1.00  0.00    -0.376 OA
BRANCH  28  29
ATOM     29  C   UNL A   1      45.301  22.268  25.102  1.00  0.00     0.202 C 
BRANCH  29  30
ATOM     30  C   UNL A   1      45.782  23.615  24.556  1.00  0.00     0.261 C 
BRANCH  30  31
ATOM     31  O   UNL A   1      44.829  24.678  24.692  1.00  0.00    -0.460 OA
BRANCH  31  32
ATOM     32  C   UNL A   1      45.351  25.872  25.059  1.00  0.00     0.338 C 
ATOM     33  O   UNL A   1      46.298  26.458  24.562  1.00  0.00    -0.246 OA
BRANCH  32  34
ATOM     34  C   UNL A   1      44.487  26.489  26.080  1.00  0.00     0.060 A 
ATOM     35  C   UNL A   1      44.659  27.852  26.360  1.00  0.00     0.016 A 
ATOM     36  C   UNL A   1      43.559  25.727  26.790  1.00  0.00     0.016 A 
ATOM     37  C   UNL A   1      43.915  28.454  27.374  1.00  0.00     0.010 A 
ATOM     38  C   UNL A   1      42.832  26.326  27.821  1.00  0.00     0.010 A 
ATOM     39  C   UNL A   1      43.026  27.684  28.134  1.00  0.00    -0.014 A 
BRANCH  39  40
ATOM     40  C   UNL A   1      42.412  28.252  29.356  1.00  0.00     0.031 A 
ATOM     41  C   UNL A   1      41.036  28.848  29.264  1.00  0.00     0.074 A 
ATOM     42  C   UNL A   1      43.068  28.245  30.529  1.00  0.00     0.049 A 
ATOM     43  N   UNL A   1      40.334  29.463  30.183  1.00  0.00    -0.248 NA
ATOM     44  C   UNL A   1      40.358  28.735  27.962  1.00  0.00     0.031 C 
ATOM     45  C   UNL A   1      44.383  27.652  30.762  1.00  0.00     0.029 A 
ATOM     46  N   UNL A   1      42.710  28.769  31.746  1.00  0.00    -0.354 N 
ATOM     47  C   UNL A   1      39.140  29.816  29.569  1.00  0.00     0.074 A 
ATOM     48  C   UNL A   1      39.218  29.366  28.196  1.00  0.00     0.031 C 
ATOM     49  C   UNL A   1      44.732  27.863  32.044  1.00  0.00     0.029 A 
ATOM     50  C   UNL A   1      43.681  28.634  32.707  1.00  0.00     0.049 A 
ATOM     51  H   UNL A   1      41.841  29.201  31.913  1.00  0.00     0.167 HD
ATOM     52  C   UNL A   1      38.072  30.456  30.100  1.00  0.00     0.031 A 
ATOM     53  C   UNL A   1      43.727  29.106  33.967  1.00  0.00     0.031 A 
ATOM     54  C   UNL A   1      38.001  30.927  31.457  1.00  0.00     0.049 A 
ATOM     55  C   UNL A   1      42.568  29.904  34.505  1.00  0.00     0.074 A 
ATOM     56  C   UNL A   1      36.956  31.577  32.090  1.00  0.00     0.029 A 
ATOM     57  N   UNL A   1      39.022  30.809  32.386  1.00  0.00    -0.354 N 
ATOM     58  N   UNL A   1      41.432  30.209  33.925  1.00  0.00    -0.248 NA
ATOM     59  C   UNL A   1      42.701  30.422  35.875  1.00  0.00     0.031 C 
ATOM     60  C   UNL A   1      37.367  31.903  33.387  1.00  0.00     0.029 A 
ATOM     61  C   UNL A   1      38.645  31.402  33.579  1.00  0.00     0.049 A 
ATOM     62  H   UNL A   1      39.887  30.369  32.222  1.00  0.00     0.167 HD
ATOM     63  C   UNL A   1      40.706  30.927  34.869  1.00  0.00     0.074 A 
ATOM     64  C   UNL A   1      41.523  31.003  36.061  1.00  0.00     0.031 C 
ATOM     65  C   UNL A   1      39.469  31.471  34.757  1.00  0.00     0.031 A 
BRANCH  52  66
ATOM     66  C   UNL A   1      36.906  30.720  29.192  1.00  0.00    -0.014 A 
ATOM     67  C   UNL A   1      36.005  29.700  28.848  1.00  0.00     0.009 A 
ATOM     68  C   UNL A   1      36.693  32.014  28.692  1.00  0.00     0.009 A 
ATOM     69  C   UNL A   1      34.931  29.966  27.997  1.00  0.00     0.001 A 
ATOM     70  C   UNL A   1      35.604  32.282  27.863  1.00  0.00     0.001 A 
ATOM     71  C   UNL A   1      34.729  31.256  27.508  1.00  0.00     0.000 A 
ENDBRANCH  52  66
BRANCH  53  72
ATOM     72  C   UNL A   1      44.928  28.867  34.810  1.00  0.00    -0.014 A 
ATOM     73  C   UNL A   1      46.007  29.763  34.788  1.00  0.00     0.009 A 
ATOM     74  C   UNL A   1      45.012  27.724  35.619  1.00  0.00     0.009 A 
ATOM     75  C   UNL A   1      47.156  29.505  35.539  1.00  0.00     0.001 A 
ATOM     76  C   UNL A   1      46.150  27.482  36.391  1.00  0.00     0.001 A 
ATOM     77  C   UNL A   1      47.225  28.369  36.344  1.00  0.00     0.000 A 
ENDBRANCH  53  72
BRANCH  65  78
ATOM     78  C   UNL A   1      38.906  32.166  35.966  1.00  0.00    -0.014 A 
ATOM     79  C   UNL A   1      39.090  33.541  36.169  1.00  0.00     0.009 A 
ATOM     80  C   UNL A   1      38.134  31.439  36.886  1.00  0.00     0.009 A 
ATOM     81  C   UNL A   1      38.535  34.169  37.286  1.00  0.00     0.001 A 
ATOM     82  C   UNL A   1      37.558  32.074  37.987  1.00  0.00     0.001 A 
ATOM     83  C   UNL A   1      37.766  33.437  38.191  1.00  0.00     0.000 A 
ENDBRANCH  65  78
ENDBRANCH  39  40
ENDBRANCH  32  34
ENDBRANCH  31  32
ENDBRANCH  30  31
ENDBRANCH  29  30
ENDBRANCH  28  29
ENDBRANCH  27  28
ENDBRANCH   1  27
TORSDOF 20
ENDMDL
MODEL 2
REMARK VINA RESULT:     -10.0      4.791     10.454
REMARK SMILES CCNC(=O)c1cccc(-c2ccc(Cl)c(C(=O)OCCOCCOCCOC(=O)c3ccc(-c4c5nc(c(-c6ccccc6)c6ccc([nH]6)c(-c6ccccc6)c6nc(c(-c7ccccc7)c7ccc4[nH]7)C=C6)C=C5)cc3)c2)c1
REMARK SMILES IDX 23 1 22 2 21 3 20 4 19 5 17 6 18 7 16 8 11 9 12 10 79 11
REMARK SMILES IDX 13 12 14 13 15 14 10 15 6 16 7 17 80 18 8 19 9 20 4 21 3 22
REMARK SMILES IDX 5 24 2 25 1 26 24 27 25 28 26 29 27 30 28 31 29 32 30 33
REMARK SMILES IDX 31 34 32 35 78 36 33 37 77 38 34 39 35 40 36 41 71 42 37 43
REMARK SMILES IDX 76 44 70 45 72 46 38 47 75 48 69 49 68 50 39 52 61 53 46 54
REMARK SMILES IDX 60 55 47 56 50 57 59 58 73 59 48 60 49 61 58 63 74 64 51 65
REMARK SMILES IDX 40 66 41 67 45 68 42 69 44 70 43 71 62 72 63 73 67 74 64 75
REMARK SMILES IDX 66 76 65 77 52 78 53 79 57 80 54 81 56 82 55 83
REMARK H PARENT 3 23 72 51 50 62
REMARK Flexibility Score: inf
ROOT
ATOM      1  C   UNL A   1      35.508  31.859  28.254  1.00  0.00     0.188 C 
ENDROOT
BRANCH   1   2
ATOM      2  O   UNL A   1      35.172  30.884  27.285  1.00  0.00    -0.376 OA
BRANCH   2   3
ATOM      3  C   UNL A   1      33.913  30.228  27.327  1.00  0.00     0.202 C 
BRANCH   3   4
ATOM      4  C   UNL A   1      33.132  29.961  26.039  1.00  0.00     0.261 C 
BRANCH   4   5
ATOM      5  O   UNL A   1      33.467  28.702  25.447  1.00  0.00    -0.460 OA
BRANCH   5   6
ATOM      6  C   UNL A   1      33.205  28.585  24.117  1.00  0.00     0.339 C 
ATOM      7  O   UNL A   1      33.707  29.209  23.212  1.00  0.00    -0.246 OA
BRANCH   6   8
ATOM      8  C   UNL A   1      32.224  27.490  23.947  1.00  0.00     0.079 A 
ATOM      9  C   UNL A   1      31.830  25.076  23.805  1.00  0.00    -0.017 A 
ATOM     10  C   UNL A   1      30.462  25.344  23.652  1.00  0.00     0.010 A 
ATOM     11  C   UNL A   1      32.702  26.173  23.924  1.00  0.00     0.026 A 
ATOM     12  C   UNL A   1      29.982  26.659  23.643  1.00  0.00     0.022 A 
ATOM     13  C   UNL A   1      30.858  27.736  23.801  1.00  0.00     0.055 A 
ATOM     14  Cl  UNL A   1      30.186  29.325  23.736  1.00  0.00    -0.083 Cl
BRANCH   9  15
ATOM     15  C   UNL A   1      32.342  23.704  23.965  1.00  0.00    -0.018 A 
ATOM     16  C   UNL A   1      33.566  22.110  25.356  1.00  0.00     0.040 A 
ATOM     17  C   UNL A   1      33.244  21.075  24.480  1.00  0.00     0.014 A 
ATOM     18  C   UNL A   1      33.167  23.413  25.063  1.00  0.00     0.022 A 
ATOM     19  C   UNL A   1      32.464  21.346  23.355  1.00  0.00     0.001 A 
ATOM     20  C   UNL A   1      32.002  22.647  23.109  1.00  0.00     0.009 A 
BRANCH  16  21
ATOM     21  C   UNL A   1      34.360  21.836  26.574  1.00  0.00     0.251 C 
ATOM     22  N   UNL A   1      35.734  21.848  26.525  1.00  0.00    -0.352 N 
ATOM     23  H   UNL A   1      36.181  21.500  27.329  1.00  0.00     0.163 HD
ATOM     24  O   UNL A   1      33.783  21.592  27.629  1.00  0.00    -0.269 OA
BRANCH  22  25
ATOM     25  C   UNL A   1      36.632  22.295  25.468  1.00  0.00     0.112 C 
ATOM     26  C   UNL A   1      37.303  23.604  25.836  1.00  0.00     0.027 C 
ENDBRANCH  22  25
ENDBRANCH  16  21
ENDBRANCH   9  15
ENDBRANCH   6   8
ENDBRANCH   5   6
ENDBRANCH   4   5
ENDBRANCH   3   4
ENDBRANCH   2   3
ENDBRANCH   1   2
BRANCH   1  27
ATOM     27  C   UNL A   1      35.079  33.334  28.092  1.00  0.00     0.188 C 
BRANCH  27  28
ATOM     28  O   UNL A   1      34.187  33.948  29.000  1.00  0.00    -0.376 OA
BRANCH  28  29
ATOM     29  C   UNL A   1      33.925  35.338  28.896  1.00  0.00     0.202 C 
BRANCH  29  30
ATOM     30  C   UNL A   1      32.840  35.989  29.759  1.00  0.00     0.261 C 
BRANCH  30  31
ATOM     31  O   UNL A   1      32.504  35.247  30.939  1.00  0.00    -0.460 OA
BRANCH  31  32
ATOM     32  C   UNL A   1      32.897  35.815  32.104  1.00  0.00     0.338 C 
ATOM     33  O   UNL A   1      32.341  36.703  32.727  1.00  0.00    -0.246 OA
BRANCH  32  34
ATOM     34  C   UNL A   1      34.052  35.075  32.642  1.00  0.00     0.060 A 
ATOM     35  C   UNL A   1      35.330  35.627  32.475  1.00  0.00     0.016 A 
ATOM     36  C   UNL A   1      33.886  33.833  33.254  1.00  0.00     0.016 A 
ATOM     37  C   UNL A   1      36.454  34.921  32.901  1.00  0.00     0.010 A 
ATOM     38  C   UNL A   1      35.015  33.116  33.658  1.00  0.00     0.010 A 
ATOM     39  C   UNL A   1      36.304  33.645  33.460  1.00  0.00    -0.014 A 
BRANCH  39  40
ATOM     40  C   UNL A   1      37.493  32.794  33.695  1.00  0.00     0.031 A 
ATOM     41  C   UNL A   1      38.304  33.014  34.940  1.00  0.00     0.074 A 
ATOM     42  C   UNL A   1      37.850  31.845  32.813  1.00  0.00     0.049 A 
ATOM     43  N   UNL A   1      39.418  32.439  35.316  1.00  0.00    -0.248 NA
ATOM     44  C   UNL A   1      37.790  34.015  35.890  1.00  0.00     0.031 C 
ATOM     45  C   UNL A   1      37.121  31.498  31.596  1.00  0.00     0.029 A 
ATOM     46  N   UNL A   1      38.936  31.005  32.810  1.00  0.00    -0.354 N 
ATOM     47  C   UNL A   1      39.742  33.012  36.539  1.00  0.00     0.074 A 
ATOM     48  C   UNL A   1      38.719  33.993  36.832  1.00  0.00     0.031 C 
ATOM     49  C   UNL A   1      37.792  30.527  30.950  1.00  0.00     0.029 A 
ATOM     50  C   UNL A   1      39.011  30.212  31.692  1.00  0.00     0.049 A 
ATOM     51  H   UNL A   1      39.597  30.975  33.539  1.00  0.00     0.167 HD
ATOM     52  C   UNL A   1      40.795  32.746  37.347  1.00  0.00     0.031 A 
ATOM     53  C   UNL A   1      39.971  29.353  31.300  1.00  0.00     0.031 A 
ATOM     54  C   UNL A   1      41.826  31.790  37.047  1.00  0.00     0.049 A 
ATOM     55  C   UNL A   1      41.185  29.147  32.168  1.00  0.00     0.074 A 
ATOM     56  C   UNL A   1      42.928  31.443  37.809  1.00  0.00     0.029 A 
ATOM     57  N   UNL A   1      41.889  31.038  35.884  1.00  0.00    -0.354 N 
ATOM     58  N   UNL A   1      41.468  29.675  33.335  1.00  0.00    -0.248 NA
ATOM     59  C   UNL A   1      42.213  28.225  31.661  1.00  0.00     0.031 C 
ATOM     60  C   UNL A   1      43.688  30.521  37.081  1.00  0.00     0.029 A 
ATOM     61  C   UNL A   1      43.028  30.251  35.893  1.00  0.00     0.049 A 
ATOM     62  H   UNL A   1      41.223  31.062  35.160  1.00  0.00     0.167 HD
ATOM     63  C   UNL A   1      42.688  29.126  33.713  1.00  0.00     0.074 A 
ATOM     64  C   UNL A   1      43.087  28.218  32.658  1.00  0.00     0.031 C 
ATOM     65  C   UNL A   1      43.412  29.352  34.837  1.00  0.00     0.031 A 
BRANCH  52  66
ATOM     66  C   UNL A   1      40.902  33.535  38.620  1.00  0.00    -0.014 A 
ATOM     67  C   UNL A   1      41.592  34.756  38.664  1.00  0.00     0.009 A 
ATOM     68  C   UNL A   1      40.282  33.060  39.786  1.00  0.00     0.009 A 
ATOM     69  C   UNL A   1      41.685  35.471  39.860  1.00  0.00     0.001 A 
ATOM     70  C   UNL A   1      40.355  33.789  40.973  1.00  0.00     0.001 A 
ATOM     71  C   UNL A   1      41.063  34.989  41.012  1.00  0.00     0.000 A 
ENDBRANCH  52  66
BRANCH  53  72
ATOM     72  C   UNL A   1      39.847  28.637  30.003  1.00  0.00    -0.014 A 
ATOM     73  C   UNL A   1      39.399  27.308  29.961  1.00  0.00     0.009 A 
ATOM     74  C   UNL A   1      40.203  29.272  28.804  1.00  0.00     0.009 A 
ATOM     75  C   UNL A   1      39.336  26.622  28.746  1.00  0.00     0.001 A 
ATOM     76  C   UNL A   1      40.113  28.593  27.588  1.00  0.00     0.001 A 
ATOM     77  C   UNL A   1      39.688  27.265  27.560  1.00  0.00     0.000 A 
ENDBRANCH  53  72
BRANCH  65  78
ATOM     78  C   UNL A   1      44.691  28.580  35.005  1.00  0.00    -0.014 A 
ATOM     79  C   UNL A   1      45.919  29.099  34.571  1.00  0.00     0.009 A 
ATOM     80  C   UNL A   1      44.669  27.336  35.656  1.00  0.00     0.009 A 
ATOM     81  C   UNL A   1      47.098  28.374  34.762  1.00  0.00     0.001 A 
ATOM     82  C   UNL A   1      45.851  26.626  35.869  1.00  0.00     0.001 A 
ATOM     83  C   UNL A   1      47.064  27.142  35.415  1.00  0.00     0.000 A 
ENDBRANCH  65  78
ENDBRANCH  39  40
ENDBRANCH  32  34
ENDBRANCH  31  32
ENDBRANCH  30  31
ENDBRANCH  29  30
ENDBRANCH  28  29
ENDBRANCH  27  28
ENDBRANCH   1  27
TORSDOF 20
ENDMDL
MODEL 3
REMARK VINA RESULT:      -9.9      4.868     10.752
REMARK SMILES CCNC(=O)c1cccc(-c2ccc(Cl)c(C(=O)OCCOCCOCCOC(=O)c3ccc(-c4c5nc(c(-c6ccccc6)c6ccc([nH]6)c(-c6ccccc6)c6nc(c(-c7ccccc7)c7ccc4[nH]7)C=C6)C=C5)cc3)c2)c1
REMARK SMILES IDX 23 1 22 2 21 3 20 4 19 5 17 6 18 7 16 8 11 9 12 10 79 11
REMARK SMILES IDX 13 12 14 13 15 14 10 15 6 16 7 17 80 18 8 19 9 20 4 21 3 22
REMARK SMILES IDX 5 24 2 25 1 26 24 27 25 28 26 29 27 30 28 31 29 32 30 33
REMARK SMILES IDX 31 34 32 35 78 36 33 37 77 38 34 39 35 40 36 41 71 42 37 43
REMARK SMILES IDX 76 44 70 45 72 46 38 47 75 48 69 49 68 50 39 52 61 53 46 54
REMARK SMILES IDX 60 55 47 56 50 57 59 58 73 59 48 60 49 61 58 63 74 64 51 65
REMARK SMILES IDX 40 66 41 67 45 68 42 69 44 70 43 71 62 72 63 73 67 74 64 75
REMARK SMILES IDX 66 76 65 77 52 78 53 79 57 80 54 81 56 82 55 83
REMARK H PARENT 3 23 72 51 50 62
REMARK Flexibility Score: inf
ROOT
ATOM      1  C   UNL A   1      34.129  32.392  28.001  1.00  0.00     0.188 C 
ENDROOT
BRANCH   1   2
ATOM      2  O   UNL A   1      33.263  31.373  27.537  1.00  0.00    -0.376 OA
BRANCH   2   3
ATOM      3  C   UNL A   1      33.787  30.163  27.011  1.00  0.00     0.202 C 
BRANCH   3   4
ATOM      4  C   UNL A   1      32.877  29.176  26.279  1.00  0.00     0.261 C 
BRANCH   4   5
ATOM      5  O   UNL A   1      33.614  28.175  25.569  1.00  0.00    -0.460 OA
BRANCH   5   6
ATOM      6  C   UNL A   1      33.437  28.155  24.220  1.00  0.00     0.339 C 
ATOM      7  O   UNL A   1      34.013  28.821  23.394  1.00  0.00    -0.246 OA
BRANCH   6   8
ATOM      8  C   UNL A   1      32.441  27.104  23.914  1.00  0.00     0.079 A 
ATOM      9  C   UNL A   1      32.003  24.723  23.537  1.00  0.00    -0.017 A 
ATOM     10  C   UNL A   1      30.647  25.037  23.359  1.00  0.00     0.010 A 
ATOM     11  C   UNL A   1      32.891  25.783  23.788  1.00  0.00     0.026 A 
ATOM     12  C   UNL A   1      30.195  26.359  23.453  1.00  0.00     0.022 A 
ATOM     13  C   UNL A   1      31.087  27.395  23.741  1.00  0.00     0.055 A 
ATOM     14  Cl  UNL A   1      30.451  28.999  23.798  1.00  0.00    -0.083 Cl
BRANCH   9  15
ATOM     15  C   UNL A   1      32.479  23.330  23.590  1.00  0.00    -0.018 A 
ATOM     16  C   UNL A   1      34.093  21.737  24.500  1.00  0.00     0.040 A 
ATOM     17  C   UNL A   1      33.403  20.678  23.912  1.00  0.00     0.014 A 
ATOM     18  C   UNL A   1      33.664  23.046  24.287  1.00  0.00     0.022 A 
ATOM     19  C   UNL A   1      32.248  20.939  23.172  1.00  0.00     0.001 A 
ATOM     20  C   UNL A   1      31.781  22.252  23.027  1.00  0.00     0.009 A 
BRANCH  16  21
ATOM     21  C   UNL A   1      35.298  21.478  25.319  1.00  0.00     0.251 C 
ATOM     22  N   UNL A   1      35.213  21.449  26.691  1.00  0.00    -0.352 N 
ATOM     23  H   UNL A   1      36.077  21.434  27.160  1.00  0.00     0.163 HD
ATOM     24  O   UNL A   1      36.378  21.296  24.765  1.00  0.00    -0.269 OA
BRANCH  22  25
ATOM     25  C   UNL A   1      34.042  21.437  27.559  1.00  0.00     0.112 C 
ATOM     26  C   UNL A   1      33.507  22.839  27.777  1.00  0.00     0.027 C 
ENDBRANCH  22  25
ENDBRANCH  16  21
ENDBRANCH   9  15
ENDBRANCH   6   8
ENDBRANCH   5   6
ENDBRANCH   4   5
ENDBRANCH   3   4
ENDBRANCH   2   3
ENDBRANCH   1   2
BRANCH   1  27
ATOM     27  C   UNL A   1      33.615  33.823  28.271  1.00  0.00     0.188 C 
BRANCH  27  28
ATOM     28  O   UNL A   1      34.259  34.678  29.194  1.00  0.00    -0.376 OA
BRANCH  28  29
ATOM     29  C   UNL A   1      33.733  34.823  30.503  1.00  0.00     0.202 C 
BRANCH  29  30
ATOM     30  C   UNL A   1      34.495  34.270  31.710  1.00  0.00     0.261 C 
BRANCH  30  31
ATOM     31  O   UNL A   1      34.804  32.872  31.619  1.00  0.00    -0.460 OA
BRANCH  31  32
ATOM     32  C   UNL A   1      35.705  32.424  32.526  1.00  0.00     0.338 C 
ATOM     33  O   UNL A   1      35.642  32.498  33.741  1.00  0.00    -0.246 OA
BRANCH  32  34
ATOM     34  C   UNL A   1      36.749  31.648  31.834  1.00  0.00     0.060 A 
ATOM     35  C   UNL A   1      37.725  31.009  32.610  1.00  0.00     0.016 A 
ATOM     36  C   UNL A   1      36.798  31.597  30.441  1.00  0.00     0.016 A 
ATOM     37  C   UNL A   1      38.773  30.330  31.990  1.00  0.00     0.010 A 
ATOM     38  C   UNL A   1      37.862  30.936  29.822  1.00  0.00     0.010 A 
ATOM     39  C   UNL A   1      38.867  30.324  30.593  1.00  0.00    -0.014 A 
BRANCH  39  40
ATOM     40  C   UNL A   1      40.092  29.815  29.935  1.00  0.00     0.031 A 
ATOM     41  C   UNL A   1      41.258  30.746  29.758  1.00  0.00     0.074 A 
ATOM     42  C   UNL A   1      40.167  28.548  29.495  1.00  0.00     0.049 A 
ATOM     43  N   UNL A   1      42.399  30.542  29.150  1.00  0.00    -0.248 NA
ATOM     44  C   UNL A   1      41.119  32.089  30.346  1.00  0.00     0.031 C 
ATOM     45  C   UNL A   1      39.129  27.531  29.651  1.00  0.00     0.029 A 
ATOM     46  N   UNL A   1      41.170  27.906  28.811  1.00  0.00    -0.354 N 
ATOM     47  C   UNL A   1      43.110  31.728  29.275  1.00  0.00     0.074 A 
ATOM     48  C   UNL A   1      42.265  32.654  29.998  1.00  0.00     0.031 C 
ATOM     49  C   UNL A   1      39.542  26.395  29.061  1.00  0.00     0.029 A 
ATOM     50  C   UNL A   1      40.855  26.617  28.459  1.00  0.00     0.049 A 
ATOM     51  H   UNL A   1      42.032  28.330  28.595  1.00  0.00     0.167 HD
ATOM     52  C   UNL A   1      44.353  32.022  28.830  1.00  0.00     0.031 A 
ATOM     53  C   UNL A   1      41.537  25.731  27.709  1.00  0.00     0.031 A 
ATOM     54  C   UNL A   1      45.185  31.112  28.089  1.00  0.00     0.049 A 
ATOM     55  C   UNL A   1      42.877  26.115  27.138  1.00  0.00     0.074 A 
ATOM     56  C   UNL A   1      46.465  31.315  27.604  1.00  0.00     0.029 A 
ATOM     57  N   UNL A   1      44.812  29.831  27.715  1.00  0.00    -0.354 N 
ATOM     58  N   UNL A   1      43.552  27.230  27.286  1.00  0.00    -0.248 NA
ATOM     59  C   UNL A   1      43.550  25.114  26.296  1.00  0.00     0.031 C 
ATOM     60  C   UNL A   1      46.846  30.175  26.887  1.00  0.00     0.029 A 
ATOM     61  C   UNL A   1      45.825  29.242  26.977  1.00  0.00     0.049 A 
ATOM     62  H   UNL A   1      43.954  29.404  27.939  1.00  0.00     0.167 HD
ATOM     63  C   UNL A   1      44.737  27.052  26.582  1.00  0.00     0.074 A 
ATOM     64  C   UNL A   1      44.696  25.720  26.016  1.00  0.00     0.031 C 
ATOM     65  C   UNL A   1      45.771  27.915  26.421  1.00  0.00     0.031 A 
BRANCH  52  66
ATOM     66  C   UNL A   1      44.873  33.404  29.101  1.00  0.00    -0.014 A 
ATOM     67  C   UNL A   1      44.875  34.390  28.103  1.00  0.00     0.009 A 
ATOM     68  C   UNL A   1      45.345  33.729  30.382  1.00  0.00     0.009 A 
ATOM     69  C   UNL A   1      45.369  35.667  28.374  1.00  0.00     0.001 A 
ATOM     70  C   UNL A   1      45.814  35.015  30.657  1.00  0.00     0.001 A 
ATOM     71  C   UNL A   1      45.834  35.980  29.652  1.00  0.00     0.000 A 
ENDBRANCH  52  66
BRANCH  53  72
ATOM     72  C   UNL A   1      40.955  24.394  27.421  1.00  0.00    -0.014 A 
ATOM     73  C   UNL A   1      39.890  24.257  26.519  1.00  0.00     0.009 A 
ATOM     74  C   UNL A   1      41.446  23.251  28.071  1.00  0.00     0.009 A 
ATOM     75  C   UNL A   1      39.311  23.006  26.294  1.00  0.00     0.001 A 
ATOM     76  C   UNL A   1      40.883  21.997  27.823  1.00  0.00     0.001 A 
ATOM     77  C   UNL A   1      39.810  21.877  26.941  1.00  0.00     0.000 A 
ENDBRANCH  53  72
BRANCH  65  78
ATOM     78  C   UNL A   1      46.958  27.437  25.634  1.00  0.00    -0.014 A 
ATOM     79  C   UNL A   1      47.067  27.679  24.257  1.00  0.00     0.009 A 
ATOM     80  C   UNL A   1      48.008  26.779  26.295  1.00  0.00     0.009 A 
ATOM     81  C   UNL A   1      48.193  27.246  23.552  1.00  0.00     0.001 A 
ATOM     82  C   UNL A   1      49.143  26.372  25.593  1.00  0.00     0.001 A 
ATOM     83  C   UNL A   1      49.232  26.599  24.221  1.00  0.00     0.000 A 
ENDBRANCH  65  78
ENDBRANCH  39  40
ENDBRANCH  32  34
ENDBRANCH  31  32
ENDBRANCH  30  31
ENDBRANCH  29  30
ENDBRANCH  28  29
ENDBRANCH  27  28
ENDBRANCH   1  27
TORSDOF 20
ENDMDL
