MODEL 1
REMARK VINA RESULT:     -10.1      0.000      0.000
REMARK SMILES O=C(OCCOCCOCCOC(=O)c1ccccc1Nc1cccc(C(F)(F)F)c1)c1ccc(-c2c3nc(c(-c4ccccc4)c4ccc([nH]4)c(-c4ccccc4)c4nc(c(-c5ccccc5)c5ccc2[nH]5)C=C4)C=C3)cc1
REMARK SMILES IDX 8 1 7 2 6 3 5 4 4 5 3 6 2 7 1 8 32 9 33 10 79 11 34 12 78 13
REMARK SMILES IDX 35 14 36 15 37 16 72 17 38 18 77 19 71 20 73 21 39 22 76 23
REMARK SMILES IDX 70 24 69 25 40 27 62 28 47 29 61 30 48 31 51 32 60 33 74 34
REMARK SMILES IDX 49 35 50 36 59 38 75 39 52 40 41 41 42 42 46 43 43 44 45 45
REMARK SMILES IDX 44 46 63 47 64 48 68 49 65 50 67 51 66 52 53 53 54 54 58 55
REMARK SMILES IDX 55 56 57 57 56 58 9 59 10 60 11 61 12 62 13 63 14 64 15 65
REMARK SMILES IDX 16 66 20 67 17 68 19 69 18 70 21 71 22 73 23 74 31 75 24 76
REMARK SMILES IDX 26 77 25 78 27 79 28 80 29 81 30 82
REMARK H PARENT 73 26 51 37 21 72
REMARK Flexibility Score: inf
ROOT
ATOM      1  C   UNL A   1      35.181  22.889  25.303  1.00  0.00     0.188 C 
ENDROOT
BRANCH   1   2
ATOM      2  C   UNL A   1      35.994  21.714  24.758  1.00  0.00     0.188 C 
BRANCH   2   3
ATOM      3  O   UNL A   1      37.371  22.034  24.518  1.00  0.00    -0.376 OA
BRANCH   3   4
ATOM      4  C   UNL A   1      38.263  21.421  25.458  1.00  0.00     0.202 C 
BRANCH   4   5
ATOM      5  C   UNL A   1      38.761  20.015  25.079  1.00  0.00     0.261 C 
BRANCH   5   6
ATOM      6  O   UNL A   1      39.657  19.443  26.043  1.00  0.00    -0.460 OA
BRANCH   6   7
ATOM      7  C   UNL A   1      40.983  19.671  26.210  1.00  0.00     0.338 C 
ATOM      8  O   UNL A   1      41.761  18.762  25.924  1.00  0.00    -0.246 OA
BRANCH   7   9
ATOM      9  C   UNL A   1      41.571  20.949  26.733  1.00  0.00     0.060 A 
ATOM     10  C   UNL A   1      41.564  21.381  28.062  1.00  0.00     0.016 A 
ATOM     11  C   UNL A   1      42.225  21.765  25.791  1.00  0.00     0.016 A 
ATOM     12  C   UNL A   1      42.086  22.619  28.434  1.00  0.00     0.010 A 
ATOM     13  C   UNL A   1      42.779  22.994  26.156  1.00  0.00     0.010 A 
ATOM     14  C   UNL A   1      42.662  23.446  27.475  1.00  0.00    -0.014 A 
BRANCH  14  15
ATOM     15  C   UNL A   1      42.960  24.852  27.805  1.00  0.00     0.031 A 
ATOM     16  C   UNL A   1      44.394  25.239  27.975  1.00  0.00     0.074 A 
ATOM     17  C   UNL A   1      41.981  25.761  27.923  1.00  0.00     0.049 A 
ATOM     18  N   UNL A   1      44.903  26.377  28.359  1.00  0.00    -0.248 NA
ATOM     19  C   UNL A   1      45.390  24.201  27.658  1.00  0.00     0.031 C 
ATOM     20  C   UNL A   1      40.570  25.503  27.660  1.00  0.00     0.029 A 
ATOM     21  N   UNL A   1      42.020  27.079  28.300  1.00  0.00    -0.354 N 
ATOM     22  C   UNL A   1      46.277  26.183  28.360  1.00  0.00     0.074 A 
ATOM     23  C   UNL A   1      46.522  24.821  27.946  1.00  0.00     0.031 C 
ATOM     24  C   UNL A   1      39.872  26.620  27.919  1.00  0.00     0.029 A 
ATOM     25  C   UNL A   1      40.776  27.651  28.408  1.00  0.00     0.049 A 
ATOM     26  H   UNL A   1      42.857  27.567  28.475  1.00  0.00     0.167 HD
ATOM     27  C   UNL A   1      47.245  27.067  28.692  1.00  0.00     0.031 A 
ATOM     28  C   UNL A   1      40.403  28.856  28.879  1.00  0.00     0.031 A 
ATOM     29  C   UNL A   1      46.974  28.407  29.129  1.00  0.00     0.049 A 
ATOM     30  C   UNL A   1      41.488  29.802  29.312  1.00  0.00     0.074 A 
ATOM     31  C   UNL A   1      47.863  29.385  29.530  1.00  0.00     0.029 A 
ATOM     32  N   UNL A   1      45.700  28.952  29.229  1.00  0.00    -0.354 N 
ATOM     33  N   UNL A   1      42.787  29.614  29.308  1.00  0.00    -0.248 NA
ATOM     34  C   UNL A   1      41.071  31.122  29.798  1.00  0.00     0.031 C 
ATOM     35  C   UNL A   1      47.124  30.507  29.919  1.00  0.00     0.029 A 
ATOM     36  C   UNL A   1      45.776  30.245  29.711  1.00  0.00     0.049 A 
ATOM     37  H   UNL A   1      44.865  28.486  28.992  1.00  0.00     0.167 HD
ATOM     38  C   UNL A   1      43.346  30.800  29.757  1.00  0.00     0.074 A 
ATOM     39  C   UNL A   1      42.242  31.706  30.017  1.00  0.00     0.031 C 
ATOM     40  C   UNL A   1      44.652  31.117  29.940  1.00  0.00     0.031 A 
BRANCH  27  41
ATOM     41  C   UNL A   1      48.654  26.551  28.673  1.00  0.00    -0.014 A 
ATOM     42  C   UNL A   1      49.282  26.082  29.838  1.00  0.00     0.009 A 
ATOM     43  C   UNL A   1      49.390  26.614  27.480  1.00  0.00     0.009 A 
ATOM     44  C   UNL A   1      50.636  25.738  29.818  1.00  0.00     0.001 A 
ATOM     45  C   UNL A   1      50.735  26.244  27.458  1.00  0.00     0.001 A 
ATOM     46  C   UNL A   1      51.362  25.821  28.630  1.00  0.00     0.000 A 
ENDBRANCH  27  41
BRANCH  28  47
ATOM     47  C   UNL A   1      38.956  29.206  28.970  1.00  0.00    -0.014 A 
ATOM     48  C   UNL A   1      38.275  29.764  27.878  1.00  0.00     0.009 A 
ATOM     49  C   UNL A   1      38.225  28.935  30.140  1.00  0.00     0.009 A 
ATOM     50  C   UNL A   1      36.903  30.031  27.951  1.00  0.00     0.001 A 
ATOM     51  C   UNL A   1      36.849  29.174  30.201  1.00  0.00     0.001 A 
ATOM     52  C   UNL A   1      36.189  29.725  29.106  1.00  0.00     0.000 A 
ENDBRANCH  28  47
BRANCH  40  53
ATOM     53  C   UNL A   1      44.954  32.508  30.408  1.00  0.00    -0.014 A 
ATOM     54  C   UNL A   1      44.949  32.831  31.773  1.00  0.00     0.009 A 
ATOM     55  C   UNL A   1      45.320  33.487  29.471  1.00  0.00     0.009 A 
ATOM     56  C   UNL A   1      45.290  34.118  32.189  1.00  0.00     0.001 A 
ATOM     57  C   UNL A   1      45.684  34.764  29.893  1.00  0.00     0.001 A 
ATOM     58  C   UNL A   1      45.664  35.080  31.251  1.00  0.00     0.000 A 
ENDBRANCH  40  53
ENDBRANCH  14  15
ENDBRANCH   7   9
ENDBRANCH   6   7
ENDBRANCH   5   6
ENDBRANCH   4   5
ENDBRANCH   3   4
ENDBRANCH   2   3
ENDBRANCH   1   2
BRANCH   1  59
ATOM     59  O   UNL A   1      35.052  22.982  26.718  1.00  0.00    -0.376 OA
BRANCH  59  60
ATOM     60  C   UNL A   1      34.363  21.929  27.381  1.00  0.00     0.202 C 
BRANCH  60  61
ATOM     61  C   UNL A   1      33.034  22.263  28.073  1.00  0.00     0.261 C 
BRANCH  61  62
ATOM     62  O   UNL A   1      32.325  23.399  27.551  1.00  0.00    -0.460 OA
BRANCH  62  63
ATOM     63  C   UNL A   1      31.101  23.110  27.047  1.00  0.00     0.340 C 
ATOM     64  O   UNL A   1      30.060  22.960  27.674  1.00  0.00    -0.246 OA
BRANCH  63  65
ATOM     65  C   UNL A   1      31.170  22.864  25.602  1.00  0.00     0.083 A 
ATOM     66  C   UNL A   1      31.715  21.653  25.150  1.00  0.00     0.018 A 
ATOM     67  C   UNL A   1      30.891  23.928  24.723  1.00  0.00     0.053 A 
ATOM     68  C   UNL A   1      32.008  21.492  23.797  1.00  0.00     0.001 A 
ATOM     69  C   UNL A   1      31.231  23.750  23.377  1.00  0.00     0.027 A 
ATOM     70  C   UNL A   1      31.788  22.548  22.917  1.00  0.00     0.002 A 
BRANCH  67  71
ATOM     71  N   UNL A   1      30.292  25.114  25.187  1.00  0.00    -0.355 N 
ATOM     72  H   UNL A   1      29.449  24.980  25.678  1.00  0.00     0.167 HD
BRANCH  71  73
ATOM     73  C   UNL A   1      30.687  26.452  25.072  1.00  0.00     0.039 A 
ATOM     74  C   UNL A   1      30.082  27.244  24.091  1.00  0.00     0.026 A 
ATOM     75  C   UNL A   1      31.689  27.007  25.874  1.00  0.00     0.039 A 
ATOM     76  C   UNL A   1      30.459  28.573  23.915  1.00  0.00     0.003 A 
ATOM     77  C   UNL A   1      32.098  28.341  25.691  1.00  0.00     0.058 A 
ATOM     78  C   UNL A   1      31.464  29.119  24.708  1.00  0.00     0.013 A 
BRANCH  77  79
ATOM     79  C   UNL A   1      33.252  28.915  26.471  1.00  0.00     0.416 C 
ATOM     80  F   UNL A   1      34.457  28.557  25.944  1.00  0.00    -0.166 F 
ATOM     81  F   UNL A   1      33.255  30.280  26.489  1.00  0.00    -0.166 F 
ATOM     82  F   UNL A   1      33.285  28.524  27.772  1.00  0.00    -0.166 F 
ENDBRANCH  77  79
ENDBRANCH  71  73
ENDBRANCH  67  71
ENDBRANCH  63  65
ENDBRANCH  62  63
ENDBRANCH  61  62
ENDBRANCH  60  61
ENDBRANCH  59  60
ENDBRANCH   1  59
TORSDOF 20
ENDMDL
MODEL 2
REMARK VINA RESULT:     -10.0      5.731     10.371
REMARK SMILES O=C(OCCOCCOCCOC(=O)c1ccccc1Nc1cccc(C(F)(F)F)c1)c1ccc(-c2c3nc(c(-c4ccccc4)c4ccc([nH]4)c(-c4ccccc4)c4nc(c(-c5ccccc5)c5ccc2[nH]5)C=C4)C=C3)cc1
REMARK SMILES IDX 8 1 7 2 6 3 5 4 4 5 3 6 2 7 1 8 32 9 33 10 79 11 34 12 78 13
REMARK SMILES IDX 35 14 36 15 37 16 72 17 38 18 77 19 71 20 73 21 39 22 76 23
REMARK SMILES IDX 70 24 69 25 40 27 62 28 47 29 61 30 48 31 51 32 60 33 74 34
REMARK SMILES IDX 49 35 50 36 59 38 75 39 52 40 41 41 42 42 46 43 43 44 45 45
REMARK SMILES IDX 44 46 63 47 64 48 68 49 65 50 67 51 66 52 53 53 54 54 58 55
REMARK SMILES IDX 55 56 57 57 56 58 9 59 10 60 11 61 12 62 13 63 14 64 15 65
REMARK SMILES IDX 16 66 20 67 17 68 19 69 18 70 21 71 22 73 23 74 31 75 24 76
REMARK SMILES IDX 26 77 25 78 27 79 28 80 29 81 30 82
REMARK H PARENT 73 26 51 37 21 72
REMARK Flexibility Score: inf
ROOT
ATOM      1  C   UNL A   1      34.959  32.711  28.077  1.00  0.00     0.188 C 
ENDROOT
BRANCH   1   2
ATOM      2  C   UNL A   1      34.890  33.773  29.174  1.00  0.00     0.188 C 
BRANCH   2   3
ATOM      3  O   UNL A   1      34.499  35.067  28.695  1.00  0.00    -0.376 OA
BRANCH   3   4
ATOM      4  C   UNL A   1      33.173  35.438  29.096  1.00  0.00     0.202 C 
BRANCH   4   5
ATOM      5  C   UNL A   1      33.043  36.825  29.749  1.00  0.00     0.261 C 
BRANCH   5   6
ATOM      6  O   UNL A   1      32.566  36.783  31.102  1.00  0.00    -0.460 OA
BRANCH   6   7
ATOM      7  C   UNL A   1      32.579  35.746  31.975  1.00  0.00     0.338 C 
ATOM      8  O   UNL A   1      31.496  35.308  32.362  1.00  0.00    -0.246 OA
BRANCH   7   9
ATOM      9  C   UNL A   1      33.822  35.100  32.515  1.00  0.00     0.060 A 
ATOM     10  C   UNL A   1      35.104  35.655  32.529  1.00  0.00     0.016 A 
ATOM     11  C   UNL A   1      33.660  33.828  33.096  1.00  0.00     0.016 A 
ATOM     12  C   UNL A   1      36.207  34.943  33.001  1.00  0.00     0.010 A 
ATOM     13  C   UNL A   1      34.752  33.118  33.600  1.00  0.00     0.010 A 
ATOM     14  C   UNL A   1      36.039  33.657  33.503  1.00  0.00    -0.014 A 
BRANCH  14  15
ATOM     15  C   UNL A   1      37.220  32.806  33.741  1.00  0.00     0.031 A 
ATOM     16  C   UNL A   1      37.985  33.014  35.008  1.00  0.00     0.074 A 
ATOM     17  C   UNL A   1      37.580  31.856  32.865  1.00  0.00     0.049 A 
ATOM     18  N   UNL A   1      39.103  32.467  35.399  1.00  0.00    -0.248 NA
ATOM     19  C   UNL A   1      37.403  33.965  35.972  1.00  0.00     0.031 C 
ATOM     20  C   UNL A   1      36.830  31.503  31.666  1.00  0.00     0.029 A 
ATOM     21  N   UNL A   1      38.669  31.023  32.842  1.00  0.00    -0.354 N 
ATOM     22  C   UNL A   1      39.374  33.028  36.637  1.00  0.00     0.074 A 
ATOM     23  C   UNL A   1      38.311  33.961  36.932  1.00  0.00     0.031 C 
ATOM     24  C   UNL A   1      37.502  30.548  31.003  1.00  0.00     0.029 A 
ATOM     25  C   UNL A   1      38.744  30.258  31.704  1.00  0.00     0.049 A 
ATOM     26  H   UNL A   1      39.330  30.977  33.569  1.00  0.00     0.167 HD
ATOM     27  C   UNL A   1      40.429  32.791  37.449  1.00  0.00     0.031 A 
ATOM     28  C   UNL A   1      39.718  29.441  31.258  1.00  0.00     0.031 A 
ATOM     29  C   UNL A   1      41.488  31.879  37.121  1.00  0.00     0.049 A 
ATOM     30  C   UNL A   1      40.919  29.243  32.141  1.00  0.00     0.074 A 
ATOM     31  C   UNL A   1      42.630  31.581  37.839  1.00  0.00     0.029 A 
ATOM     32  N   UNL A   1      41.533  31.123  35.956  1.00  0.00    -0.354 N 
ATOM     33  N   UNL A   1      41.169  29.775  33.314  1.00  0.00    -0.248 NA
ATOM     34  C   UNL A   1      41.962  28.330  31.657  1.00  0.00     0.031 C 
ATOM     35  C   UNL A   1      43.389  30.678  37.087  1.00  0.00     0.029 A 
ATOM     36  C   UNL A   1      42.695  30.375  35.923  1.00  0.00     0.049 A 
ATOM     37  H   UNL A   1      40.838  31.119  35.258  1.00  0.00     0.167 HD
ATOM     38  C   UNL A   1      42.379  29.238  33.727  1.00  0.00     0.074 A 
ATOM     39  C   UNL A   1      42.808  28.331  32.679  1.00  0.00     0.031 C 
ATOM     40  C   UNL A   1      43.075  29.472  34.866  1.00  0.00     0.031 A 
BRANCH  27  41
ATOM     41  C   UNL A   1      40.502  33.608  38.706  1.00  0.00    -0.014 A 
ATOM     42  C   UNL A   1      41.242  34.799  38.768  1.00  0.00     0.009 A 
ATOM     43  C   UNL A   1      39.882  33.129  39.870  1.00  0.00     0.009 A 
ATOM     44  C   UNL A   1      41.404  35.465  39.986  1.00  0.00     0.001 A 
ATOM     45  C   UNL A   1      40.023  33.811  41.079  1.00  0.00     0.001 A 
ATOM     46  C   UNL A   1      40.797  34.969  41.140  1.00  0.00     0.000 A 
ENDBRANCH  27  41
BRANCH  28  47
ATOM     47  C   UNL A   1      39.589  28.783  29.927  1.00  0.00    -0.014 A 
ATOM     48  C   UNL A   1      39.840  29.488  28.741  1.00  0.00     0.009 A 
ATOM     49  C   UNL A   1      39.262  27.417  29.832  1.00  0.00     0.009 A 
ATOM     50  C   UNL A   1      39.776  28.846  27.499  1.00  0.00     0.001 A 
ATOM     51  C   UNL A   1      39.230  26.770  28.593  1.00  0.00     0.001 A 
ATOM     52  C   UNL A   1      39.485  27.486  27.426  1.00  0.00     0.000 A 
ENDBRANCH  28  47
BRANCH  40  53
ATOM     53  C   UNL A   1      44.350  28.707  35.052  1.00  0.00    -0.014 A 
ATOM     54  C   UNL A   1      44.405  27.581  35.887  1.00  0.00     0.009 A 
ATOM     55  C   UNL A   1      45.489  29.076  34.319  1.00  0.00     0.009 A 
ATOM     56  C   UNL A   1      45.588  26.849  35.999  1.00  0.00     0.001 A 
ATOM     57  C   UNL A   1      46.661  28.327  34.415  1.00  0.00     0.001 A 
ATOM     58  C   UNL A   1      46.710  27.219  35.258  1.00  0.00     0.000 A 
ENDBRANCH  40  53
ENDBRANCH  14  15
ENDBRANCH   7   9
ENDBRANCH   6   7
ENDBRANCH   5   6
ENDBRANCH   4   5
ENDBRANCH   3   4
ENDBRANCH   2   3
ENDBRANCH   1   2
BRANCH   1  59
ATOM     59  O   UNL A   1      33.877  31.791  28.002  1.00  0.00    -0.376 OA
BRANCH  59  60
ATOM     60  C   UNL A   1      34.176  30.462  27.592  1.00  0.00     0.202 C 
BRANCH  60  61
ATOM     61  C   UNL A   1      33.279  29.819  26.525  1.00  0.00     0.261 C 
BRANCH  61  62
ATOM     62  O   UNL A   1      33.223  28.383  26.536  1.00  0.00    -0.460 OA
BRANCH  62  63
ATOM     63  C   UNL A   1      32.010  27.874  26.858  1.00  0.00     0.340 C 
ATOM     64  O   UNL A   1      31.512  27.800  27.974  1.00  0.00    -0.246 OA
BRANCH  63  65
ATOM     65  C   UNL A   1      31.360  27.277  25.686  1.00  0.00     0.083 A 
ATOM     66  C   UNL A   1      30.936  28.121  24.647  1.00  0.00     0.018 A 
ATOM     67  C   UNL A   1      30.990  25.920  25.737  1.00  0.00     0.053 A 
ATOM     68  C   UNL A   1      30.113  27.617  23.643  1.00  0.00     0.001 A 
ATOM     69  C   UNL A   1      30.133  25.453  24.734  1.00  0.00     0.027 A 
ATOM     70  C   UNL A   1      29.693  26.291  23.701  1.00  0.00     0.002 A 
BRANCH  67  71
ATOM     71  N   UNL A   1      31.471  25.076  26.757  1.00  0.00    -0.355 N 
ATOM     72  H   UNL A   1      31.019  25.187  27.624  1.00  0.00     0.167 HD
BRANCH  71  73
ATOM     73  C   UNL A   1      32.482  24.107  26.750  1.00  0.00     0.039 A 
ATOM     74  C   UNL A   1      32.329  22.978  27.560  1.00  0.00     0.026 A 
ATOM     75  C   UNL A   1      33.650  24.251  25.994  1.00  0.00     0.039 A 
ATOM     76  C   UNL A   1      33.317  21.998  27.612  1.00  0.00     0.003 A 
ATOM     77  C   UNL A   1      34.668  23.282  26.056  1.00  0.00     0.058 A 
ATOM     78  C   UNL A   1      34.483  22.151  26.867  1.00  0.00     0.013 A 
BRANCH  77  79
ATOM     79  C   UNL A   1      35.976  23.481  25.335  1.00  0.00     0.416 C 
ATOM     80  F   UNL A   1      36.911  24.082  26.124  1.00  0.00    -0.166 F 
ATOM     81  F   UNL A   1      36.543  22.307  24.931  1.00  0.00    -0.166 F 
ATOM     82  F   UNL A   1      35.878  24.253  24.220  1.00  0.00    -0.166 F 
ENDBRANCH  77  79
ENDBRANCH  71  73
ENDBRANCH  67  71
ENDBRANCH  63  65
ENDBRANCH  62  63
ENDBRANCH  61  62
ENDBRANCH  60  61
ENDBRANCH  59  60
ENDBRANCH   1  59
TORSDOF 20
ENDMDL
MODEL 3
REMARK VINA RESULT:     -10.0      3.807      5.593
REMARK SMILES O=C(OCCOCCOCCOC(=O)c1ccccc1Nc1cccc(C(F)(F)F)c1)c1ccc(-c2c3nc(c(-c4ccccc4)c4ccc([nH]4)c(-c4ccccc4)c4nc(c(-c5ccccc5)c5ccc2[nH]5)C=C4)C=C3)cc1
REMARK SMILES IDX 8 1 7 2 6 3 5 4 4 5 3 6 2 7 1 8 32 9 33 10 79 11 34 12 78 13
REMARK SMILES IDX 35 14 36 15 37 16 72 17 38 18 77 19 71 20 73 21 39 22 76 23
REMARK SMILES IDX 70 24 69 25 40 27 62 28 47 29 61 30 48 31 51 32 60 33 74 34
REMARK SMILES IDX 49 35 50 36 59 38 75 39 52 40 41 41 42 42 46 43 43 44 45 45
REMARK SMILES IDX 44 46 63 47 64 48 68 49 65 50 67 51 66 52 53 53 54 54 58 55
REMARK SMILES IDX 55 56 57 57 56 58 9 59 10 60 11 61 12 62 13 63 14 64 15 65
REMARK SMILES IDX 16 66 20 67 17 68 19 69 18 70 21 71 22 73 23 74 31 75 24 76
REMARK SMILES IDX 26 77 25 78 27 79 28 80 29 81 30 82
REMARK H PARENT 73 26 51 37 21 72
REMARK Flexibility Score: inf
ROOT
ATOM      1  C   UNL A   1      36.424  23.398  24.470  1.00  0.00     0.188 C 
ENDROOT
BRANCH   1   2
ATOM      2  C   UNL A   1      36.782  21.912  24.459  1.00  0.00     0.188 C 
BRANCH   2   3
ATOM      3  O   UNL A   1      37.414  21.467  25.666  1.00  0.00    -0.376 OA
BRANCH   3   4
ATOM      4  C   UNL A   1      38.594  22.213  25.992  1.00  0.00     0.202 C 
BRANCH   4   5
ATOM      5  C   UNL A   1      39.884  21.385  26.131  1.00  0.00     0.261 C 
BRANCH   5   6
ATOM      6  O   UNL A   1      40.952  22.088  26.781  1.00  0.00    -0.460 OA
BRANCH   6   7
ATOM      7  C   UNL A   1      41.574  23.231  26.399  1.00  0.00     0.338 C 
ATOM      8  O   UNL A   1      42.390  23.159  25.481  1.00  0.00    -0.246 OA
BRANCH   7   9
ATOM      9  C   UNL A   1      41.348  24.577  27.023  1.00  0.00     0.060 A 
ATOM     10  C   UNL A   1      42.052  25.750  26.737  1.00  0.00     0.016 A 
ATOM     11  C   UNL A   1      40.299  24.663  27.957  1.00  0.00     0.016 A 
ATOM     12  C   UNL A   1      41.804  26.940  27.421  1.00  0.00     0.010 A 
ATOM     13  C   UNL A   1      40.021  25.857  28.626  1.00  0.00     0.010 A 
ATOM     14  C   UNL A   1      40.813  26.987  28.395  1.00  0.00    -0.014 A 
BRANCH  14  15
ATOM     15  C   UNL A   1      40.734  28.146  29.303  1.00  0.00     0.031 A 
ATOM     16  C   UNL A   1      41.745  28.240  30.401  1.00  0.00     0.074 A 
ATOM     17  C   UNL A   1      39.806  29.100  29.135  1.00  0.00     0.049 A 
ATOM     18  N   UNL A   1      41.826  29.100  31.379  1.00  0.00    -0.248 NA
ATOM     19  C   UNL A   1      42.816  27.228  30.388  1.00  0.00     0.031 C 
ATOM     20  C   UNL A   1      38.860  29.153  28.028  1.00  0.00     0.029 A 
ATOM     21  N   UNL A   1      39.502  30.199  29.896  1.00  0.00    -0.354 N 
ATOM     22  C   UNL A   1      42.938  28.716  32.114  1.00  0.00     0.074 A 
ATOM     23  C   UNL A   1      43.496  27.546  31.477  1.00  0.00     0.031 C 
ATOM     24  C   UNL A   1      38.054  30.213  28.201  1.00  0.00     0.029 A 
ATOM     25  C   UNL A   1      38.397  30.880  29.448  1.00  0.00     0.049 A 
ATOM     26  H   UNL A   1      40.024  30.473  30.684  1.00  0.00     0.167 HD
ATOM     27  C   UNL A   1      43.438  29.289  33.232  1.00  0.00     0.031 A 
ATOM     28  C   UNL A   1      37.716  31.905  29.997  1.00  0.00     0.031 A 
ATOM     29  C   UNL A   1      42.848  30.435  33.863  1.00  0.00     0.049 A 
ATOM     30  C   UNL A   1      38.244  32.485  31.279  1.00  0.00     0.074 A 
ATOM     31  C   UNL A   1      43.236  31.085  35.019  1.00  0.00     0.029 A 
ATOM     32  N   UNL A   1      41.725  31.098  33.383  1.00  0.00    -0.354 N 
ATOM     33  N   UNL A   1      39.299  32.119  31.970  1.00  0.00    -0.248 NA
ATOM     34  C   UNL A   1      37.510  33.618  31.854  1.00  0.00     0.031 C 
ATOM     35  C   UNL A   1      42.319  32.113  35.264  1.00  0.00     0.029 A 
ATOM     36  C   UNL A   1      41.390  32.135  34.233  1.00  0.00     0.049 A 
ATOM     37  H   UNL A   1      41.241  30.865  32.558  1.00  0.00     0.167 HD
ATOM     38  C   UNL A   1      39.377  32.996  33.041  1.00  0.00     0.074 A 
ATOM     39  C   UNL A   1      38.265  33.918  32.903  1.00  0.00     0.031 C 
ATOM     40  C   UNL A   1      40.283  33.039  34.049  1.00  0.00     0.031 A 
BRANCH  27  41
ATOM     41  C   UNL A   1      44.617  28.607  33.861  1.00  0.00    -0.014 A 
ATOM     42  C   UNL A   1      45.935  28.941  33.512  1.00  0.00     0.009 A 
ATOM     43  C   UNL A   1      44.398  27.553  34.761  1.00  0.00     0.009 A 
ATOM     44  C   UNL A   1      47.007  28.196  34.010  1.00  0.00     0.001 A 
ATOM     45  C   UNL A   1      45.473  26.828  35.278  1.00  0.00     0.001 A 
ATOM     46  C   UNL A   1      46.775  27.139  34.890  1.00  0.00     0.000 A 
ENDBRANCH  27  41
BRANCH  28  47
ATOM     47  C   UNL A   1      36.478  32.415  29.340  1.00  0.00    -0.014 A 
ATOM     48  C   UNL A   1      35.227  31.839  29.604  1.00  0.00     0.009 A 
ATOM     49  C   UNL A   1      36.530  33.526  28.479  1.00  0.00     0.009 A 
ATOM     50  C   UNL A   1      34.063  32.363  29.032  1.00  0.00     0.001 A 
ATOM     51  C   UNL A   1      35.363  34.068  27.932  1.00  0.00     0.001 A 
ATOM     52  C   UNL A   1      34.129  33.484  28.207  1.00  0.00     0.000 A 
ENDBRANCH  28  47
BRANCH  40  53
ATOM     53  C   UNL A   1      40.127  34.138  35.055  1.00  0.00    -0.014 A 
ATOM     54  C   UNL A   1      39.424  33.932  36.251  1.00  0.00     0.009 A 
ATOM     55  C   UNL A   1      40.759  35.372  34.832  1.00  0.00     0.009 A 
ATOM     56  C   UNL A   1      39.341  34.952  37.200  1.00  0.00     0.001 A 
ATOM     57  C   UNL A   1      40.695  36.380  35.793  1.00  0.00     0.001 A 
ATOM     58  C   UNL A   1      39.982  36.170  36.973  1.00  0.00     0.000 A 
ENDBRANCH  40  53
ENDBRANCH  14  15
ENDBRANCH   7   9
ENDBRANCH   6   7
ENDBRANCH   5   6
ENDBRANCH   4   5
ENDBRANCH   3   4
ENDBRANCH   2   3
ENDBRANCH   1   2
BRANCH   1  59
ATOM     59  O   UNL A   1      35.332  23.792  25.293  1.00  0.00    -0.376 OA
BRANCH  59  60
ATOM     60  C   UNL A   1      34.634  24.977  24.930  1.00  0.00     0.202 C 
BRANCH  60  61
ATOM     61  C   UNL A   1      33.728  25.629  25.983  1.00  0.00     0.261 C 
BRANCH  61  62
ATOM     62  O   UNL A   1      33.206  26.925  25.644  1.00  0.00    -0.460 OA
BRANCH  62  63
ATOM     63  C   UNL A   1      31.900  27.100  25.958  1.00  0.00     0.340 C 
ATOM     64  O   UNL A   1      31.324  26.711  26.966  1.00  0.00    -0.246 OA
BRANCH  63  65
ATOM     65  C   UNL A   1      31.173  27.738  24.855  1.00  0.00     0.083 A 
ATOM     66  C   UNL A   1      31.158  29.139  24.778  1.00  0.00     0.018 A 
ATOM     67  C   UNL A   1      30.343  26.940  24.044  1.00  0.00     0.053 A 
ATOM     68  C   UNL A   1      30.290  29.770  23.890  1.00  0.00     0.001 A 
ATOM     69  C   UNL A   1      29.455  27.605  23.190  1.00  0.00     0.027 A 
ATOM     70  C   UNL A   1      29.423  29.004  23.116  1.00  0.00     0.002 A 
BRANCH  67  71
ATOM     71  N   UNL A   1      30.413  25.535  24.096  1.00  0.00    -0.355 N 
ATOM     72  H   UNL A   1      29.709  25.112  24.639  1.00  0.00     0.167 HD
BRANCH  71  73
ATOM     73  C   UNL A   1      31.311  24.636  23.510  1.00  0.00     0.039 A 
ATOM     74  C   UNL A   1      32.038  25.053  22.391  1.00  0.00     0.026 A 
ATOM     75  C   UNL A   1      31.475  23.329  23.980  1.00  0.00     0.039 A 
ATOM     76  C   UNL A   1      32.924  24.189  21.753  1.00  0.00     0.003 A 
ATOM     77  C   UNL A   1      32.347  22.437  23.330  1.00  0.00     0.058 A 
ATOM     78  C   UNL A   1      33.075  22.886  22.217  1.00  0.00     0.013 A 
BRANCH  77  79
ATOM     79  C   UNL A   1      32.446  20.995  23.758  1.00  0.00     0.416 C 
ATOM     80  F   UNL A   1      33.716  20.651  24.114  1.00  0.00    -0.166 F 
ATOM     81  F   UNL A   1      31.673  20.709  24.845  1.00  0.00    -0.166 F 
ATOM     82  F   UNL A   1      32.078  20.110  22.794  1.00  0.00    -0.166 F 
ENDBRANCH  77  79
ENDBRANCH  71  73
ENDBRANCH  67  71
ENDBRANCH  63  65
ENDBRANCH  62  63
ENDBRANCH  61  62
ENDBRANCH  60  61
ENDBRANCH  59  60
ENDBRANCH   1  59
TORSDOF 20
ENDMDL
