MODEL 1
REMARK VINA RESULT:      -9.2      0.000      0.000
REMARK SMILES CC(C)[NH2+][C@]1(C(=O)OCCOCCOCCOC(=O)c2ccc(-c3c4nc(c(-c5ccccc5)c5ccc([nH]5)c(-c5ccccc5)c5nc(c(-c6ccccc6)c6ccc3[nH]6)C=C5)C=C4)cc2)CC[C@H](Oc2cccc(CO)c2)C1
REMARK SMILES IDX 12 1 11 2 10 3 9 4 8 5 6 6 7 7 5 8 68 9 80 10 69 11 70 12
REMARK SMILES IDX 4 13 2 16 1 17 3 18 71 19 72 20 73 21 79 22 74 23 76 24
REMARK SMILES IDX 75 25 77 26 78 27 13 29 14 30 15 31 16 32 17 33 18 34 19 35
REMARK SMILES IDX 20 36 21 37 67 38 22 39 66 40 23 41 24 42 25 43 60 44 26 45
REMARK SMILES IDX 65 46 59 47 61 48 27 49 64 50 58 51 57 52 28 54 50 55 35 56
REMARK SMILES IDX 49 57 36 58 39 59 48 60 62 61 37 62 38 63 47 65 63 66 40 67
REMARK SMILES IDX 29 68 30 69 34 70 31 71 33 72 32 73 51 74 52 75 56 76 53 77
REMARK SMILES IDX 55 78 54 79 41 80 42 81 46 82 43 83 45 84 44 85
REMARK H PARENT 4 14 4 15 78 28 61 53 39 64
REMARK Flexibility Score: inf
ROOT
ATOM      1  C   UNL A   1      34.533  21.495  26.577  1.00  0.00     0.188 C 
ENDROOT
BRANCH   1   2
ATOM      2  O   UNL A   1      33.116  21.618  26.645  1.00  0.00    -0.376 OA
BRANCH   2   3
ATOM      3  C   UNL A   1      32.593  22.739  27.347  1.00  0.00     0.202 C 
BRANCH   3   4
ATOM      4  C   UNL A   1      31.209  23.210  26.888  1.00  0.00     0.261 C 
BRANCH   4   5
ATOM      5  O   UNL A   1      31.282  24.179  25.818  1.00  0.00    -0.459 OA
BRANCH   5   6
ATOM      6  C   UNL A   1      30.649  25.370  25.992  1.00  0.00     0.368 C 
ATOM      7  O   UNL A   1      29.586  25.472  26.595  1.00  0.00    -0.245 OA
BRANCH   6   8
ATOM      8  C   UNL A   1      31.421  26.587  25.368  1.00  0.00     0.198 C 
ATOM      9  C   UNL A   1      30.352  27.333  24.527  1.00  0.00     0.085 C 
ATOM     10  C   UNL A   1      31.828  27.733  26.319  1.00  0.00     0.126 C 
ATOM     11  C   UNL A   1      30.872  28.733  24.293  1.00  0.00     0.052 C 
ATOM     12  C   UNL A   1      31.662  29.075  25.551  1.00  0.00     0.180 C 
BRANCH   8  13
ATOM     13  N   UNL A   1      32.572  26.247  24.496  1.00  0.00    -0.330 N 
ATOM     14  H   UNL A   1      33.275  26.974  24.639  1.00  0.00     0.347 HD
ATOM     15  H   UNL A   1      32.812  25.299  24.784  1.00  0.00     0.347 HD
BRANCH  13  16
ATOM     16  C   UNL A   1      32.386  26.120  23.049  1.00  0.00     0.176 C 
ATOM     17  C   UNL A   1      33.545  26.879  22.391  1.00  0.00     0.075 C 
ATOM     18  C   UNL A   1      32.389  24.696  22.478  1.00  0.00     0.075 C 
ENDBRANCH  13  16
ENDBRANCH   8  13
BRANCH  12  19
ATOM     19  O   UNL A   1      32.939  29.643  25.246  1.00  0.00    -0.490 OA
BRANCH  19  20
ATOM     20  C   UNL A   1      33.830  29.828  26.277  1.00  0.00     0.120 A 
ATOM     21  C   UNL A   1      34.833  28.942  26.678  1.00  0.00     0.046 A 
ATOM     22  C   UNL A   1      33.664  31.021  26.991  1.00  0.00     0.052 A 
ATOM     23  C   UNL A   1      35.618  29.217  27.804  1.00  0.00     0.004 A 
ATOM     24  C   UNL A   1      34.458  31.317  28.112  1.00  0.00    -0.019 A 
ATOM     25  C   UNL A   1      35.424  30.392  28.526  1.00  0.00     0.006 A 
BRANCH  24  26
ATOM     26  C   UNL A   1      34.237  32.577  28.904  1.00  0.00     0.191 C 
BRANCH  26  27
ATOM     27  O   UNL A   1      34.184  33.704  28.040  1.00  0.00    -0.392 OA
ATOM     28  H   UNL A   1      34.501  34.489  28.514  1.00  0.00     0.211 HD
ENDBRANCH  26  27
ENDBRANCH  24  26
ENDBRANCH  19  20
ENDBRANCH  12  19
ENDBRANCH   6   8
ENDBRANCH   5   6
ENDBRANCH   4   5
ENDBRANCH   3   4
ENDBRANCH   2   3
ENDBRANCH   1   2
BRANCH   1  29
ATOM     29  C   UNL A   1      35.287  22.415  25.608  1.00  0.00     0.188 C 
BRANCH  29  30
ATOM     30  O   UNL A   1      35.936  21.679  24.580  1.00  0.00    -0.376 OA
BRANCH  30  31
ATOM     31  C   UNL A   1      36.166  20.325  24.959  1.00  0.00     0.202 C 
BRANCH  31  32
ATOM     32  C   UNL A   1      37.673  20.060  25.017  1.00  0.00     0.261 C 
BRANCH  32  33
ATOM     33  O   UNL A   1      38.497  21.222  25.267  1.00  0.00    -0.460 OA
BRANCH  33  34
ATOM     34  C   UNL A   1      39.503  21.082  26.161  1.00  0.00     0.338 C 
ATOM     35  O   UNL A   1      40.123  20.063  26.398  1.00  0.00    -0.246 OA
BRANCH  34  36
ATOM     36  C   UNL A   1      39.871  22.412  26.711  1.00  0.00     0.060 A 
ATOM     37  C   UNL A   1      39.207  23.537  26.213  1.00  0.00     0.016 A 
ATOM     38  C   UNL A   1      40.889  22.578  27.648  1.00  0.00     0.016 A 
ATOM     39  C   UNL A   1      39.564  24.828  26.617  1.00  0.00     0.010 A 
ATOM     40  C   UNL A   1      41.266  23.872  28.040  1.00  0.00     0.010 A 
ATOM     41  C   UNL A   1      40.627  25.011  27.507  1.00  0.00    -0.014 A 
BRANCH  41  42
ATOM     42  C   UNL A   1      41.200  26.370  27.732  1.00  0.00     0.031 A 
ATOM     43  C   UNL A   1      42.534  26.701  27.112  1.00  0.00     0.074 A 
ATOM     44  C   UNL A   1      40.552  27.318  28.435  1.00  0.00     0.049 A 
ATOM     45  N   UNL A   1      43.302  27.746  27.288  1.00  0.00    -0.248 NA
ATOM     46  C   UNL A   1      43.069  25.713  26.160  1.00  0.00     0.031 C 
ATOM     47  C   UNL A   1      39.209  27.192  29.000  1.00  0.00     0.029 A 
ATOM     48  N   UNL A   1      40.949  28.585  28.797  1.00  0.00    -0.354 N 
ATOM     49  C   UNL A   1      44.428  27.523  26.501  1.00  0.00     0.074 A 
ATOM     50  C   UNL A   1      44.245  26.241  25.856  1.00  0.00     0.031 C 
ATOM     51  C   UNL A   1      38.897  28.332  29.642  1.00  0.00     0.029 A 
ATOM     52  C   UNL A   1      40.038  29.243  29.590  1.00  0.00     0.049 A 
ATOM     53  H   UNL A   1      41.804  28.983  28.515  1.00  0.00     0.167 HD
ATOM     54  C   UNL A   1      45.518  28.310  26.333  1.00  0.00     0.031 A 
ATOM     55  C   UNL A   1      40.131  30.424  30.238  1.00  0.00     0.031 A 
ATOM     56  C   UNL A   1      45.701  29.587  26.970  1.00  0.00     0.049 A 
ATOM     57  C   UNL A   1      41.401  31.231  30.132  1.00  0.00     0.074 A 
ATOM     58  C   UNL A   1      46.780  30.451  26.879  1.00  0.00     0.029 A 
ATOM     59  N   UNL A   1      44.782  30.184  27.818  1.00  0.00    -0.354 N 
ATOM     60  N   UNL A   1      42.480  30.990  29.427  1.00  0.00    -0.248 NA
ATOM     61  C   UNL A   1      41.467  32.471  30.920  1.00  0.00     0.031 C 
ATOM     62  C   UNL A   1      46.538  31.541  27.720  1.00  0.00     0.029 A 
ATOM     63  C   UNL A   1      45.278  31.392  28.278  1.00  0.00     0.049 A 
ATOM     64  H   UNL A   1      43.906  29.804  28.059  1.00  0.00     0.167 HD
ATOM     65  C   UNL A   1      43.335  32.062  29.660  1.00  0.00     0.074 A 
ATOM     66  C   UNL A   1      42.645  32.961  30.561  1.00  0.00     0.031 C 
ATOM     67  C   UNL A   1      44.579  32.283  29.169  1.00  0.00     0.031 A 
BRANCH  54  68
ATOM     68  C   UNL A   1      46.629  27.773  25.471  1.00  0.00    -0.014 A 
ATOM     69  C   UNL A   1      47.629  26.935  25.988  1.00  0.00     0.009 A 
ATOM     70  C   UNL A   1      46.667  28.109  24.108  1.00  0.00     0.009 A 
ATOM     71  C   UNL A   1      48.668  26.483  25.169  1.00  0.00     0.001 A 
ATOM     72  C   UNL A   1      47.686  27.628  23.284  1.00  0.00     0.001 A 
ATOM     73  C   UNL A   1      48.692  26.827  23.818  1.00  0.00     0.000 A 
ENDBRANCH  54  68
BRANCH  55  74
ATOM     74  C   UNL A   1      39.011  30.901  31.097  1.00  0.00    -0.014 A 
ATOM     75  C   UNL A   1      38.889  30.469  32.428  1.00  0.00     0.009 A 
ATOM     76  C   UNL A   1      38.033  31.766  30.579  1.00  0.00     0.009 A 
ATOM     77  C   UNL A   1      37.802  30.872  33.209  1.00  0.00     0.001 A 
ATOM     78  C   UNL A   1      36.967  32.196  31.373  1.00  0.00     0.001 A 
ATOM     79  C   UNL A   1      36.847  31.740  32.684  1.00  0.00     0.000 A 
ENDBRANCH  55  74
BRANCH  67  80
ATOM     80  C   UNL A   1      45.259  33.573  29.546  1.00  0.00    -0.014 A 
ATOM     81  C   UNL A   1      46.133  33.653  30.641  1.00  0.00     0.009 A 
ATOM     82  C   UNL A   1      45.056  34.716  28.756  1.00  0.00     0.009 A 
ATOM     83  C   UNL A   1      46.762  34.860  30.957  1.00  0.00     0.001 A 
ATOM     84  C   UNL A   1      45.712  35.912  29.054  1.00  0.00     0.001 A 
ATOM     85  C   UNL A   1      46.556  35.986  30.159  1.00  0.00     0.000 A 
ENDBRANCH  67  80
ENDBRANCH  41  42
ENDBRANCH  34  36
ENDBRANCH  33  34
ENDBRANCH  32  33
ENDBRANCH  31  32
ENDBRANCH  30  31
ENDBRANCH  29  30
ENDBRANCH   1  29
TORSDOF 23
ENDMDL
MODEL 2
REMARK VINA RESULT:      -9.2      3.525      6.005
REMARK SMILES CC(C)[NH2+][C@]1(C(=O)OCCOCCOCCOC(=O)c2ccc(-c3c4nc(c(-c5ccccc5)c5ccc([nH]5)c(-c5ccccc5)c5nc(c(-c6ccccc6)c6ccc3[nH]6)C=C5)C=C4)cc2)CC[C@H](Oc2cccc(CO)c2)C1
REMARK SMILES IDX 12 1 11 2 10 3 9 4 8 5 6 6 7 7 5 8 68 9 80 10 69 11 70 12
REMARK SMILES IDX 4 13 2 16 1 17 3 18 71 19 72 20 73 21 79 22 74 23 76 24
REMARK SMILES IDX 75 25 77 26 78 27 13 29 14 30 15 31 16 32 17 33 18 34 19 35
REMARK SMILES IDX 20 36 21 37 67 38 22 39 66 40 23 41 24 42 25 43 60 44 26 45
REMARK SMILES IDX 65 46 59 47 61 48 27 49 64 50 58 51 57 52 28 54 50 55 35 56
REMARK SMILES IDX 49 57 36 58 39 59 48 60 62 61 37 62 38 63 47 65 63 66 40 67
REMARK SMILES IDX 29 68 30 69 34 70 31 71 33 72 32 73 51 74 52 75 56 76 53 77
REMARK SMILES IDX 55 78 54 79 41 80 42 81 46 82 43 83 45 84 44 85
REMARK H PARENT 4 14 4 15 78 28 61 53 39 64
REMARK Flexibility Score: inf
ROOT
ATOM      1  C   UNL A   1      37.729  22.180  25.769  1.00  0.00     0.188 C 
ENDROOT
BRANCH   1   2
ATOM      2  O   UNL A   1      37.205  21.381  24.712  1.00  0.00    -0.376 OA
BRANCH   2   3
ATOM      3  C   UNL A   1      36.408  20.262  25.078  1.00  0.00     0.202 C 
BRANCH   3   4
ATOM      4  C   UNL A   1      34.900  20.433  24.860  1.00  0.00     0.261 C 
BRANCH   4   5
ATOM      5  O   UNL A   1      34.588  21.581  24.039  1.00  0.00    -0.459 OA
BRANCH   5   6
ATOM      6  C   UNL A   1      33.286  21.792  23.707  1.00  0.00     0.368 C 
ATOM      7  O   UNL A   1      32.555  20.896  23.298  1.00  0.00    -0.245 OA
BRANCH   6   8
ATOM      8  C   UNL A   1      32.817  23.275  23.920  1.00  0.00     0.198 C 
ATOM      9  C   UNL A   1      33.863  24.125  23.153  1.00  0.00     0.085 C 
ATOM     10  C   UNL A   1      31.541  23.730  23.179  1.00  0.00     0.126 C 
ATOM     11  C   UNL A   1      33.239  25.481  22.910  1.00  0.00     0.052 C 
ATOM     12  C   UNL A   1      31.752  25.200  22.719  1.00  0.00     0.180 C 
BRANCH   8  13
ATOM     13  N   UNL A   1      32.753  23.740  25.328  1.00  0.00    -0.330 N 
ATOM     14  H   UNL A   1      33.689  23.625  25.718  1.00  0.00     0.347 HD
ATOM     15  H   UNL A   1      32.391  24.689  25.245  1.00  0.00     0.347 HD
BRANCH  13  16
ATOM     16  C   UNL A   1      31.825  23.109  26.268  1.00  0.00     0.176 C 
ATOM     17  C   UNL A   1      32.649  22.723  27.503  1.00  0.00     0.075 C 
ATOM     18  C   UNL A   1      30.649  23.966  26.752  1.00  0.00     0.075 C 
ENDBRANCH  13  16
ENDBRANCH   8  13
BRANCH  12  19
ATOM     19  O   UNL A   1      30.935  26.090  23.485  1.00  0.00    -0.490 OA
BRANCH  19  20
ATOM     20  C   UNL A   1      31.515  27.233  23.986  1.00  0.00     0.120 A 
ATOM     21  C   UNL A   1      32.151  28.234  23.248  1.00  0.00     0.046 A 
ATOM     22  C   UNL A   1      31.467  27.354  25.380  1.00  0.00     0.052 A 
ATOM     23  C   UNL A   1      32.777  29.307  23.894  1.00  0.00     0.004 A 
ATOM     24  C   UNL A   1      32.076  28.437  26.039  1.00  0.00    -0.019 A 
ATOM     25  C   UNL A   1      32.751  29.402  25.283  1.00  0.00     0.006 A 
BRANCH  24  26
ATOM     26  C   UNL A   1      32.065  28.531  27.541  1.00  0.00     0.191 C 
BRANCH  26  27
ATOM     27  O   UNL A   1      30.962  27.814  28.076  1.00  0.00    -0.392 OA
ATOM     28  H   UNL A   1      31.242  26.913  28.304  1.00  0.00     0.211 HD
ENDBRANCH  26  27
ENDBRANCH  24  26
ENDBRANCH  19  20
ENDBRANCH  12  19
ENDBRANCH   6   8
ENDBRANCH   5   6
ENDBRANCH   4   5
ENDBRANCH   3   4
ENDBRANCH   2   3
ENDBRANCH   1   2
BRANCH   1  29
ATOM     29  C   UNL A   1      39.246  22.155  26.001  1.00  0.00     0.188 C 
BRANCH  29  30
ATOM     30  O   UNL A   1      39.760  20.831  25.983  1.00  0.00    -0.376 OA
BRANCH  30  31
ATOM     31  C   UNL A   1      40.871  20.679  26.862  1.00  0.00     0.202 C 
BRANCH  31  32
ATOM     32  C   UNL A   1      42.166  20.995  26.109  1.00  0.00     0.261 C 
BRANCH  32  33
ATOM     33  O   UNL A   1      42.919  22.121  26.617  1.00  0.00    -0.460 OA
BRANCH  33  34
ATOM     34  C   UNL A   1      42.933  23.243  25.861  1.00  0.00     0.338 C 
ATOM     35  O   UNL A   1      43.225  23.318  24.683  1.00  0.00    -0.246 OA
BRANCH  34  36
ATOM     36  C   UNL A   1      42.367  24.376  26.639  1.00  0.00     0.060 A 
ATOM     37  C   UNL A   1      42.971  25.630  26.506  1.00  0.00     0.016 A 
ATOM     38  C   UNL A   1      41.310  24.217  27.532  1.00  0.00     0.016 A 
ATOM     39  C   UNL A   1      42.551  26.722  27.273  1.00  0.00     0.010 A 
ATOM     40  C   UNL A   1      40.901  25.304  28.322  1.00  0.00     0.010 A 
ATOM     41  C   UNL A   1      41.536  26.559  28.221  1.00  0.00    -0.014 A 
BRANCH  41  42
ATOM     42  C   UNL A   1      41.267  27.621  29.233  1.00  0.00     0.031 A 
ATOM     43  C   UNL A   1      42.132  27.675  30.467  1.00  0.00     0.074 A 
ATOM     44  C   UNL A   1      40.309  28.553  29.064  1.00  0.00     0.049 A 
ATOM     45  N   UNL A   1      41.999  28.398  31.551  1.00  0.00    -0.248 NA
ATOM     46  C   UNL A   1      43.308  26.790  30.474  1.00  0.00     0.031 C 
ATOM     47  C   UNL A   1      39.468  28.705  27.878  1.00  0.00     0.029 A 
ATOM     48  N   UNL A   1      39.880  29.552  29.908  1.00  0.00    -0.354 N 
ATOM     49  C   UNL A   1      43.051  28.026  32.383  1.00  0.00     0.074 A 
ATOM     50  C   UNL A   1      43.804  27.009  31.683  1.00  0.00     0.031 C 
ATOM     51  C   UNL A   1      38.621  29.731  28.072  1.00  0.00     0.029 A 
ATOM     52  C   UNL A   1      38.814  30.268  29.418  1.00  0.00     0.049 A 
ATOM     53  H   UNL A   1      40.298  29.736  30.780  1.00  0.00     0.167 HD
ATOM     54  C   UNL A   1      43.360  28.484  33.620  1.00  0.00     0.031 A 
ATOM     55  C   UNL A   1      38.051  31.215  30.002  1.00  0.00     0.031 A 
ATOM     56  C   UNL A   1      42.615  29.498  34.318  1.00  0.00     0.049 A 
ATOM     57  C   UNL A   1      38.339  31.628  31.424  1.00  0.00     0.074 A 
ATOM     58  C   UNL A   1      42.837  30.017  35.583  1.00  0.00     0.029 A 
ATOM     59  N   UNL A   1      41.501  30.148  33.810  1.00  0.00    -0.354 N 
ATOM     60  N   UNL A   1      39.304  31.237  32.221  1.00  0.00    -0.248 NA
ATOM     61  C   UNL A   1      37.426  32.611  32.028  1.00  0.00     0.031 C 
ATOM     62  C   UNL A   1      41.822  30.936  35.862  1.00  0.00     0.029 A 
ATOM     63  C   UNL A   1      41.010  31.045  34.744  1.00  0.00     0.049 A 
ATOM     64  H   UNL A   1      41.117  29.995  32.917  1.00  0.00     0.167 HD
ATOM     65  C   UNL A   1      39.133  31.948  33.404  1.00  0.00     0.074 A 
ATOM     66  C   UNL A   1      37.981  32.805  33.216  1.00  0.00     0.031 C 
ATOM     67  C   UNL A   1      39.867  31.898  34.543  1.00  0.00     0.031 A 
BRANCH  54  68
ATOM     68  C   UNL A   1      44.523  27.838  34.324  1.00  0.00    -0.014 A 
ATOM     69  C   UNL A   1      45.832  28.330  34.196  1.00  0.00     0.009 A 
ATOM     70  C   UNL A   1      44.299  26.719  35.140  1.00  0.00     0.009 A 
ATOM     71  C   UNL A   1      46.896  27.685  34.833  1.00  0.00     0.001 A 
ATOM     72  C   UNL A   1      45.358  26.097  35.803  1.00  0.00     0.001 A 
ATOM     73  C   UNL A   1      46.657  26.573  35.639  1.00  0.00     0.000 A 
ENDBRANCH  54  68
BRANCH  55  74
ATOM     74  C   UNL A   1      36.895  31.809  29.271  1.00  0.00    -0.014 A 
ATOM     75  C   UNL A   1      36.981  33.094  28.712  1.00  0.00     0.009 A 
ATOM     76  C   UNL A   1      35.685  31.106  29.160  1.00  0.00     0.009 A 
ATOM     77  C   UNL A   1      35.873  33.669  28.080  1.00  0.00     0.001 A 
ATOM     78  C   UNL A   1      34.591  31.669  28.498  1.00  0.00     0.001 A 
ATOM     79  C   UNL A   1      34.683  32.954  27.968  1.00  0.00     0.000 A 
ENDBRANCH  55  74
BRANCH  67  80
ATOM     80  C   UNL A   1      39.486  32.834  35.660  1.00  0.00    -0.014 A 
ATOM     81  C   UNL A   1      40.036  34.121  35.763  1.00  0.00     0.009 A 
ATOM     82  C   UNL A   1      38.520  32.432  36.597  1.00  0.00     0.009 A 
ATOM     83  C   UNL A   1      39.651  34.973  36.801  1.00  0.00     0.001 A 
ATOM     84  C   UNL A   1      38.113  33.298  37.613  1.00  0.00     0.001 A 
ATOM     85  C   UNL A   1      38.685  34.563  37.721  1.00  0.00     0.000 A 
ENDBRANCH  67  80
ENDBRANCH  41  42
ENDBRANCH  34  36
ENDBRANCH  33  34
ENDBRANCH  32  33
ENDBRANCH  31  32
ENDBRANCH  30  31
ENDBRANCH  29  30
ENDBRANCH   1  29
TORSDOF 23
ENDMDL
MODEL 3
REMARK VINA RESULT:      -9.0      0.830      5.828
REMARK SMILES CC(C)[NH2+][C@]1(C(=O)OCCOCCOCCOC(=O)c2ccc(-c3c4nc(c(-c5ccccc5)c5ccc([nH]5)c(-c5ccccc5)c5nc(c(-c6ccccc6)c6ccc3[nH]6)C=C5)C=C4)cc2)CC[C@H](Oc2cccc(CO)c2)C1
REMARK SMILES IDX 12 1 11 2 10 3 9 4 8 5 6 6 7 7 5 8 68 9 80 10 69 11 70 12
REMARK SMILES IDX 4 13 2 16 1 17 3 18 71 19 72 20 73 21 79 22 74 23 76 24
REMARK SMILES IDX 75 25 77 26 78 27 13 29 14 30 15 31 16 32 17 33 18 34 19 35
REMARK SMILES IDX 20 36 21 37 67 38 22 39 66 40 23 41 24 42 25 43 60 44 26 45
REMARK SMILES IDX 65 46 59 47 61 48 27 49 64 50 58 51 57 52 28 54 50 55 35 56
REMARK SMILES IDX 49 57 36 58 39 59 48 60 62 61 37 62 38 63 47 65 63 66 40 67
REMARK SMILES IDX 29 68 30 69 34 70 31 71 33 72 32 73 51 74 52 75 56 76 53 77
REMARK SMILES IDX 55 78 54 79 41 80 42 81 46 82 43 83 45 84 44 85
REMARK H PARENT 4 14 4 15 78 28 61 53 39 64
REMARK Flexibility Score: inf
ROOT
ATOM      1  C   UNL A   1      33.077  22.350  26.996  1.00  0.00     0.188 C 
ENDROOT
BRANCH   1   2
ATOM      2  O   UNL A   1      31.855  22.770  26.398  1.00  0.00    -0.376 OA
BRANCH   2   3
ATOM      3  C   UNL A   1      31.652  24.170  26.247  1.00  0.00     0.202 C 
BRANCH   3   4
ATOM      4  C   UNL A   1      30.290  24.575  25.673  1.00  0.00     0.261 C 
BRANCH   4   5
ATOM      5  O   UNL A   1      30.386  25.069  24.318  1.00  0.00    -0.459 OA
BRANCH   5   6
ATOM      6  C   UNL A   1      29.754  26.234  24.017  1.00  0.00     0.368 C 
ATOM      7  O   UNL A   1      28.542  26.301  23.838  1.00  0.00    -0.245 OA
BRANCH   6   8
ATOM      8  C   UNL A   1      30.718  27.471  23.946  1.00  0.00     0.198 C 
ATOM      9  C   UNL A   1      29.771  28.694  23.830  1.00  0.00     0.085 C 
ATOM     10  C   UNL A   1      31.467  27.863  25.239  1.00  0.00     0.126 C 
ATOM     11  C   UNL A   1      30.571  29.912  24.230  1.00  0.00     0.052 C 
ATOM     12  C   UNL A   1      31.538  29.414  25.299  1.00  0.00     0.180 C 
BRANCH   8  13
ATOM     13  N   UNL A   1      31.671  27.487  22.808  1.00  0.00    -0.330 N 
ATOM     14  H   UNL A   1      31.325  26.812  22.126  1.00  0.00     0.347 HD
ATOM     15  H   UNL A   1      31.689  28.468  22.532  1.00  0.00     0.347 HD
BRANCH  13  16
ATOM     16  C   UNL A   1      33.084  27.175  23.030  1.00  0.00     0.176 C 
ATOM     17  C   UNL A   1      33.326  25.788  22.422  1.00  0.00     0.075 C 
ATOM     18  C   UNL A   1      34.105  28.134  22.403  1.00  0.00     0.075 C 
ENDBRANCH  13  16
ENDBRANCH   8  13
BRANCH  12  19
ATOM     19  O   UNL A   1      32.875  29.868  25.068  1.00  0.00    -0.490 OA
BRANCH  19  20
ATOM     20  C   UNL A   1      33.727  29.949  26.145  1.00  0.00     0.120 A 
ATOM     21  C   UNL A   1      34.634  28.972  26.562  1.00  0.00     0.046 A 
ATOM     22  C   UNL A   1      33.625  31.131  26.888  1.00  0.00     0.052 A 
ATOM     23  C   UNL A   1      35.384  29.149  27.731  1.00  0.00     0.004 A 
ATOM     24  C   UNL A   1      34.387  31.328  28.053  1.00  0.00    -0.019 A 
ATOM     25  C   UNL A   1      35.252  30.315  28.480  1.00  0.00     0.006 A 
BRANCH  24  26
ATOM     26  C   UNL A   1      34.232  32.580  28.874  1.00  0.00     0.191 C 
BRANCH  26  27
ATOM     27  O   UNL A   1      34.361  33.732  28.054  1.00  0.00    -0.392 OA
ATOM     28  H   UNL A   1      34.361  34.527  28.611  1.00  0.00     0.211 HD
ENDBRANCH  26  27
ENDBRANCH  24  26
ENDBRANCH  19  20
ENDBRANCH  12  19
ENDBRANCH   6   8
ENDBRANCH   5   6
ENDBRANCH   4   5
ENDBRANCH   3   4
ENDBRANCH   2   3
ENDBRANCH   1   2
BRANCH   1  29
ATOM     29  C   UNL A   1      34.382  22.650  26.247  1.00  0.00     0.188 C 
BRANCH  29  30
ATOM     30  O   UNL A   1      34.510  21.858  25.073  1.00  0.00    -0.376 OA
BRANCH  30  31
ATOM     31  C   UNL A   1      35.133  20.606  25.341  1.00  0.00     0.202 C 
BRANCH  31  32
ATOM     32  C   UNL A   1      36.583  20.642  24.853  1.00  0.00     0.261 C 
BRANCH  32  33
ATOM     33  O   UNL A   1      37.396  21.704  25.404  1.00  0.00    -0.460 OA
BRANCH  33  34
ATOM     34  C   UNL A   1      38.614  21.362  25.882  1.00  0.00     0.338 C 
ATOM     35  O   UNL A   1      39.183  20.299  25.720  1.00  0.00    -0.246 OA
BRANCH  34  36
ATOM     36  C   UNL A   1      39.256  22.546  26.509  1.00  0.00     0.060 A 
ATOM     37  C   UNL A   1      38.740  23.810  26.209  1.00  0.00     0.016 A 
ATOM     38  C   UNL A   1      40.382  22.443  27.324  1.00  0.00     0.016 A 
ATOM     39  C   UNL A   1      39.348  24.975  26.689  1.00  0.00     0.010 A 
ATOM     40  C   UNL A   1      41.009  23.610  27.789  1.00  0.00     0.010 A 
ATOM     41  C   UNL A   1      40.515  24.888  27.453  1.00  0.00    -0.014 A 
BRANCH  41  42
ATOM     42  C   UNL A   1      41.328  26.107  27.736  1.00  0.00     0.031 A 
ATOM     43  C   UNL A   1      40.755  27.156  28.655  1.00  0.00     0.074 A 
ATOM     44  C   UNL A   1      42.564  26.283  27.231  1.00  0.00     0.049 A 
ATOM     45  N   UNL A   1      41.195  28.358  28.929  1.00  0.00    -0.248 NA
ATOM     46  C   UNL A   1      39.517  26.792  29.363  1.00  0.00     0.031 C 
ATOM     47  C   UNL A   1      43.299  25.314  26.421  1.00  0.00     0.029 A 
ATOM     48  N   UNL A   1      43.420  27.356  27.326  1.00  0.00    -0.354 N 
ATOM     49  C   UNL A   1      40.267  28.908  29.809  1.00  0.00     0.074 A 
ATOM     50  C   UNL A   1      39.238  27.912  30.013  1.00  0.00     0.031 C 
ATOM     51  C   UNL A   1      44.492  25.838  26.088  1.00  0.00     0.029 A 
ATOM     52  C   UNL A   1      44.580  27.202  26.605  1.00  0.00     0.049 A 
ATOM     53  H   UNL A   1      43.219  28.159  27.861  1.00  0.00     0.167 HD
ATOM     54  C   UNL A   1      40.267  30.132  30.389  1.00  0.00     0.031 A 
ATOM     55  C   UNL A   1      45.578  28.075  26.353  1.00  0.00     0.031 A 
ATOM     56  C   UNL A   1      41.290  31.123  30.191  1.00  0.00     0.049 A 
ATOM     57  C   UNL A   1      45.501  29.474  26.914  1.00  0.00     0.074 A 
ATOM     58  C   UNL A   1      41.370  32.401  30.720  1.00  0.00     0.029 A 
ATOM     59  N   UNL A   1      42.413  30.948  29.399  1.00  0.00    -0.354 N 
ATOM     60  N   UNL A   1      44.596  30.002  27.702  1.00  0.00    -0.248 NA
ATOM     61  C   UNL A   1      46.583  30.399  26.541  1.00  0.00     0.031 C 
ATOM     62  C   UNL A   1      42.510  33.019  30.200  1.00  0.00     0.029 A 
ATOM     63  C   UNL A   1      43.180  32.101  29.404  1.00  0.00     0.049 A 
ATOM     64  H   UNL A   1      42.634  30.126  28.905  1.00  0.00     0.167 HD
ATOM     65  C   UNL A   1      45.017  31.305  27.946  1.00  0.00     0.074 A 
ATOM     66  C   UNL A   1      46.264  31.484  27.233  1.00  0.00     0.031 C 
ATOM     67  C   UNL A   1      44.424  32.267  28.697  1.00  0.00     0.031 A 
BRANCH  54  68
ATOM     68  C   UNL A   1      39.081  30.488  31.247  1.00  0.00    -0.014 A 
ATOM     69  C   UNL A   1      38.994  30.093  32.591  1.00  0.00     0.009 A 
ATOM     70  C   UNL A   1      38.035  31.244  30.695  1.00  0.00     0.009 A 
ATOM     71  C   UNL A   1      37.863  30.408  33.349  1.00  0.00     0.001 A 
ATOM     72  C   UNL A   1      36.922  31.587  31.464  1.00  0.00     0.001 A 
ATOM     73  C   UNL A   1      36.831  31.158  32.786  1.00  0.00     0.000 A 
ENDBRANCH  54  68
BRANCH  55  74
ATOM     74  C   UNL A   1      46.720  27.682  25.480  1.00  0.00    -0.014 A 
ATOM     75  C   UNL A   1      46.728  28.009  24.114  1.00  0.00     0.009 A 
ATOM     76  C   UNL A   1      47.794  26.942  26.001  1.00  0.00     0.009 A 
ATOM     77  C   UNL A   1      47.773  27.583  23.288  1.00  0.00     0.001 A 
ATOM     78  C   UNL A   1      48.854  26.548  25.181  1.00  0.00     0.001 A 
ATOM     79  C   UNL A   1      48.838  26.860  23.823  1.00  0.00     0.000 A 
ENDBRANCH  55  74
BRANCH  67  80
ATOM     80  C   UNL A   1      45.141  33.584  28.835  1.00  0.00    -0.014 A 
ATOM     81  C   UNL A   1      44.959  34.623  27.911  1.00  0.00     0.009 A 
ATOM     82  C   UNL A   1      45.975  33.800  29.944  1.00  0.00     0.009 A 
ATOM     83  C   UNL A   1      45.625  35.840  28.075  1.00  0.00     0.001 A 
ATOM     84  C   UNL A   1      46.613  35.029  30.123  1.00  0.00     0.001 A 
ATOM     85  C   UNL A   1      46.446  36.044  29.185  1.00  0.00     0.000 A 
ENDBRANCH  67  80
ENDBRANCH  41  42
ENDBRANCH  34  36
ENDBRANCH  33  34
ENDBRANCH  32  33
ENDBRANCH  31  32
ENDBRANCH  30  31
ENDBRANCH  29  30
ENDBRANCH   1  29
TORSDOF 23
ENDMDL
