MODEL 1
REMARK VINA RESULT:     -10.4      0.000      0.000
REMARK SMILES O=C(OCCOCCOCCOC(=O)c1cc(Br)ccc1OC(=O)c1ccc(F)cc1)c1ccc(-c2c3nc(c(-c4ccccc4)c4ccc([nH]4)c(-c4ccccc4)c4nc(c(-c5ccccc5)c5ccc2[nH]5)C=C4)C=C3)cc1
REMARK SMILES IDX 8 1 7 2 6 3 5 4 4 5 3 6 2 7 1 8 32 9 33 10 79 11 34 12 78 13
REMARK SMILES IDX 35 14 36 15 37 16 72 17 38 18 77 19 71 20 73 21 39 22 76 23
REMARK SMILES IDX 70 24 69 25 40 27 62 28 47 29 61 30 48 31 51 32 60 33 74 34
REMARK SMILES IDX 49 35 50 36 59 38 75 39 52 40 41 41 42 42 46 43 43 44 45 45
REMARK SMILES IDX 44 46 63 47 64 48 68 49 65 50 67 51 66 52 53 53 54 54 58 55
REMARK SMILES IDX 55 56 57 57 56 58 9 59 10 60 11 61 12 62 13 63 14 64 15 65
REMARK SMILES IDX 16 66 21 67 17 68 20 69 18 70 19 71 22 72 23 73 24 74 25 75
REMARK SMILES IDX 26 76 31 77 27 78 30 79 28 80 29 81
REMARK H PARENT 73 26 51 37
REMARK Flexibility Score: inf
ROOT
ATOM      1  C   UNL A   1      34.020  31.990  27.837  1.00  0.00     0.188 C 
ENDROOT
BRANCH   1   2
ATOM      2  C   UNL A   1      33.719  33.385  28.397  1.00  0.00     0.188 C 
BRANCH   2   3
ATOM      3  O   UNL A   1      34.663  33.974  29.274  1.00  0.00    -0.376 OA
BRANCH   3   4
ATOM      4  C   UNL A   1      34.109  34.741  30.349  1.00  0.00     0.202 C 
BRANCH   4   5
ATOM      5  C   UNL A   1      34.146  34.197  31.804  1.00  0.00     0.261 C 
BRANCH   5   6
ATOM      6  O   UNL A   1      34.555  32.821  31.961  1.00  0.00    -0.460 OA
BRANCH   6   7
ATOM      7  C   UNL A   1      35.628  32.419  32.682  1.00  0.00     0.338 C 
ATOM      8  O   UNL A   1      35.750  32.722  33.861  1.00  0.00    -0.246 OA
BRANCH   7   9
ATOM      9  C   UNL A   1      36.741  31.744  31.963  1.00  0.00     0.060 A 
ATOM     10  C   UNL A   1      37.716  31.006  32.624  1.00  0.00     0.016 A 
ATOM     11  C   UNL A   1      36.782  31.805  30.564  1.00  0.00     0.016 A 
ATOM     12  C   UNL A   1      38.817  30.506  31.952  1.00  0.00     0.010 A 
ATOM     13  C   UNL A   1      37.831  31.201  29.863  1.00  0.00     0.010 A 
ATOM     14  C   UNL A   1      38.885  30.595  30.564  1.00  0.00    -0.014 A 
BRANCH  14  15
ATOM     15  C   UNL A   1      40.101  30.106  29.885  1.00  0.00     0.031 A 
ATOM     16  C   UNL A   1      41.285  31.021  29.769  1.00  0.00     0.074 A 
ATOM     17  C   UNL A   1      40.174  28.825  29.475  1.00  0.00     0.049 A 
ATOM     18  N   UNL A   1      42.427  30.818  29.170  1.00  0.00    -0.248 NA
ATOM     19  C   UNL A   1      41.179  32.331  30.435  1.00  0.00     0.031 C 
ATOM     20  C   UNL A   1      39.125  27.816  29.652  1.00  0.00     0.029 A 
ATOM     21  N   UNL A   1      41.177  28.143  28.839  1.00  0.00    -0.354 N 
ATOM     22  C   UNL A   1      43.165  31.976  29.369  1.00  0.00     0.074 A 
ATOM     23  C   UNL A   1      42.343  32.886  30.132  1.00  0.00     0.031 C 
ATOM     24  C   UNL A   1      39.537  26.652  29.128  1.00  0.00     0.029 A 
ATOM     25  C   UNL A   1      40.841  26.851  28.520  1.00  0.00     0.049 A 
ATOM     26  H   UNL A   1      42.054  28.541  28.632  1.00  0.00     0.167 HD
ATOM     27  C   UNL A   1      44.422  32.249  28.949  1.00  0.00     0.031 A 
ATOM     28  C   UNL A   1      41.491  25.945  27.771  1.00  0.00     0.031 A 
ATOM     29  C   UNL A   1      45.221  31.330  28.187  1.00  0.00     0.049 A 
ATOM     30  C   UNL A   1      42.821  26.326  27.200  1.00  0.00     0.074 A 
ATOM     31  C   UNL A   1      46.499  31.502  27.689  1.00  0.00     0.029 A 
ATOM     32  N   UNL A   1      44.805  30.062  27.806  1.00  0.00    -0.354 N 
ATOM     33  N   UNL A   1      43.495  27.439  27.362  1.00  0.00    -0.248 NA
ATOM     34  C   UNL A   1      43.476  25.331  26.344  1.00  0.00     0.031 C 
ATOM     35  C   UNL A   1      46.832  30.361  26.953  1.00  0.00     0.029 A 
ATOM     36  C   UNL A   1      45.786  29.456  27.042  1.00  0.00     0.049 A 
ATOM     37  H   UNL A   1      43.940  29.656  28.043  1.00  0.00     0.167 HD
ATOM     38  C   UNL A   1      44.663  27.274  26.637  1.00  0.00     0.074 A 
ATOM     39  C   UNL A   1      44.613  25.947  26.054  1.00  0.00     0.031 C 
ATOM     40  C   UNL A   1      45.689  28.141  26.465  1.00  0.00     0.031 A 
BRANCH  27  41
ATOM     41  C   UNL A   1      44.969  33.615  29.244  1.00  0.00    -0.014 A 
ATOM     42  C   UNL A   1      44.945  34.642  28.287  1.00  0.00     0.009 A 
ATOM     43  C   UNL A   1      45.507  33.880  30.512  1.00  0.00     0.009 A 
ATOM     44  C   UNL A   1      45.472  35.901  28.591  1.00  0.00     0.001 A 
ATOM     45  C   UNL A   1      46.013  35.143  30.820  1.00  0.00     0.001 A 
ATOM     46  C   UNL A   1      46.001  36.151  29.858  1.00  0.00     0.000 A 
ENDBRANCH  27  41
BRANCH  28  47
ATOM     47  C   UNL A   1      40.857  24.652  27.410  1.00  0.00    -0.014 A 
ATOM     48  C   UNL A   1      39.694  24.600  26.628  1.00  0.00     0.009 A 
ATOM     49  C   UNL A   1      41.384  23.457  27.923  1.00  0.00     0.009 A 
ATOM     50  C   UNL A   1      39.057  23.378  26.392  1.00  0.00     0.001 A 
ATOM     51  C   UNL A   1      40.752  22.237  27.676  1.00  0.00     0.001 A 
ATOM     52  C   UNL A   1      39.586  22.199  26.916  1.00  0.00     0.000 A 
ENDBRANCH  28  47
BRANCH  40  53
ATOM     53  C   UNL A   1      46.832  27.659  25.627  1.00  0.00    -0.014 A 
ATOM     54  C   UNL A   1      46.913  27.979  24.263  1.00  0.00     0.009 A 
ATOM     55  C   UNL A   1      47.843  26.887  26.216  1.00  0.00     0.009 A 
ATOM     56  C   UNL A   1      47.975  27.502  23.496  1.00  0.00     0.001 A 
ATOM     57  C   UNL A   1      48.920  26.440  25.453  1.00  0.00     0.001 A 
ATOM     58  C   UNL A   1      48.979  26.738  24.092  1.00  0.00     0.000 A 
ENDBRANCH  40  53
ENDBRANCH  14  15
ENDBRANCH   7   9
ENDBRANCH   6   7
ENDBRANCH   5   6
ENDBRANCH   4   5
ENDBRANCH   3   4
ENDBRANCH   2   3
ENDBRANCH   1   2
BRANCH   1  59
ATOM     59  O   UNL A   1      32.949  31.240  27.305  1.00  0.00    -0.376 OA
BRANCH  59  60
ATOM     60  C   UNL A   1      33.246  29.909  26.907  1.00  0.00     0.202 C 
BRANCH  60  61
ATOM     61  C   UNL A   1      33.178  29.556  25.411  1.00  0.00     0.261 C 
BRANCH  61  62
ATOM     62  O   UNL A   1      33.477  28.194  25.038  1.00  0.00    -0.460 OA
BRANCH  62  63
ATOM     63  C   UNL A   1      33.643  28.013  23.700  1.00  0.00     0.342 C 
ATOM     64  O   UNL A   1      33.801  28.881  22.860  1.00  0.00    -0.246 OA
BRANCH  63  65
ATOM     65  C   UNL A   1      33.380  26.622  23.315  1.00  0.00     0.103 A 
ATOM     66  C   UNL A   1      34.293  25.701  23.855  1.00  0.00     0.035 A 
ATOM     67  C   UNL A   1      32.239  26.165  22.646  1.00  0.00     0.145 A 
ATOM     68  C   UNL A   1      34.064  24.337  23.720  1.00  0.00     0.019 A 
ATOM     69  C   UNL A   1      32.083  24.786  22.416  1.00  0.00     0.049 A 
ATOM     70  Br  UNL A   1      35.183  23.126  24.639  1.00  0.00    -0.051 Br
ATOM     71  C   UNL A   1      32.987  23.872  22.971  1.00  0.00     0.019 A 
BRANCH  67  72
ATOM     72  O   UNL A   1      31.192  27.019  22.245  1.00  0.00    -0.422 OA
BRANCH  72  73
ATOM     73  C   UNL A   1      30.226  27.112  23.243  1.00  0.00     0.343 C 
ATOM     74  O   UNL A   1      29.910  26.230  24.030  1.00  0.00    -0.246 OA
BRANCH  73  75
ATOM     75  C   UNL A   1      29.479  28.399  23.204  1.00  0.00     0.060 A 
ATOM     76  C   UNL A   1      28.098  28.355  22.972  1.00  0.00     0.019 A 
ATOM     77  C   UNL A   1      30.065  29.631  23.497  1.00  0.00     0.019 A 
ATOM     78  C   UNL A   1      27.335  29.529  23.009  1.00  0.00     0.040 A 
ATOM     79  C   UNL A   1      29.314  30.809  23.516  1.00  0.00     0.040 A 
ATOM     80  C   UNL A   1      27.951  30.747  23.276  1.00  0.00     0.123 A 
ATOM     81  F   UNL A   1      27.219  31.866  23.335  1.00  0.00    -0.207 F 
ENDBRANCH  73  75
ENDBRANCH  72  73
ENDBRANCH  67  72
ENDBRANCH  63  65
ENDBRANCH  62  63
ENDBRANCH  61  62
ENDBRANCH  60  61
ENDBRANCH  59  60
ENDBRANCH   1  59
TORSDOF 20
ENDMDL
MODEL 2
REMARK VINA RESULT:     -10.3      4.407      7.994
REMARK SMILES O=C(OCCOCCOCCOC(=O)c1cc(Br)ccc1OC(=O)c1ccc(F)cc1)c1ccc(-c2c3nc(c(-c4ccccc4)c4ccc([nH]4)c(-c4ccccc4)c4nc(c(-c5ccccc5)c5ccc2[nH]5)C=C4)C=C3)cc1
REMARK SMILES IDX 8 1 7 2 6 3 5 4 4 5 3 6 2 7 1 8 32 9 33 10 79 11 34 12 78 13
REMARK SMILES IDX 35 14 36 15 37 16 72 17 38 18 77 19 71 20 73 21 39 22 76 23
REMARK SMILES IDX 70 24 69 25 40 27 62 28 47 29 61 30 48 31 51 32 60 33 74 34
REMARK SMILES IDX 49 35 50 36 59 38 75 39 52 40 41 41 42 42 46 43 43 44 45 45
REMARK SMILES IDX 44 46 63 47 64 48 68 49 65 50 67 51 66 52 53 53 54 54 58 55
REMARK SMILES IDX 55 56 57 57 56 58 9 59 10 60 11 61 12 62 13 63 14 64 15 65
REMARK SMILES IDX 16 66 21 67 17 68 20 69 18 70 19 71 22 72 23 73 24 74 25 75
REMARK SMILES IDX 26 76 31 77 27 78 30 79 28 80 29 81
REMARK H PARENT 73 26 51 37
REMARK Flexibility Score: inf
ROOT
ATOM      1  C   UNL A   1      34.697  31.919  28.206  1.00  0.00     0.188 C 
ENDROOT
BRANCH   1   2
ATOM      2  C   UNL A   1      34.597  33.027  29.260  1.00  0.00     0.188 C 
BRANCH   2   3
ATOM      3  O   UNL A   1      35.153  34.294  28.956  1.00  0.00    -0.376 OA
BRANCH   3   4
ATOM      4  C   UNL A   1      34.216  35.296  28.545  1.00  0.00     0.202 C 
BRANCH   4   5
ATOM      5  C   UNL A   1      32.903  35.518  29.344  1.00  0.00     0.261 C 
BRANCH   5   6
ATOM      6  O   UNL A   1      33.046  36.071  30.671  1.00  0.00    -0.460 OA
BRANCH   6   7
ATOM      7  C   UNL A   1      32.961  35.352  31.814  1.00  0.00     0.338 C 
ATOM      8  O   UNL A   1      31.923  35.309  32.461  1.00  0.00    -0.246 OA
BRANCH   7   9
ATOM      9  C   UNL A   1      34.208  34.755  32.359  1.00  0.00     0.060 A 
ATOM     10  C   UNL A   1      35.455  35.347  32.190  1.00  0.00     0.016 A 
ATOM     11  C   UNL A   1      34.124  33.582  33.122  1.00  0.00     0.016 A 
ATOM     12  C   UNL A   1      36.615  34.704  32.583  1.00  0.00     0.010 A 
ATOM     13  C   UNL A   1      35.283  32.984  33.626  1.00  0.00     0.010 A 
ATOM     14  C   UNL A   1      36.541  33.517  33.309  1.00  0.00    -0.014 A 
BRANCH  14  15
ATOM     15  C   UNL A   1      37.798  32.826  33.659  1.00  0.00     0.031 A 
ATOM     16  C   UNL A   1      38.346  31.795  32.718  1.00  0.00     0.074 A 
ATOM     17  C   UNL A   1      38.488  33.200  34.754  1.00  0.00     0.049 A 
ATOM     18  N   UNL A   1      39.398  31.033  32.852  1.00  0.00    -0.248 NA
ATOM     19  C   UNL A   1      37.627  31.608  31.445  1.00  0.00     0.031 C 
ATOM     20  C   UNL A   1      38.107  34.280  35.670  1.00  0.00     0.029 A 
ATOM     21  N   UNL A   1      39.662  32.727  35.278  1.00  0.00    -0.354 N 
ATOM     22  C   UNL A   1      39.457  30.268  31.696  1.00  0.00     0.074 A 
ATOM     23  C   UNL A   1      38.329  30.642  30.874  1.00  0.00     0.031 C 
ATOM     24  C   UNL A   1      39.023  34.377  36.646  1.00  0.00     0.029 A 
ATOM     25  C   UNL A   1      40.010  33.327  36.463  1.00  0.00     0.049 A 
ATOM     26  H   UNL A   1      40.203  32.026  34.847  1.00  0.00     0.167 HD
ATOM     27  C   UNL A   1      40.376  29.335  31.357  1.00  0.00     0.031 A 
ATOM     28  C   UNL A   1      40.988  33.026  37.334  1.00  0.00     0.031 A 
ATOM     29  C   UNL A   1      41.487  28.976  32.193  1.00  0.00     0.049 A 
ATOM     30  C   UNL A   1      41.907  31.893  36.997  1.00  0.00     0.074 A 
ATOM     31  C   UNL A   1      42.472  28.032  31.964  1.00  0.00     0.029 A 
ATOM     32  N   UNL A   1      41.752  29.545  33.430  1.00  0.00    -0.354 N 
ATOM     33  N   UNL A   1      41.931  31.150  35.918  1.00  0.00    -0.248 NA
ATOM     34  C   UNL A   1      42.928  31.559  37.996  1.00  0.00     0.031 C 
ATOM     35  C   UNL A   1      43.297  27.988  33.093  1.00  0.00     0.029 A 
ATOM     36  C   UNL A   1      42.861  28.944  33.997  1.00  0.00     0.049 A 
ATOM     37  H   UNL A   1      41.227  30.269  33.843  1.00  0.00     0.167 HD
ATOM     38  C   UNL A   1      42.979  30.264  36.101  1.00  0.00     0.074 A 
ATOM     39  C   UNL A   1      43.577  30.579  37.384  1.00  0.00     0.031 C 
ATOM     40  C   UNL A   1      43.412  29.274  35.284  1.00  0.00     0.031 A 
BRANCH  27  41
ATOM     41  C   UNL A   1      40.169  28.597  30.066  1.00  0.00    -0.014 A 
ATOM     42  C   UNL A   1      39.446  27.396  30.010  1.00  0.00     0.009 A 
ATOM     43  C   UNL A   1      40.700  29.128  28.880  1.00  0.00     0.009 A 
ATOM     44  C   UNL A   1      39.281  26.728  28.792  1.00  0.00     0.001 A 
ATOM     45  C   UNL A   1      40.515  28.471  27.663  1.00  0.00     0.001 A 
ATOM     46  C   UNL A   1      39.812  27.269  27.621  1.00  0.00     0.000 A 
ENDBRANCH  27  41
BRANCH  28  47
ATOM     47  C   UNL A   1      41.078  33.706  38.651  1.00  0.00    -0.014 A 
ATOM     48  C   UNL A   1      41.898  34.826  38.841  1.00  0.00     0.009 A 
ATOM     49  C   UNL A   1      40.390  33.172  39.751  1.00  0.00     0.009 A 
ATOM     50  C   UNL A   1      42.048  35.382  40.116  1.00  0.00     0.001 A 
ATOM     51  C   UNL A   1      40.533  33.737  41.021  1.00  0.00     0.001 A 
ATOM     52  C   UNL A   1      41.366  34.837  41.203  1.00  0.00     0.000 A 
ENDBRANCH  28  47
BRANCH  40  53
ATOM     53  C   UNL A   1      44.594  28.489  35.762  1.00  0.00    -0.014 A 
ATOM     54  C   UNL A   1      44.426  27.313  36.509  1.00  0.00     0.009 A 
ATOM     55  C   UNL A   1      45.889  28.927  35.447  1.00  0.00     0.009 A 
ATOM     56  C   UNL A   1      45.540  26.608  36.961  1.00  0.00     0.001 A 
ATOM     57  C   UNL A   1      46.998  28.202  35.874  1.00  0.00     0.001 A 
ATOM     58  C   UNL A   1      46.823  27.049  36.639  1.00  0.00     0.000 A 
ENDBRANCH  40  53
ENDBRANCH  14  15
ENDBRANCH   7   9
ENDBRANCH   6   7
ENDBRANCH   5   6
ENDBRANCH   4   5
ENDBRANCH   3   4
ENDBRANCH   2   3
ENDBRANCH   1   2
BRANCH   1  59
ATOM     59  O   UNL A   1      33.501  31.323  27.749  1.00  0.00    -0.376 OA
BRANCH  59  60
ATOM     60  C   UNL A   1      33.606  29.995  27.255  1.00  0.00     0.202 C 
BRANCH  60  61
ATOM     61  C   UNL A   1      32.582  29.516  26.211  1.00  0.00     0.261 C 
BRANCH  61  62
ATOM     62  O   UNL A   1      32.711  28.160  25.731  1.00  0.00    -0.460 OA
BRANCH  62  63
ATOM     63  C   UNL A   1      31.805  27.298  26.266  1.00  0.00     0.342 C 
ATOM     64  O   UNL A   1      31.134  27.473  27.268  1.00  0.00    -0.246 OA
BRANCH  63  65
ATOM     65  C   UNL A   1      31.875  25.984  25.618  1.00  0.00     0.103 A 
ATOM     66  C   UNL A   1      32.887  25.153  26.126  1.00  0.00     0.035 A 
ATOM     67  C   UNL A   1      30.933  25.470  24.719  1.00  0.00     0.145 A 
ATOM     68  C   UNL A   1      32.956  23.823  25.731  1.00  0.00     0.019 A 
ATOM     69  C   UNL A   1      31.087  24.156  24.240  1.00  0.00     0.049 A 
ATOM     70  Br  UNL A   1      34.183  22.675  26.590  1.00  0.00    -0.051 Br
ATOM     71  C   UNL A   1      32.088  23.328  24.762  1.00  0.00     0.019 A 
BRANCH  67  72
ATOM     72  O   UNL A   1      29.788  26.185  24.315  1.00  0.00    -0.422 OA
BRANCH  72  73
ATOM     73  C   UNL A   1      30.096  27.054  23.272  1.00  0.00     0.343 C 
ATOM     74  O   UNL A   1      30.962  26.889  22.423  1.00  0.00    -0.246 OA
BRANCH  73  75
ATOM     75  C   UNL A   1      29.329  28.328  23.336  1.00  0.00     0.060 A 
ATOM     76  C   UNL A   1      30.043  29.521  23.508  1.00  0.00     0.019 A 
ATOM     77  C   UNL A   1      27.952  28.401  23.123  1.00  0.00     0.019 A 
ATOM     78  C   UNL A   1      29.378  30.753  23.491  1.00  0.00     0.040 A 
ATOM     79  C   UNL A   1      27.279  29.626  23.125  1.00  0.00     0.040 A 
ATOM     80  C   UNL A   1      28.000  30.795  23.304  1.00  0.00     0.123 A 
ATOM     81  F   UNL A   1      27.367  31.973  23.265  1.00  0.00    -0.207 F 
ENDBRANCH  73  75
ENDBRANCH  72  73
ENDBRANCH  67  72
ENDBRANCH  63  65
ENDBRANCH  62  63
ENDBRANCH  61  62
ENDBRANCH  60  61
ENDBRANCH  59  60
ENDBRANCH   1  59
TORSDOF 20
ENDMDL
MODEL 3
REMARK VINA RESULT:     -10.3      5.403     10.278
REMARK SMILES O=C(OCCOCCOCCOC(=O)c1cc(Br)ccc1OC(=O)c1ccc(F)cc1)c1ccc(-c2c3nc(c(-c4ccccc4)c4ccc([nH]4)c(-c4ccccc4)c4nc(c(-c5ccccc5)c5ccc2[nH]5)C=C4)C=C3)cc1
REMARK SMILES IDX 8 1 7 2 6 3 5 4 4 5 3 6 2 7 1 8 32 9 33 10 79 11 34 12 78 13
REMARK SMILES IDX 35 14 36 15 37 16 72 17 38 18 77 19 71 20 73 21 39 22 76 23
REMARK SMILES IDX 70 24 69 25 40 27 62 28 47 29 61 30 48 31 51 32 60 33 74 34
REMARK SMILES IDX 49 35 50 36 59 38 75 39 52 40 41 41 42 42 46 43 43 44 45 45
REMARK SMILES IDX 44 46 63 47 64 48 68 49 65 50 67 51 66 52 53 53 54 54 58 55
REMARK SMILES IDX 55 56 57 57 56 58 9 59 10 60 11 61 12 62 13 63 14 64 15 65
REMARK SMILES IDX 16 66 21 67 17 68 20 69 18 70 19 71 22 72 23 73 24 74 25 75
REMARK SMILES IDX 26 76 31 77 27 78 30 79 28 80 29 81
REMARK H PARENT 73 26 51 37
REMARK Flexibility Score: inf
ROOT
ATOM      1  C   UNL A   1      40.786  21.103  26.095  1.00  0.00     0.188 C 
ENDROOT
BRANCH   1   2
ATOM      2  C   UNL A   1      41.536  19.784  26.312  1.00  0.00     0.188 C 
BRANCH   2   3
ATOM      3  O   UNL A   1      42.441  19.355  25.310  1.00  0.00    -0.376 OA
BRANCH   3   4
ATOM      4  C   UNL A   1      43.818  19.665  25.550  1.00  0.00     0.202 C 
BRANCH   4   5
ATOM      5  C   UNL A   1      44.411  21.021  25.078  1.00  0.00     0.261 C 
BRANCH   5   6
ATOM      6  O   UNL A   1      44.264  22.134  25.986  1.00  0.00    -0.460 OA
BRANCH   6   7
ATOM      7  C   UNL A   1      43.667  23.307  25.669  1.00  0.00     0.338 C 
ATOM      8  O   UNL A   1      43.512  23.645  24.503  1.00  0.00    -0.246 OA
BRANCH   7   9
ATOM      9  C   UNL A   1      43.359  24.255  26.771  1.00  0.00     0.060 A 
ATOM     10  C   UNL A   1      42.625  23.883  27.892  1.00  0.00     0.016 A 
ATOM     11  C   UNL A   1      43.872  25.558  26.711  1.00  0.00     0.016 A 
ATOM     12  C   UNL A   1      42.231  24.815  28.835  1.00  0.00     0.010 A 
ATOM     13  C   UNL A   1      43.576  26.479  27.721  1.00  0.00     0.010 A 
ATOM     14  C   UNL A   1      42.705  26.122  28.761  1.00  0.00    -0.014 A 
BRANCH  14  15
ATOM     15  C   UNL A   1      42.217  27.106  29.749  1.00  0.00     0.031 A 
ATOM     16  C   UNL A   1      42.992  27.307  31.017  1.00  0.00     0.074 A 
ATOM     17  C   UNL A   1      41.154  27.880  29.458  1.00  0.00     0.049 A 
ATOM     18  N   UNL A   1      42.717  28.074  32.038  1.00  0.00    -0.248 NA
ATOM     19  C   UNL A   1      44.258  26.563  31.147  1.00  0.00     0.031 C 
ATOM     20  C   UNL A   1      40.403  27.852  28.198  1.00  0.00     0.029 A 
ATOM     21  N   UNL A   1      40.526  28.852  30.190  1.00  0.00    -0.354 N 
ATOM     22  C   UNL A   1      43.760  27.890  32.935  1.00  0.00     0.074 A 
ATOM     23  C   UNL A   1      44.668  26.932  32.351  1.00  0.00     0.031 C 
ATOM     24  C   UNL A   1      39.413  28.756  28.253  1.00  0.00     0.029 A 
ATOM     25  C   UNL A   1      39.416  29.371  29.569  1.00  0.00     0.049 A 
ATOM     26  H   UNL A   1      40.839  29.149  31.075  1.00  0.00     0.167 HD
ATOM     27  C   UNL A   1      43.937  28.477  34.142  1.00  0.00     0.031 A 
ATOM     28  C   UNL A   1      38.475  30.210  30.032  1.00  0.00     0.031 A 
ATOM     29  C   UNL A   1      43.016  29.424  34.706  1.00  0.00     0.049 A 
ATOM     30  C   UNL A   1      38.623  30.734  31.427  1.00  0.00     0.074 A 
ATOM     31  C   UNL A   1      43.080  30.070  35.927  1.00  0.00     0.029 A 
ATOM     32  N   UNL A   1      41.855  29.855  34.080  1.00  0.00    -0.354 N 
ATOM     33  N   UNL A   1      39.594  30.526  32.283  1.00  0.00    -0.248 NA
ATOM     34  C   UNL A   1      37.549  31.605  31.917  1.00  0.00     0.031 C 
ATOM     35  C   UNL A   1      41.923  30.843  36.066  1.00  0.00     0.029 A 
ATOM     36  C   UNL A   1      41.170  30.725  34.908  1.00  0.00     0.049 A 
ATOM     37  H   UNL A   1      41.562  29.580  33.181  1.00  0.00     0.167 HD
ATOM     38  C   UNL A   1      39.254  31.250  33.413  1.00  0.00     0.074 A 
ATOM     39  C   UNL A   1      38.000  31.919  33.123  1.00  0.00     0.031 C 
ATOM     40  C   UNL A   1      39.916  31.355  34.589  1.00  0.00     0.031 A 
BRANCH  27  41
ATOM     41  C   UNL A   1      45.127  28.050  34.951  1.00  0.00    -0.014 A 
ATOM     42  C   UNL A   1      46.356  28.722  34.866  1.00  0.00     0.009 A 
ATOM     43  C   UNL A   1      45.007  26.958  35.824  1.00  0.00     0.009 A 
ATOM     44  C   UNL A   1      47.449  28.293  35.626  1.00  0.00     0.001 A 
ATOM     45  C   UNL A   1      46.093  26.545  36.597  1.00  0.00     0.001 A 
ATOM     46  C   UNL A   1      47.314  27.208  36.493  1.00  0.00     0.000 A 
ENDBRANCH  27  41
BRANCH  28  47
ATOM     47  C   UNL A   1      37.256  30.508  29.239  1.00  0.00    -0.014 A 
ATOM     48  C   UNL A   1      36.320  29.511  28.932  1.00  0.00     0.009 A 
ATOM     49  C   UNL A   1      37.071  31.798  28.717  1.00  0.00     0.009 A 
ATOM     50  C   UNL A   1      35.237  29.794  28.094  1.00  0.00     0.001 A 
ATOM     51  C   UNL A   1      35.982  32.080  27.890  1.00  0.00     0.001 A 
ATOM     52  C   UNL A   1      35.069  31.077  27.575  1.00  0.00     0.000 A 
ENDBRANCH  28  47
BRANCH  40  53
ATOM     53  C   UNL A   1      39.293  32.238  35.625  1.00  0.00    -0.014 A 
ATOM     54  C   UNL A   1      39.549  33.618  35.647  1.00  0.00     0.009 A 
ATOM     55  C   UNL A   1      38.430  31.681  36.580  1.00  0.00     0.009 A 
ATOM     56  C   UNL A   1      38.975  34.419  36.633  1.00  0.00     0.001 A 
ATOM     57  C   UNL A   1      37.832  32.491  37.543  1.00  0.00     0.001 A 
ATOM     58  C   UNL A   1      38.114  33.856  37.575  1.00  0.00     0.000 A 
ENDBRANCH  40  53
ENDBRANCH  14  15
ENDBRANCH   7   9
ENDBRANCH   6   7
ENDBRANCH   5   6
ENDBRANCH   4   5
ENDBRANCH   3   4
ENDBRANCH   2   3
ENDBRANCH   1   2
BRANCH   1  59
ATOM     59  O   UNL A   1      39.453  21.195  26.551  1.00  0.00    -0.376 OA
BRANCH  59  60
ATOM     60  C   UNL A   1      38.519  21.786  25.659  1.00  0.00     0.202 C 
BRANCH  60  61
ATOM     61  C   UNL A   1      38.007  23.205  25.963  1.00  0.00     0.261 C 
BRANCH  61  62
ATOM     62  O   UNL A   1      36.642  23.334  26.413  1.00  0.00    -0.460 OA
BRANCH  62  63
ATOM     63  C   UNL A   1      35.737  23.440  25.403  1.00  0.00     0.342 C 
ATOM     64  O   UNL A   1      35.968  23.721  24.240  1.00  0.00    -0.246 OA
BRANCH  63  65
ATOM     65  C   UNL A   1      34.362  23.398  25.915  1.00  0.00     0.103 A 
ATOM     66  C   UNL A   1      33.733  24.653  25.958  1.00  0.00     0.035 A 
ATOM     67  C   UNL A   1      33.622  22.236  26.163  1.00  0.00     0.145 A 
ATOM     68  C   UNL A   1      32.378  24.740  26.252  1.00  0.00     0.019 A 
ATOM     69  C   UNL A   1      32.281  22.350  26.575  1.00  0.00     0.049 A 
ATOM     70  Br  UNL A   1      31.512  26.409  26.088  1.00  0.00    -0.051 Br
ATOM     71  C   UNL A   1      31.656  23.603  26.599  1.00  0.00     0.019 A 
BRANCH  67  72
ATOM     72  O   UNL A   1      34.137  20.940  25.957  1.00  0.00    -0.422 OA
BRANCH  72  73
ATOM     73  C   UNL A   1      33.653  20.406  24.766  1.00  0.00     0.343 C 
ATOM     74  O   UNL A   1      33.266  21.038  23.792  1.00  0.00    -0.246 OA
BRANCH  73  75
ATOM     75  C   UNL A   1      33.523  18.923  24.809  1.00  0.00     0.060 A 
ATOM     76  C   UNL A   1      32.649  18.364  25.750  1.00  0.00     0.019 A 
ATOM     77  C   UNL A   1      34.142  18.076  23.890  1.00  0.00     0.019 A 
ATOM     78  C   UNL A   1      32.426  16.981  25.777  1.00  0.00     0.040 A 
ATOM     79  C   UNL A   1      33.941  16.694  23.924  1.00  0.00     0.040 A 
ATOM     80  C   UNL A   1      33.079  16.157  24.866  1.00  0.00     0.123 A 
ATOM     81  F   UNL A   1      32.849  14.839  24.876  1.00  0.00    -0.207 F 
ENDBRANCH  73  75
ENDBRANCH  72  73
ENDBRANCH  67  72
ENDBRANCH  63  65
ENDBRANCH  62  63
ENDBRANCH  61  62
ENDBRANCH  60  61
ENDBRANCH  59  60
ENDBRANCH   1  59
TORSDOF 20
ENDMDL
