MODEL 1
REMARK VINA RESULT:     -10.6      0.000      0.000
REMARK SMILES Cc1cc(Cl)c(C)c2c1O[C@H](C(F)(F)F)C(C(=O)OCCOCCOCCOC(=O)c1ccc(-c3c4nc(c(-c5ccccc5)c5ccc([nH]5)c(-c5ccccc5)c5nc(c(-c6ccccc6)c6ccc3[nH]6)C=C5)C=C4)cc1)=C2
REMARK SMILES IDX 24 1 23 2 22 3 21 4 20 5 19 6 17 7 18 8 16 9 1 10 2 11 3 12
REMARK SMILES IDX 9 13 4 14 8 15 10 16 5 17 6 18 79 19 11 20 7 21 12 22 13 23
REMARK SMILES IDX 14 24 15 25 25 26 26 27 27 28 28 29 29 30 30 31 31 32 32 33
REMARK SMILES IDX 78 34 33 35 77 36 34 37 35 38 36 39 71 40 37 41 76 42 70 43
REMARK SMILES IDX 72 44 38 45 75 46 69 47 68 48 39 50 61 51 46 52 60 53 47 54
REMARK SMILES IDX 50 55 59 56 73 57 48 58 49 59 58 61 74 62 51 63 40 64 41 65
REMARK SMILES IDX 45 66 42 67 44 68 43 69 62 70 63 71 67 72 64 73 66 74 65 75
REMARK SMILES IDX 52 76 53 77 57 78 54 79 56 80 55 81
REMARK H PARENT 72 49 50 60
REMARK Flexibility Score: inf
ROOT
ATOM      1  C   UNL A   1      40.521  20.672  26.547  1.00  0.00     0.188 C 
ENDROOT
BRANCH   1   2
ATOM      2  C   UNL A   1      39.404  21.621  26.064  1.00  0.00     0.188 C 
BRANCH   2   3
ATOM      3  O   UNL A   1      39.351  22.956  26.522  1.00  0.00    -0.376 OA
BRANCH   3   4
ATOM      4  C   UNL A   1      38.144  23.698  26.468  1.00  0.00     0.202 C 
BRANCH   4   5
ATOM      5  C   UNL A   1      37.038  23.432  25.435  1.00  0.00     0.261 C 
BRANCH   5   6
ATOM      6  O   UNL A   1      36.052  22.460  25.807  1.00  0.00    -0.460 OA
BRANCH   6   7
ATOM      7  C   UNL A   1      34.898  22.968  26.301  1.00  0.00     0.338 C 
ATOM      8  O   UNL A   1      34.432  22.777  27.412  1.00  0.00    -0.246 OA
BRANCH   7   9
ATOM      9  C   UNL A   1      34.332  23.937  25.341  1.00  0.00     0.087 C 
ATOM     10  C   UNL A   1      31.825  26.135  21.465  1.00  0.00     0.048 C 
ATOM     11  C   UNL A   1      32.334  26.579  22.809  1.00  0.00    -0.007 A 
ATOM     12  C   UNL A   1      31.958  27.840  23.284  1.00  0.00     0.028 A 
ATOM     13  C   UNL A   1      33.086  25.739  23.642  1.00  0.00     0.131 A 
ATOM     14  C   UNL A   1      32.357  28.280  24.549  1.00  0.00     0.045 A 
ATOM     15  C   UNL A   1      33.448  26.149  24.938  1.00  0.00     0.022 A 
ATOM     16  O   UNL A   1      33.430  24.527  23.110  1.00  0.00    -0.475 OA
ATOM     17  Cl  UNL A   1      31.835  29.862  25.015  1.00  0.00    -0.084 Cl
ATOM     18  C   UNL A   1      33.119  27.453  25.395  1.00  0.00    -0.021 A 
ATOM     19  C   UNL A   1      34.093  25.169  25.810  1.00  0.00     0.027 C 
ATOM     20  C   UNL A   1      34.061  23.514  23.930  1.00  0.00     0.316 C 
ATOM     21  C   UNL A   1      33.568  27.922  26.758  1.00  0.00     0.047 C 
BRANCH  20  22
ATOM     22  C   UNL A   1      33.209  22.241  23.847  1.00  0.00     0.430 C 
ATOM     23  F   UNL A   1      32.213  22.257  24.766  1.00  0.00    -0.167 F 
ATOM     24  F   UNL A   1      32.619  22.106  22.638  1.00  0.00    -0.167 F 
ATOM     25  F   UNL A   1      33.945  21.128  24.066  1.00  0.00    -0.167 F 
ENDBRANCH  20  22
ENDBRANCH   7   9
ENDBRANCH   6   7
ENDBRANCH   5   6
ENDBRANCH   4   5
ENDBRANCH   3   4
ENDBRANCH   2   3
ENDBRANCH   1   2
BRANCH   1  26
ATOM     26  O   UNL A   1      41.797  21.202  26.809  1.00  0.00    -0.376 OA
BRANCH  26  27
ATOM     27  C   UNL A   1      42.903  20.840  25.998  1.00  0.00     0.202 C 
BRANCH  27  28
ATOM     28  C   UNL A   1      43.823  21.817  25.236  1.00  0.00     0.261 C 
BRANCH  28  29
ATOM     29  O   UNL A   1      43.268  23.062  24.801  1.00  0.00    -0.460 OA
BRANCH  29  30
ATOM     30  C   UNL A   1      44.041  24.156  25.026  1.00  0.00     0.338 C 
ATOM     31  O   UNL A   1      45.067  24.469  24.454  1.00  0.00    -0.246 OA
BRANCH  30  32
ATOM     32  C   UNL A   1      43.330  25.053  25.957  1.00  0.00     0.060 A 
ATOM     33  C   UNL A   1      43.786  26.372  26.096  1.00  0.00     0.016 A 
ATOM     34  C   UNL A   1      42.242  24.596  26.702  1.00  0.00     0.016 A 
ATOM     35  C   UNL A   1      43.157  27.239  26.986  1.00  0.00     0.010 A 
ATOM     36  C   UNL A   1      41.632  25.458  27.619  1.00  0.00     0.010 A 
ATOM     37  C   UNL A   1      42.102  26.775  27.781  1.00  0.00    -0.014 A 
BRANCH  37  38
ATOM     38  C   UNL A   1      41.630  27.603  28.917  1.00  0.00     0.031 A 
ATOM     39  C   UNL A   1      42.390  27.531  30.213  1.00  0.00     0.074 A 
ATOM     40  C   UNL A   1      40.583  28.437  28.796  1.00  0.00     0.049 A 
ATOM     41  N   UNL A   1      42.157  28.141  31.346  1.00  0.00    -0.248 NA
ATOM     42  C   UNL A   1      43.579  26.661  30.228  1.00  0.00     0.031 C 
ATOM     43  C   UNL A   1      39.808  28.656  27.576  1.00  0.00     0.029 A 
ATOM     44  N   UNL A   1      39.995  29.262  29.722  1.00  0.00    -0.354 N 
ATOM     45  C   UNL A   1      43.169  27.731  32.205  1.00  0.00     0.074 A 
ATOM     46  C   UNL A   1      43.998  26.798  31.477  1.00  0.00     0.031 C 
ATOM     47  C   UNL A   1      38.843  29.557  27.831  1.00  0.00     0.029 A 
ATOM     48  C   UNL A   1      38.909  29.950  29.239  1.00  0.00     0.049 A 
ATOM     49  H   UNL A   1      40.321  29.353  30.646  1.00  0.00     0.167 HD
ATOM     50  C   UNL A   1      43.393  28.106  33.486  1.00  0.00     0.031 A 
ATOM     51  C   UNL A   1      38.056  30.784  29.866  1.00  0.00     0.031 A 
ATOM     52  C   UNL A   1      42.557  29.014  34.223  1.00  0.00     0.049 A 
ATOM     53  C   UNL A   1      38.255  31.088  31.331  1.00  0.00     0.074 A 
ATOM     54  C   UNL A   1      42.700  29.443  35.530  1.00  0.00     0.029 A 
ATOM     55  N   UNL A   1      41.422  29.627  33.719  1.00  0.00    -0.354 N 
ATOM     56  N   UNL A   1      39.215  30.699  32.134  1.00  0.00    -0.248 NA
ATOM     57  C   UNL A   1      37.249  31.948  31.975  1.00  0.00     0.031 C 
ATOM     58  C   UNL A   1      41.614  30.266  35.838  1.00  0.00     0.029 A 
ATOM     59  C   UNL A   1      40.836  30.407  34.701  1.00  0.00     0.049 A 
ATOM     60  H   UNL A   1      41.084  29.525  32.800  1.00  0.00     0.167 HD
ATOM     61  C   UNL A   1      38.946  31.286  33.365  1.00  0.00     0.074 A 
ATOM     62  C   UNL A   1      37.740  32.072  33.200  1.00  0.00     0.031 C 
ATOM     63  C   UNL A   1      39.636  31.185  34.527  1.00  0.00     0.031 A 
BRANCH  50  64
ATOM     64  C   UNL A   1      44.579  27.507  34.188  1.00  0.00    -0.014 A 
ATOM     65  C   UNL A   1      44.462  26.315  34.920  1.00  0.00     0.009 A 
ATOM     66  C   UNL A   1      45.839  28.111  34.064  1.00  0.00     0.009 A 
ATOM     67  C   UNL A   1      45.584  25.751  35.531  1.00  0.00     0.001 A 
ATOM     68  C   UNL A   1      46.963  27.529  34.652  1.00  0.00     0.001 A 
ATOM     69  C   UNL A   1      46.834  26.353  35.390  1.00  0.00     0.000 A 
ENDBRANCH  50  64
BRANCH  51  70
ATOM     70  C   UNL A   1      36.916  31.385  29.122  1.00  0.00    -0.014 A 
ATOM     71  C   UNL A   1      36.952  32.731  28.725  1.00  0.00     0.009 A 
ATOM     72  C   UNL A   1      35.778  30.622  28.819  1.00  0.00     0.009 A 
ATOM     73  C   UNL A   1      35.865  33.302  28.057  1.00  0.00     0.001 A 
ATOM     74  C   UNL A   1      34.706  31.186  28.124  1.00  0.00     0.001 A 
ATOM     75  C   UNL A   1      34.747  32.528  27.750  1.00  0.00     0.000 A 
ENDBRANCH  51  70
BRANCH  63  76
ATOM     76  C   UNL A   1      39.131  31.953  35.718  1.00  0.00    -0.014 A 
ATOM     77  C   UNL A   1      39.491  33.293  35.926  1.00  0.00     0.009 A 
ATOM     78  C   UNL A   1      38.209  31.354  36.593  1.00  0.00     0.009 A 
ATOM     79  C   UNL A   1      38.954  34.011  36.996  1.00  0.00     0.001 A 
ATOM     80  C   UNL A   1      37.650  32.083  37.643  1.00  0.00     0.001 A 
ATOM     81  C   UNL A   1      38.027  33.410  37.848  1.00  0.00     0.000 A 
ENDBRANCH  63  76
ENDBRANCH  37  38
ENDBRANCH  30  32
ENDBRANCH  29  30
ENDBRANCH  28  29
ENDBRANCH  27  28
ENDBRANCH  26  27
ENDBRANCH   1  26
TORSDOF 18
ENDMDL
MODEL 2
REMARK VINA RESULT:     -10.3      3.763      8.758
REMARK SMILES Cc1cc(Cl)c(C)c2c1O[C@H](C(F)(F)F)C(C(=O)OCCOCCOCCOC(=O)c1ccc(-c3c4nc(c(-c5ccccc5)c5ccc([nH]5)c(-c5ccccc5)c5nc(c(-c6ccccc6)c6ccc3[nH]6)C=C5)C=C4)cc1)=C2
REMARK SMILES IDX 24 1 23 2 22 3 21 4 20 5 19 6 17 7 18 8 16 9 1 10 2 11 3 12
REMARK SMILES IDX 9 13 4 14 8 15 10 16 5 17 6 18 79 19 11 20 7 21 12 22 13 23
REMARK SMILES IDX 14 24 15 25 25 26 26 27 27 28 28 29 29 30 30 31 31 32 32 33
REMARK SMILES IDX 78 34 33 35 77 36 34 37 35 38 36 39 71 40 37 41 76 42 70 43
REMARK SMILES IDX 72 44 38 45 75 46 69 47 68 48 39 50 61 51 46 52 60 53 47 54
REMARK SMILES IDX 50 55 59 56 73 57 48 58 49 59 58 61 74 62 51 63 40 64 41 65
REMARK SMILES IDX 45 66 42 67 44 68 43 69 62 70 63 71 67 72 64 73 66 74 65 75
REMARK SMILES IDX 52 76 53 77 57 78 54 79 56 80 55 81
REMARK H PARENT 72 49 50 60
REMARK Flexibility Score: inf
ROOT
ATOM      1  C   UNL A   1      34.618  32.883  29.161  1.00  0.00     0.188 C 
ENDROOT
BRANCH   1   2
ATOM      2  C   UNL A   1      34.974  31.709  28.225  1.00  0.00     0.188 C 
BRANCH   2   3
ATOM      3  O   UNL A   1      33.958  31.004  27.542  1.00  0.00    -0.376 OA
BRANCH   3   4
ATOM      4  C   UNL A   1      34.119  29.637  27.206  1.00  0.00     0.202 C 
BRANCH   4   5
ATOM      5  C   UNL A   1      32.989  28.776  26.617  1.00  0.00     0.261 C 
BRANCH   5   6
ATOM      6  O   UNL A   1      33.239  27.366  26.562  1.00  0.00    -0.460 OA
BRANCH   6   7
ATOM      7  C   UNL A   1      33.589  26.889  25.344  1.00  0.00     0.338 C 
ATOM      8  O   UNL A   1      33.966  27.539  24.384  1.00  0.00    -0.246 OA
BRANCH   7   9
ATOM      9  C   UNL A   1      33.601  25.412  25.376  1.00  0.00     0.087 C 
ATOM     10  C   UNL A   1      32.439  20.467  24.798  1.00  0.00     0.048 C 
ATOM     11  C   UNL A   1      33.698  21.259  25.021  1.00  0.00    -0.007 A 
ATOM     12  C   UNL A   1      34.929  20.604  24.914  1.00  0.00     0.028 A 
ATOM     13  C   UNL A   1      33.685  22.644  25.232  1.00  0.00     0.131 A 
ATOM     14  C   UNL A   1      36.130  21.303  25.057  1.00  0.00     0.045 A 
ATOM     15  C   UNL A   1      34.888  23.368  25.325  1.00  0.00     0.022 A 
ATOM     16  O   UNL A   1      32.449  23.219  25.341  1.00  0.00    -0.475 OA
ATOM     17  Cl  UNL A   1      37.584  20.375  24.912  1.00  0.00    -0.084 Cl
ATOM     18  C   UNL A   1      36.136  22.692  25.278  1.00  0.00    -0.021 A 
ATOM     19  C   UNL A   1      34.806  24.826  25.387  1.00  0.00     0.027 C 
ATOM     20  C   UNL A   1      32.307  24.659  25.395  1.00  0.00     0.316 C 
ATOM     21  C   UNL A   1      37.427  23.457  25.448  1.00  0.00     0.047 C 
BRANCH  20  22
ATOM     22  C   UNL A   1      31.358  25.083  24.267  1.00  0.00     0.430 C 
ATOM     23  F   UNL A   1      30.660  26.194  24.605  1.00  0.00    -0.167 F 
ATOM     24  F   UNL A   1      32.027  25.377  23.128  1.00  0.00    -0.167 F 
ATOM     25  F   UNL A   1      30.462  24.114  23.971  1.00  0.00    -0.167 F 
ENDBRANCH  20  22
ENDBRANCH   7   9
ENDBRANCH   6   7
ENDBRANCH   5   6
ENDBRANCH   4   5
ENDBRANCH   3   4
ENDBRANCH   2   3
ENDBRANCH   1   2
BRANCH   1  26
ATOM     26  O   UNL A   1      34.718  34.197  28.671  1.00  0.00    -0.376 OA
BRANCH  26  27
ATOM     27  C   UNL A   1      33.560  35.009  28.559  1.00  0.00     0.202 C 
BRANCH  27  28
ATOM     28  C   UNL A   1      32.913  35.823  29.699  1.00  0.00     0.261 C 
BRANCH  28  29
ATOM     29  O   UNL A   1      32.434  35.112  30.845  1.00  0.00    -0.460 OA
BRANCH  29  30
ATOM     30  C   UNL A   1      32.771  35.647  32.046  1.00  0.00     0.338 C 
ATOM     31  O   UNL A   1      32.143  36.456  32.701  1.00  0.00    -0.246 OA
BRANCH  30  32
ATOM     32  C   UNL A   1      33.955  34.933  32.565  1.00  0.00     0.060 A 
ATOM     33  C   UNL A   1      35.203  35.567  32.495  1.00  0.00     0.016 A 
ATOM     34  C   UNL A   1      33.840  33.646  33.093  1.00  0.00     0.016 A 
ATOM     35  C   UNL A   1      36.346  34.912  32.950  1.00  0.00     0.010 A 
ATOM     36  C   UNL A   1      34.993  32.978  33.518  1.00  0.00     0.010 A 
ATOM     37  C   UNL A   1      36.252  33.599  33.427  1.00  0.00    -0.014 A 
BRANCH  37  38
ATOM     38  C   UNL A   1      37.492  32.814  33.636  1.00  0.00     0.031 A 
ATOM     39  C   UNL A   1      38.278  33.049  34.897  1.00  0.00     0.074 A 
ATOM     40  C   UNL A   1      37.892  31.878  32.758  1.00  0.00     0.049 A 
ATOM     41  N   UNL A   1      39.399  32.503  35.289  1.00  0.00    -0.248 NA
ATOM     42  C   UNL A   1      37.717  34.027  35.846  1.00  0.00     0.031 C 
ATOM     43  C   UNL A   1      37.183  31.501  31.537  1.00  0.00     0.029 A 
ATOM     44  N   UNL A   1      39.002  31.070  32.768  1.00  0.00    -0.354 N 
ATOM     45  C   UNL A   1      39.676  33.066  36.529  1.00  0.00     0.074 A 
ATOM     46  C   UNL A   1      38.626  34.019  36.810  1.00  0.00     0.031 C 
ATOM     47  C   UNL A   1      37.878  30.533  30.914  1.00  0.00     0.029 A 
ATOM     48  C   UNL A   1      39.097  30.250  31.670  1.00  0.00     0.049 A 
ATOM     49  H   UNL A   1      39.666  31.077  33.494  1.00  0.00     0.167 HD
ATOM     50  C   UNL A   1      40.708  32.808  37.363  1.00  0.00     0.031 A 
ATOM     51  C   UNL A   1      40.068  29.386  31.310  1.00  0.00     0.031 A 
ATOM     52  C   UNL A   1      41.768  31.880  37.078  1.00  0.00     0.049 A 
ATOM     53  C   UNL A   1      41.273  29.208  32.200  1.00  0.00     0.074 A 
ATOM     54  C   UNL A   1      42.864  31.561  37.860  1.00  0.00     0.029 A 
ATOM     55  N   UNL A   1      41.868  31.128  35.919  1.00  0.00    -0.354 N 
ATOM     56  N   UNL A   1      41.524  29.742  33.370  1.00  0.00    -0.248 NA
ATOM     57  C   UNL A   1      42.330  28.305  31.716  1.00  0.00     0.031 C 
ATOM     58  C   UNL A   1      43.661  30.663  37.146  1.00  0.00     0.029 A 
ATOM     59  C   UNL A   1      43.025  30.369  35.951  1.00  0.00     0.049 A 
ATOM     60  H   UNL A   1      41.213  31.132  35.183  1.00  0.00     0.167 HD
ATOM     61  C   UNL A   1      42.749  29.222  33.774  1.00  0.00     0.074 A 
ATOM     62  C   UNL A   1      43.183  28.316  32.731  1.00  0.00     0.031 C 
ATOM     63  C   UNL A   1      43.449  29.471  34.908  1.00  0.00     0.031 A 
BRANCH  50  64
ATOM     64  C   UNL A   1      40.760  33.564  38.661  1.00  0.00    -0.014 A 
ATOM     65  C   UNL A   1      40.157  33.055  39.821  1.00  0.00     0.009 A 
ATOM     66  C   UNL A   1      41.471  34.772  38.735  1.00  0.00     0.009 A 
ATOM     67  C   UNL A   1      40.250  33.753  41.027  1.00  0.00     0.001 A 
ATOM     68  C   UNL A   1      41.587  35.451  39.948  1.00  0.00     0.001 A 
ATOM     69  C   UNL A   1      40.971  34.944  41.092  1.00  0.00     0.000 A 
ENDBRANCH  50  64
BRANCH  51  70
ATOM     70  C   UNL A   1      39.957  28.629  30.034  1.00  0.00    -0.014 A 
ATOM     71  C   UNL A   1      40.364  29.207  28.822  1.00  0.00     0.009 A 
ATOM     72  C   UNL A   1      39.426  27.329  30.018  1.00  0.00     0.009 A 
ATOM     73  C   UNL A   1      40.225  28.507  27.621  1.00  0.00     0.001 A 
ATOM     74  C   UNL A   1      39.318  26.619  28.820  1.00  0.00     0.001 A 
ATOM     75  C   UNL A   1      39.710  27.211  27.620  1.00  0.00     0.000 A 
ENDBRANCH  51  70
BRANCH  63  76
ATOM     76  C   UNL A   1      44.752  28.745  35.106  1.00  0.00    -0.014 A 
ATOM     77  C   UNL A   1      45.970  29.315  34.708  1.00  0.00     0.009 A 
ATOM     78  C   UNL A   1      44.767  27.514  35.784  1.00  0.00     0.009 A 
ATOM     79  C   UNL A   1      47.175  28.658  34.967  1.00  0.00     0.001 A 
ATOM     80  C   UNL A   1      45.975  26.876  36.069  1.00  0.00     0.001 A 
ATOM     81  C   UNL A   1      47.178  27.445  35.655  1.00  0.00     0.000 A 
ENDBRANCH  63  76
ENDBRANCH  37  38
ENDBRANCH  30  32
ENDBRANCH  29  30
ENDBRANCH  28  29
ENDBRANCH  27  28
ENDBRANCH  26  27
ENDBRANCH   1  26
TORSDOF 18
ENDMDL
MODEL 3
REMARK VINA RESULT:     -10.3      4.327      6.573
REMARK SMILES Cc1cc(Cl)c(C)c2c1O[C@H](C(F)(F)F)C(C(=O)OCCOCCOCCOC(=O)c1ccc(-c3c4nc(c(-c5ccccc5)c5ccc([nH]5)c(-c5ccccc5)c5nc(c(-c6ccccc6)c6ccc3[nH]6)C=C5)C=C4)cc1)=C2
REMARK SMILES IDX 24 1 23 2 22 3 21 4 20 5 19 6 17 7 18 8 16 9 1 10 2 11 3 12
REMARK SMILES IDX 9 13 4 14 8 15 10 16 5 17 6 18 79 19 11 20 7 21 12 22 13 23
REMARK SMILES IDX 14 24 15 25 25 26 26 27 27 28 28 29 29 30 30 31 31 32 32 33
REMARK SMILES IDX 78 34 33 35 77 36 34 37 35 38 36 39 71 40 37 41 76 42 70 43
REMARK SMILES IDX 72 44 38 45 75 46 69 47 68 48 39 50 61 51 46 52 60 53 47 54
REMARK SMILES IDX 50 55 59 56 73 57 48 58 49 59 58 61 74 62 51 63 40 64 41 65
REMARK SMILES IDX 45 66 42 67 44 68 43 69 62 70 63 71 67 72 64 73 66 74 65 75
REMARK SMILES IDX 52 76 53 77 57 78 54 79 56 80 55 81
REMARK H PARENT 72 49 50 60
REMARK Flexibility Score: inf
ROOT
ATOM      1  C   UNL A   1      40.825  22.386  26.344  1.00  0.00     0.188 C 
ENDROOT
BRANCH   1   2
ATOM      2  C   UNL A   1      39.408  21.787  26.463  1.00  0.00     0.188 C 
BRANCH   2   3
ATOM      3  O   UNL A   1      38.507  21.857  25.379  1.00  0.00    -0.376 OA
BRANCH   3   4
ATOM      4  C   UNL A   1      37.135  22.144  25.588  1.00  0.00     0.202 C 
BRANCH   4   5
ATOM      5  C   UNL A   1      36.580  23.574  25.694  1.00  0.00     0.261 C 
BRANCH   5   6
ATOM      6  O   UNL A   1      35.396  23.845  24.936  1.00  0.00    -0.460 OA
BRANCH   6   7
ATOM      7  C   UNL A   1      34.269  24.019  25.666  1.00  0.00     0.338 C 
ATOM      8  O   UNL A   1      33.962  23.430  26.689  1.00  0.00    -0.246 OA
BRANCH   7   9
ATOM      9  C   UNL A   1      33.502  25.161  25.129  1.00  0.00     0.087 C 
ATOM     10  C   UNL A   1      30.002  28.095  22.832  1.00  0.00     0.048 C 
ATOM     11  C   UNL A   1      31.022  28.287  23.920  1.00  0.00    -0.007 A 
ATOM     12  C   UNL A   1      30.999  29.475  24.658  1.00  0.00     0.028 A 
ATOM     13  C   UNL A   1      31.928  27.282  24.285  1.00  0.00     0.131 A 
ATOM     14  C   UNL A   1      31.888  29.682  25.716  1.00  0.00     0.045 A 
ATOM     15  C   UNL A   1      32.792  27.457  25.382  1.00  0.00     0.022 A 
ATOM     16  O   UNL A   1      31.907  26.153  23.513  1.00  0.00    -0.475 OA
ATOM     17  Cl  UNL A   1      31.763  31.197  26.542  1.00  0.00    -0.084 Cl
ATOM     18  C   UNL A   1      32.809  28.687  26.090  1.00  0.00    -0.021 A 
ATOM     19  C   UNL A   1      33.598  26.313  25.806  1.00  0.00     0.027 C 
ATOM     20  C   UNL A   1      32.677  24.987  23.891  1.00  0.00     0.316 C 
ATOM     21  C   UNL A   1      33.785  28.904  27.223  1.00  0.00     0.047 C 
BRANCH  20  22
ATOM     22  C   UNL A   1      31.715  23.795  23.983  1.00  0.00     0.430 C 
ATOM     23  F   UNL A   1      30.690  23.923  23.106  1.00  0.00    -0.167 F 
ATOM     24  F   UNL A   1      32.331  22.626  23.691  1.00  0.00    -0.167 F 
ATOM     25  F   UNL A   1      31.180  23.674  25.219  1.00  0.00    -0.167 F 
ENDBRANCH  20  22
ENDBRANCH   7   9
ENDBRANCH   6   7
ENDBRANCH   5   6
ENDBRANCH   4   5
ENDBRANCH   3   4
ENDBRANCH   2   3
ENDBRANCH   1   2
BRANCH   1  26
ATOM     26  O   UNL A   1      41.852  21.598  25.795  1.00  0.00    -0.376 OA
BRANCH  26  27
ATOM     27  C   UNL A   1      41.990  20.238  26.172  1.00  0.00     0.202 C 
BRANCH  27  28
ATOM     28  C   UNL A   1      42.996  19.232  25.575  1.00  0.00     0.261 C 
BRANCH  28  29
ATOM     29  O   UNL A   1      43.558  19.524  24.291  1.00  0.00    -0.460 OA
BRANCH  29  30
ATOM     30  C   UNL A   1      44.904  19.698  24.269  1.00  0.00     0.338 C 
ATOM     31  O   UNL A   1      45.746  18.921  23.863  1.00  0.00    -0.246 OA
BRANCH  30  32
ATOM     32  C   UNL A   1      45.205  21.097  24.633  1.00  0.00     0.060 A 
ATOM     33  C   UNL A   1      45.709  21.360  25.914  1.00  0.00     0.016 A 
ATOM     34  C   UNL A   1      44.972  22.137  23.734  1.00  0.00     0.016 A 
ATOM     35  C   UNL A   1      45.979  22.671  26.303  1.00  0.00     0.010 A 
ATOM     36  C   UNL A   1      45.212  23.455  24.136  1.00  0.00     0.010 A 
ATOM     37  C   UNL A   1      45.694  23.728  25.430  1.00  0.00    -0.014 A 
BRANCH  37  38
ATOM     38  C   UNL A   1      45.710  25.118  25.944  1.00  0.00     0.031 A 
ATOM     39  C   UNL A   1      47.017  25.863  25.938  1.00  0.00     0.074 A 
ATOM     40  C   UNL A   1      44.589  25.729  26.365  1.00  0.00     0.049 A 
ATOM     41  N   UNL A   1      47.284  27.073  26.357  1.00  0.00    -0.248 NA
ATOM     42  C   UNL A   1      48.176  25.149  25.376  1.00  0.00     0.031 C 
ATOM     43  C   UNL A   1      43.248  25.146  26.353  1.00  0.00     0.029 A 
ATOM     44  N   UNL A   1      44.405  26.987  26.881  1.00  0.00    -0.354 N 
ATOM     45  C   UNL A   1      48.636  27.266  26.105  1.00  0.00     0.074 A 
ATOM     46  C   UNL A   1      49.143  26.041  25.530  1.00  0.00     0.031 C 
ATOM     47  C   UNL A   1      42.379  26.047  26.842  1.00  0.00     0.029 A 
ATOM     48  C   UNL A   1      43.105  27.254  27.236  1.00  0.00     0.049 A 
ATOM     49  H   UNL A   1      45.136  27.638  26.987  1.00  0.00     0.167 HD
ATOM     50  C   UNL A   1      49.388  28.368  26.327  1.00  0.00     0.031 A 
ATOM     51  C   UNL A   1      42.569  28.340  27.829  1.00  0.00     0.031 A 
ATOM     52  C   UNL A   1      48.895  29.580  26.921  1.00  0.00     0.049 A 
ATOM     53  C   UNL A   1      43.456  29.509  28.181  1.00  0.00     0.074 A 
ATOM     54  C   UNL A   1      49.587  30.746  27.195  1.00  0.00     0.029 A 
ATOM     55  N   UNL A   1      47.589  29.780  27.338  1.00  0.00    -0.354 N 
ATOM     56  N   UNL A   1      44.732  29.683  27.936  1.00  0.00    -0.248 NA
ATOM     57  C   UNL A   1      42.824  30.634  28.890  1.00  0.00     0.031 C 
ATOM     58  C   UNL A   1      48.716  31.629  27.837  1.00  0.00     0.029 A 
ATOM     59  C   UNL A   1      47.463  31.039  27.898  1.00  0.00     0.049 A 
ATOM     60  H   UNL A   1      46.860  29.124  27.249  1.00  0.00     0.167 HD
ATOM     61  C   UNL A   1      45.049  30.942  28.436  1.00  0.00     0.074 A 
ATOM     62  C   UNL A   1      43.827  31.495  28.982  1.00  0.00     0.031 C 
ATOM     63  C   UNL A   1      46.244  31.582  28.439  1.00  0.00     0.031 A 
BRANCH  50  64
ATOM     64  C   UNL A   1      50.842  28.305  25.949  1.00  0.00    -0.014 A 
ATOM     65  C   UNL A   1      51.814  27.902  26.877  1.00  0.00     0.009 A 
ATOM     66  C   UNL A   1      51.233  28.595  24.634  1.00  0.00     0.009 A 
ATOM     67  C   UNL A   1      53.155  27.809  26.498  1.00  0.00     0.001 A 
ATOM     68  C   UNL A   1      52.569  28.474  24.250  1.00  0.00     0.001 A 
ATOM     69  C   UNL A   1      53.530  28.087  25.184  1.00  0.00     0.000 A 
ENDBRANCH  50  64
BRANCH  51  70
ATOM     70  C   UNL A   1      41.117  28.374  28.150  1.00  0.00    -0.014 A 
ATOM     71  C   UNL A   1      40.630  27.778  29.324  1.00  0.00     0.009 A 
ATOM     72  C   UNL A   1      40.205  28.987  27.276  1.00  0.00     0.009 A 
ATOM     73  C   UNL A   1      39.261  27.782  29.605  1.00  0.00     0.001 A 
ATOM     74  C   UNL A   1      38.841  29.017  27.574  1.00  0.00     0.001 A 
ATOM     75  C   UNL A   1      38.369  28.407  28.735  1.00  0.00     0.000 A 
ENDBRANCH  51  70
BRANCH  63  76
ATOM     76  C   UNL A   1      46.303  32.964  29.030  1.00  0.00    -0.014 A 
ATOM     77  C   UNL A   1      46.643  33.166  30.376  1.00  0.00     0.009 A 
ATOM     78  C   UNL A   1      46.104  34.083  28.204  1.00  0.00     0.009 A 
ATOM     79  C   UNL A   1      46.764  34.460  30.887  1.00  0.00     0.001 A 
ATOM     80  C   UNL A   1      46.256  35.374  28.710  1.00  0.00     0.001 A 
ATOM     81  C   UNL A   1      46.581  35.563  30.053  1.00  0.00     0.000 A 
ENDBRANCH  63  76
ENDBRANCH  37  38
ENDBRANCH  30  32
ENDBRANCH  29  30
ENDBRANCH  28  29
ENDBRANCH  27  28
ENDBRANCH  26  27
ENDBRANCH   1  26
TORSDOF 18
ENDMDL
