MODEL 1
REMARK VINA RESULT:     -10.4      0.000      0.000
REMARK SMILES N#CCCn1cc(C(=O)OCCOCCOCCOC(=O)c2ccc(-c3c4nc(c(-c5ccccc5)c5ccc([nH]5)c(-c5ccccc5)c5nc(c(-c6ccccc6)c6ccc3[nH]6)C=C5)C=C4)cc2)c(-c2cccc([N+](=O)[O-])c2)n1
REMARK SMILES IDX 14 1 13 2 12 3 11 4 10 5 8 6 9 7 7 8 5 9 6 10 80 11 70 12
REMARK SMILES IDX 4 13 3 14 2 15 1 16 71 17 72 18 79 19 73 20 75 21 74 22
REMARK SMILES IDX 76 23 77 24 78 25 15 26 16 27 17 28 18 29 19 30 20 31 21 32
REMARK SMILES IDX 22 33 23 34 69 35 24 36 68 37 25 38 26 39 27 40 62 41 28 42
REMARK SMILES IDX 67 43 61 44 63 45 29 46 66 47 60 48 59 49 30 51 52 52 37 53
REMARK SMILES IDX 51 54 38 55 41 56 50 57 64 58 39 59 40 60 49 62 65 63 42 64
REMARK SMILES IDX 31 65 32 66 36 67 33 68 35 69 34 70 53 71 54 72 58 73 55 74
REMARK SMILES IDX 57 75 56 76 43 77 44 78 48 79 45 80 47 81 46 82
REMARK H PARENT 63 50 41 61
REMARK Flexibility Score: inf
ROOT
ATOM      1  C   UNL A   1      34.141  32.717  28.023  1.00  0.00     0.188 C 
ENDROOT
BRANCH   1   2
ATOM      2  O   UNL A   1      33.923  31.320  27.957  1.00  0.00    -0.376 OA
BRANCH   2   3
ATOM      3  C   UNL A   1      32.858  30.913  27.106  1.00  0.00     0.202 C 
BRANCH   3   4
ATOM      4  C   UNL A   1      33.073  29.589  26.356  1.00  0.00     0.261 C 
BRANCH   4   5
ATOM      5  O   UNL A   1      33.145  28.408  27.166  1.00  0.00    -0.460 OA
BRANCH   5   6
ATOM      6  C   UNL A   1      32.160  27.471  27.026  1.00  0.00     0.342 C 
ATOM      7  O   UNL A   1      31.102  27.498  27.616  1.00  0.00    -0.246 OA
BRANCH   6   8
ATOM      8  C   UNL A   1      32.499  26.526  25.971  1.00  0.00     0.106 A 
ATOM      9  N   UNL A   1      33.567  25.106  24.683  1.00  0.00    -0.270 N 
ATOM     10  C   UNL A   1      33.671  25.805  25.846  1.00  0.00     0.125 A 
ATOM     11  N   UNL A   1      32.453  25.382  23.991  1.00  0.00    -0.172 NA
ATOM     12  C   UNL A   1      31.785  26.246  24.769  1.00  0.00     0.107 A 
BRANCH   9  13
ATOM     13  C   UNL A   1      34.457  24.055  24.224  1.00  0.00     0.159 C 
BRANCH  13  14
ATOM     14  C   UNL A   1      33.983  23.458  22.909  1.00  0.00     0.144 C 
BRANCH  14  15
ATOM     15  C   UNL A   1      33.149  22.215  23.171  1.00  0.00     0.064 C 
ATOM     16  N   UNL A   1      32.457  21.184  23.388  1.00  0.00    -0.198 NA
ENDBRANCH  14  15
ENDBRANCH  13  14
ENDBRANCH   9  13
BRANCH  12  17
ATOM     17  C   UNL A   1      30.562  26.873  24.302  1.00  0.00     0.010 A 
ATOM     18  C   UNL A   1      29.337  26.206  24.461  1.00  0.00     0.011 A 
ATOM     19  C   UNL A   1      30.608  28.110  23.660  1.00  0.00     0.096 A 
ATOM     20  C   UNL A   1      28.166  26.735  23.919  1.00  0.00     0.008 A 
ATOM     21  C   UNL A   1      29.426  28.644  23.133  1.00  0.00     0.270 A 
ATOM     22  C   UNL A   1      28.209  27.953  23.243  1.00  0.00     0.085 A 
BRANCH  21  23
ATOM     23  N   UNL A   1      29.460  29.941  22.450  1.00  0.00     0.062 N 
ATOM     24  O   UNL A   1      29.156  30.945  23.111  1.00  0.00    -0.258 OA
ATOM     25  O   UNL A   1      29.795  29.959  21.259  1.00  0.00    -0.258 OA
ENDBRANCH  21  23
ENDBRANCH  12  17
ENDBRANCH   6   8
ENDBRANCH   5   6
ENDBRANCH   4   5
ENDBRANCH   3   4
ENDBRANCH   2   3
ENDBRANCH   1   2
BRANCH   1  26
ATOM     26  C   UNL A   1      32.900  33.583  27.722  1.00  0.00     0.188 C 
BRANCH  26  27
ATOM     27  O   UNL A   1      32.584  34.762  28.451  1.00  0.00    -0.376 OA
BRANCH  27  28
ATOM     28  C   UNL A   1      33.477  35.293  29.417  1.00  0.00     0.202 C 
BRANCH  28  29
ATOM     29  C   UNL A   1      32.992  36.419  30.324  1.00  0.00     0.261 C 
BRANCH  29  30
ATOM     30  O   UNL A   1      33.484  36.334  31.649  1.00  0.00    -0.460 OA
BRANCH  30  31
ATOM     31  C   UNL A   1      32.968  35.315  32.369  1.00  0.00     0.338 C 
ATOM     32  O   UNL A   1      31.794  35.018  32.506  1.00  0.00    -0.246 OA
BRANCH  31  33
ATOM     33  C   UNL A   1      34.071  34.638  33.062  1.00  0.00     0.060 A 
ATOM     34  C   UNL A   1      35.171  35.429  33.397  1.00  0.00     0.016 A 
ATOM     35  C   UNL A   1      34.126  33.237  33.068  1.00  0.00     0.016 A 
ATOM     36  C   UNL A   1      36.405  34.825  33.452  1.00  0.00     0.010 A 
ATOM     37  C   UNL A   1      35.358  32.639  33.094  1.00  0.00     0.010 A 
ATOM     38  C   UNL A   1      36.481  33.458  33.174  1.00  0.00    -0.014 A 
BRANCH  38  39
ATOM     39  C   UNL A   1      37.777  32.909  32.858  1.00  0.00     0.031 A 
ATOM     40  C   UNL A   1      38.723  32.861  33.983  1.00  0.00     0.074 A 
ATOM     41  C   UNL A   1      38.025  32.374  31.649  1.00  0.00     0.049 A 
ATOM     42  N   UNL A   1      39.832  33.505  34.114  1.00  0.00    -0.248 NA
ATOM     43  C   UNL A   1      38.317  32.086  35.164  1.00  0.00     0.031 C 
ATOM     44  C   UNL A   1      37.060  32.072  30.585  1.00  0.00     0.029 A 
ATOM     45  N   UNL A   1      39.188  31.862  31.171  1.00  0.00    -0.354 N 
ATOM     46  C   UNL A   1      40.365  33.068  35.321  1.00  0.00     0.074 A 
ATOM     47  C   UNL A   1      39.311  32.362  36.004  1.00  0.00     0.031 C 
ATOM     48  C   UNL A   1      37.635  31.228  29.698  1.00  0.00     0.029 A 
ATOM     49  C   UNL A   1      39.027  31.034  30.071  1.00  0.00     0.049 A 
ATOM     50  H   UNL A   1      40.067  32.059  31.570  1.00  0.00     0.167 HD
ATOM     51  C   UNL A   1      41.706  33.061  35.541  1.00  0.00     0.031 A 
ATOM     52  C   UNL A   1      39.953  30.182  29.569  1.00  0.00     0.031 A 
ATOM     53  C   UNL A   1      42.410  33.924  34.627  1.00  0.00     0.049 A 
ATOM     54  C   UNL A   1      41.276  30.579  30.107  1.00  0.00     0.074 A 
ATOM     55  C   UNL A   1      42.349  35.267  34.309  1.00  0.00     0.029 A 
ATOM     56  N   UNL A   1      43.112  33.329  33.607  1.00  0.00    -0.354 N 
ATOM     57  N   UNL A   1      41.905  31.666  29.765  1.00  0.00    -0.248 NA
ATOM     58  C   UNL A   1      41.729  29.965  31.347  1.00  0.00     0.031 C 
ATOM     59  C   UNL A   1      42.618  35.335  32.911  1.00  0.00     0.029 A 
ATOM     60  C   UNL A   1      42.859  34.035  32.461  1.00  0.00     0.049 A 
ATOM     61  H   UNL A   1      43.692  32.538  33.685  1.00  0.00     0.167 HD
ATOM     62  C   UNL A   1      42.521  32.104  30.928  1.00  0.00     0.074 A 
ATOM     63  C   UNL A   1      42.480  30.958  31.832  1.00  0.00     0.031 C 
ATOM     64  C   UNL A   1      42.741  33.434  31.150  1.00  0.00     0.031 A 
BRANCH  51  65
ATOM     65  C   UNL A   1      42.392  31.936  36.283  1.00  0.00    -0.014 A 
ATOM     66  C   UNL A   1      43.181  32.254  37.401  1.00  0.00     0.009 A 
ATOM     67  C   UNL A   1      42.528  30.631  35.769  1.00  0.00     0.009 A 
ATOM     68  C   UNL A   1      44.115  31.346  37.913  1.00  0.00     0.001 A 
ATOM     69  C   UNL A   1      43.421  29.704  36.308  1.00  0.00     0.001 A 
ATOM     70  C   UNL A   1      44.241  30.075  37.361  1.00  0.00     0.000 A 
ENDBRANCH  51  65
BRANCH  52  71
ATOM     71  C   UNL A   1      39.737  28.893  28.881  1.00  0.00    -0.014 A 
ATOM     72  C   UNL A   1      40.271  28.667  27.604  1.00  0.00     0.009 A 
ATOM     73  C   UNL A   1      39.216  27.787  29.579  1.00  0.00     0.009 A 
ATOM     74  C   UNL A   1      40.315  27.375  27.061  1.00  0.00     0.001 A 
ATOM     75  C   UNL A   1      39.251  26.500  29.035  1.00  0.00     0.001 A 
ATOM     76  C   UNL A   1      39.814  26.293  27.782  1.00  0.00     0.000 A 
ENDBRANCH  52  71
BRANCH  64  77
ATOM     77  C   UNL A   1      42.555  34.381  29.991  1.00  0.00    -0.014 A 
ATOM     78  C   UNL A   1      43.611  34.757  29.141  1.00  0.00     0.009 A 
ATOM     79  C   UNL A   1      41.256  34.792  29.661  1.00  0.00     0.009 A 
ATOM     80  C   UNL A   1      43.375  35.549  28.013  1.00  0.00     0.001 A 
ATOM     81  C   UNL A   1      41.018  35.565  28.522  1.00  0.00     0.001 A 
ATOM     82  C   UNL A   1      42.078  35.949  27.702  1.00  0.00     0.000 A 
ENDBRANCH  64  77
ENDBRANCH  38  39
ENDBRANCH  31  33
ENDBRANCH  30  31
ENDBRANCH  29  30
ENDBRANCH  28  29
ENDBRANCH  27  28
ENDBRANCH  26  27
ENDBRANCH   1  26
TORSDOF 22
ENDMDL
MODEL 2
REMARK VINA RESULT:     -10.2      1.466      3.326
REMARK SMILES N#CCCn1cc(C(=O)OCCOCCOCCOC(=O)c2ccc(-c3c4nc(c(-c5ccccc5)c5ccc([nH]5)c(-c5ccccc5)c5nc(c(-c6ccccc6)c6ccc3[nH]6)C=C5)C=C4)cc2)c(-c2cccc([N+](=O)[O-])c2)n1
REMARK SMILES IDX 14 1 13 2 12 3 11 4 10 5 8 6 9 7 7 8 5 9 6 10 80 11 70 12
REMARK SMILES IDX 4 13 3 14 2 15 1 16 71 17 72 18 79 19 73 20 75 21 74 22
REMARK SMILES IDX 76 23 77 24 78 25 15 26 16 27 17 28 18 29 19 30 20 31 21 32
REMARK SMILES IDX 22 33 23 34 69 35 24 36 68 37 25 38 26 39 27 40 62 41 28 42
REMARK SMILES IDX 67 43 61 44 63 45 29 46 66 47 60 48 59 49 30 51 52 52 37 53
REMARK SMILES IDX 51 54 38 55 41 56 50 57 64 58 39 59 40 60 49 62 65 63 42 64
REMARK SMILES IDX 31 65 32 66 36 67 33 68 35 69 34 70 53 71 54 72 58 73 55 74
REMARK SMILES IDX 57 75 56 76 43 77 44 78 48 79 45 80 47 81 46 82
REMARK H PARENT 63 50 41 61
REMARK Flexibility Score: inf
ROOT
ATOM      1  C   UNL A   1      34.292  31.285  27.647  1.00  0.00     0.188 C 
ENDROOT
BRANCH   1   2
ATOM      2  O   UNL A   1      33.390  30.227  27.381  1.00  0.00    -0.376 OA
BRANCH   2   3
ATOM      3  C   UNL A   1      33.781  29.349  26.332  1.00  0.00     0.202 C 
BRANCH   3   4
ATOM      4  C   UNL A   1      33.369  27.878  26.507  1.00  0.00     0.261 C 
BRANCH   4   5
ATOM      5  O   UNL A   1      31.999  27.643  26.859  1.00  0.00    -0.460 OA
BRANCH   5   6
ATOM      6  C   UNL A   1      31.290  26.744  26.113  1.00  0.00     0.342 C 
ATOM      7  O   UNL A   1      30.751  25.756  26.562  1.00  0.00    -0.246 OA
BRANCH   6   8
ATOM      8  C   UNL A   1      31.152  27.213  24.742  1.00  0.00     0.106 A 
ATOM      9  N   UNL A   1      30.556  28.337  22.953  1.00  0.00    -0.270 N 
ATOM     10  C   UNL A   1      30.465  28.333  24.311  1.00  0.00     0.125 A 
ATOM     11  N   UNL A   1      31.175  27.258  22.455  1.00  0.00    -0.172 NA
ATOM     12  C   UNL A   1      31.551  26.563  23.537  1.00  0.00     0.107 A 
BRANCH   9  13
ATOM     13  C   UNL A   1      30.168  29.418  22.064  1.00  0.00     0.159 C 
BRANCH  13  14
ATOM     14  C   UNL A   1      28.807  29.984  22.438  1.00  0.00     0.144 C 
BRANCH  14  15
ATOM     15  C   UNL A   1      28.336  30.955  21.367  1.00  0.00     0.064 C 
ATOM     16  N   UNL A   1      27.944  31.760  20.479  1.00  0.00    -0.198 NA
ENDBRANCH  14  15
ENDBRANCH  13  14
ENDBRANCH   9  13
BRANCH  12  17
ATOM     17  C   UNL A   1      32.161  25.252  23.403  1.00  0.00     0.010 A 
ATOM     18  C   UNL A   1      31.350  24.132  23.164  1.00  0.00     0.011 A 
ATOM     19  C   UNL A   1      33.540  25.100  23.555  1.00  0.00     0.096 A 
ATOM     20  C   UNL A   1      31.899  22.850  23.147  1.00  0.00     0.008 A 
ATOM     21  C   UNL A   1      34.086  23.812  23.519  1.00  0.00     0.270 A 
ATOM     22  C   UNL A   1      33.270  22.684  23.334  1.00  0.00     0.085 A 
BRANCH  21  23
ATOM     23  N   UNL A   1      35.532  23.636  23.683  1.00  0.00     0.062 N 
ATOM     24  O   UNL A   1      36.157  23.119  22.745  1.00  0.00    -0.258 OA
ATOM     25  O   UNL A   1      36.045  24.018  24.743  1.00  0.00    -0.258 OA
ENDBRANCH  21  23
ENDBRANCH  12  17
ENDBRANCH   6   8
ENDBRANCH   5   6
ENDBRANCH   4   5
ENDBRANCH   3   4
ENDBRANCH   2   3
ENDBRANCH   1   2
BRANCH   1  26
ATOM     26  C   UNL A   1      33.628  32.629  28.013  1.00  0.00     0.188 C 
BRANCH  26  27
ATOM     27  O   UNL A   1      34.075  33.445  29.088  1.00  0.00    -0.376 OA
BRANCH  27  28
ATOM     28  C   UNL A   1      34.075  34.860  28.989  1.00  0.00     0.202 C 
BRANCH  28  29
ATOM     29  C   UNL A   1      33.061  35.652  29.808  1.00  0.00     0.261 C 
BRANCH  29  30
ATOM     30  O   UNL A   1      33.529  36.018  31.092  1.00  0.00    -0.460 OA
BRANCH  30  31
ATOM     31  C   UNL A   1      32.969  35.322  32.106  1.00  0.00     0.338 C 
ATOM     32  O   UNL A   1      31.800  35.318  32.451  1.00  0.00    -0.246 OA
BRANCH  31  33
ATOM     33  C   UNL A   1      34.036  34.606  32.816  1.00  0.00     0.060 A 
ATOM     34  C   UNL A   1      35.125  35.373  33.235  1.00  0.00     0.016 A 
ATOM     35  C   UNL A   1      34.083  33.206  32.761  1.00  0.00     0.016 A 
ATOM     36  C   UNL A   1      36.352  34.758  33.317  1.00  0.00     0.010 A 
ATOM     37  C   UNL A   1      35.310  32.598  32.814  1.00  0.00     0.010 A 
ATOM     38  C   UNL A   1      36.433  33.405  32.981  1.00  0.00    -0.014 A 
BRANCH  38  39
ATOM     39  C   UNL A   1      37.739  32.861  32.698  1.00  0.00     0.031 A 
ATOM     40  C   UNL A   1      38.654  32.814  33.847  1.00  0.00     0.074 A 
ATOM     41  C   UNL A   1      38.019  32.328  31.495  1.00  0.00     0.049 A 
ATOM     42  N   UNL A   1      39.758  33.462  34.008  1.00  0.00    -0.248 NA
ATOM     43  C   UNL A   1      38.221  32.037  35.017  1.00  0.00     0.031 C 
ATOM     44  C   UNL A   1      37.083  32.024  30.406  1.00  0.00     0.029 A 
ATOM     45  N   UNL A   1      39.196  31.820  31.047  1.00  0.00    -0.354 N 
ATOM     46  C   UNL A   1      40.261  33.026  35.227  1.00  0.00     0.074 A 
ATOM     47  C   UNL A   1      39.192  32.316  35.882  1.00  0.00     0.031 C 
ATOM     48  C   UNL A   1      37.684  31.182  29.534  1.00  0.00     0.029 A 
ATOM     49  C   UNL A   1      39.067  30.993  29.942  1.00  0.00     0.049 A 
ATOM     50  H   UNL A   1      40.064  32.020  31.469  1.00  0.00     0.167 HD
ATOM     51  C   UNL A   1      41.596  33.024  35.483  1.00  0.00     0.031 A 
ATOM     52  C   UNL A   1      40.009  30.145  29.464  1.00  0.00     0.031 A 
ATOM     53  C   UNL A   1      42.320  33.890  34.588  1.00  0.00     0.049 A 
ATOM     54  C   UNL A   1      41.316  30.546  30.037  1.00  0.00     0.074 A 
ATOM     55  C   UNL A   1      42.263  35.233  34.269  1.00  0.00     0.029 A 
ATOM     56  N   UNL A   1      43.051  33.299  33.585  1.00  0.00    -0.354 N 
ATOM     57  N   UNL A   1      41.949  31.636  29.712  1.00  0.00    -0.248 NA
ATOM     58  C   UNL A   1      41.739  29.932  31.287  1.00  0.00     0.031 C 
ATOM     59  C   UNL A   1      42.567  35.304  32.879  1.00  0.00     0.029 A 
ATOM     60  C   UNL A   1      42.824  34.005  32.434  1.00  0.00     0.049 A 
ATOM     61  H   UNL A   1      43.631  32.510  33.677  1.00  0.00     0.167 HD
ATOM     62  C   UNL A   1      42.533  32.075  30.891  1.00  0.00     0.074 A 
ATOM     63  C   UNL A   1      42.473  30.927  31.793  1.00  0.00     0.031 C 
ATOM     64  C   UNL A   1      42.743  33.405  31.120  1.00  0.00     0.031 A 
BRANCH  51  65
ATOM     65  C   UNL A   1      42.267  31.901  36.240  1.00  0.00    -0.014 A 
ATOM     66  C   UNL A   1      43.207  32.229  37.231  1.00  0.00     0.009 A 
ATOM     67  C   UNL A   1      42.228  30.552  35.833  1.00  0.00     0.009 A 
ATOM     68  C   UNL A   1      44.114  31.280  37.715  1.00  0.00     0.001 A 
ATOM     69  C   UNL A   1      43.097  29.590  36.350  1.00  0.00     0.001 A 
ATOM     70  C   UNL A   1      44.064  29.963  37.268  1.00  0.00     0.000 A 
ENDBRANCH  51  65
BRANCH  52  71
ATOM     71  C   UNL A   1      39.815  28.856  28.769  1.00  0.00    -0.014 A 
ATOM     72  C   UNL A   1      40.397  28.626  27.515  1.00  0.00     0.009 A 
ATOM     73  C   UNL A   1      39.265  27.752  29.448  1.00  0.00     0.009 A 
ATOM     74  C   UNL A   1      40.458  27.334  26.975  1.00  0.00     0.001 A 
ATOM     75  C   UNL A   1      39.316  26.464  28.907  1.00  0.00     0.001 A 
ATOM     76  C   UNL A   1      39.927  26.254  27.677  1.00  0.00     0.000 A 
ENDBRANCH  52  71
BRANCH  64  77
ATOM     77  C   UNL A   1      42.584  34.353  29.957  1.00  0.00    -0.014 A 
ATOM     78  C   UNL A   1      43.650  34.698  29.108  1.00  0.00     0.009 A 
ATOM     79  C   UNL A   1      41.296  34.796  29.623  1.00  0.00     0.009 A 
ATOM     80  C   UNL A   1      43.437  35.492  27.976  1.00  0.00     0.001 A 
ATOM     81  C   UNL A   1      41.080  35.572  28.482  1.00  0.00     0.001 A 
ATOM     82  C   UNL A   1      42.151  35.924  27.662  1.00  0.00     0.000 A 
ENDBRANCH  64  77
ENDBRANCH  38  39
ENDBRANCH  31  33
ENDBRANCH  30  31
ENDBRANCH  29  30
ENDBRANCH  28  29
ENDBRANCH  27  28
ENDBRANCH  26  27
ENDBRANCH   1  26
TORSDOF 22
ENDMDL
MODEL 3
REMARK VINA RESULT:     -10.0      5.871     10.600
REMARK SMILES N#CCCn1cc(C(=O)OCCOCCOCCOC(=O)c2ccc(-c3c4nc(c(-c5ccccc5)c5ccc([nH]5)c(-c5ccccc5)c5nc(c(-c6ccccc6)c6ccc3[nH]6)C=C5)C=C4)cc2)c(-c2cccc([N+](=O)[O-])c2)n1
REMARK SMILES IDX 14 1 13 2 12 3 11 4 10 5 8 6 9 7 7 8 5 9 6 10 80 11 70 12
REMARK SMILES IDX 4 13 3 14 2 15 1 16 71 17 72 18 79 19 73 20 75 21 74 22
REMARK SMILES IDX 76 23 77 24 78 25 15 26 16 27 17 28 18 29 19 30 20 31 21 32
REMARK SMILES IDX 22 33 23 34 69 35 24 36 68 37 25 38 26 39 27 40 62 41 28 42
REMARK SMILES IDX 67 43 61 44 63 45 29 46 66 47 60 48 59 49 30 51 52 52 37 53
REMARK SMILES IDX 51 54 38 55 41 56 50 57 64 58 39 59 40 60 49 62 65 63 42 64
REMARK SMILES IDX 31 65 32 66 36 67 33 68 35 69 34 70 53 71 54 72 58 73 55 74
REMARK SMILES IDX 57 75 56 76 43 77 44 78 48 79 45 80 47 81 46 82
REMARK H PARENT 63 50 41 61
REMARK Flexibility Score: inf
ROOT
ATOM      1  C   UNL A   1      40.493  21.787  27.584  1.00  0.00     0.188 C 
ENDROOT
BRANCH   1   2
ATOM      2  O   UNL A   1      40.109  22.375  26.355  1.00  0.00    -0.376 OA
BRANCH   2   3
ATOM      3  C   UNL A   1      39.282  23.527  26.467  1.00  0.00     0.202 C 
BRANCH   3   4
ATOM      4  C   UNL A   1      37.780  23.292  26.240  1.00  0.00     0.261 C 
BRANCH   4   5
ATOM      5  O   UNL A   1      37.414  22.019  25.691  1.00  0.00    -0.460 OA
BRANCH   5   6
ATOM      6  C   UNL A   1      36.718  22.003  24.515  1.00  0.00     0.342 C 
ATOM      7  O   UNL A   1      37.198  22.258  23.432  1.00  0.00    -0.246 OA
BRANCH   6   8
ATOM      8  C   UNL A   1      35.368  21.501  24.726  1.00  0.00     0.106 A 
ATOM      9  N   UNL A   1      33.616  20.192  24.914  1.00  0.00    -0.270 N 
ATOM     10  C   UNL A   1      34.967  20.178  24.751  1.00  0.00     0.125 A 
ATOM     11  N   UNL A   1      33.089  21.424  24.909  1.00  0.00    -0.172 NA
ATOM     12  C   UNL A   1      34.149  22.237  24.801  1.00  0.00     0.107 A 
BRANCH   9  13
ATOM     13  C   UNL A   1      32.768  19.048  25.201  1.00  0.00     0.159 C 
BRANCH  13  14
ATOM     14  C   UNL A   1      32.264  18.395  23.924  1.00  0.00     0.144 C 
BRANCH  14  15
ATOM     15  C   UNL A   1      33.212  17.286  23.497  1.00  0.00     0.064 C 
ATOM     16  N   UNL A   1      33.998  16.366  23.142  1.00  0.00    -0.198 NA
ENDBRANCH  14  15
ENDBRANCH  13  14
ENDBRANCH   9  13
BRANCH  12  17
ATOM     17  C   UNL A   1      33.974  23.670  24.646  1.00  0.00     0.010 A 
ATOM     18  C   UNL A   1      33.829  24.477  25.785  1.00  0.00     0.011 A 
ATOM     19  C   UNL A   1      33.905  24.235  23.373  1.00  0.00     0.096 A 
ATOM     20  C   UNL A   1      33.544  25.837  25.659  1.00  0.00     0.008 A 
ATOM     21  C   UNL A   1      33.636  25.604  23.254  1.00  0.00     0.270 A 
ATOM     22  C   UNL A   1      33.437  26.404  24.391  1.00  0.00     0.085 A 
BRANCH  21  23
ATOM     23  N   UNL A   1      33.555  26.211  21.922  1.00  0.00     0.062 N 
ATOM     24  O   UNL A   1      33.249  25.474  20.973  1.00  0.00    -0.258 OA
ATOM     25  O   UNL A   1      33.790  27.423  21.822  1.00  0.00    -0.258 OA
ENDBRANCH  21  23
ENDBRANCH  12  17
ENDBRANCH   6   8
ENDBRANCH   5   6
ENDBRANCH   4   5
ENDBRANCH   3   4
ENDBRANCH   2   3
ENDBRANCH   1   2
BRANCH   1  26
ATOM     26  C   UNL A   1      41.347  20.509  27.455  1.00  0.00     0.188 C 
BRANCH  26  27
ATOM     27  O   UNL A   1      41.257  19.629  26.341  1.00  0.00    -0.376 OA
BRANCH  27  28
ATOM     28  C   UNL A   1      42.246  18.640  26.101  1.00  0.00     0.202 C 
BRANCH  28  29
ATOM     29  C   UNL A   1      43.429  18.988  25.204  1.00  0.00     0.261 C 
BRANCH  29  30
ATOM     30  O   UNL A   1      43.769  20.362  25.219  1.00  0.00    -0.460 OA
BRANCH  30  31
ATOM     31  C   UNL A   1      44.605  20.738  24.227  1.00  0.00     0.338 C 
ATOM     32  O   UNL A   1      44.964  20.082  23.266  1.00  0.00    -0.246 OA
BRANCH  31  33
ATOM     33  C   UNL A   1      45.107  22.083  24.535  1.00  0.00     0.060 A 
ATOM     34  C   UNL A   1      46.139  22.161  25.472  1.00  0.00     0.016 A 
ATOM     35  C   UNL A   1      44.356  23.204  24.153  1.00  0.00     0.016 A 
ATOM     36  C   UNL A   1      46.226  23.297  26.242  1.00  0.00     0.010 A 
ATOM     37  C   UNL A   1      44.423  24.325  24.939  1.00  0.00     0.010 A 
ATOM     38  C   UNL A   1      45.279  24.304  26.037  1.00  0.00    -0.014 A 
BRANCH  38  39
ATOM     39  C   UNL A   1      45.127  25.301  27.068  1.00  0.00     0.031 A 
ATOM     40  C   UNL A   1      46.294  26.173  27.266  1.00  0.00     0.074 A 
ATOM     41  C   UNL A   1      43.948  25.475  27.692  1.00  0.00     0.049 A 
ATOM     42  N   UNL A   1      47.051  26.259  28.306  1.00  0.00    -0.248 NA
ATOM     43  C   UNL A   1      46.743  26.962  26.110  1.00  0.00     0.031 C 
ATOM     44  C   UNL A   1      42.648  24.893  27.336  1.00  0.00     0.029 A 
ATOM     45  N   UNL A   1      43.644  26.325  28.706  1.00  0.00    -0.354 N 
ATOM     46  C   UNL A   1      47.968  27.259  28.007  1.00  0.00     0.074 A 
ATOM     47  C   UNL A   1      47.857  27.508  26.592  1.00  0.00     0.031 C 
ATOM     48  C   UNL A   1      41.671  25.583  27.969  1.00  0.00     0.029 A 
ATOM     49  C   UNL A   1      42.285  26.561  28.853  1.00  0.00     0.049 A 
ATOM     50  H   UNL A   1      44.325  26.736  29.286  1.00  0.00     0.167 HD
ATOM     51  C   UNL A   1      48.538  28.013  28.983  1.00  0.00     0.031 A 
ATOM     52  C   UNL A   1      41.721  27.556  29.579  1.00  0.00     0.031 A 
ATOM     53  C   UNL A   1      48.437  27.389  30.278  1.00  0.00     0.049 A 
ATOM     54  C   UNL A   1      42.747  28.076  30.513  1.00  0.00     0.074 A 
ATOM     55  C   UNL A   1      48.838  26.180  30.813  1.00  0.00     0.029 A 
ATOM     56  N   UNL A   1      47.515  27.901  31.159  1.00  0.00    -0.354 N 
ATOM     57  N   UNL A   1      43.201  27.414  31.537  1.00  0.00    -0.248 NA
ATOM     58  C   UNL A   1      43.577  29.189  30.076  1.00  0.00     0.031 C 
ATOM     59  C   UNL A   1      47.816  25.821  31.739  1.00  0.00     0.029 A 
ATOM     60  C   UNL A   1      46.865  26.845  31.741  1.00  0.00     0.049 A 
ATOM     61  H   UNL A   1      47.350  28.854  31.339  1.00  0.00     0.167 HD
ATOM     62  C   UNL A   1      44.548  27.740  31.605  1.00  0.00     0.074 A 
ATOM     63  C   UNL A   1      44.693  28.925  30.763  1.00  0.00     0.031 C 
ATOM     64  C   UNL A   1      45.463  26.854  32.098  1.00  0.00     0.031 A 
BRANCH  51  65
ATOM     65  C   UNL A   1      48.774  29.497  28.817  1.00  0.00    -0.014 A 
ATOM     66  C   UNL A   1      50.059  30.004  29.074  1.00  0.00     0.009 A 
ATOM     67  C   UNL A   1      47.737  30.445  28.700  1.00  0.00     0.009 A 
ATOM     68  C   UNL A   1      50.272  31.370  29.291  1.00  0.00     0.001 A 
ATOM     69  C   UNL A   1      47.954  31.814  28.864  1.00  0.00     0.001 A 
ATOM     70  C   UNL A   1      49.218  32.273  29.195  1.00  0.00     0.000 A 
ENDBRANCH  51  65
BRANCH  52  71
ATOM     71  C   UNL A   1      40.449  28.264  29.331  1.00  0.00    -0.014 A 
ATOM     72  C   UNL A   1      40.213  28.901  28.104  1.00  0.00     0.009 A 
ATOM     73  C   UNL A   1      39.358  28.105  30.206  1.00  0.00     0.009 A 
ATOM     74  C   UNL A   1      38.927  29.331  27.751  1.00  0.00     0.001 A 
ATOM     75  C   UNL A   1      38.076  28.541  29.860  1.00  0.00     0.001 A 
ATOM     76  C   UNL A   1      37.858  29.141  28.625  1.00  0.00     0.000 A 
ENDBRANCH  52  71
BRANCH  64  77
ATOM     77  C   UNL A   1      44.946  25.635  32.819  1.00  0.00    -0.014 A 
ATOM     78  C   UNL A   1      44.697  25.619  34.203  1.00  0.00     0.009 A 
ATOM     79  C   UNL A   1      44.561  24.519  32.060  1.00  0.00     0.009 A 
ATOM     80  C   UNL A   1      44.112  24.505  34.813  1.00  0.00     0.001 A 
ATOM     81  C   UNL A   1      43.958  23.415  32.667  1.00  0.00     0.001 A 
ATOM     82  C   UNL A   1      43.739  23.406  34.044  1.00  0.00     0.000 A 
ENDBRANCH  64  77
ENDBRANCH  38  39
ENDBRANCH  31  33
ENDBRANCH  30  31
ENDBRANCH  29  30
ENDBRANCH  28  29
ENDBRANCH  27  28
ENDBRANCH  26  27
ENDBRANCH   1  26
TORSDOF 22
ENDMDL
