MODEL 1
REMARK VINA RESULT:      -9.0      0.000      0.000
REMARK SMILES O=C(OCCOCCOCCOC(=O)c1[nH]ncc1C[N@H+]1CCC[C@@H](C(=O)c2ccc(Oc3ccccc3)cc2)C1)c1ccc(-c2c3nc(c(-c4ccccc4)c4ccc([nH]4)c(-c4ccccc4)c4nc(c(-c5ccccc5)c5ccc2[nH]5)C=C4)C=C3)cc1
REMARK SMILES IDX 10 1 9 2 8 3 7 4 6 5 5 6 4 7 3 8 2 9 1 10 42 11 43 12 89 13
REMARK SMILES IDX 44 14 88 15 45 16 46 17 47 18 82 19 48 20 87 21 81 22 83 23
REMARK SMILES IDX 49 24 86 25 80 26 79 27 50 29 72 30 57 31 71 32 58 33 61 34
REMARK SMILES IDX 70 35 84 36 59 37 60 38 69 40 85 41 62 42 51 43 52 44 56 45
REMARK SMILES IDX 53 46 55 47 54 48 73 49 74 50 78 51 75 52 77 53 76 54 63 55
REMARK SMILES IDX 64 56 68 57 65 58 67 59 66 60 11 61 12 62 13 63 14 64 15 65
REMARK SMILES IDX 16 66 19 67 17 68 18 70 20 71 21 72 22 73 41 74 23 76 25 77
REMARK SMILES IDX 24 78 26 79 27 80 28 81 29 82 40 83 30 84 39 85 31 86 32 87
REMARK SMILES IDX 33 88 34 89 38 90 35 91 37 92 36 93
REMARK H PARENT 83 28 61 39 16 69 21 75
REMARK Flexibility Score: inf
ROOT
ATOM      1  C   UNL A   1      41.348  27.991  29.076  1.00  0.00     0.202 C 
ENDROOT
BRANCH   1   2
ATOM      2  O   UNL A   1      40.797  26.677  29.155  1.00  0.00    -0.376 OA
BRANCH   2   3
ATOM      3  C   UNL A   1      39.455  26.547  28.676  1.00  0.00     0.188 C 
BRANCH   3   4
ATOM      4  C   UNL A   1      39.332  25.472  27.596  1.00  0.00     0.188 C 
BRANCH   4   5
ATOM      5  O   UNL A   1      40.444  24.563  27.675  1.00  0.00    -0.376 OA
BRANCH   5   6
ATOM      6  C   UNL A   1      40.179  23.335  26.989  1.00  0.00     0.202 C 
BRANCH   6   7
ATOM      7  C   UNL A   1      41.415  22.818  26.247  1.00  0.00     0.261 C 
BRANCH   7   8
ATOM      8  O   UNL A   1      42.426  23.843  26.192  1.00  0.00    -0.460 OA
BRANCH   8   9
ATOM      9  C   UNL A   1      43.619  23.800  26.842  1.00  0.00     0.338 C 
ATOM     10  O   UNL A   1      44.050  22.749  27.304  1.00  0.00    -0.246 OA
BRANCH   9  11
ATOM     11  C   UNL A   1      44.502  24.987  26.816  1.00  0.00     0.060 A 
ATOM     12  C   UNL A   1      45.171  25.457  27.947  1.00  0.00     0.016 A 
ATOM     13  C   UNL A   1      44.739  25.586  25.572  1.00  0.00     0.016 A 
ATOM     14  C   UNL A   1      45.980  26.595  27.857  1.00  0.00     0.010 A 
ATOM     15  C   UNL A   1      45.595  26.686  25.471  1.00  0.00     0.010 A 
ATOM     16  C   UNL A   1      46.200  27.221  26.619  1.00  0.00    -0.014 A 
BRANCH  16  17
ATOM     17  C   UNL A   1      47.065  28.425  26.510  1.00  0.00     0.031 A 
ATOM     18  C   UNL A   1      46.465  29.801  26.553  1.00  0.00     0.074 A 
ATOM     19  C   UNL A   1      48.395  28.295  26.344  1.00  0.00     0.049 A 
ATOM     20  N   UNL A   1      47.049  30.960  26.377  1.00  0.00    -0.248 NA
ATOM     21  C   UNL A   1      45.024  29.886  26.829  1.00  0.00     0.031 C 
ATOM     22  C   UNL A   1      49.113  27.026  26.286  1.00  0.00     0.029 A 
ATOM     23  N   UNL A   1      49.374  29.242  26.178  1.00  0.00    -0.354 N 
ATOM     24  C   UNL A   1      46.048  31.910  26.507  1.00  0.00     0.074 A 
ATOM     25  C   UNL A   1      44.815  31.192  26.761  1.00  0.00     0.031 C 
ATOM     26  C   UNL A   1      50.419  27.268  26.092  1.00  0.00     0.029 A 
ATOM     27  C   UNL A   1      50.623  28.708  25.979  1.00  0.00     0.049 A 
ATOM     28  H   UNL A   1      49.199  30.210  26.201  1.00  0.00     0.167 HD
ATOM     29  C   UNL A   1      46.140  33.260  26.436  1.00  0.00     0.031 A 
ATOM     30  C   UNL A   1      51.799  29.300  25.706  1.00  0.00     0.031 A 
ATOM     31  C   UNL A   1      47.353  33.991  26.199  1.00  0.00     0.049 A 
ATOM     32  C   UNL A   1      51.873  30.791  25.586  1.00  0.00     0.074 A 
ATOM     33  C   UNL A   1      47.539  35.362  26.140  1.00  0.00     0.029 A 
ATOM     34  N   UNL A   1      48.592  33.410  25.984  1.00  0.00    -0.354 N 
ATOM     35  N   UNL A   1      50.912  31.672  25.708  1.00  0.00    -0.248 NA
ATOM     36  C   UNL A   1      53.193  31.366  25.287  1.00  0.00     0.031 C 
ATOM     37  C   UNL A   1      48.893  35.609  25.874  1.00  0.00     0.029 A 
ATOM     38  C   UNL A   1      49.546  34.391  25.781  1.00  0.00     0.049 A 
ATOM     39  H   UNL A   1      48.767  32.440  25.977  1.00  0.00     0.167 HD
ATOM     40  C   UNL A   1      51.508  32.908  25.502  1.00  0.00     0.074 A 
ATOM     41  C   UNL A   1      52.914  32.664  25.253  1.00  0.00     0.031 C 
ATOM     42  C   UNL A   1      50.936  34.135  25.520  1.00  0.00     0.031 A 
BRANCH  29  43
ATOM     43  C   UNL A   1      44.865  34.024  26.618  1.00  0.00    -0.014 A 
ATOM     44  C   UNL A   1      44.425  34.382  27.901  1.00  0.00     0.009 A 
ATOM     45  C   UNL A   1      44.091  34.376  25.503  1.00  0.00     0.009 A 
ATOM     46  C   UNL A   1      43.213  35.055  28.066  1.00  0.00     0.001 A 
ATOM     47  C   UNL A   1      42.885  35.056  25.670  1.00  0.00     0.001 A 
ATOM     48  C   UNL A   1      42.443  35.389  26.952  1.00  0.00     0.000 A 
ENDBRANCH  29  43
BRANCH  30  49
ATOM     49  C   UNL A   1      53.000  28.462  25.486  1.00  0.00    -0.014 A 
ATOM     50  C   UNL A   1      53.826  28.109  26.562  1.00  0.00     0.009 A 
ATOM     51  C   UNL A   1      53.304  27.989  24.200  1.00  0.00     0.009 A 
ATOM     52  C   UNL A   1      54.944  27.298  26.352  1.00  0.00     0.001 A 
ATOM     53  C   UNL A   1      54.420  27.178  23.995  1.00  0.00     0.001 A 
ATOM     54  C   UNL A   1      55.238  26.833  25.070  1.00  0.00     0.000 A 
ENDBRANCH  30  49
BRANCH  42  55
ATOM     55  C   UNL A   1      51.837  35.302  25.261  1.00  0.00    -0.014 A 
ATOM     56  C   UNL A   1      52.496  35.942  26.321  1.00  0.00     0.009 A 
ATOM     57  C   UNL A   1      52.045  35.753  23.950  1.00  0.00     0.009 A 
ATOM     58  C   UNL A   1      53.337  37.028  26.073  1.00  0.00     0.001 A 
ATOM     59  C   UNL A   1      52.892  36.835  23.704  1.00  0.00     0.001 A 
ATOM     60  C   UNL A   1      53.533  37.473  24.765  1.00  0.00     0.000 A 
ENDBRANCH  42  55
ENDBRANCH  16  17
ENDBRANCH   9  11
ENDBRANCH   8   9
ENDBRANCH   7   8
ENDBRANCH   6   7
ENDBRANCH   5   6
ENDBRANCH   4   5
ENDBRANCH   3   4
ENDBRANCH   2   3
ENDBRANCH   1   2
BRANCH   1  61
ATOM     61  C   UNL A   1      41.572  28.589  30.468  1.00  0.00     0.261 C 
BRANCH  61  62
ATOM     62  O   UNL A   1      40.824  29.806  30.643  1.00  0.00    -0.459 OA
BRANCH  62  63
ATOM     63  C   UNL A   1      40.517  30.142  31.923  1.00  0.00     0.356 C 
ATOM     64  O   UNL A   1      41.243  30.740  32.706  1.00  0.00    -0.244 OA
BRANCH  63  65
ATOM     65  C   UNL A   1      39.156  29.793  32.198  1.00  0.00     0.152 A 
ATOM     66  N   UNL A   1      38.840  28.679  32.927  1.00  0.00    -0.271 N 
ATOM     67  C   UNL A   1      37.947  30.358  31.820  1.00  0.00     0.059 A 
ATOM     68  N   UNL A   1      37.523  28.520  33.125  1.00  0.00    -0.183 NA
ATOM     69  H   UNL A   1      39.516  28.053  33.274  1.00  0.00     0.190 HD
ATOM     70  C   UNL A   1      36.984  29.525  32.439  1.00  0.00     0.145 A 
BRANCH  67  71
ATOM     71  C   UNL A   1      37.684  31.535  30.933  1.00  0.00     0.303 C 
BRANCH  71  72
ATOM     72  N   UNL A   1      37.306  31.159  29.557  1.00  0.00    -0.330 N 
ATOM     73  C   UNL A   1      37.919  29.905  29.102  1.00  0.00     0.262 C 
ATOM     74  C   UNL A   1      35.852  31.164  29.340  1.00  0.00     0.274 C 
ATOM     75  H   UNL A   1      37.694  31.897  28.969  1.00  0.00     0.348 HD
ATOM     76  C   UNL A   1      37.597  29.622  27.632  1.00  0.00     0.062 C 
ATOM     77  C   UNL A   1      35.482  30.948  27.874  1.00  0.00     0.116 C 
ATOM     78  C   UNL A   1      36.091  29.637  27.368  1.00  0.00     0.023 C 
BRANCH  77  79
ATOM     79  C   UNL A   1      33.986  31.014  27.556  1.00  0.00     0.171 C 
ATOM     80  O   UNL A   1      33.345  32.049  27.753  1.00  0.00    -0.294 OA
BRANCH  79  81
ATOM     81  C   UNL A   1      33.280  29.903  26.861  1.00  0.00     0.018 A 
ATOM     82  C   UNL A   1      32.777  28.859  27.643  1.00  0.00     0.015 A 
ATOM     83  C   UNL A   1      33.179  29.825  25.471  1.00  0.00     0.015 A 
ATOM     84  C   UNL A   1      32.143  27.769  27.037  1.00  0.00     0.048 A 
ATOM     85  C   UNL A   1      32.509  28.753  24.868  1.00  0.00     0.048 A 
ATOM     86  C   UNL A   1      32.005  27.710  25.647  1.00  0.00     0.127 A 
BRANCH  86  87
ATOM     87  O   UNL A   1      31.351  26.592  25.173  1.00  0.00    -0.457 OA
BRANCH  87  88
ATOM     88  C   UNL A   1      31.618  25.372  25.739  1.00  0.00     0.127 A 
ATOM     89  C   UNL A   1      32.942  24.934  25.743  1.00  0.00     0.047 A 
ATOM     90  C   UNL A   1      30.599  24.544  26.219  1.00  0.00     0.047 A 
ATOM     91  C   UNL A   1      33.258  23.685  26.279  1.00  0.00     0.004 A 
ATOM     92  C   UNL A   1      30.920  23.302  26.768  1.00  0.00     0.004 A 
ATOM     93  C   UNL A   1      32.249  22.876  26.800  1.00  0.00     0.000 A 
ENDBRANCH  87  88
ENDBRANCH  86  87
ENDBRANCH  79  81
ENDBRANCH  77  79
ENDBRANCH  71  72
ENDBRANCH  67  71
ENDBRANCH  63  65
ENDBRANCH  62  63
ENDBRANCH  61  62
ENDBRANCH   1  61
TORSDOF 23
ENDMDL
MODEL 2
REMARK VINA RESULT:      -8.8      0.933      5.555
REMARK SMILES O=C(OCCOCCOCCOC(=O)c1[nH]ncc1C[N@H+]1CCC[C@@H](C(=O)c2ccc(Oc3ccccc3)cc2)C1)c1ccc(-c2c3nc(c(-c4ccccc4)c4ccc([nH]4)c(-c4ccccc4)c4nc(c(-c5ccccc5)c5ccc2[nH]5)C=C4)C=C3)cc1
REMARK SMILES IDX 10 1 9 2 8 3 7 4 6 5 5 6 4 7 3 8 2 9 1 10 42 11 43 12 89 13
REMARK SMILES IDX 44 14 88 15 45 16 46 17 47 18 82 19 48 20 87 21 81 22 83 23
REMARK SMILES IDX 49 24 86 25 80 26 79 27 50 29 72 30 57 31 71 32 58 33 61 34
REMARK SMILES IDX 70 35 84 36 59 37 60 38 69 40 85 41 62 42 51 43 52 44 56 45
REMARK SMILES IDX 53 46 55 47 54 48 73 49 74 50 78 51 75 52 77 53 76 54 63 55
REMARK SMILES IDX 64 56 68 57 65 58 67 59 66 60 11 61 12 62 13 63 14 64 15 65
REMARK SMILES IDX 16 66 19 67 17 68 18 70 20 71 21 72 22 73 41 74 23 76 25 77
REMARK SMILES IDX 24 78 26 79 27 80 28 81 29 82 40 83 30 84 39 85 31 86 32 87
REMARK SMILES IDX 33 88 34 89 38 90 35 91 37 92 36 93
REMARK H PARENT 83 28 61 39 16 69 21 75
REMARK Flexibility Score: inf
ROOT
ATOM      1  C   UNL A   1      41.556  28.039  28.831  1.00  0.00     0.202 C 
ENDROOT
BRANCH   1   2
ATOM      2  O   UNL A   1      41.022  26.749  29.125  1.00  0.00    -0.376 OA
BRANCH   2   3
ATOM      3  C   UNL A   1      39.620  26.597  28.879  1.00  0.00     0.188 C 
BRANCH   3   4
ATOM      4  C   UNL A   1      39.328  25.447  27.916  1.00  0.00     0.188 C 
BRANCH   4   5
ATOM      5  O   UNL A   1      40.426  24.517  27.909  1.00  0.00    -0.376 OA
BRANCH   5   6
ATOM      6  C   UNL A   1      40.032  23.231  27.420  1.00  0.00     0.202 C 
BRANCH   6   7
ATOM      7  C   UNL A   1      41.096  22.619  26.505  1.00  0.00     0.261 C 
BRANCH   7   8
ATOM      8  O   UNL A   1      42.136  23.579  26.239  1.00  0.00    -0.460 OA
BRANCH   8   9
ATOM      9  C   UNL A   1      43.368  23.577  26.813  1.00  0.00     0.338 C 
ATOM     10  O   UNL A   1      43.864  22.541  27.243  1.00  0.00    -0.246 OA
BRANCH   9  11
ATOM     11  C   UNL A   1      44.206  24.794  26.736  1.00  0.00     0.060 A 
ATOM     12  C   UNL A   1      44.864  25.331  27.844  1.00  0.00     0.016 A 
ATOM     13  C   UNL A   1      44.412  25.355  25.469  1.00  0.00     0.016 A 
ATOM     14  C   UNL A   1      45.629  26.494  27.706  1.00  0.00     0.010 A 
ATOM     15  C   UNL A   1      45.226  26.481  25.321  1.00  0.00     0.010 A 
ATOM     16  C   UNL A   1      45.818  27.081  26.443  1.00  0.00    -0.014 A 
BRANCH  16  17
ATOM     17  C   UNL A   1      46.637  28.312  26.283  1.00  0.00     0.031 A 
ATOM     18  C   UNL A   1      48.118  28.217  26.055  1.00  0.00     0.074 A 
ATOM     19  C   UNL A   1      46.063  29.526  26.369  1.00  0.00     0.049 A 
ATOM     20  N   UNL A   1      49.004  29.180  25.990  1.00  0.00    -0.248 NA
ATOM     21  C   UNL A   1      48.675  26.869  25.876  1.00  0.00     0.031 C 
ATOM     22  C   UNL A   1      44.640  29.769  26.586  1.00  0.00     0.029 A 
ATOM     23  N   UNL A   1      46.610  30.783  26.300  1.00  0.00    -0.354 N 
ATOM     24  C   UNL A   1      50.223  28.555  25.776  1.00  0.00     0.074 A 
ATOM     25  C   UNL A   1      49.967  27.130  25.740  1.00  0.00     0.031 C 
ATOM     26  C   UNL A   1      44.422  31.092  26.639  1.00  0.00     0.029 A 
ATOM     27  C   UNL A   1      45.696  31.788  26.494  1.00  0.00     0.049 A 
ATOM     28  H   UNL A   1      47.565  30.947  26.128  1.00  0.00     0.167 HD
ATOM     29  C   UNL A   1      51.447  29.112  25.613  1.00  0.00     0.031 A 
ATOM     30  C   UNL A   1      45.858  33.121  26.574  1.00  0.00     0.031 A 
ATOM     31  C   UNL A   1      51.720  30.521  25.632  1.00  0.00     0.049 A 
ATOM     32  C   UNL A   1      47.226  33.715  26.436  1.00  0.00     0.074 A 
ATOM     33  C   UNL A   1      52.930  31.171  25.446  1.00  0.00     0.029 A 
ATOM     34  N   UNL A   1      50.769  31.503  25.849  1.00  0.00    -0.354 N 
ATOM     35  N   UNL A   1      48.369  33.106  26.240  1.00  0.00    -0.248 NA
ATOM     36  C   UNL A   1      47.326  35.178  26.535  1.00  0.00     0.031 C 
ATOM     37  C   UNL A   1      52.710  32.550  25.565  1.00  0.00     0.029 A 
ATOM     38  C   UNL A   1      51.362  32.753  25.813  1.00  0.00     0.049 A 
ATOM     39  H   UNL A   1      49.811  31.337  26.006  1.00  0.00     0.167 HD
ATOM     40  C   UNL A   1      49.326  34.109  26.191  1.00  0.00     0.074 A 
ATOM     41  C   UNL A   1      48.629  35.367  26.371  1.00  0.00     0.031 C 
ATOM     42  C   UNL A   1      50.662  33.994  26.009  1.00  0.00     0.031 A 
BRANCH  29  43
ATOM     43  C   UNL A   1      52.586  28.163  25.400  1.00  0.00    -0.014 A 
ATOM     44  C   UNL A   1      53.353  27.714  26.486  1.00  0.00     0.009 A 
ATOM     45  C   UNL A   1      52.906  27.727  24.106  1.00  0.00     0.009 A 
ATOM     46  C   UNL A   1      54.442  26.866  26.275  1.00  0.00     0.001 A 
ATOM     47  C   UNL A   1      53.989  26.872  23.899  1.00  0.00     0.001 A 
ATOM     48  C   UNL A   1      54.760  26.448  24.982  1.00  0.00     0.000 A 
ENDBRANCH  29  43
BRANCH  30  49
ATOM     49  C   UNL A   1      44.683  33.981  26.842  1.00  0.00    -0.014 A 
ATOM     50  C   UNL A   1      43.941  34.520  25.782  1.00  0.00     0.009 A 
ATOM     51  C   UNL A   1      44.285  34.239  28.163  1.00  0.00     0.009 A 
ATOM     52  C   UNL A   1      42.819  35.310  26.041  1.00  0.00     0.001 A 
ATOM     53  C   UNL A   1      43.162  35.027  28.417  1.00  0.00     0.001 A 
ATOM     54  C   UNL A   1      42.430  35.561  27.357  1.00  0.00     0.000 A 
ENDBRANCH  30  49
BRANCH  42  55
ATOM     55  C   UNL A   1      51.453  35.265  26.000  1.00  0.00    -0.014 A 
ATOM     56  C   UNL A   1      51.653  35.971  24.805  1.00  0.00     0.009 A 
ATOM     57  C   UNL A   1      51.986  35.770  27.195  1.00  0.00     0.009 A 
ATOM     58  C   UNL A   1      52.389  37.157  24.804  1.00  0.00     0.001 A 
ATOM     59  C   UNL A   1      52.715  36.960  27.192  1.00  0.00     0.001 A 
ATOM     60  C   UNL A   1      52.919  37.649  25.997  1.00  0.00     0.000 A 
ENDBRANCH  42  55
ENDBRANCH  16  17
ENDBRANCH   9  11
ENDBRANCH   8   9
ENDBRANCH   7   8
ENDBRANCH   6   7
ENDBRANCH   5   6
ENDBRANCH   4   5
ENDBRANCH   3   4
ENDBRANCH   2   3
ENDBRANCH   1   2
BRANCH   1  61
ATOM     61  C   UNL A   1      42.074  28.732  30.095  1.00  0.00     0.261 C 
BRANCH  61  62
ATOM     62  O   UNL A   1      41.134  29.706  30.583  1.00  0.00    -0.459 OA
BRANCH  62  63
ATOM     63  C   UNL A   1      40.880  29.678  31.917  1.00  0.00     0.356 C 
ATOM     64  O   UNL A   1      41.667  29.971  32.808  1.00  0.00    -0.244 OA
BRANCH  63  65
ATOM     65  C   UNL A   1      39.501  29.362  32.136  1.00  0.00     0.152 A 
ATOM     66  N   UNL A   1      39.126  28.195  32.744  1.00  0.00    -0.271 N 
ATOM     67  C   UNL A   1      38.323  30.013  31.801  1.00  0.00     0.059 A 
ATOM     68  N   UNL A   1      37.801  28.074  32.907  1.00  0.00    -0.183 NA
ATOM     69  H   UNL A   1      39.770  27.509  33.036  1.00  0.00     0.190 HD
ATOM     70  C   UNL A   1      37.316  29.165  32.319  1.00  0.00     0.145 A 
BRANCH  67  71
ATOM     71  C   UNL A   1      38.125  31.283  31.033  1.00  0.00     0.303 C 
BRANCH  71  72
ATOM     72  N   UNL A   1      37.663  31.066  29.648  1.00  0.00    -0.330 N 
ATOM     73  C   UNL A   1      38.233  29.867  29.022  1.00  0.00     0.262 C 
ATOM     74  C   UNL A   1      36.200  31.104  29.520  1.00  0.00     0.274 C 
ATOM     75  H   UNL A   1      38.026  31.863  29.124  1.00  0.00     0.348 HD
ATOM     76  C   UNL A   1      37.823  29.752  27.551  1.00  0.00     0.062 C 
ATOM     77  C   UNL A   1      35.743  31.055  28.063  1.00  0.00     0.116 C 
ATOM     78  C   UNL A   1      36.304  29.805  27.379  1.00  0.00     0.023 C 
BRANCH  77  79
ATOM     79  C   UNL A   1      34.232  31.165  27.844  1.00  0.00     0.171 C 
ATOM     80  O   UNL A   1      33.622  32.191  28.155  1.00  0.00    -0.294 OA
BRANCH  79  81
ATOM     81  C   UNL A   1      33.465  30.120  27.112  1.00  0.00     0.018 A 
ATOM     82  C   UNL A   1      32.469  30.541  26.226  1.00  0.00     0.015 A 
ATOM     83  C   UNL A   1      33.643  28.754  27.339  1.00  0.00     0.015 A 
ATOM     84  C   UNL A   1      31.689  29.600  25.546  1.00  0.00     0.048 A 
ATOM     85  C   UNL A   1      32.889  27.813  26.628  1.00  0.00     0.048 A 
ATOM     86  C   UNL A   1      31.895  28.231  25.742  1.00  0.00     0.127 A 
BRANCH  86  87
ATOM     87  O   UNL A   1      31.072  27.406  25.005  1.00  0.00    -0.457 OA
BRANCH  87  88
ATOM     88  C   UNL A   1      31.629  26.562  24.078  1.00  0.00     0.127 A 
ATOM     89  C   UNL A   1      31.204  25.234  24.073  1.00  0.00     0.047 A 
ATOM     90  C   UNL A   1      32.651  26.979  23.222  1.00  0.00     0.047 A 
ATOM     91  C   UNL A   1      31.764  24.329  23.172  1.00  0.00     0.004 A 
ATOM     92  C   UNL A   1      33.200  26.075  22.311  1.00  0.00     0.004 A 
ATOM     93  C   UNL A   1      32.754  24.753  22.284  1.00  0.00     0.000 A 
ENDBRANCH  87  88
ENDBRANCH  86  87
ENDBRANCH  79  81
ENDBRANCH  77  79
ENDBRANCH  71  72
ENDBRANCH  67  71
ENDBRANCH  63  65
ENDBRANCH  62  63
ENDBRANCH  61  62
ENDBRANCH   1  61
TORSDOF 23
ENDMDL
MODEL 3
REMARK VINA RESULT:      -8.7      4.389     10.182
REMARK SMILES O=C(OCCOCCOCCOC(=O)c1[nH]ncc1C[N@H+]1CCC[C@@H](C(=O)c2ccc(Oc3ccccc3)cc2)C1)c1ccc(-c2c3nc(c(-c4ccccc4)c4ccc([nH]4)c(-c4ccccc4)c4nc(c(-c5ccccc5)c5ccc2[nH]5)C=C4)C=C3)cc1
REMARK SMILES IDX 10 1 9 2 8 3 7 4 6 5 5 6 4 7 3 8 2 9 1 10 42 11 43 12 89 13
REMARK SMILES IDX 44 14 88 15 45 16 46 17 47 18 82 19 48 20 87 21 81 22 83 23
REMARK SMILES IDX 49 24 86 25 80 26 79 27 50 29 72 30 57 31 71 32 58 33 61 34
REMARK SMILES IDX 70 35 84 36 59 37 60 38 69 40 85 41 62 42 51 43 52 44 56 45
REMARK SMILES IDX 53 46 55 47 54 48 73 49 74 50 78 51 75 52 77 53 76 54 63 55
REMARK SMILES IDX 64 56 68 57 65 58 67 59 66 60 11 61 12 62 13 63 14 64 15 65
REMARK SMILES IDX 16 66 19 67 17 68 18 70 20 71 21 72 22 73 41 74 23 76 25 77
REMARK SMILES IDX 24 78 26 79 27 80 28 81 29 82 40 83 30 84 39 85 31 86 32 87
REMARK SMILES IDX 33 88 34 89 38 90 35 91 37 92 36 93
REMARK H PARENT 83 28 61 39 16 69 21 75
REMARK Flexibility Score: inf
ROOT
ATOM      1  C   UNL A   1      47.683  26.081  24.437  1.00  0.00     0.202 C 
ENDROOT
BRANCH   1   2
ATOM      2  O   UNL A   1      47.937  26.632  23.145  1.00  0.00    -0.376 OA
BRANCH   2   3
ATOM      3  C   UNL A   1      49.191  27.306  23.004  1.00  0.00     0.188 C 
BRANCH   3   4
ATOM      4  C   UNL A   1      49.960  27.369  24.323  1.00  0.00     0.188 C 
BRANCH   4   5
ATOM      5  O   UNL A   1      51.098  26.490  24.274  1.00  0.00    -0.376 OA
BRANCH   5   6
ATOM      6  C   UNL A   1      51.985  26.704  25.378  1.00  0.00     0.202 C 
BRANCH   6   7
ATOM      7  C   UNL A   1      52.156  25.439  26.224  1.00  0.00     0.261 C 
BRANCH   7   8
ATOM      8  O   UNL A   1      51.217  25.441  27.317  1.00  0.00    -0.460 OA
BRANCH   8   9
ATOM      9  C   UNL A   1      51.226  26.318  28.354  1.00  0.00     0.338 C 
ATOM     10  O   UNL A   1      52.279  26.757  28.803  1.00  0.00    -0.246 OA
BRANCH   9  11
ATOM     11  C   UNL A   1      49.949  26.909  28.815  1.00  0.00     0.060 A 
ATOM     12  C   UNL A   1      48.719  26.594  28.237  1.00  0.00     0.016 A 
ATOM     13  C   UNL A   1      49.994  27.739  29.942  1.00  0.00     0.016 A 
ATOM     14  C   UNL A   1      47.549  27.200  28.711  1.00  0.00     0.010 A 
ATOM     15  C   UNL A   1      48.819  28.296  30.453  1.00  0.00     0.010 A 
ATOM     16  C   UNL A   1      47.588  28.057  29.823  1.00  0.00    -0.014 A 
BRANCH  16  17
ATOM     17  C   UNL A   1      46.351  28.700  30.340  1.00  0.00     0.031 A 
ATOM     18  C   UNL A   1      45.875  30.005  29.772  1.00  0.00     0.074 A 
ATOM     19  C   UNL A   1      45.658  28.131  31.344  1.00  0.00     0.049 A 
ATOM     20  N   UNL A   1      44.877  30.759  30.162  1.00  0.00    -0.248 NA
ATOM     21  C   UNL A   1      46.616  30.533  28.616  1.00  0.00     0.031 C 
ATOM     22  C   UNL A   1      46.000  26.867  31.990  1.00  0.00     0.029 A 
ATOM     23  N   UNL A   1      44.531  28.551  32.007  1.00  0.00    -0.354 N 
ATOM     24  C   UNL A   1      44.876  31.853  29.311  1.00  0.00     0.074 A 
ATOM     25  C   UNL A   1      45.984  31.676  28.393  1.00  0.00     0.031 C 
ATOM     26  C   UNL A   1      45.108  26.614  32.961  1.00  0.00     0.029 A 
ATOM     27  C   UNL A   1      44.153  27.714  33.026  1.00  0.00     0.049 A 
ATOM     28  H   UNL A   1      44.042  29.372  31.772  1.00  0.00     0.167 HD
ATOM     29  C   UNL A   1      44.028  32.908  29.282  1.00  0.00     0.031 A 
ATOM     30  C   UNL A   1      43.167  27.824  33.934  1.00  0.00     0.031 A 
ATOM     31  C   UNL A   1      42.916  33.096  30.172  1.00  0.00     0.049 A 
ATOM     32  C   UNL A   1      42.266  29.020  33.915  1.00  0.00     0.074 A 
ATOM     33  C   UNL A   1      41.988  34.124  30.192  1.00  0.00     0.029 A 
ATOM     34  N   UNL A   1      42.580  32.233  31.201  1.00  0.00    -0.354 N 
ATOM     35  N   UNL A   1      42.285  30.049  33.104  1.00  0.00    -0.248 NA
ATOM     36  C   UNL A   1      41.211  29.071  34.937  1.00  0.00     0.031 C 
ATOM     37  C   UNL A   1      41.097  33.889  31.247  1.00  0.00     0.029 A 
ATOM     38  C   UNL A   1      41.466  32.709  31.872  1.00  0.00     0.049 A 
ATOM     39  H   UNL A   1      43.062  31.404  31.424  1.00  0.00     0.167 HD
ATOM     40  C   UNL A   1      41.247  30.871  33.516  1.00  0.00     0.074 A 
ATOM     41  C   UNL A   1      40.613  30.220  34.644  1.00  0.00     0.031 C 
ATOM     42  C   UNL A   1      40.855  32.060  33.000  1.00  0.00     0.031 A 
BRANCH  29  43
ATOM     43  C   UNL A   1      44.291  33.945  28.234  1.00  0.00    -0.014 A 
ATOM     44  C   UNL A   1      45.119  35.044  28.509  1.00  0.00     0.009 A 
ATOM     45  C   UNL A   1      43.695  33.834  26.969  1.00  0.00     0.009 A 
ATOM     46  C   UNL A   1      45.322  36.030  27.543  1.00  0.00     0.001 A 
ATOM     47  C   UNL A   1      43.908  34.817  26.002  1.00  0.00     0.001 A 
ATOM     48  C   UNL A   1      44.715  35.917  26.292  1.00  0.00     0.000 A 
ENDBRANCH  29  43
BRANCH  30  49
ATOM     49  C   UNL A   1      43.013  26.777  34.970  1.00  0.00    -0.014 A 
ATOM     50  C   UNL A   1      43.894  26.722  36.059  1.00  0.00     0.009 A 
ATOM     51  C   UNL A   1      41.964  25.850  34.885  1.00  0.00     0.009 A 
ATOM     52  C   UNL A   1      43.729  25.748  37.046  1.00  0.00     0.001 A 
ATOM     53  C   UNL A   1      41.802  24.879  35.874  1.00  0.00     0.001 A 
ATOM     54  C   UNL A   1      42.683  24.830  36.954  1.00  0.00     0.000 A 
ENDBRANCH  30  49
BRANCH  42  55
ATOM     55  C   UNL A   1      39.688  32.728  33.658  1.00  0.00    -0.014 A 
ATOM     56  C   UNL A   1      39.889  33.706  34.642  1.00  0.00     0.009 A 
ATOM     57  C   UNL A   1      38.380  32.393  33.278  1.00  0.00     0.009 A 
ATOM     58  C   UNL A   1      38.797  34.327  35.249  1.00  0.00     0.001 A 
ATOM     59  C   UNL A   1      37.290  33.022  33.881  1.00  0.00     0.001 A 
ATOM     60  C   UNL A   1      37.499  33.984  34.868  1.00  0.00     0.000 A 
ENDBRANCH  42  55
ENDBRANCH  16  17
ENDBRANCH   9  11
ENDBRANCH   8   9
ENDBRANCH   7   8
ENDBRANCH   6   7
ENDBRANCH   5   6
ENDBRANCH   4   5
ENDBRANCH   3   4
ENDBRANCH   2   3
ENDBRANCH   1   2
BRANCH   1  61
ATOM     61  C   UNL A   1      46.239  26.335  24.881  1.00  0.00     0.261 C 
BRANCH  61  62
ATOM     62  O   UNL A   1      45.925  25.614  26.086  1.00  0.00    -0.459 OA
BRANCH  62  63
ATOM     63  C   UNL A   1      46.292  24.307  26.115  1.00  0.00     0.356 C 
ATOM     64  O   UNL A   1      47.271  23.845  26.687  1.00  0.00    -0.244 OA
BRANCH  63  65
ATOM     65  C   UNL A   1      45.292  23.513  25.467  1.00  0.00     0.152 A 
ATOM     66  N   UNL A   1      45.470  23.046  24.193  1.00  0.00    -0.271 N 
ATOM     67  C   UNL A   1      44.027  23.096  25.853  1.00  0.00     0.059 A 
ATOM     68  N   UNL A   1      44.457  22.287  23.751  1.00  0.00    -0.183 NA
ATOM     69  H   UNL A   1      46.269  23.247  23.652  1.00  0.00     0.190 HD
ATOM     70  C   UNL A   1      43.577  22.334  24.748  1.00  0.00     0.145 A 
BRANCH  67  71
ATOM     71  C   UNL A   1      43.269  23.400  27.108  1.00  0.00     0.303 C 
BRANCH  71  72
ATOM     72  N   UNL A   1      42.494  24.654  27.036  1.00  0.00    -0.330 N 
ATOM     73  C   UNL A   1      41.218  24.514  26.323  1.00  0.00     0.262 C 
ATOM     74  C   UNL A   1      42.318  25.295  28.346  1.00  0.00     0.274 C 
ATOM     75  H   UNL A   1      43.068  25.283  26.474  1.00  0.00     0.348 HD
ATOM     76  C   UNL A   1      40.510  25.862  26.167  1.00  0.00     0.062 C 
ATOM     77  C   UNL A   1      41.671  26.675  28.236  1.00  0.00     0.116 C 
ATOM     78  C   UNL A   1      40.326  26.566  27.512  1.00  0.00     0.023 C 
BRANCH  77  79
ATOM     79  C   UNL A   1      41.521  27.438  29.554  1.00  0.00     0.171 C 
ATOM     80  O   UNL A   1      42.242  27.177  30.520  1.00  0.00    -0.294 OA
BRANCH  79  81
ATOM     81  C   UNL A   1      40.623  28.618  29.682  1.00  0.00     0.018 A 
ATOM     82  C   UNL A   1      40.940  29.763  28.943  1.00  0.00     0.015 A 
ATOM     83  C   UNL A   1      39.541  28.653  30.563  1.00  0.00     0.015 A 
ATOM     84  C   UNL A   1      40.154  30.914  29.060  1.00  0.00     0.048 A 
ATOM     85  C   UNL A   1      38.732  29.792  30.649  1.00  0.00     0.048 A 
ATOM     86  C   UNL A   1      39.046  30.936  29.911  1.00  0.00     0.127 A 
BRANCH  86  87
ATOM     87  O   UNL A   1      38.346  32.123  29.928  1.00  0.00    -0.457 OA
BRANCH  87  88
ATOM     88  C   UNL A   1      37.009  32.116  29.619  1.00  0.00     0.127 A 
ATOM     89  C   UNL A   1      36.618  31.470  28.447  1.00  0.00     0.047 A 
ATOM     90  C   UNL A   1      36.070  32.804  30.392  1.00  0.00     0.047 A 
ATOM     91  C   UNL A   1      35.275  31.463  28.073  1.00  0.00     0.004 A 
ATOM     92  C   UNL A   1      34.725  32.782  30.024  1.00  0.00     0.004 A 
ATOM     93  C   UNL A   1      34.328  32.110  28.867  1.00  0.00     0.000 A 
ENDBRANCH  87  88
ENDBRANCH  86  87
ENDBRANCH  79  81
ENDBRANCH  77  79
ENDBRANCH  71  72
ENDBRANCH  67  71
ENDBRANCH  63  65
ENDBRANCH  62  63
ENDBRANCH  61  62
ENDBRANCH   1  61
TORSDOF 23
ENDMDL
