MODEL 1
REMARK VINA RESULT:     -10.7      0.000      0.000
REMARK SMILES C[C@H]1CN(C(=O)N2CC[NH+]([C@@H](C)C(=O)OCCOCCOCCOC(=O)c3ccc(-c4c5nc(c(-c6ccccc6)c6ccc([nH]6)c(-c6ccccc6)c6nc(c(-c7ccccc7)c7ccc4[nH]7)C=C6)C=C5)cc3)CC2)C[C@@H]1C
REMARK SMILES IDX 20 1 19 2 18 3 17 4 16 5 15 6 13 7 14 8 11 9 12 10 10 11
REMARK SMILES IDX 1 12 2 13 3 14 78 15 4 16 77 17 79 18 5 19 6 20 7 21 8 22
REMARK SMILES IDX 76 23 9 24 75 25 21 27 22 28 23 29 24 30 25 31 26 32 27 33
REMARK SMILES IDX 28 34 74 35 29 36 73 37 30 38 31 39 32 40 67 41 33 42 72 43
REMARK SMILES IDX 66 44 68 45 34 46 71 47 65 48 64 49 35 51 57 52 42 53 56 54
REMARK SMILES IDX 43 55 46 56 55 57 69 58 44 59 45 60 54 62 70 63 47 64 36 65
REMARK SMILES IDX 37 66 41 67 38 68 40 69 39 70 58 71 59 72 63 73 60 74 62 75
REMARK SMILES IDX 61 76 48 77 49 78 53 79 50 80 52 81 51 82
REMARK H PARENT 10 26 68 50 46 61
REMARK Flexibility Score: inf
ROOT
ATOM      1  C   UNL A   1      33.230  33.540  28.008  1.00  0.00     0.188 C 
ENDROOT
BRANCH   1   2
ATOM      2  C   UNL A   1      34.315  32.448  27.972  1.00  0.00     0.188 C 
BRANCH   2   3
ATOM      3  O   UNL A   1      33.983  31.125  27.593  1.00  0.00    -0.376 OA
BRANCH   3   4
ATOM      4  C   UNL A   1      32.659  30.822  27.173  1.00  0.00     0.202 C 
BRANCH   4   5
ATOM      5  C   UNL A   1      32.366  30.191  25.804  1.00  0.00     0.261 C 
BRANCH   5   6
ATOM      6  O   UNL A   1      31.054  30.449  25.290  1.00  0.00    -0.459 OA
BRANCH   6   7
ATOM      7  C   UNL A   1      30.669  29.732  24.206  1.00  0.00     0.364 C 
ATOM      8  O   UNL A   1      29.646  29.975  23.568  1.00  0.00    -0.245 OA
BRANCH   7   9
ATOM      9  C   UNL A   1      31.653  28.622  23.760  1.00  0.00     0.292 C 
ATOM     10  C   UNL A   1      32.165  28.962  22.363  1.00  0.00     0.088 C 
BRANCH   9  11
ATOM     11  N   UNL A   1      31.267  27.209  24.001  1.00  0.00    -0.321 N 
ATOM     12  C   UNL A   1      34.043  21.443  27.478  1.00  0.00     0.010 C 
ATOM     13  C   UNL A   1      33.162  21.367  26.227  1.00  0.00     0.010 C 
ATOM     14  C   UNL A   1      32.916  22.755  25.626  1.00  0.00     0.125 C 
ATOM     15  C   UNL A   1      33.864  20.623  25.077  1.00  0.00     0.010 C 
ATOM     16  N   UNL A   1      33.979  22.945  24.649  1.00  0.00    -0.324 N 
ATOM     17  C   UNL A   1      34.738  21.720  24.455  1.00  0.00     0.125 C 
ATOM     18  C   UNL A   1      32.858  20.085  24.053  1.00  0.00     0.010 C 
ATOM     19  C   UNL A   1      34.057  23.945  23.707  1.00  0.00     0.320 C 
ATOM     20  O   UNL A   1      34.789  23.861  22.721  1.00  0.00    -0.248 OA
ATOM     21  N   UNL A   1      33.170  24.986  23.850  1.00  0.00    -0.313 N 
ATOM     22  C   UNL A   1      32.645  25.576  22.630  1.00  0.00     0.183 C 
ATOM     23  C   UNL A   1      33.211  25.889  24.995  1.00  0.00     0.183 C 
ATOM     24  C   UNL A   1      31.296  26.245  22.886  1.00  0.00     0.284 C 
ATOM     25  C   UNL A   1      31.859  26.601  25.213  1.00  0.00     0.284 C 
ATOM     26  H   UNL A   1      30.271  27.375  24.147  1.00  0.00     0.348 HD
ENDBRANCH   9  11
ENDBRANCH   7   9
ENDBRANCH   6   7
ENDBRANCH   5   6
ENDBRANCH   4   5
ENDBRANCH   3   4
ENDBRANCH   2   3
ENDBRANCH   1   2
BRANCH   1  27
ATOM     27  O   UNL A   1      33.366  34.585  28.936  1.00  0.00    -0.376 OA
BRANCH  27  28
ATOM     28  C   UNL A   1      34.413  34.554  29.890  1.00  0.00     0.202 C 
BRANCH  28  29
ATOM     29  C   UNL A   1      34.290  34.103  31.362  1.00  0.00     0.261 C 
BRANCH  29  30
ATOM     30  O   UNL A   1      34.494  32.722  31.677  1.00  0.00    -0.460 OA
BRANCH  30  31
ATOM     31  C   UNL A   1      35.460  32.462  32.593  1.00  0.00     0.338 C 
ATOM     32  O   UNL A   1      35.416  32.666  33.799  1.00  0.00    -0.246 OA
BRANCH  31  33
ATOM     33  C   UNL A   1      36.531  31.684  31.944  1.00  0.00     0.060 A 
ATOM     34  C   UNL A   1      37.516  31.080  32.740  1.00  0.00     0.016 A 
ATOM     35  C   UNL A   1      36.576  31.575  30.556  1.00  0.00     0.016 A 
ATOM     36  C   UNL A   1      38.561  30.372  32.146  1.00  0.00     0.010 A 
ATOM     37  C   UNL A   1      37.640  30.892  29.961  1.00  0.00     0.010 A 
ATOM     38  C   UNL A   1      38.650  30.310  30.751  1.00  0.00    -0.014 A 
BRANCH  38  39
ATOM     39  C   UNL A   1      39.885  29.812  30.100  1.00  0.00     0.031 A 
ATOM     40  C   UNL A   1      41.026  30.772  29.910  1.00  0.00     0.074 A 
ATOM     41  C   UNL A   1      39.990  28.544  29.665  1.00  0.00     0.049 A 
ATOM     42  N   UNL A   1      42.152  30.609  29.266  1.00  0.00    -0.248 NA
ATOM     43  C   UNL A   1      40.871  32.100  30.528  1.00  0.00     0.031 C 
ATOM     44  C   UNL A   1      38.982  27.501  29.836  1.00  0.00     0.029 A 
ATOM     45  N   UNL A   1      41.001  27.929  28.969  1.00  0.00    -0.354 N 
ATOM     46  C   UNL A   1      42.828  31.816  29.380  1.00  0.00     0.074 A 
ATOM     47  C   UNL A   1      41.979  32.710  30.138  1.00  0.00     0.031 C 
ATOM     48  C   UNL A   1      39.416  26.376  29.239  1.00  0.00     0.029 A 
ATOM     49  C   UNL A   1      40.710  26.636  28.609  1.00  0.00     0.049 A 
ATOM     50  H   UNL A   1      41.851  28.372  28.748  1.00  0.00     0.167 HD
ATOM     51  C   UNL A   1      44.047  32.154  28.897  1.00  0.00     0.031 A 
ATOM     52  C   UNL A   1      41.394  25.773  27.831  1.00  0.00     0.031 A 
ATOM     53  C   UNL A   1      44.883  31.271  28.129  1.00  0.00     0.049 A 
ATOM     54  C   UNL A   1      42.707  26.202  27.227  1.00  0.00     0.074 A 
ATOM     55  C   UNL A   1      46.140  31.515  27.606  1.00  0.00     0.029 A 
ATOM     56  N   UNL A   1      44.540  29.980  27.761  1.00  0.00    -0.354 N 
ATOM     57  N   UNL A   1      43.350  27.338  27.358  1.00  0.00    -0.248 NA
ATOM     58  C   UNL A   1      43.393  25.223  26.368  1.00  0.00     0.031 C 
ATOM     59  C   UNL A   1      46.530  30.394  26.867  1.00  0.00     0.029 A 
ATOM     60  C   UNL A   1      45.548  29.425  26.993  1.00  0.00     0.049 A 
ATOM     61  H   UNL A   1      43.703  29.525  28.010  1.00  0.00     0.167 HD
ATOM     62  C   UNL A   1      44.526  27.197  26.630  1.00  0.00     0.074 A 
ATOM     63  C   UNL A   1      44.515  25.863  26.071  1.00  0.00     0.031 C 
ATOM     64  C   UNL A   1      45.528  28.092  26.446  1.00  0.00     0.031 A 
BRANCH  51  65
ATOM     65  C   UNL A   1      44.527  33.556  29.148  1.00  0.00    -0.014 A 
ATOM     66  C   UNL A   1      44.138  34.624  28.324  1.00  0.00     0.009 A 
ATOM     67  C   UNL A   1      45.358  33.817  30.249  1.00  0.00     0.009 A 
ATOM     68  C   UNL A   1      44.601  35.918  28.578  1.00  0.00     0.001 A 
ATOM     69  C   UNL A   1      45.793  35.115  30.519  1.00  0.00     0.001 A 
ATOM     70  C   UNL A   1      45.422  36.162  29.678  1.00  0.00     0.000 A 
ENDBRANCH  51  65
BRANCH  52  71
ATOM     71  C   UNL A   1      40.840  24.423  27.544  1.00  0.00    -0.014 A 
ATOM     72  C   UNL A   1      41.420  23.276  28.109  1.00  0.00     0.009 A 
ATOM     73  C   UNL A   1      39.744  24.270  26.680  1.00  0.00     0.009 A 
ATOM     74  C   UNL A   1      40.932  22.005  27.792  1.00  0.00     0.001 A 
ATOM     75  C   UNL A   1      39.238  23.001  26.391  1.00  0.00     0.001 A 
ATOM     76  C   UNL A   1      39.839  21.869  26.939  1.00  0.00     0.000 A 
ENDBRANCH  52  71
BRANCH  64  77
ATOM     77  C   UNL A   1      46.724  27.646  25.650  1.00  0.00    -0.014 A 
ATOM     78  C   UNL A   1      47.765  26.906  26.234  1.00  0.00     0.009 A 
ATOM     79  C   UNL A   1      46.780  27.923  24.274  1.00  0.00     0.009 A 
ATOM     80  C   UNL A   1      48.850  26.483  25.462  1.00  0.00     0.001 A 
ATOM     81  C   UNL A   1      47.848  27.470  23.499  1.00  0.00     0.001 A 
ATOM     82  C   UNL A   1      48.887  26.759  24.096  1.00  0.00     0.000 A 
ENDBRANCH  64  77
ENDBRANCH  38  39
ENDBRANCH  31  33
ENDBRANCH  30  31
ENDBRANCH  29  30
ENDBRANCH  28  29
ENDBRANCH  27  28
ENDBRANCH   1  27
TORSDOF 18
ENDMDL
MODEL 2
REMARK VINA RESULT:     -10.2      1.191      2.067
REMARK SMILES C[C@H]1CN(C(=O)N2CC[NH+]([C@@H](C)C(=O)OCCOCCOCCOC(=O)c3ccc(-c4c5nc(c(-c6ccccc6)c6ccc([nH]6)c(-c6ccccc6)c6nc(c(-c7ccccc7)c7ccc4[nH]7)C=C6)C=C5)cc3)CC2)C[C@@H]1C
REMARK SMILES IDX 20 1 19 2 18 3 17 4 16 5 15 6 13 7 14 8 11 9 12 10 10 11
REMARK SMILES IDX 1 12 2 13 3 14 78 15 4 16 77 17 79 18 5 19 6 20 7 21 8 22
REMARK SMILES IDX 76 23 9 24 75 25 21 27 22 28 23 29 24 30 25 31 26 32 27 33
REMARK SMILES IDX 28 34 74 35 29 36 73 37 30 38 31 39 32 40 67 41 33 42 72 43
REMARK SMILES IDX 66 44 68 45 34 46 71 47 65 48 64 49 35 51 57 52 42 53 56 54
REMARK SMILES IDX 43 55 46 56 55 57 69 58 44 59 45 60 54 62 70 63 47 64 36 65
REMARK SMILES IDX 37 66 41 67 38 68 40 69 39 70 58 71 59 72 63 73 60 74 62 75
REMARK SMILES IDX 61 76 48 77 49 78 53 79 50 80 52 81 51 82
REMARK H PARENT 10 26 68 50 46 61
REMARK Flexibility Score: inf
ROOT
ATOM      1  C   UNL A   1      33.912  34.984  30.034  1.00  0.00     0.188 C 
ENDROOT
BRANCH   1   2
ATOM      2  C   UNL A   1      32.915  34.809  28.874  1.00  0.00     0.188 C 
BRANCH   2   3
ATOM      3  O   UNL A   1      33.098  33.771  27.927  1.00  0.00    -0.376 OA
BRANCH   3   4
ATOM      4  C   UNL A   1      34.196  32.879  28.061  1.00  0.00     0.202 C 
BRANCH   4   5
ATOM      5  C   UNL A   1      34.015  31.355  28.003  1.00  0.00     0.261 C 
BRANCH   5   6
ATOM      6  O   UNL A   1      33.838  30.819  26.686  1.00  0.00    -0.459 OA
BRANCH   6   7
ATOM      7  C   UNL A   1      32.654  30.212  26.427  1.00  0.00     0.364 C 
ATOM      8  O   UNL A   1      31.687  30.275  27.184  1.00  0.00    -0.245 OA
BRANCH   7   9
ATOM      9  C   UNL A   1      32.562  29.492  25.059  1.00  0.00     0.292 C 
ATOM     10  C   UNL A   1      31.100  29.468  24.623  1.00  0.00     0.088 C 
BRANCH   9  11
ATOM     11  N   UNL A   1      33.329  28.234  24.879  1.00  0.00    -0.321 N 
ATOM     12  C   UNL A   1      32.006  21.474  22.514  1.00  0.00     0.010 C 
ATOM     13  C   UNL A   1      33.045  21.838  23.580  1.00  0.00     0.010 C 
ATOM     14  C   UNL A   1      32.931  23.308  23.997  1.00  0.00     0.125 C 
ATOM     15  C   UNL A   1      32.791  21.094  24.904  1.00  0.00     0.010 C 
ATOM     16  N   UNL A   1      32.022  23.316  25.135  1.00  0.00    -0.324 N 
ATOM     17  C   UNL A   1      31.723  21.963  25.576  1.00  0.00     0.125 C 
ATOM     18  C   UNL A   1      34.057  21.025  25.765  1.00  0.00     0.010 C 
ATOM     19  C   UNL A   1      31.778  24.373  25.981  1.00  0.00     0.320 C 
ATOM     20  O   UNL A   1      31.266  24.221  27.089  1.00  0.00    -0.248 OA
ATOM     21  N   UNL A   1      32.263  25.597  25.582  1.00  0.00    -0.313 N 
ATOM     22  C   UNL A   1      32.754  26.482  26.625  1.00  0.00     0.183 C 
ATOM     23  C   UNL A   1      31.769  26.275  24.388  1.00  0.00     0.183 C 
ATOM     24  C   UNL A   1      33.771  27.473  26.062  1.00  0.00     0.284 C 
ATOM     25  C   UNL A   1      32.782  27.312  23.858  1.00  0.00     0.284 C 
ATOM     26  H   UNL A   1      34.190  28.661  24.536  1.00  0.00     0.348 HD
ENDBRANCH   9  11
ENDBRANCH   7   9
ENDBRANCH   6   7
ENDBRANCH   5   6
ENDBRANCH   4   5
ENDBRANCH   3   4
ENDBRANCH   2   3
ENDBRANCH   1   2
BRANCH   1  27
ATOM     27  O   UNL A   1      33.448  35.550  31.232  1.00  0.00    -0.376 OA
BRANCH  27  28
ATOM     28  C   UNL A   1      33.753  34.936  32.472  1.00  0.00     0.202 C 
BRANCH  28  29
ATOM     29  C   UNL A   1      35.119  34.967  33.190  1.00  0.00     0.261 C 
BRANCH  29  30
ATOM     30  O   UNL A   1      35.982  33.831  33.079  1.00  0.00    -0.460 OA
BRANCH  30  31
ATOM     31  C   UNL A   1      35.427  32.721  32.531  1.00  0.00     0.338 C 
ATOM     32  O   UNL A   1      34.236  32.459  32.427  1.00  0.00    -0.246 OA
BRANCH  31  33
ATOM     33  C   UNL A   1      36.488  31.936  31.874  1.00  0.00     0.060 A 
ATOM     34  C   UNL A   1      37.398  31.219  32.665  1.00  0.00     0.016 A 
ATOM     35  C   UNL A   1      36.597  31.930  30.485  1.00  0.00     0.016 A 
ATOM     36  C   UNL A   1      38.433  30.500  32.066  1.00  0.00     0.010 A 
ATOM     37  C   UNL A   1      37.652  31.235  29.888  1.00  0.00     0.010 A 
ATOM     38  C   UNL A   1      38.589  30.539  30.676  1.00  0.00    -0.014 A 
BRANCH  38  39
ATOM     39  C   UNL A   1      39.827  30.024  30.045  1.00  0.00     0.031 A 
ATOM     40  C   UNL A   1      40.990  30.963  29.888  1.00  0.00     0.074 A 
ATOM     41  C   UNL A   1      39.917  28.757  29.601  1.00  0.00     0.049 A 
ATOM     42  N   UNL A   1      42.126  30.784  29.266  1.00  0.00    -0.248 NA
ATOM     43  C   UNL A   1      40.847  32.289  30.515  1.00  0.00     0.031 C 
ATOM     44  C   UNL A   1      38.886  27.733  29.742  1.00  0.00     0.029 A 
ATOM     45  N   UNL A   1      40.930  28.130  28.920  1.00  0.00    -0.354 N 
ATOM     46  C   UNL A   1      42.822  31.977  29.405  1.00  0.00     0.074 A 
ATOM     47  C   UNL A   1      41.975  32.881  30.153  1.00  0.00     0.031 C 
ATOM     48  C   UNL A   1      39.311  26.605  29.143  1.00  0.00     0.029 A 
ATOM     49  C   UNL A   1      40.622  26.846  28.542  1.00  0.00     0.049 A 
ATOM     50  H   UNL A   1      41.793  28.558  28.720  1.00  0.00     0.167 HD
ATOM     51  C   UNL A   1      44.057  32.296  28.949  1.00  0.00     0.031 A 
ATOM     52  C   UNL A   1      41.306  25.977  27.770  1.00  0.00     0.031 A 
ATOM     53  C   UNL A   1      44.891  31.404  28.190  1.00  0.00     0.049 A 
ATOM     54  C   UNL A   1      42.639  26.386  27.197  1.00  0.00     0.074 A 
ATOM     55  C   UNL A   1      46.164  31.629  27.696  1.00  0.00     0.029 A 
ATOM     56  N   UNL A   1      44.531  30.123  27.804  1.00  0.00    -0.354 N 
ATOM     57  N   UNL A   1      43.300  27.508  27.352  1.00  0.00    -0.248 NA
ATOM     58  C   UNL A   1      43.324  25.402  26.344  1.00  0.00     0.031 C 
ATOM     59  C   UNL A   1      46.547  30.507  26.955  1.00  0.00     0.029 A 
ATOM     60  C   UNL A   1      45.545  29.556  27.051  1.00  0.00     0.049 A 
ATOM     61  H   UNL A   1      43.682  29.682  28.032  1.00  0.00     0.167 HD
ATOM     62  C   UNL A   1      44.488  27.351  26.647  1.00  0.00     0.074 A 
ATOM     63  C   UNL A   1      44.463  26.022  26.075  1.00  0.00     0.031 C 
ATOM     64  C   UNL A   1      45.511  28.229  26.492  1.00  0.00     0.031 A 
BRANCH  51  65
ATOM     65  C   UNL A   1      44.558  33.686  29.223  1.00  0.00    -0.014 A 
ATOM     66  C   UNL A   1      45.406  33.960  30.308  1.00  0.00     0.009 A 
ATOM     67  C   UNL A   1      44.201  34.734  28.360  1.00  0.00     0.009 A 
ATOM     68  C   UNL A   1      45.855  35.262  30.543  1.00  0.00     0.001 A 
ATOM     69  C   UNL A   1      44.677  36.027  28.577  1.00  0.00     0.001 A 
ATOM     70  C   UNL A   1      45.496  36.292  29.674  1.00  0.00     0.000 A 
ENDBRANCH  51  65
BRANCH  52  71
ATOM     71  C   UNL A   1      40.732  24.640  27.460  1.00  0.00    -0.014 A 
ATOM     72  C   UNL A   1      39.608  24.518  26.629  1.00  0.00     0.009 A 
ATOM     73  C   UNL A   1      41.290  23.478  28.016  1.00  0.00     0.009 A 
ATOM     74  C   UNL A   1      39.038  23.266  26.386  1.00  0.00     0.001 A 
ATOM     75  C   UNL A   1      40.738  22.224  27.745  1.00  0.00     0.001 A 
ATOM     76  C   UNL A   1      39.606  22.120  26.938  1.00  0.00     0.000 A 
ENDBRANCH  52  71
BRANCH  64  77
ATOM     77  C   UNL A   1      46.714  27.766  25.716  1.00  0.00    -0.014 A 
ATOM     78  C   UNL A   1      46.817  27.960  24.330  1.00  0.00     0.009 A 
ATOM     79  C   UNL A   1      47.791  27.177  26.399  1.00  0.00     0.009 A 
ATOM     80  C   UNL A   1      47.959  27.543  23.641  1.00  0.00     0.001 A 
ATOM     81  C   UNL A   1      48.944  26.792  25.714  1.00  0.00     0.001 A 
ATOM     82  C   UNL A   1      49.023  26.966  24.334  1.00  0.00     0.000 A 
ENDBRANCH  64  77
ENDBRANCH  38  39
ENDBRANCH  31  33
ENDBRANCH  30  31
ENDBRANCH  29  30
ENDBRANCH  28  29
ENDBRANCH  27  28
ENDBRANCH   1  27
TORSDOF 18
ENDMDL
MODEL 3
REMARK VINA RESULT:      -9.8      1.574      6.176
REMARK SMILES C[C@H]1CN(C(=O)N2CC[NH+]([C@@H](C)C(=O)OCCOCCOCCOC(=O)c3ccc(-c4c5nc(c(-c6ccccc6)c6ccc([nH]6)c(-c6ccccc6)c6nc(c(-c7ccccc7)c7ccc4[nH]7)C=C6)C=C5)cc3)CC2)C[C@@H]1C
REMARK SMILES IDX 20 1 19 2 18 3 17 4 16 5 15 6 13 7 14 8 11 9 12 10 10 11
REMARK SMILES IDX 1 12 2 13 3 14 78 15 4 16 77 17 79 18 5 19 6 20 7 21 8 22
REMARK SMILES IDX 76 23 9 24 75 25 21 27 22 28 23 29 24 30 25 31 26 32 27 33
REMARK SMILES IDX 28 34 74 35 29 36 73 37 30 38 31 39 32 40 67 41 33 42 72 43
REMARK SMILES IDX 66 44 68 45 34 46 71 47 65 48 64 49 35 51 57 52 42 53 56 54
REMARK SMILES IDX 43 55 46 56 55 57 69 58 44 59 45 60 54 62 70 63 47 64 36 65
REMARK SMILES IDX 37 66 41 67 38 68 40 69 39 70 58 71 59 72 63 73 60 74 62 75
REMARK SMILES IDX 61 76 48 77 49 78 53 79 50 80 52 81 51 82
REMARK H PARENT 10 26 68 50 46 61
REMARK Flexibility Score: inf
ROOT
ATOM      1  C   UNL A   1      35.557  32.595  28.054  1.00  0.00     0.188 C 
ENDROOT
BRANCH   1   2
ATOM      2  C   UNL A   1      34.083  32.186  28.229  1.00  0.00     0.188 C 
BRANCH   2   3
ATOM      3  O   UNL A   1      33.513  31.198  27.391  1.00  0.00    -0.376 OA
BRANCH   3   4
ATOM      4  C   UNL A   1      34.289  30.078  26.991  1.00  0.00     0.202 C 
BRANCH   4   5
ATOM      5  C   UNL A   1      33.726  28.986  26.069  1.00  0.00     0.261 C 
BRANCH   5   6
ATOM      6  O   UNL A   1      33.254  29.454  24.800  1.00  0.00    -0.459 OA
BRANCH   6   7
ATOM      7  C   UNL A   1      31.932  29.295  24.542  1.00  0.00     0.364 C 
ATOM      8  O   UNL A   1      31.052  29.904  25.147  1.00  0.00    -0.245 OA
BRANCH   7   9
ATOM      9  C   UNL A   1      31.594  28.347  23.366  1.00  0.00     0.292 C 
ATOM     10  C   UNL A   1      30.678  29.088  22.396  1.00  0.00     0.088 C 
BRANCH   9  11
ATOM     11  N   UNL A   1      31.230  26.943  23.682  1.00  0.00    -0.321 N 
ATOM     12  C   UNL A   1      33.999  21.472  27.612  1.00  0.00     0.010 C 
ATOM     13  C   UNL A   1      33.164  21.297  26.339  1.00  0.00     0.010 C 
ATOM     14  C   UNL A   1      32.912  22.639  25.643  1.00  0.00     0.125 C 
ATOM     15  C   UNL A   1      33.923  20.499  25.263  1.00  0.00     0.010 C 
ATOM     16  N   UNL A   1      34.005  22.792  24.692  1.00  0.00    -0.324 N 
ATOM     17  C   UNL A   1      34.795  21.574  24.603  1.00  0.00     0.125 C 
ATOM     18  C   UNL A   1      32.965  19.875  24.242  1.00  0.00     0.010 C 
ATOM     19  C   UNL A   1      34.095  23.732  23.693  1.00  0.00     0.320 C 
ATOM     20  O   UNL A   1      34.863  23.603  22.739  1.00  0.00    -0.248 OA
ATOM     21  N   UNL A   1      33.182  24.759  23.738  1.00  0.00    -0.313 N 
ATOM     22  C   UNL A   1      32.689  25.259  22.466  1.00  0.00     0.183 C 
ATOM     23  C   UNL A   1      33.164  25.733  24.825  1.00  0.00     0.183 C 
ATOM     24  C   UNL A   1      31.318  25.912  22.633  1.00  0.00     0.284 C 
ATOM     25  C   UNL A   1      31.791  26.425  24.950  1.00  0.00     0.284 C 
ATOM     26  H   UNL A   1      30.226  27.094  23.783  1.00  0.00     0.348 HD
ENDBRANCH   9  11
ENDBRANCH   7   9
ENDBRANCH   6   7
ENDBRANCH   5   6
ENDBRANCH   4   5
ENDBRANCH   3   4
ENDBRANCH   2   3
ENDBRANCH   1   2
BRANCH   1  27
ATOM     27  O   UNL A   1      36.024  33.723  28.749  1.00  0.00    -0.376 OA
BRANCH  27  28
ATOM     28  C   UNL A   1      35.542  34.002  30.052  1.00  0.00     0.202 C 
BRANCH  28  29
ATOM     29  C   UNL A   1      35.818  33.167  31.321  1.00  0.00     0.261 C 
BRANCH  29  30
ATOM     30  O   UNL A   1      37.034  32.417  31.400  1.00  0.00    -0.460 OA
BRANCH  30  31
ATOM     31  C   UNL A   1      36.892  31.071  31.493  1.00  0.00     0.338 C 
ATOM     32  O   UNL A   1      35.907  30.452  31.874  1.00  0.00    -0.246 OA
BRANCH  31  33
ATOM     33  C   UNL A   1      38.055  30.426  30.858  1.00  0.00     0.060 A 
ATOM     34  C   UNL A   1      39.018  29.804  31.667  1.00  0.00     0.016 A 
ATOM     35  C   UNL A   1      38.206  30.460  29.473  1.00  0.00     0.016 A 
ATOM     36  C   UNL A   1      40.147  29.221  31.090  1.00  0.00     0.010 A 
ATOM     37  C   UNL A   1      39.352  29.902  28.901  1.00  0.00     0.010 A 
ATOM     38  C   UNL A   1      40.339  29.304  29.707  1.00  0.00    -0.014 A 
BRANCH  38  39
ATOM     39  C   UNL A   1      41.647  28.946  29.109  1.00  0.00     0.031 A 
ATOM     40  C   UNL A   1      41.843  27.540  28.616  1.00  0.00     0.074 A 
ATOM     41  C   UNL A   1      42.649  29.839  29.021  1.00  0.00     0.049 A 
ATOM     42  N   UNL A   1      42.926  26.958  28.169  1.00  0.00    -0.248 NA
ATOM     43  C   UNL A   1      40.655  26.669  28.637  1.00  0.00     0.031 C 
ATOM     44  C   UNL A   1      42.571  31.244  29.409  1.00  0.00     0.029 A 
ATOM     45  N   UNL A   1      43.942  29.676  28.589  1.00  0.00    -0.354 N 
ATOM     46  C   UNL A   1      42.558  25.652  27.878  1.00  0.00     0.074 A 
ATOM     47  C   UNL A   1      41.157  25.518  28.217  1.00  0.00     0.031 C 
ATOM     48  C   UNL A   1      43.775  31.814  29.218  1.00  0.00     0.029 A 
ATOM     49  C   UNL A   1      44.714  30.802  28.736  1.00  0.00     0.049 A 
ATOM     50  H   UNL A   1      44.283  28.834  28.211  1.00  0.00     0.167 HD
ATOM     51  C   UNL A   1      43.316  24.650  27.375  1.00  0.00     0.031 A 
ATOM     52  C   UNL A   1      46.035  30.985  28.538  1.00  0.00     0.031 A 
ATOM     53  C   UNL A   1      44.712  24.777  27.056  1.00  0.00     0.049 A 
ATOM     54  C   UNL A   1      46.880  29.830  28.065  1.00  0.00     0.074 A 
ATOM     55  C   UNL A   1      45.565  23.823  26.528  1.00  0.00     0.029 A 
ATOM     56  N   UNL A   1      45.464  25.925  27.247  1.00  0.00    -0.354 N 
ATOM     57  N   UNL A   1      46.519  28.603  27.771  1.00  0.00    -0.248 NA
ATOM     58  C   UNL A   1      48.318  30.087  27.891  1.00  0.00     0.031 C 
ATOM     59  C   UNL A   1      46.847  24.375  26.461  1.00  0.00     0.029 A 
ATOM     60  C   UNL A   1      46.777  25.695  26.876  1.00  0.00     0.049 A 
ATOM     61  H   UNL A   1      45.116  26.778  27.594  1.00  0.00     0.167 HD
ATOM     62  C   UNL A   1      47.675  27.957  27.346  1.00  0.00     0.074 A 
ATOM     63  C   UNL A   1      48.745  28.929  27.408  1.00  0.00     0.031 C 
ATOM     64  C   UNL A   1      47.833  26.673  26.937  1.00  0.00     0.031 A 
BRANCH  51  65
ATOM     65  C   UNL A   1      42.658  23.312  27.184  1.00  0.00    -0.014 A 
ATOM     66  C   UNL A   1      42.586  22.373  28.225  1.00  0.00     0.009 A 
ATOM     67  C   UNL A   1      42.069  23.000  25.948  1.00  0.00     0.009 A 
ATOM     68  C   UNL A   1      41.971  21.135  28.020  1.00  0.00     0.001 A 
ATOM     69  C   UNL A   1      41.427  21.776  25.755  1.00  0.00     0.001 A 
ATOM     70  C   UNL A   1      41.387  20.841  26.788  1.00  0.00     0.000 A 
ENDBRANCH  51  65
BRANCH  52  71
ATOM     71  C   UNL A   1      46.659  32.306  28.818  1.00  0.00    -0.014 A 
ATOM     72  C   UNL A   1      46.754  33.281  27.813  1.00  0.00     0.009 A 
ATOM     73  C   UNL A   1      47.188  32.591  30.088  1.00  0.00     0.009 A 
ATOM     74  C   UNL A   1      47.392  34.499  28.064  1.00  0.00     0.001 A 
ATOM     75  C   UNL A   1      47.795  33.822  30.345  1.00  0.00     0.001 A 
ATOM     76  C   UNL A   1      47.906  34.771  29.330  1.00  0.00     0.000 A 
ENDBRANCH  52  71
BRANCH  64  77
ATOM     77  C   UNL A   1      49.202  26.254  26.472  1.00  0.00    -0.014 A 
ATOM     78  C   UNL A   1      49.648  26.510  25.166  1.00  0.00     0.009 A 
ATOM     79  C   UNL A   1      50.082  25.643  27.380  1.00  0.00     0.009 A 
ATOM     80  C   UNL A   1      50.934  26.132  24.771  1.00  0.00     0.001 A 
ATOM     81  C   UNL A   1      51.378  25.297  26.993  1.00  0.00     0.001 A 
ATOM     82  C   UNL A   1      51.799  25.533  25.686  1.00  0.00     0.000 A 
ENDBRANCH  64  77
ENDBRANCH  38  39
ENDBRANCH  31  33
ENDBRANCH  30  31
ENDBRANCH  29  30
ENDBRANCH  28  29
ENDBRANCH  27  28
ENDBRANCH   1  27
TORSDOF 18
ENDMDL
