MODEL 1
REMARK VINA RESULT:     -10.3      0.000      0.000
REMARK SMILES NC(=O)Nc1ccc(C(=O)N2C[C@@H](O)C[C@@H]2C(=O)OCCOCCOCCOC(=O)c2ccc(-c3c4nc(c(-c5ccccc5)c5ccc([nH]5)c(-c5ccccc5)c5nc(c(-c6ccccc6)c6ccc3[nH]6)C=C5)C=C4)cc2)cc1
REMARK SMILES IDX 23 1 22 2 21 3 20 4 19 5 17 6 18 7 16 8 11 9 12 10 13 11
REMARK SMILES IDX 15 12 9 13 10 14 8 15 5 16 6 17 80 18 7 19 79 20 4 21 1 22
REMARK SMILES IDX 2 23 3 26 14 28 24 30 25 31 26 32 27 33 28 34 29 35 30 36
REMARK SMILES IDX 31 37 32 38 78 39 33 40 77 41 34 42 35 43 36 44 71 45 37 46
REMARK SMILES IDX 76 47 70 48 72 49 38 50 75 51 69 52 68 53 39 55 61 56 46 57
REMARK SMILES IDX 60 58 47 59 50 60 59 61 73 62 48 63 49 64 58 66 74 67 51 68
REMARK SMILES IDX 40 69 41 70 45 71 42 72 44 73 43 74 62 75 63 76 67 77 64 78
REMARK SMILES IDX 66 79 65 80 52 81 53 82 57 83 54 84 56 85 55 86
REMARK H PARENT 1 24 1 25 4 27 14 29 72 54 50 65
REMARK Flexibility Score: inf
ROOT
ATOM      1  C   UNL A   1      34.242  32.370  28.287  1.00  0.00     0.188 C 
ENDROOT
BRANCH   1   2
ATOM      2  O   UNL A   1      33.442  31.406  27.623  1.00  0.00    -0.376 OA
BRANCH   2   3
ATOM      3  C   UNL A   1      34.062  30.349  26.907  1.00  0.00     0.202 C 
BRANCH   3   4
ATOM      4  C   UNL A   1      33.833  28.918  27.393  1.00  0.00     0.261 C 
BRANCH   4   5
ATOM      5  O   UNL A   1      33.097  28.117  26.455  1.00  0.00    -0.462 OA
BRANCH   5   6
ATOM      6  C   UNL A   1      31.817  27.809  26.793  1.00  0.00     0.329 C 
ATOM      7  O   UNL A   1      31.315  28.034  27.890  1.00  0.00    -0.250 OA
BRANCH   6   8
ATOM      8  C   UNL A   1      31.007  27.187  25.640  1.00  0.00     0.198 C 
ATOM      9  N   UNL A   1      31.331  25.830  25.183  1.00  0.00    -0.322 N 
ATOM     10  C   UNL A   1      31.098  25.745  23.752  1.00  0.00     0.152 C 
ATOM     11  C   UNL A   1      31.591  27.095  23.261  1.00  0.00     0.136 C 
ATOM     12  C   UNL A   1      31.166  28.057  24.375  1.00  0.00     0.071 C 
BRANCH   9  13
ATOM     13  C   UNL A   1      31.219  24.764  26.058  1.00  0.00     0.254 C 
ATOM     14  O   UNL A   1      30.235  24.649  26.786  1.00  0.00    -0.269 OA
BRANCH  13  15
ATOM     15  C   UNL A   1      32.401  23.860  26.265  1.00  0.00     0.040 A 
ATOM     16  C   UNL A   1      34.707  22.217  26.178  1.00  0.00     0.042 A 
ATOM     17  C   UNL A   1      34.821  23.607  26.103  1.00  0.00     0.027 A 
ATOM     18  C   UNL A   1      33.448  21.662  26.398  1.00  0.00     0.027 A 
ATOM     19  C   UNL A   1      33.679  24.420  26.138  1.00  0.00     0.016 A 
ATOM     20  C   UNL A   1      32.305  22.472  26.415  1.00  0.00     0.016 A 
BRANCH  16  21
ATOM     21  N   UNL A   1      35.880  21.458  26.032  1.00  0.00    -0.308 N 
ATOM     22  N   UNL A   1      36.573  22.047  23.890  1.00  0.00    -0.351 N 
ATOM     23  C   UNL A   1      36.690  21.244  24.965  1.00  0.00     0.316 C 
ATOM     24  H   UNL A   1      37.151  21.908  23.106  1.00  0.00     0.161 HD
ATOM     25  H   UNL A   1      35.907  22.772  23.888  1.00  0.00     0.161 HD
ATOM     26  O   UNL A   1      37.571  20.390  25.002  1.00  0.00    -0.249 OA
ATOM     27  H   UNL A   1      36.166  20.997  26.853  1.00  0.00     0.171 HD
ENDBRANCH  16  21
ENDBRANCH  13  15
ENDBRANCH   9  13
BRANCH  11  28
ATOM     28  O   UNL A   1      31.080  27.473  21.999  1.00  0.00    -0.391 OA
ATOM     29  H   UNL A   1      31.524  28.281  21.699  1.00  0.00     0.211 HD
ENDBRANCH  11  28
ENDBRANCH   6   8
ENDBRANCH   5   6
ENDBRANCH   4   5
ENDBRANCH   3   4
ENDBRANCH   2   3
ENDBRANCH   1   2
BRANCH   1  30
ATOM     30  C   UNL A   1      33.732  33.807  28.500  1.00  0.00     0.188 C 
BRANCH  30  31
ATOM     31  O   UNL A   1      33.474  34.323  29.793  1.00  0.00    -0.376 OA
BRANCH  31  32
ATOM     32  C   UNL A   1      34.478  34.215  30.787  1.00  0.00     0.202 C 
BRANCH  32  33
ATOM     33  C   UNL A   1      34.046  33.683  32.152  1.00  0.00     0.261 C 
BRANCH  33  34
ATOM     34  O   UNL A   1      34.634  32.407  32.456  1.00  0.00    -0.460 OA
BRANCH  34  35
ATOM     35  C   UNL A   1      35.868  32.463  33.015  1.00  0.00     0.338 C 
ATOM     36  O   UNL A   1      36.166  32.927  34.101  1.00  0.00    -0.246 OA
BRANCH  35  37
ATOM     37  C   UNL A   1      36.819  31.684  32.200  1.00  0.00     0.060 A 
ATOM     38  C   UNL A   1      37.835  30.989  32.871  1.00  0.00     0.016 A 
ATOM     39  C   UNL A   1      36.768  31.690  30.805  1.00  0.00     0.016 A 
ATOM     40  C   UNL A   1      38.823  30.326  32.149  1.00  0.00     0.010 A 
ATOM     41  C   UNL A   1      37.776  31.043  30.082  1.00  0.00     0.010 A 
ATOM     42  C   UNL A   1      38.825  30.386  30.750  1.00  0.00    -0.014 A 
BRANCH  42  43
ATOM     43  C   UNL A   1      40.016  29.909  30.007  1.00  0.00     0.031 A 
ATOM     44  C   UNL A   1      41.168  30.854  29.796  1.00  0.00     0.074 A 
ATOM     45  C   UNL A   1      40.100  28.638  29.574  1.00  0.00     0.049 A 
ATOM     46  N   UNL A   1      42.302  30.654  29.174  1.00  0.00    -0.248 NA
ATOM     47  C   UNL A   1      41.022  32.204  30.365  1.00  0.00     0.031 C 
ATOM     48  C   UNL A   1      39.083  27.607  29.769  1.00  0.00     0.029 A 
ATOM     49  N   UNL A   1      41.101  28.000  28.885  1.00  0.00    -0.354 N 
ATOM     50  C   UNL A   1      43.003  31.850  29.277  1.00  0.00     0.074 A 
ATOM     51  C   UNL A   1      42.155  32.779  29.991  1.00  0.00     0.031 C 
ATOM     52  C   UNL A   1      39.513  26.461  29.210  1.00  0.00     0.029 A 
ATOM     53  C   UNL A   1      40.817  26.689  28.591  1.00  0.00     0.049 A 
ATOM     54  H   UNL A   1      41.942  28.441  28.625  1.00  0.00     0.167 HD
ATOM     55  C   UNL A   1      44.245  32.147  28.825  1.00  0.00     0.031 A 
ATOM     56  C   UNL A   1      41.524  25.783  27.888  1.00  0.00     0.031 A 
ATOM     57  C   UNL A   1      45.086  31.233  28.101  1.00  0.00     0.049 A 
ATOM     58  C   UNL A   1      42.861  26.172  27.311  1.00  0.00     0.074 A 
ATOM     59  C   UNL A   1      46.357  31.446  27.596  1.00  0.00     0.029 A 
ATOM     60  N   UNL A   1      44.738  29.933  27.772  1.00  0.00    -0.354 N 
ATOM     61  N   UNL A   1      43.518  27.301  27.424  1.00  0.00    -0.248 NA
ATOM     62  C   UNL A   1      43.557  25.151  26.513  1.00  0.00     0.031 C 
ATOM     63  C   UNL A   1      46.756  30.292  26.914  1.00  0.00     0.029 A 
ATOM     64  C   UNL A   1      45.759  29.339  27.050  1.00  0.00     0.049 A 
ATOM     65  H   UNL A   1      43.889  29.495  28.015  1.00  0.00     0.167 HD
ATOM     66  C   UNL A   1      44.714  27.115  26.742  1.00  0.00     0.074 A 
ATOM     67  C   UNL A   1      44.702  25.759  26.235  1.00  0.00     0.031 C 
ATOM     68  C   UNL A   1      45.734  27.988  26.553  1.00  0.00     0.031 A 
BRANCH  55  69
ATOM     69  C   UNL A   1      44.756  33.538  29.077  1.00  0.00    -0.014 A 
ATOM     70  C   UNL A   1      44.521  34.578  28.164  1.00  0.00     0.009 A 
ATOM     71  C   UNL A   1      45.450  33.819  30.265  1.00  0.00     0.009 A 
ATOM     72  C   UNL A   1      44.997  35.865  28.421  1.00  0.00     0.001 A 
ATOM     73  C   UNL A   1      45.901  35.113  30.532  1.00  0.00     0.001 A 
ATOM     74  C   UNL A   1      45.682  36.133  29.608  1.00  0.00     0.000 A 
ENDBRANCH  55  69
BRANCH  56  75
ATOM     75  C   UNL A   1      40.979  24.418  27.656  1.00  0.00    -0.014 A 
ATOM     76  C   UNL A   1      41.546  23.302  28.293  1.00  0.00     0.009 A 
ATOM     77  C   UNL A   1      39.922  24.219  26.756  1.00  0.00     0.009 A 
ATOM     78  C   UNL A   1      41.087  22.014  28.004  1.00  0.00     0.001 A 
ATOM     79  C   UNL A   1      39.445  22.934  26.493  1.00  0.00     0.001 A 
ATOM     80  C   UNL A   1      40.035  21.832  27.108  1.00  0.00     0.000 A 
ENDBRANCH  56  75
BRANCH  68  81
ATOM     81  C   UNL A   1      46.940  27.487  25.804  1.00  0.00    -0.014 A 
ATOM     82  C   UNL A   1      47.077  27.680  24.420  1.00  0.00     0.009 A 
ATOM     83  C   UNL A   1      47.968  26.833  26.502  1.00  0.00     0.009 A 
ATOM     84  C   UNL A   1      48.197  27.190  23.746  1.00  0.00     0.001 A 
ATOM     85  C   UNL A   1      49.102  26.374  25.831  1.00  0.00     0.001 A 
ATOM     86  C   UNL A   1      49.210  26.541  24.451  1.00  0.00     0.000 A 
ENDBRANCH  68  81
ENDBRANCH  42  43
ENDBRANCH  35  37
ENDBRANCH  34  35
ENDBRANCH  33  34
ENDBRANCH  32  33
ENDBRANCH  31  32
ENDBRANCH  30  31
ENDBRANCH   1  30
TORSDOF 21
ENDMDL
MODEL 2
REMARK VINA RESULT:     -10.1      4.274      6.435
REMARK SMILES NC(=O)Nc1ccc(C(=O)N2C[C@@H](O)C[C@@H]2C(=O)OCCOCCOCCOC(=O)c2ccc(-c3c4nc(c(-c5ccccc5)c5ccc([nH]5)c(-c5ccccc5)c5nc(c(-c6ccccc6)c6ccc3[nH]6)C=C5)C=C4)cc2)cc1
REMARK SMILES IDX 23 1 22 2 21 3 20 4 19 5 17 6 18 7 16 8 11 9 12 10 13 11
REMARK SMILES IDX 15 12 9 13 10 14 8 15 5 16 6 17 80 18 7 19 79 20 4 21 1 22
REMARK SMILES IDX 2 23 3 26 14 28 24 30 25 31 26 32 27 33 28 34 29 35 30 36
REMARK SMILES IDX 31 37 32 38 78 39 33 40 77 41 34 42 35 43 36 44 71 45 37 46
REMARK SMILES IDX 76 47 70 48 72 49 38 50 75 51 69 52 68 53 39 55 61 56 46 57
REMARK SMILES IDX 60 58 47 59 50 60 59 61 73 62 48 63 49 64 58 66 74 67 51 68
REMARK SMILES IDX 40 69 41 70 45 71 42 72 44 73 43 74 62 75 63 76 67 77 64 78
REMARK SMILES IDX 66 79 65 80 52 81 53 82 57 83 54 84 56 85 55 86
REMARK H PARENT 1 24 1 25 4 27 14 29 72 54 50 65
REMARK Flexibility Score: inf
ROOT
ATOM      1  C   UNL A   1      34.714  31.881  28.830  1.00  0.00     0.188 C 
ENDROOT
BRANCH   1   2
ATOM      2  O   UNL A   1      34.739  30.886  27.821  1.00  0.00    -0.376 OA
BRANCH   2   3
ATOM      3  C   UNL A   1      33.559  30.596  27.086  1.00  0.00     0.202 C 
BRANCH   3   4
ATOM      4  C   UNL A   1      33.017  29.168  27.126  1.00  0.00     0.261 C 
BRANCH   4   5
ATOM      5  O   UNL A   1      31.863  28.982  26.291  1.00  0.00    -0.462 OA
BRANCH   5   6
ATOM      6  C   UNL A   1      31.334  27.730  26.256  1.00  0.00     0.329 C 
ATOM      7  O   UNL A   1      31.012  27.083  27.248  1.00  0.00    -0.250 OA
BRANCH   6   8
ATOM      8  C   UNL A   1      31.116  27.193  24.828  1.00  0.00     0.198 C 
ATOM      9  N   UNL A   1      32.279  26.847  24.003  1.00  0.00    -0.322 N 
ATOM     10  C   UNL A   1      31.978  27.141  22.614  1.00  0.00     0.152 C 
ATOM     11  C   UNL A   1      31.193  28.438  22.718  1.00  0.00     0.136 C 
ATOM     12  C   UNL A   1      30.364  28.252  23.993  1.00  0.00     0.071 C 
BRANCH   9  13
ATOM     13  C   UNL A   1      33.149  25.855  24.421  1.00  0.00     0.254 C 
ATOM     14  O   UNL A   1      34.360  26.061  24.469  1.00  0.00    -0.269 OA
BRANCH  13  15
ATOM     15  C   UNL A   1      32.628  24.460  24.619  1.00  0.00     0.040 A 
ATOM     16  C   UNL A   1      32.105  21.721  25.121  1.00  0.00     0.042 A 
ATOM     17  C   UNL A   1      32.302  22.613  26.178  1.00  0.00     0.027 A 
ATOM     18  C   UNL A   1      32.072  22.224  23.822  1.00  0.00     0.027 A 
ATOM     19  C   UNL A   1      32.568  23.967  25.930  1.00  0.00     0.016 A 
ATOM     20  C   UNL A   1      32.356  23.573  23.572  1.00  0.00     0.016 A 
BRANCH  16  21
ATOM     21  N   UNL A   1      31.947  20.362  25.437  1.00  0.00    -0.308 N 
ATOM     22  N   UNL A   1      34.123  19.561  25.236  1.00  0.00    -0.351 N 
ATOM     23  C   UNL A   1      32.806  19.313  25.374  1.00  0.00     0.316 C 
ATOM     24  H   UNL A   1      34.762  18.815  25.189  1.00  0.00     0.161 HD
ATOM     25  H   UNL A   1      34.445  20.490  25.181  1.00  0.00     0.161 HD
ATOM     26  O   UNL A   1      32.409  18.161  25.522  1.00  0.00    -0.249 OA
ATOM     27  H   UNL A   1      31.048  20.127  25.762  1.00  0.00     0.171 HD
ENDBRANCH  16  21
ENDBRANCH  13  15
ENDBRANCH   9  13
BRANCH  11  28
ATOM     28  O   UNL A   1      30.390  28.720  21.590  1.00  0.00    -0.391 OA
ATOM     29  H   UNL A   1      30.958  28.947  20.837  1.00  0.00     0.211 HD
ENDBRANCH  11  28
ENDBRANCH   6   8
ENDBRANCH   5   6
ENDBRANCH   4   5
ENDBRANCH   3   4
ENDBRANCH   2   3
ENDBRANCH   1   2
BRANCH   1  30
ATOM     30  C   UNL A   1      34.046  33.245  28.576  1.00  0.00     0.188 C 
BRANCH  30  31
ATOM     31  O   UNL A   1      34.647  34.458  28.993  1.00  0.00    -0.376 OA
BRANCH  31  32
ATOM     32  C   UNL A   1      33.954  35.675  28.779  1.00  0.00     0.202 C 
BRANCH  32  33
ATOM     33  C   UNL A   1      32.809  35.997  29.738  1.00  0.00     0.261 C 
BRANCH  33  34
ATOM     34  O   UNL A   1      33.275  36.369  31.046  1.00  0.00    -0.460 OA
BRANCH  34  35
ATOM     35  C   UNL A   1      32.900  35.536  32.047  1.00  0.00     0.338 C 
ATOM     36  O   UNL A   1      31.767  35.219  32.358  1.00  0.00    -0.246 OA
BRANCH  35  37
ATOM     37  C   UNL A   1      34.090  34.878  32.619  1.00  0.00     0.060 A 
ATOM     38  C   UNL A   1      35.331  35.501  32.433  1.00  0.00     0.016 A 
ATOM     39  C   UNL A   1      34.008  33.641  33.260  1.00  0.00     0.016 A 
ATOM     40  C   UNL A   1      36.500  34.874  32.855  1.00  0.00     0.010 A 
ATOM     41  C   UNL A   1      35.186  33.001  33.663  1.00  0.00     0.010 A 
ATOM     42  C   UNL A   1      36.438  33.599  33.433  1.00  0.00    -0.014 A 
BRANCH  42  43
ATOM     43  C   UNL A   1      37.692  32.834  33.633  1.00  0.00     0.031 A 
ATOM     44  C   UNL A   1      38.472  33.036  34.904  1.00  0.00     0.074 A 
ATOM     45  C   UNL A   1      38.104  31.929  32.727  1.00  0.00     0.049 A 
ATOM     46  N   UNL A   1      39.593  32.479  35.287  1.00  0.00    -0.248 NA
ATOM     47  C   UNL A   1      37.911  33.991  35.874  1.00  0.00     0.031 C 
ATOM     48  C   UNL A   1      37.408  31.594  31.486  1.00  0.00     0.029 A 
ATOM     49  N   UNL A   1      39.213  31.121  32.722  1.00  0.00    -0.354 N 
ATOM     50  C   UNL A   1      39.870  33.015  36.539  1.00  0.00     0.074 A 
ATOM     51  C   UNL A   1      38.821  33.965  36.837  1.00  0.00     0.031 C 
ATOM     52  C   UNL A   1      38.109  30.646  30.838  1.00  0.00     0.029 A 
ATOM     53  C   UNL A   1      39.315  30.334  31.601  1.00  0.00     0.049 A 
ATOM     54  H   UNL A   1      39.873  31.106  33.452  1.00  0.00     0.167 HD
ATOM     55  C   UNL A   1      40.903  32.737  37.371  1.00  0.00     0.031 A 
ATOM     56  C   UNL A   1      40.283  29.474  31.226  1.00  0.00     0.031 A 
ATOM     57  C   UNL A   1      41.958  31.807  37.074  1.00  0.00     0.049 A 
ATOM     58  C   UNL A   1      41.472  29.260  32.128  1.00  0.00     0.074 A 
ATOM     59  C   UNL A   1      43.050  31.465  37.852  1.00  0.00     0.029 A 
ATOM     60  N   UNL A   1      42.057  31.075  35.902  1.00  0.00    -0.354 N 
ATOM     61  N   UNL A   1      41.717  29.764  33.314  1.00  0.00    -0.248 NA
ATOM     62  C   UNL A   1      42.514  28.346  31.638  1.00  0.00     0.031 C 
ATOM     63  C   UNL A   1      43.840  30.566  37.127  1.00  0.00     0.029 A 
ATOM     64  C   UNL A   1      43.205  30.301  35.924  1.00  0.00     0.049 A 
ATOM     65  H   UNL A   1      41.407  31.102  35.161  1.00  0.00     0.167 HD
ATOM     66  C   UNL A   1      42.922  29.203  33.722  1.00  0.00     0.074 A 
ATOM     67  C   UNL A   1      43.347  28.307  32.668  1.00  0.00     0.031 C 
ATOM     68  C   UNL A   1      43.615  29.411  34.869  1.00  0.00     0.031 A 
BRANCH  55  69
ATOM     69  C   UNL A   1      40.954  33.480  38.678  1.00  0.00    -0.014 A 
ATOM     70  C   UNL A   1      41.597  34.723  38.785  1.00  0.00     0.009 A 
ATOM     71  C   UNL A   1      40.317  32.943  39.807  1.00  0.00     0.009 A 
ATOM     72  C   UNL A   1      41.626  35.400  40.006  1.00  0.00     0.001 A 
ATOM     73  C   UNL A   1      40.325  33.636  41.019  1.00  0.00     0.001 A 
ATOM     74  C   UNL A   1      40.985  34.859  41.121  1.00  0.00     0.000 A 
ENDBRANCH  55  69
BRANCH  56  75
ATOM     75  C   UNL A   1      40.197  28.764  29.922  1.00  0.00    -0.014 A 
ATOM     76  C   UNL A   1      40.738  29.333  28.759  1.00  0.00     0.009 A 
ATOM     77  C   UNL A   1      39.526  27.536  29.826  1.00  0.00     0.009 A 
ATOM     78  C   UNL A   1      40.576  28.703  27.522  1.00  0.00     0.001 A 
ATOM     79  C   UNL A   1      39.394  26.892  28.594  1.00  0.00     0.001 A 
ATOM     80  C   UNL A   1      39.908  27.482  27.441  1.00  0.00     0.000 A 
ENDBRANCH  56  75
BRANCH  68  81
ATOM     81  C   UNL A   1      44.882  28.621  35.062  1.00  0.00    -0.014 A 
ATOM     82  C   UNL A   1      46.127  29.120  34.650  1.00  0.00     0.009 A 
ATOM     83  C   UNL A   1      44.827  27.367  35.689  1.00  0.00     0.009 A 
ATOM     84  C   UNL A   1      47.286  28.359  34.825  1.00  0.00     0.001 A 
ATOM     85  C   UNL A   1      45.991  26.623  35.893  1.00  0.00     0.001 A 
ATOM     86  C   UNL A   1      47.217  27.114  35.448  1.00  0.00     0.000 A 
ENDBRANCH  68  81
ENDBRANCH  42  43
ENDBRANCH  35  37
ENDBRANCH  34  35
ENDBRANCH  33  34
ENDBRANCH  32  33
ENDBRANCH  31  32
ENDBRANCH  30  31
ENDBRANCH   1  30
TORSDOF 21
ENDMDL
MODEL 3
REMARK VINA RESULT:     -10.0      3.526      9.247
REMARK SMILES NC(=O)Nc1ccc(C(=O)N2C[C@@H](O)C[C@@H]2C(=O)OCCOCCOCCOC(=O)c2ccc(-c3c4nc(c(-c5ccccc5)c5ccc([nH]5)c(-c5ccccc5)c5nc(c(-c6ccccc6)c6ccc3[nH]6)C=C5)C=C4)cc2)cc1
REMARK SMILES IDX 23 1 22 2 21 3 20 4 19 5 17 6 18 7 16 8 11 9 12 10 13 11
REMARK SMILES IDX 15 12 9 13 10 14 8 15 5 16 6 17 80 18 7 19 79 20 4 21 1 22
REMARK SMILES IDX 2 23 3 26 14 28 24 30 25 31 26 32 27 33 28 34 29 35 30 36
REMARK SMILES IDX 31 37 32 38 78 39 33 40 77 41 34 42 35 43 36 44 71 45 37 46
REMARK SMILES IDX 76 47 70 48 72 49 38 50 75 51 69 52 68 53 39 55 61 56 46 57
REMARK SMILES IDX 60 58 47 59 50 60 59 61 73 62 48 63 49 64 58 66 74 67 51 68
REMARK SMILES IDX 40 69 41 70 45 71 42 72 44 73 43 74 62 75 63 76 67 77 64 78
REMARK SMILES IDX 66 79 65 80 52 81 53 82 57 83 54 84 56 85 55 86
REMARK H PARENT 1 24 1 25 4 27 14 29 72 54 50 65
REMARK Flexibility Score: inf
ROOT
ATOM      1  C   UNL A   1      40.232  21.345  26.142  1.00  0.00     0.188 C 
ENDROOT
BRANCH   1   2
ATOM      2  O   UNL A   1      38.919  21.859  26.275  1.00  0.00    -0.376 OA
BRANCH   2   3
ATOM      3  C   UNL A   1      38.709  23.263  26.286  1.00  0.00     0.202 C 
BRANCH   3   4
ATOM      4  C   UNL A   1      37.341  23.792  25.857  1.00  0.00     0.261 C 
BRANCH   4   5
ATOM      5  O   UNL A   1      36.598  22.851  25.067  1.00  0.00    -0.462 OA
BRANCH   5   6
ATOM      6  C   UNL A   1      35.314  22.618  25.449  1.00  0.00     0.329 C 
ATOM      7  O   UNL A   1      34.792  23.089  26.455  1.00  0.00    -0.250 OA
BRANCH   6   8
ATOM      8  C   UNL A   1      34.528  21.735  24.462  1.00  0.00     0.198 C 
ATOM      9  N   UNL A   1      33.282  22.242  23.876  1.00  0.00    -0.322 N 
ATOM     10  C   UNL A   1      32.364  21.134  23.683  1.00  0.00     0.152 C 
ATOM     11  C   UNL A   1      32.600  20.295  24.928  1.00  0.00     0.136 C 
ATOM     12  C   UNL A   1      34.107  20.427  25.167  1.00  0.00     0.071 C 
BRANCH   9  13
ATOM     13  C   UNL A   1      33.303  23.385  23.096  1.00  0.00     0.254 C 
ATOM     14  O   UNL A   1      34.068  23.478  22.139  1.00  0.00    -0.269 OA
BRANCH  13  15
ATOM     15  C   UNL A   1      32.535  24.594  23.548  1.00  0.00     0.040 A 
ATOM     16  C   UNL A   1      31.081  26.996  23.927  1.00  0.00     0.042 A 
ATOM     17  C   UNL A   1      30.466  25.873  23.369  1.00  0.00     0.027 A 
ATOM     18  C   UNL A   1      32.392  26.880  24.385  1.00  0.00     0.027 A 
ATOM     19  C   UNL A   1      31.187  24.686  23.174  1.00  0.00     0.016 A 
ATOM     20  C   UNL A   1      33.119  25.701  24.173  1.00  0.00     0.016 A 
BRANCH  16  21
ATOM     21  N   UNL A   1      30.331  28.182  23.998  1.00  0.00    -0.308 N 
ATOM     22  N   UNL A   1      31.097  29.351  22.137  1.00  0.00    -0.351 N 
ATOM     23  C   UNL A   1      30.396  29.336  23.286  1.00  0.00     0.316 C 
ATOM     24  H   UNL A   1      31.157  30.178  21.607  1.00  0.00     0.161 HD
ATOM     25  H   UNL A   1      31.552  28.533  21.827  1.00  0.00     0.161 HD
ATOM     26  O   UNL A   1      29.765  30.330  23.635  1.00  0.00    -0.249 OA
ATOM     27  H   UNL A   1      29.631  28.175  24.690  1.00  0.00     0.171 HD
ENDBRANCH  16  21
ENDBRANCH  13  15
ENDBRANCH   9  13
BRANCH  11  28
ATOM     28  O   UNL A   1      32.191  18.948  24.803  1.00  0.00    -0.391 OA
ATOM     29  H   UNL A   1      31.304  18.843  25.181  1.00  0.00     0.211 HD
ENDBRANCH  11  28
ENDBRANCH   6   8
ENDBRANCH   5   6
ENDBRANCH   4   5
ENDBRANCH   3   4
ENDBRANCH   2   3
ENDBRANCH   1   2
BRANCH   1  30
ATOM     30  C   UNL A   1      41.109  21.089  27.382  1.00  0.00     0.188 C 
BRANCH  30  31
ATOM     31  O   UNL A   1      42.284  20.302  27.316  1.00  0.00    -0.376 OA
BRANCH  31  32
ATOM     32  C   UNL A   1      42.201  18.991  26.784  1.00  0.00     0.202 C 
BRANCH  32  33
ATOM     33  C   UNL A   1      43.304  18.566  25.817  1.00  0.00     0.261 C 
BRANCH  33  34
ATOM     34  O   UNL A   1      43.430  19.460  24.699  1.00  0.00    -0.460 OA
BRANCH  34  35
ATOM     35  C   UNL A   1      44.702  19.700  24.296  1.00  0.00     0.338 C 
ATOM     36  O   UNL A   1      45.409  18.978  23.618  1.00  0.00    -0.246 OA
BRANCH  35  37
ATOM     37  C   UNL A   1      45.076  21.088  24.628  1.00  0.00     0.060 A 
ATOM     38  C   UNL A   1      45.597  21.334  25.906  1.00  0.00     0.016 A 
ATOM     39  C   UNL A   1      44.856  22.141  23.739  1.00  0.00     0.016 A 
ATOM     40  C   UNL A   1      45.866  22.637  26.313  1.00  0.00     0.010 A 
ATOM     41  C   UNL A   1      45.105  23.452  24.158  1.00  0.00     0.010 A 
ATOM     42  C   UNL A   1      45.580  23.709  25.457  1.00  0.00    -0.014 A 
BRANCH  42  43
ATOM     43  C   UNL A   1      45.619  25.091  25.991  1.00  0.00     0.031 A 
ATOM     44  C   UNL A   1      46.929  25.832  25.997  1.00  0.00     0.074 A 
ATOM     45  C   UNL A   1      44.497  25.703  26.412  1.00  0.00     0.049 A 
ATOM     46  N   UNL A   1      47.196  27.042  26.418  1.00  0.00    -0.248 NA
ATOM     47  C   UNL A   1      48.092  25.114  25.451  1.00  0.00     0.031 C 
ATOM     48  C   UNL A   1      43.157  25.120  26.401  1.00  0.00     0.029 A 
ATOM     49  N   UNL A   1      44.314  26.962  26.927  1.00  0.00    -0.354 N 
ATOM     50  C   UNL A   1      48.553  27.229  26.189  1.00  0.00     0.074 A 
ATOM     51  C   UNL A   1      49.062  25.999  25.623  1.00  0.00     0.031 C 
ATOM     52  C   UNL A   1      42.286  26.022  26.888  1.00  0.00     0.029 A 
ATOM     53  C   UNL A   1      43.013  27.230  27.274  1.00  0.00     0.049 A 
ATOM     54  H   UNL A   1      45.046  27.611  27.037  1.00  0.00     0.167 HD
ATOM     55  C   UNL A   1      49.310  28.329  26.421  1.00  0.00     0.031 A 
ATOM     56  C   UNL A   1      42.474  28.321  27.854  1.00  0.00     0.031 A 
ATOM     57  C   UNL A   1      48.814  29.549  26.999  1.00  0.00     0.049 A 
ATOM     58  C   UNL A   1      43.359  29.492  28.193  1.00  0.00     0.074 A 
ATOM     59  C   UNL A   1      49.506  30.714  27.279  1.00  0.00     0.029 A 
ATOM     60  N   UNL A   1      47.502  29.758  27.392  1.00  0.00    -0.354 N 
ATOM     61  N   UNL A   1      44.639  29.661  27.961  1.00  0.00    -0.248 NA
ATOM     62  C   UNL A   1      42.717  30.630  28.869  1.00  0.00     0.031 C 
ATOM     63  C   UNL A   1      48.625  31.610  27.893  1.00  0.00     0.029 A 
ATOM     64  C   UNL A   1      47.369  31.025  27.935  1.00  0.00     0.049 A 
ATOM     65  H   UNL A   1      46.772  29.103  27.300  1.00  0.00     0.167 HD
ATOM     66  C   UNL A   1      44.945  30.933  28.432  1.00  0.00     0.074 A 
ATOM     67  C   UNL A   1      43.715  31.499  28.944  1.00  0.00     0.031 C 
ATOM     68  C   UNL A   1      46.138  31.577  28.439  1.00  0.00     0.031 A 
BRANCH  55  69
ATOM     69  C   UNL A   1      50.771  28.246  26.076  1.00  0.00    -0.014 A 
ATOM     70  C   UNL A   1      51.722  27.829  27.021  1.00  0.00     0.009 A 
ATOM     71  C   UNL A   1      51.196  28.555  24.774  1.00  0.00     0.009 A 
ATOM     72  C   UNL A   1      53.073  27.751  26.677  1.00  0.00     0.001 A 
ATOM     73  C   UNL A   1      52.543  28.450  24.426  1.00  0.00     0.001 A 
ATOM     74  C   UNL A   1      53.482  28.056  25.378  1.00  0.00     0.000 A 
ENDBRANCH  55  69
BRANCH  56  75
ATOM     75  C   UNL A   1      41.024  28.359  28.185  1.00  0.00    -0.014 A 
ATOM     76  C   UNL A   1      40.110  28.994  27.330  1.00  0.00     0.009 A 
ATOM     77  C   UNL A   1      40.555  27.805  29.385  1.00  0.00     0.009 A 
ATOM     78  C   UNL A   1      38.764  29.104  27.689  1.00  0.00     0.001 A 
ATOM     79  C   UNL A   1      39.204  27.888  29.726  1.00  0.00     0.001 A 
ATOM     80  C   UNL A   1      38.312  28.548  28.884  1.00  0.00     0.000 A 
ENDBRANCH  56  75
BRANCH  68  81
ATOM     81  C   UNL A   1      46.160  32.983  28.977  1.00  0.00    -0.014 A 
ATOM     82  C   UNL A   1      45.877  34.086  28.156  1.00  0.00     0.009 A 
ATOM     83  C   UNL A   1      46.444  33.202  30.333  1.00  0.00     0.009 A 
ATOM     84  C   UNL A   1      45.921  35.382  28.675  1.00  0.00     0.001 A 
ATOM     85  C   UNL A   1      46.455  34.495  30.857  1.00  0.00     0.001 A 
ATOM     86  C   UNL A   1      46.206  35.585  30.025  1.00  0.00     0.000 A 
ENDBRANCH  68  81
ENDBRANCH  42  43
ENDBRANCH  35  37
ENDBRANCH  34  35
ENDBRANCH  33  34
ENDBRANCH  32  33
ENDBRANCH  31  32
ENDBRANCH  30  31
ENDBRANCH   1  30
TORSDOF 21
ENDMDL
