MODEL 1
REMARK VINA RESULT:      -9.2      0.000      0.000
REMARK SMILES C[C@@H](C(=O)OCCOCCOCCOC(=O)c1ccc(-c2c3nc(c(-c4ccccc4)c4ccc([nH]4)c(-c4ccccc4)c4nc(c(-c5ccccc5)c5ccc2[nH]5)C=C4)C=C3)cc1)N(C)c1ccc(C(N)=O)nn1
REMARK SMILES IDX 9 1 8 2 7 3 6 4 5 5 3 6 4 7 2 8 1 9 65 10 66 11 67 12 68 13
REMARK SMILES IDX 75 14 69 15 74 16 70 17 71 18 72 19 73 20 10 23 11 24 12 25
REMARK SMILES IDX 13 26 14 27 15 28 16 29 17 30 18 31 64 32 19 33 63 34 20 35
REMARK SMILES IDX 21 36 22 37 57 38 23 39 62 40 56 41 58 42 24 43 61 44 55 45
REMARK SMILES IDX 54 46 25 48 47 49 32 50 46 51 33 52 36 53 45 54 59 55 34 56
REMARK SMILES IDX 35 57 44 59 60 60 37 61 26 62 27 63 31 64 28 65 30 66 29 67
REMARK SMILES IDX 48 68 49 69 53 70 50 71 52 72 51 73 38 74 39 75 43 76 40 77
REMARK SMILES IDX 42 78 41 79
REMARK H PARENT 72 21 72 22 58 47 36 58
REMARK Flexibility Score: inf
ROOT
ATOM      1  C   UNL A   1      31.724  28.127  26.917  1.00  0.00     0.188 C 
ENDROOT
BRANCH   1   2
ATOM      2  O   UNL A   1      32.907  27.418  26.611  1.00  0.00    -0.376 OA
BRANCH   2   3
ATOM      3  C   UNL A   1      32.758  26.225  25.865  1.00  0.00     0.202 C 
BRANCH   3   4
ATOM      4  C   UNL A   1      32.198  24.968  26.569  1.00  0.00     0.261 C 
BRANCH   4   5
ATOM      5  O   UNL A   1      32.819  23.696  26.223  1.00  0.00    -0.462 OA
BRANCH   5   6
ATOM      6  C   UNL A   1      32.006  22.634  25.914  1.00  0.00     0.328 C 
ATOM      7  O   UNL A   1      30.995  22.358  26.556  1.00  0.00    -0.250 OA
BRANCH   6   8
ATOM      8  C   UNL A   1      32.515  21.748  24.720  1.00  0.00     0.190 C 
ATOM      9  C   UNL A   1      33.748  20.865  24.906  1.00  0.00     0.044 C 
BRANCH   8  10
ATOM     10  N   UNL A   1      32.492  22.398  23.350  1.00  0.00    -0.345 N 
ATOM     11  C   UNL A   1      31.911  21.559  22.303  1.00  0.00     0.146 C 
BRANCH  10  12
ATOM     12  C   UNL A   1      32.236  23.774  23.134  1.00  0.00     0.151 A 
ATOM     13  C   UNL A   1      33.611  24.812  22.712  1.00  0.00     0.051 A 
ATOM     14  N   UNL A   1      30.673  24.416  23.250  1.00  0.00    -0.132 NA
ATOM     15  C   UNL A   1      33.471  26.575  22.444  1.00  0.00     0.040 A 
ATOM     16  N   UNL A   1      30.402  26.140  23.013  1.00  0.00    -0.143 NA
ATOM     17  C   UNL A   1      31.865  27.351  22.580  1.00  0.00     0.150 A 
BRANCH  17  18
ATOM     18  C   UNL A   1      31.975  28.885  22.587  1.00  0.00     0.269 C 
ATOM     19  N   UNL A   1      31.287  29.711  21.731  1.00  0.00    -0.364 N 
ATOM     20  O   UNL A   1      32.833  29.405  23.297  1.00  0.00    -0.268 OA
ATOM     21  H   UNL A   1      30.590  29.341  21.142  1.00  0.00     0.160 HD
ATOM     22  H   UNL A   1      31.490  30.674  21.706  1.00  0.00     0.160 HD
ENDBRANCH  17  18
ENDBRANCH  10  12
ENDBRANCH   8  10
ENDBRANCH   6   8
ENDBRANCH   5   6
ENDBRANCH   4   5
ENDBRANCH   3   4
ENDBRANCH   2   3
ENDBRANCH   1   2
BRANCH   1  23
ATOM     23  C   UNL A   1      31.604  29.597  26.450  1.00  0.00     0.188 C 
BRANCH  23  24
ATOM     24  O   UNL A   1      32.756  30.375  26.272  1.00  0.00    -0.376 OA
BRANCH  24  25
ATOM     25  C   UNL A   1      33.563  30.640  27.406  1.00  0.00     0.202 C 
BRANCH  25  26
ATOM     26  C   UNL A   1      33.772  32.047  28.015  1.00  0.00     0.261 C 
BRANCH  26  27
ATOM     27  O   UNL A   1      33.914  32.123  29.446  1.00  0.00    -0.460 OA
BRANCH  27  28
ATOM     28  C   UNL A   1      35.153  32.487  29.863  1.00  0.00     0.338 C 
ATOM     29  O   UNL A   1      35.442  33.471  30.523  1.00  0.00    -0.246 OA
BRANCH  28  30
ATOM     30  C   UNL A   1      36.115  31.382  29.727  1.00  0.00     0.060 A 
ATOM     31  C   UNL A   1      36.712  30.624  31.235  1.00  0.00     0.016 A 
ATOM     32  C   UNL A   1      36.996  31.111  28.264  1.00  0.00     0.016 A 
ATOM     33  C   UNL A   1      38.429  29.563  31.159  1.00  0.00     0.010 A 
ATOM     34  C   UNL A   1      38.492  30.180  28.195  1.00  0.00     0.010 A 
ATOM     35  C   UNL A   1      39.277  29.477  29.594  1.00  0.00    -0.014 A 
BRANCH  35  36
ATOM     36  C   UNL A   1      40.676  29.019  29.454  1.00  0.00     0.031 A 
ATOM     37  C   UNL A   1      41.849  29.973  29.437  1.00  0.00     0.074 A 
ATOM     38  C   UNL A   1      40.845  27.732  29.145  1.00  0.00     0.049 A 
ATOM     39  N   UNL A   1      43.010  29.868  28.837  1.00  0.00    -0.248 NA
ATOM     40  C   UNL A   1      41.683  31.248  30.139  1.00  0.00     0.031 C 
ATOM     41  C   UNL A   1      39.782  26.730  29.144  1.00  0.00     0.029 A 
ATOM     42  N   UNL A   1      41.961  27.070  28.724  1.00  0.00    -0.354 N 
ATOM     43  C   UNL A   1      43.648  31.104  28.996  1.00  0.00     0.074 A 
ATOM     44  C   UNL A   1      42.721  31.953  29.704  1.00  0.00     0.031 C 
ATOM     45  C   UNL A   1      40.292  25.575  28.695  1.00  0.00     0.029 A 
ATOM     46  C   UNL A   1      41.692  25.783  28.341  1.00  0.00     0.049 A 
ATOM     47  H   UNL A   1      42.860  27.473  28.697  1.00  0.00     0.167 HD
ATOM     48  C   UNL A   1      44.903  31.473  28.627  1.00  0.00     0.031 A 
ATOM     49  C   UNL A   1      42.488  24.888  27.735  1.00  0.00     0.031 A 
ATOM     50  C   UNL A   1      45.868  30.525  28.121  1.00  0.00     0.049 A 
ATOM     51  C   UNL A   1      43.906  25.270  27.441  1.00  0.00     0.074 A 
ATOM     52  C   UNL A   1      47.215  30.710  27.860  1.00  0.00     0.029 A 
ATOM     53  N   UNL A   1      45.592  29.190  27.862  1.00  0.00    -0.354 N 
ATOM     54  N   UNL A   1      44.487  26.443  27.554  1.00  0.00    -0.248 NA
ATOM     55  C   UNL A   1      44.789  24.197  26.979  1.00  0.00     0.031 C 
ATOM     56  C   UNL A   1      47.744  29.496  27.412  1.00  0.00     0.029 A 
ATOM     57  C   UNL A   1      46.742  28.539  27.451  1.00  0.00     0.049 A 
ATOM     58  H   UNL A   1      44.708  28.767  27.957  1.00  0.00     0.167 HD
ATOM     59  C   UNL A   1      45.815  26.241  27.207  1.00  0.00     0.074 A 
ATOM     60  C   UNL A   1      45.951  24.828  26.903  1.00  0.00     0.031 C 
ATOM     61  C   UNL A   1      46.834  27.134  27.148  1.00  0.00     0.031 A 
BRANCH  48  62
ATOM     62  C   UNL A   1      45.347  32.918  28.782  1.00  0.00    -0.014 A 
ATOM     63  C   UNL A   1      45.122  33.894  27.799  1.00  0.00     0.009 A 
ATOM     64  C   UNL A   1      45.922  33.337  30.000  1.00  0.00     0.009 A 
ATOM     65  C   UNL A   1      45.504  35.228  28.003  1.00  0.00     0.001 A 
ATOM     66  C   UNL A   1      46.261  34.678  30.221  1.00  0.00     0.001 A 
ATOM     67  C   UNL A   1      46.063  35.621  29.217  1.00  0.00     0.000 A 
ENDBRANCH  48  62
BRANCH  49  68
ATOM     68  C   UNL A   1      41.939  23.543  27.451  1.00  0.00    -0.014 A 
ATOM     69  C   UNL A   1      42.155  22.497  28.357  1.00  0.00     0.009 A 
ATOM     70  C   UNL A   1      41.082  23.338  26.358  1.00  0.00     0.009 A 
ATOM     71  C   UNL A   1      41.524  21.267  28.176  1.00  0.00     0.001 A 
ATOM     72  C   UNL A   1      40.428  22.115  26.196  1.00  0.00     0.001 A 
ATOM     73  C   UNL A   1      40.653  21.081  27.103  1.00  0.00     0.000 A 
ENDBRANCH  49  68
BRANCH  61  74
ATOM     74  C   UNL A   1      48.182  26.588  26.771  1.00  0.00    -0.014 A 
ATOM     75  C   UNL A   1      48.665  26.688  25.458  1.00  0.00     0.009 A 
ATOM     76  C   UNL A   1      48.979  25.972  27.749  1.00  0.00     0.009 A 
ATOM     77  C   UNL A   1      49.898  26.131  25.118  1.00  0.00     0.001 A 
ATOM     78  C   UNL A   1      50.228  25.448  27.414  1.00  0.00     0.001 A 
ATOM     79  C   UNL A   1      50.679  25.515  26.096  1.00  0.00     0.000 A 
ENDBRANCH  61  74
ENDBRANCH  35  36
ENDBRANCH  28  30
ENDBRANCH  27  28
ENDBRANCH  26  27
ENDBRANCH  25  26
ENDBRANCH  24  25
ENDBRANCH  23  24
ENDBRANCH   1  23
TORSDOF 20
ENDMDL
MODEL 2
REMARK VINA RESULT:      -9.0      2.444      4.531
REMARK SMILES C[C@@H](C(=O)OCCOCCOCCOC(=O)c1ccc(-c2c3nc(c(-c4ccccc4)c4ccc([nH]4)c(-c4ccccc4)c4nc(c(-c5ccccc5)c5ccc2[nH]5)C=C4)C=C3)cc1)N(C)c1ccc(C(N)=O)nn1
REMARK SMILES IDX 9 1 8 2 7 3 6 4 5 5 3 6 4 7 2 8 1 9 65 10 66 11 67 12 68 13
REMARK SMILES IDX 75 14 69 15 74 16 70 17 71 18 72 19 73 20 10 23 11 24 12 25
REMARK SMILES IDX 13 26 14 27 15 28 16 29 17 30 18 31 64 32 19 33 63 34 20 35
REMARK SMILES IDX 21 36 22 37 57 38 23 39 62 40 56 41 58 42 24 43 61 44 55 45
REMARK SMILES IDX 54 46 25 48 47 49 32 50 46 51 33 52 36 53 45 54 59 55 34 56
REMARK SMILES IDX 35 57 44 59 60 60 37 61 26 62 27 63 31 64 28 65 30 66 29 67
REMARK SMILES IDX 48 68 49 69 53 70 50 71 52 72 51 73 38 74 39 75 43 76 40 77
REMARK SMILES IDX 42 78 41 79
REMARK H PARENT 72 21 72 22 58 47 36 58
REMARK Flexibility Score: inf
ROOT
ATOM      1  C   UNL A   1      33.015  29.578  26.469  1.00  0.00     0.188 C 
ENDROOT
BRANCH   1   2
ATOM      2  O   UNL A   1      32.574  29.465  25.132  1.00  0.00    -0.376 OA
BRANCH   2   3
ATOM      3  C   UNL A   1      33.308  28.595  24.292  1.00  0.00     0.202 C 
BRANCH   3   4
ATOM      4  C   UNL A   1      33.754  27.222  24.844  1.00  0.00     0.261 C 
BRANCH   4   5
ATOM      5  O   UNL A   1      33.989  26.170  23.863  1.00  0.00    -0.462 OA
BRANCH   5   6
ATOM      6  C   UNL A   1      34.107  24.877  24.306  1.00  0.00     0.328 C 
ATOM      7  O   UNL A   1      35.168  24.400  24.700  1.00  0.00    -0.250 OA
BRANCH   6   8
ATOM      8  C   UNL A   1      32.789  24.026  24.194  1.00  0.00     0.190 C 
ATOM      9  C   UNL A   1      32.009  23.672  25.459  1.00  0.00     0.044 C 
BRANCH   8  10
ATOM     10  N   UNL A   1      32.822  22.871  23.214  1.00  0.00    -0.345 N 
ATOM     11  C   UNL A   1      33.321  23.230  21.887  1.00  0.00     0.146 C 
BRANCH  10  12
ATOM     12  C   UNL A   1      33.165  21.543  23.570  1.00  0.00     0.151 A 
ATOM     13  C   UNL A   1      32.142  20.234  22.949  1.00  0.00     0.051 A 
ATOM     14  N   UNL A   1      34.511  21.202  24.538  1.00  0.00    -0.132 NA
ATOM     15  C   UNL A   1      32.408  18.507  23.332  1.00  0.00     0.040 A 
ATOM     16  N   UNL A   1      34.880  19.540  24.992  1.00  0.00    -0.143 NA
ATOM     17  C   UNL A   1      33.786  18.050  24.378  1.00  0.00     0.150 A 
BRANCH  17  18
ATOM     18  C   UNL A   1      33.703  16.578  24.815  1.00  0.00     0.269 C 
ATOM     19  N   UNL A   1      33.060  16.146  25.951  1.00  0.00    -0.364 N 
ATOM     20  O   UNL A   1      34.368  15.748  24.199  1.00  0.00    -0.268 OA
ATOM     21  H   UNL A   1      32.515  16.775  26.479  1.00  0.00     0.160 HD
ATOM     22  H   UNL A   1      33.144  15.208  26.238  1.00  0.00     0.160 HD
ENDBRANCH  17  18
ENDBRANCH  10  12
ENDBRANCH   8  10
ENDBRANCH   6   8
ENDBRANCH   5   6
ENDBRANCH   4   5
ENDBRANCH   3   4
ENDBRANCH   2   3
ENDBRANCH   1   2
BRANCH   1  23
ATOM     23  C   UNL A   1      32.721  30.890  27.235  1.00  0.00     0.188 C 
BRANCH  23  24
ATOM     24  O   UNL A   1      31.651  31.707  26.845  1.00  0.00    -0.376 OA
BRANCH  24  25
ATOM     25  C   UNL A   1      31.783  33.107  27.020  1.00  0.00     0.202 C 
BRANCH  25  26
ATOM     26  C   UNL A   1      32.922  33.778  27.824  1.00  0.00     0.261 C 
BRANCH  26  27
ATOM     27  O   UNL A   1      32.566  34.367  29.089  1.00  0.00    -0.460 OA
BRANCH  27  28
ATOM     28  C   UNL A   1      33.623  34.612  29.905  1.00  0.00     0.338 C 
ATOM     29  O   UNL A   1      33.656  35.390  30.843  1.00  0.00    -0.246 OA
BRANCH  28  30
ATOM     30  C   UNL A   1      34.665  33.583  29.764  1.00  0.00     0.060 A 
ATOM     31  C   UNL A   1      34.938  32.495  31.158  1.00  0.00     0.016 A 
ATOM     32  C   UNL A   1      35.886  33.679  28.542  1.00  0.00     0.016 A 
ATOM     33  C   UNL A   1      36.694  31.503  31.270  1.00  0.00     0.010 A 
ATOM     34  C   UNL A   1      37.417  32.810  28.636  1.00  0.00     0.010 A 
ATOM     35  C   UNL A   1      37.894  31.803  29.987  1.00  0.00    -0.014 A 
BRANCH  35  36
ATOM     36  C   UNL A   1      39.314  31.409  30.099  1.00  0.00     0.031 A 
ATOM     37  C   UNL A   1      40.409  32.391  30.453  1.00  0.00     0.074 A 
ATOM     38  C   UNL A   1      39.618  30.179  29.678  1.00  0.00     0.049 A 
ATOM     39  N   UNL A   1      41.675  32.400  30.109  1.00  0.00    -0.248 NA
ATOM     40  C   UNL A   1      40.027  33.556  31.252  1.00  0.00     0.031 C 
ATOM     41  C   UNL A   1      38.638  29.156  29.324  1.00  0.00     0.029 A 
ATOM     42  N   UNL A   1      40.833  29.611  29.429  1.00  0.00    -0.354 N 
ATOM     43  C   UNL A   1      42.193  33.622  30.553  1.00  0.00     0.074 A 
ATOM     44  C   UNL A   1      41.091  34.343  31.142  1.00  0.00     0.031 C 
ATOM     45  C   UNL A   1      39.295  28.085  28.858  1.00  0.00     0.029 A 
ATOM     46  C   UNL A   1      40.724  28.379  28.843  1.00  0.00     0.049 A 
ATOM     47  H   UNL A   1      41.693  30.040  29.647  1.00  0.00     0.167 HD
ATOM     48  C   UNL A   1      43.475  34.073  30.511  1.00  0.00     0.031 A 
ATOM     49  C   UNL A   1      41.679  27.596  28.318  1.00  0.00     0.031 A 
ATOM     50  C   UNL A   1      44.577  33.228  30.113  1.00  0.00     0.049 A 
ATOM     51  C   UNL A   1      43.104  28.054  28.387  1.00  0.00     0.074 A 
ATOM     52  C   UNL A   1      45.936  33.485  30.174  1.00  0.00     0.029 A 
ATOM     53  N   UNL A   1      44.438  31.931  29.639  1.00  0.00    -0.354 N 
ATOM     54  N   UNL A   1      43.580  29.218  28.765  1.00  0.00    -0.248 NA
ATOM     55  C   UNL A   1      44.123  27.077  27.998  1.00  0.00     0.031 C 
ATOM     56  C   UNL A   1      46.616  32.357  29.705  1.00  0.00     0.029 A 
ATOM     57  C   UNL A   1      45.684  31.375  29.409  1.00  0.00     0.049 A 
ATOM     58  H   UNL A   1      43.579  31.474  29.488  1.00  0.00     0.167 HD
ATOM     59  C   UNL A   1      44.961  29.102  28.692  1.00  0.00     0.074 A 
ATOM     60  C   UNL A   1      45.238  27.747  28.253  1.00  0.00     0.031 C 
ATOM     61  C   UNL A   1      45.917  30.025  28.964  1.00  0.00     0.031 A 
BRANCH  48  62
ATOM     62  C   UNL A   1      43.794  35.497  30.935  1.00  0.00    -0.014 A 
ATOM     63  C   UNL A   1      43.700  35.935  32.265  1.00  0.00     0.009 A 
ATOM     64  C   UNL A   1      44.304  36.403  29.982  1.00  0.00     0.009 A 
ATOM     65  C   UNL A   1      44.052  37.245  32.621  1.00  0.00     0.001 A 
ATOM     66  C   UNL A   1      44.699  37.696  30.347  1.00  0.00     0.001 A 
ATOM     67  C   UNL A   1      44.560  38.121  31.665  1.00  0.00     0.000 A 
ENDBRANCH  48  62
BRANCH  49  68
ATOM     68  C   UNL A   1      41.279  26.284  27.759  1.00  0.00    -0.014 A 
ATOM     69  C   UNL A   1      41.472  25.118  28.512  1.00  0.00     0.009 A 
ATOM     70  C   UNL A   1      40.577  26.209  26.546  1.00  0.00     0.009 A 
ATOM     71  C   UNL A   1      40.971  23.898  28.061  1.00  0.00     0.001 A 
ATOM     72  C   UNL A   1      40.049  24.992  26.113  1.00  0.00     0.001 A 
ATOM     73  C   UNL A   1      40.250  23.838  26.869  1.00  0.00     0.000 A 
ENDBRANCH  49  68
BRANCH  61  74
ATOM     74  C   UNL A   1      47.343  29.572  28.823  1.00  0.00    -0.014 A 
ATOM     75  C   UNL A   1      48.065  29.094  29.926  1.00  0.00     0.009 A 
ATOM     76  C   UNL A   1      47.965  29.621  27.566  1.00  0.00     0.009 A 
ATOM     77  C   UNL A   1      49.403  28.725  29.784  1.00  0.00     0.001 A 
ATOM     78  C   UNL A   1      49.292  29.216  27.419  1.00  0.00     0.001 A 
ATOM     79  C   UNL A   1      50.014  28.784  28.531  1.00  0.00     0.000 A 
ENDBRANCH  61  74
ENDBRANCH  35  36
ENDBRANCH  28  30
ENDBRANCH  27  28
ENDBRANCH  26  27
ENDBRANCH  25  26
ENDBRANCH  24  25
ENDBRANCH  23  24
ENDBRANCH   1  23
TORSDOF 20
ENDMDL
MODEL 3
REMARK VINA RESULT:      -8.9      4.020      7.708
REMARK SMILES C[C@@H](C(=O)OCCOCCOCCOC(=O)c1ccc(-c2c3nc(c(-c4ccccc4)c4ccc([nH]4)c(-c4ccccc4)c4nc(c(-c5ccccc5)c5ccc2[nH]5)C=C4)C=C3)cc1)N(C)c1ccc(C(N)=O)nn1
REMARK SMILES IDX 9 1 8 2 7 3 6 4 5 5 3 6 4 7 2 8 1 9 65 10 66 11 67 12 68 13
REMARK SMILES IDX 75 14 69 15 74 16 70 17 71 18 72 19 73 20 10 23 11 24 12 25
REMARK SMILES IDX 13 26 14 27 15 28 16 29 17 30 18 31 64 32 19 33 63 34 20 35
REMARK SMILES IDX 21 36 22 37 57 38 23 39 62 40 56 41 58 42 24 43 61 44 55 45
REMARK SMILES IDX 54 46 25 48 47 49 32 50 46 51 33 52 36 53 45 54 59 55 34 56
REMARK SMILES IDX 35 57 44 59 60 60 37 61 26 62 27 63 31 64 28 65 30 66 29 67
REMARK SMILES IDX 48 68 49 69 53 70 50 71 52 72 51 73 38 74 39 75 43 76 40 77
REMARK SMILES IDX 42 78 41 79
REMARK H PARENT 72 21 72 22 58 47 36 58
REMARK Flexibility Score: inf
ROOT
ATOM      1  C   UNL A   1      32.089  29.697  25.985  1.00  0.00     0.188 C 
ENDROOT
BRANCH   1   2
ATOM      2  O   UNL A   1      31.200  29.735  24.889  1.00  0.00    -0.376 OA
BRANCH   2   3
ATOM      3  C   UNL A   1      31.042  28.536  24.155  1.00  0.00     0.202 C 
BRANCH   3   4
ATOM      4  C   UNL A   1      31.606  27.222  24.741  1.00  0.00     0.261 C 
BRANCH   4   5
ATOM      5  O   UNL A   1      30.739  26.053  24.674  1.00  0.00    -0.462 OA
BRANCH   5   6
ATOM      6  C   UNL A   1      31.190  24.941  24.007  1.00  0.00     0.328 C 
ATOM      7  O   UNL A   1      30.448  24.197  23.370  1.00  0.00    -0.250 OA
BRANCH   6   8
ATOM      8  C   UNL A   1      32.724  24.649  24.189  1.00  0.00     0.190 C 
ATOM      9  C   UNL A   1      33.612  24.476  22.958  1.00  0.00     0.044 C 
BRANCH   8  10
ATOM     10  N   UNL A   1      33.091  23.671  25.287  1.00  0.00    -0.345 N 
ATOM     11  C   UNL A   1      32.291  23.813  26.503  1.00  0.00     0.146 C 
BRANCH  10  12
ATOM     12  C   UNL A   1      33.469  22.326  25.052  1.00  0.00     0.151 A 
ATOM     13  C   UNL A   1      32.239  21.226  24.403  1.00  0.00     0.051 A 
ATOM     14  N   UNL A   1      35.042  21.779  25.356  1.00  0.00    -0.132 NA
ATOM     15  C   UNL A   1      32.535  19.491  24.085  1.00  0.00     0.040 A 
ATOM     16  N   UNL A   1      35.462  20.089  25.088  1.00  0.00    -0.143 NA
ATOM     17  C   UNL A   1      34.157  18.812  24.409  1.00  0.00     0.150 A 
BRANCH  17  18
ATOM     18  C   UNL A   1      34.154  17.275  24.337  1.00  0.00     0.269 C 
ATOM     19  N   UNL A   1      34.038  16.557  23.171  1.00  0.00    -0.364 N 
ATOM     20  O   UNL A   1      34.107  16.643  25.390  1.00  0.00    -0.268 OA
ATOM     21  H   UNL A   1      34.070  17.020  22.302  1.00  0.00     0.160 HD
ATOM     22  H   UNL A   1      33.924  15.580  23.203  1.00  0.00     0.160 HD
ENDBRANCH  17  18
ENDBRANCH  10  12
ENDBRANCH   8  10
ENDBRANCH   6   8
ENDBRANCH   5   6
ENDBRANCH   4   5
ENDBRANCH   3   4
ENDBRANCH   2   3
ENDBRANCH   1   2
BRANCH   1  23
ATOM     23  C   UNL A   1      32.273  30.980  26.831  1.00  0.00     0.188 C 
BRANCH  23  24
ATOM     24  O   UNL A   1      31.398  32.062  26.667  1.00  0.00    -0.376 OA
BRANCH  24  25
ATOM     25  C   UNL A   1      31.889  33.363  26.940  1.00  0.00     0.202 C 
BRANCH  25  26
ATOM     26  C   UNL A   1      33.052  33.666  27.915  1.00  0.00     0.261 C 
BRANCH  26  27
ATOM     27  O   UNL A   1      32.716  34.349  29.137  1.00  0.00    -0.460 OA
BRANCH  27  28
ATOM     28  C   UNL A   1      33.785  34.651  29.917  1.00  0.00     0.338 C 
ATOM     29  O   UNL A   1      33.824  35.475  30.816  1.00  0.00    -0.246 OA
BRANCH  28  30
ATOM     30  C   UNL A   1      34.842  33.635  29.803  1.00  0.00     0.060 A 
ATOM     31  C   UNL A   1      34.802  32.275  30.966  1.00  0.00     0.016 A 
ATOM     32  C   UNL A   1      36.307  33.933  28.933  1.00  0.00     0.016 A 
ATOM     33  C   UNL A   1      36.497  31.216  31.261  1.00  0.00     0.010 A 
ATOM     34  C   UNL A   1      37.785  33.005  29.186  1.00  0.00     0.010 A 
ATOM     35  C   UNL A   1      37.954  31.727  30.371  1.00  0.00    -0.014 A 
BRANCH  35  36
ATOM     36  C   UNL A   1      39.315  31.265  30.713  1.00  0.00     0.031 A 
ATOM     37  C   UNL A   1      39.986  30.108  30.008  1.00  0.00     0.074 A 
ATOM     38  C   UNL A   1      39.855  31.792  31.814  1.00  0.00     0.049 A 
ATOM     39  N   UNL A   1      40.872  29.250  30.453  1.00  0.00    -0.248 NA
ATOM     40  C   UNL A   1      39.568  29.832  28.632  1.00  0.00     0.031 C 
ATOM     41  C   UNL A   1      39.294  32.915  32.560  1.00  0.00     0.029 A 
ATOM     42  N   UNL A   1      40.962  31.414  32.516  1.00  0.00    -0.354 N 
ATOM     43  C   UNL A   1      41.018  28.280  29.454  1.00  0.00     0.074 A 
ATOM     44  C   UNL A   1      40.091  28.632  28.407  1.00  0.00     0.031 C 
ATOM     45  C   UNL A   1      40.044  33.113  33.653  1.00  0.00     0.029 A 
ATOM     46  C   UNL A   1      41.096  32.102  33.692  1.00  0.00     0.049 A 
ATOM     47  H   UNL A   1      41.595  30.723  32.211  1.00  0.00     0.167 HD
ATOM     48  C   UNL A   1      41.877  27.228  29.402  1.00  0.00     0.031 A 
ATOM     49  C   UNL A   1      41.954  31.904  34.705  1.00  0.00     0.031 A 
ATOM     50  C   UNL A   1      42.933  27.046  30.371  1.00  0.00     0.049 A 
ATOM     51  C   UNL A   1      42.973  30.813  34.581  1.00  0.00     0.074 A 
ATOM     52  C   UNL A   1      43.973  26.132  30.361  1.00  0.00     0.029 A 
ATOM     53  N   UNL A   1      43.114  27.844  31.491  1.00  0.00    -0.354 N 
ATOM     54  N   UNL A   1      43.079  29.881  33.662  1.00  0.00    -0.248 NA
ATOM     55  C   UNL A   1      44.017  30.776  35.608  1.00  0.00     0.031 C 
ATOM     56  C   UNL A   1      44.762  26.357  31.494  1.00  0.00     0.029 A 
ATOM     57  C   UNL A   1      44.249  27.449  32.176  1.00  0.00     0.049 A 
ATOM     58  H   UNL A   1      42.521  28.584  31.759  1.00  0.00     0.167 HD
ATOM     59  C   UNL A   1      44.223  29.163  33.982  1.00  0.00     0.074 A 
ATOM     60  C   UNL A   1      44.782  29.787  35.167  1.00  0.00     0.031 C 
ATOM     61  C   UNL A   1      44.768  28.090  33.357  1.00  0.00     0.031 A 
BRANCH  48  62
ATOM     62  C   UNL A   1      41.773  26.217  28.273  1.00  0.00    -0.014 A 
ATOM     63  C   UNL A   1      42.560  26.287  27.113  1.00  0.00     0.009 A 
ATOM     64  C   UNL A   1      40.927  25.098  28.422  1.00  0.00     0.009 A 
ATOM     65  C   UNL A   1      42.468  25.305  26.116  1.00  0.00     0.001 A 
ATOM     66  C   UNL A   1      40.870  24.094  27.448  1.00  0.00     0.001 A 
ATOM     67  C   UNL A   1      41.631  24.205  26.288  1.00  0.00     0.000 A 
ENDBRANCH  48  62
BRANCH  49  68
ATOM     68  C   UNL A   1      41.890  32.822  35.865  1.00  0.00    -0.014 A 
ATOM     69  C   UNL A   1      41.043  32.526  36.941  1.00  0.00     0.009 A 
ATOM     70  C   UNL A   1      42.775  33.907  35.966  1.00  0.00     0.009 A 
ATOM     71  C   UNL A   1      41.080  33.302  38.099  1.00  0.00     0.001 A 
ATOM     72  C   UNL A   1      42.832  34.661  37.139  1.00  0.00     0.001 A 
ATOM     73  C   UNL A   1      41.982  34.360  38.202  1.00  0.00     0.000 A 
ENDBRANCH  49  68
BRANCH  61  74
ATOM     74  C   UNL A   1      46.049  27.559  33.935  1.00  0.00    -0.014 A 
ATOM     75  C   UNL A   1      46.041  26.556  34.916  1.00  0.00     0.009 A 
ATOM     76  C   UNL A   1      47.277  28.065  33.484  1.00  0.00     0.009 A 
ATOM     77  C   UNL A   1      47.239  26.110  35.476  1.00  0.00     0.001 A 
ATOM     78  C   UNL A   1      48.475  27.592  34.018  1.00  0.00     0.001 A 
ATOM     79  C   UNL A   1      48.454  26.627  35.024  1.00  0.00     0.000 A 
ENDBRANCH  61  74
ENDBRANCH  35  36
ENDBRANCH  28  30
ENDBRANCH  27  28
ENDBRANCH  26  27
ENDBRANCH  25  26
ENDBRANCH  24  25
ENDBRANCH  23  24
ENDBRANCH   1  23
TORSDOF 20
ENDMDL
