MODEL 1
REMARK VINA RESULT:     -10.4      0.000      0.000
REMARK SMILES Cc1ccc(O[C@H](C)C(=O)NNC(=O)[C@@H]2[C@@H](C(=O)OCCOCCOCCOC(=O)c3ccc(-c4c5nc(c(-c6ccccc6)c6ccc([nH]6)c(-c6ccccc6)c6nc(c(-c7ccccc7)c7ccc4[nH]7)C=C6)C=C5)cc3)[C@@H]3C=C[C@H]2C3)cc1C
REMARK SMILES IDX 22 1 21 2 20 3 19 4 17 5 18 6 16 7 15 8 82 9 79 10 81 11
REMARK SMILES IDX 83 12 80 13 13 14 12 15 14 17 11 18 9 19 10 20 7 22 8 23
REMARK SMILES IDX 6 24 5 25 1 26 2 27 3 28 85 29 4 30 84 31 86 32 23 33 24 34
REMARK SMILES IDX 25 35 26 36 27 37 28 38 29 39 30 40 31 41 32 42 78 43 33 44
REMARK SMILES IDX 77 45 34 46 35 47 36 48 71 49 37 50 76 51 70 52 72 53 38 54
REMARK SMILES IDX 75 55 69 56 68 57 39 59 61 60 46 61 60 62 47 63 50 64 59 65
REMARK SMILES IDX 73 66 48 67 49 68 58 70 74 71 51 72 40 73 41 74 45 75 42 76
REMARK SMILES IDX 44 77 43 78 62 79 63 80 67 81 64 82 66 83 65 84 52 85 53 86
REMARK SMILES IDX 57 87 54 88 56 89 55 90
REMARK H PARENT 12 16 11 21 72 58 50 69
REMARK Flexibility Score: inf
ROOT
ATOM      1  O   UNL A   1      34.084  31.048  28.367  1.00  0.00    -0.376 OA
ENDROOT
BRANCH   1   2
ATOM      2  C   UNL A   1      34.572  30.073  27.445  1.00  0.00     0.202 C 
BRANCH   2   3
ATOM      3  C   UNL A   1      33.535  29.375  26.545  1.00  0.00     0.261 C 
BRANCH   3   4
ATOM      4  O   UNL A   1      33.783  27.976  26.246  1.00  0.00    -0.463 OA
BRANCH   4   5
ATOM      5  C   UNL A   1      33.407  27.572  25.002  1.00  0.00     0.310 C 
ATOM      6  O   UNL A   1      34.059  27.795  23.986  1.00  0.00    -0.252 OA
BRANCH   5   7
ATOM      7  C   UNL A   1      32.089  26.817  24.928  1.00  0.00     0.119 C 
ATOM      8  C   UNL A   1      32.045  25.344  24.360  1.00  0.00     0.102 C 
ATOM      9  C   UNL A   1      30.995  25.473  23.222  1.00  0.00     0.025 C 
ATOM     10  C   UNL A   1      31.129  27.574  23.962  1.00  0.00     0.027 C 
ATOM     11  C   UNL A   1      29.641  25.834  23.786  1.00  0.00    -0.027 C 
ATOM     12  C   UNL A   1      31.352  26.840  22.640  1.00  0.00     0.017 C 
ATOM     13  C   UNL A   1      29.725  27.093  24.239  1.00  0.00    -0.027 C 
BRANCH   8  14
ATOM     14  C   UNL A   1      31.771  24.374  25.518  1.00  0.00     0.242 C 
ATOM     15  N   UNL A   1      31.747  23.011  25.380  1.00  0.00    -0.267 N 
ATOM     16  H   UNL A   1      31.674  22.487  26.210  1.00  0.00     0.191 HD
ATOM     17  O   UNL A   1      31.651  24.814  26.667  1.00  0.00    -0.273 OA
BRANCH  15  18
ATOM     18  N   UNL A   1      31.812  22.296  24.198  1.00  0.00    -0.264 N 
ATOM     19  C   UNL A   1      32.401  21.058  24.067  1.00  0.00     0.279 C 
ATOM     20  O   UNL A   1      32.189  20.412  23.038  1.00  0.00    -0.269 OA
ATOM     21  H   UNL A   1      31.411  22.700  23.395  1.00  0.00     0.191 HD
BRANCH  19  22
ATOM     22  C   UNL A   1      33.416  20.571  25.119  1.00  0.00     0.260 C 
ATOM     23  C   UNL A   1      32.931  19.204  25.625  1.00  0.00     0.064 C 
BRANCH  22  24
ATOM     24  O   UNL A   1      34.743  20.514  24.596  1.00  0.00    -0.481 OA
BRANCH  24  25
ATOM     25  C   UNL A   1      35.628  21.499  24.955  1.00  0.00     0.120 A 
ATOM     26  C   UNL A   1      38.601  24.290  26.422  1.00  0.00     0.044 C 
ATOM     27  C   UNL A   1      37.608  23.299  25.879  1.00  0.00    -0.048 A 
ATOM     28  C   UNL A   1      36.311  23.737  25.582  1.00  0.00     0.007 A 
ATOM     29  C   UNL A   1      37.933  21.948  25.663  1.00  0.00    -0.045 A 
ATOM     30  C   UNL A   1      35.336  22.852  25.111  1.00  0.00     0.047 A 
ATOM     31  C   UNL A   1      36.933  21.064  25.207  1.00  0.00     0.050 A 
ATOM     32  C   UNL A   1      39.312  21.391  25.893  1.00  0.00     0.045 C 
ENDBRANCH  24  25
ENDBRANCH  22  24
ENDBRANCH  19  22
ENDBRANCH  15  18
ENDBRANCH   8  14
ENDBRANCH   5   7
ENDBRANCH   4   5
ENDBRANCH   3   4
ENDBRANCH   2   3
ENDBRANCH   1   2
BRANCH   1  33
ATOM     33  C   UNL A   1      34.300  32.403  28.007  1.00  0.00     0.188 C 
BRANCH  33  34
ATOM     34  C   UNL A   1      35.338  33.159  28.838  1.00  0.00     0.188 C 
BRANCH  34  35
ATOM     35  O   UNL A   1      34.987  34.492  29.176  1.00  0.00    -0.376 OA
BRANCH  35  36
ATOM     36  C   UNL A   1      33.686  34.943  28.794  1.00  0.00     0.202 C 
BRANCH  36  37
ATOM     37  C   UNL A   1      32.957  35.912  29.748  1.00  0.00     0.261 C 
BRANCH  37  38
ATOM     38  O   UNL A   1      32.393  35.324  30.939  1.00  0.00    -0.460 OA
BRANCH  38  39
ATOM     39  C   UNL A   1      32.747  35.843  32.141  1.00  0.00     0.338 C 
ATOM     40  O   UNL A   1      32.114  36.630  32.808  1.00  0.00    -0.246 OA
BRANCH  39  41
ATOM     41  C   UNL A   1      33.921  35.075  32.648  1.00  0.00     0.060 A 
ATOM     42  C   UNL A   1      35.181  35.689  32.593  1.00  0.00     0.016 A 
ATOM     43  C   UNL A   1      33.792  33.809  33.228  1.00  0.00     0.016 A 
ATOM     44  C   UNL A   1      36.315  35.029  33.074  1.00  0.00     0.010 A 
ATOM     45  C   UNL A   1      34.930  33.141  33.695  1.00  0.00     0.010 A 
ATOM     46  C   UNL A   1      36.202  33.732  33.588  1.00  0.00    -0.014 A 
BRANCH  46  47
ATOM     47  C   UNL A   1      37.421  32.907  33.794  1.00  0.00     0.031 A 
ATOM     48  C   UNL A   1      38.192  33.096  35.074  1.00  0.00     0.074 A 
ATOM     49  C   UNL A   1      37.835  31.991  32.900  1.00  0.00     0.049 A 
ATOM     50  N   UNL A   1      39.324  32.563  35.454  1.00  0.00    -0.248 NA
ATOM     51  C   UNL A   1      37.598  34.016  36.060  1.00  0.00     0.031 C 
ATOM     52  C   UNL A   1      37.152  31.643  31.656  1.00  0.00     0.029 A 
ATOM     53  N   UNL A   1      38.948  31.183  32.909  1.00  0.00    -0.354 N 
ATOM     54  C   UNL A   1      39.586  33.094  36.711  1.00  0.00     0.074 A 
ATOM     55  C   UNL A   1      38.508  34.007  37.019  1.00  0.00     0.031 C 
ATOM     56  C   UNL A   1      37.865  30.696  31.019  1.00  0.00     0.029 A 
ATOM     57  C   UNL A   1      39.076  30.403  31.785  1.00  0.00     0.049 A 
ATOM     58  H   UNL A   1      39.593  31.165  33.653  1.00  0.00     0.167 HD
ATOM     59  C   UNL A   1      40.627  32.846  37.540  1.00  0.00     0.031 A 
ATOM     60  C   UNL A   1      40.070  29.574  31.406  1.00  0.00     0.031 A 
ATOM     61  C   UNL A   1      41.709  31.950  37.237  1.00  0.00     0.049 A 
ATOM     62  C   UNL A   1      41.273  29.393  32.299  1.00  0.00     0.074 A 
ATOM     63  C   UNL A   1      42.814  31.642  38.011  1.00  0.00     0.029 A 
ATOM     64  N   UNL A   1      41.826  31.223  36.064  1.00  0.00    -0.354 N 
ATOM     65  N   UNL A   1      41.515  29.905  33.481  1.00  0.00    -0.248 NA
ATOM     66  C   UNL A   1      42.345  28.515  31.799  1.00  0.00     0.031 C 
ATOM     67  C   UNL A   1      43.629  30.772  37.281  1.00  0.00     0.029 A 
ATOM     68  C   UNL A   1      42.997  30.486  36.082  1.00  0.00     0.049 A 
ATOM     69  H   UNL A   1      41.172  31.228  35.327  1.00  0.00     0.167 HD
ATOM     70  C   UNL A   1      42.742  29.385  33.879  1.00  0.00     0.074 A 
ATOM     71  C   UNL A   1      43.193  28.511  32.818  1.00  0.00     0.031 C 
ATOM     72  C   UNL A   1      43.432  29.609  35.025  1.00  0.00     0.031 A 
BRANCH  59  73
ATOM     73  C   UNL A   1      40.666  33.602  38.837  1.00  0.00    -0.014 A 
ATOM     74  C   UNL A   1      41.270  34.865  38.932  1.00  0.00     0.009 A 
ATOM     75  C   UNL A   1      40.076  33.043  39.981  1.00  0.00     0.009 A 
ATOM     76  C   UNL A   1      41.314  35.536  40.156  1.00  0.00     0.001 A 
ATOM     77  C   UNL A   1      40.093  33.730  41.196  1.00  0.00     0.001 A 
ATOM     78  C   UNL A   1      40.721  34.970  41.284  1.00  0.00     0.000 A 
ENDBRANCH  59  73
BRANCH  60  79
ATOM     79  C   UNL A   1      40.003  28.869  30.096  1.00  0.00    -0.014 A 
ATOM     80  C   UNL A   1      40.387  29.516  28.911  1.00  0.00     0.009 A 
ATOM     81  C   UNL A   1      39.507  27.558  30.019  1.00  0.00     0.009 A 
ATOM     82  C   UNL A   1      40.249  28.875  27.676  1.00  0.00     0.001 A 
ATOM     83  C   UNL A   1      39.401  26.909  28.788  1.00  0.00     0.001 A 
ATOM     84  C   UNL A   1      39.761  27.570  27.617  1.00  0.00     0.000 A 
ENDBRANCH  60  79
BRANCH  72  85
ATOM     85  C   UNL A   1      44.721  28.860  35.225  1.00  0.00    -0.014 A 
ATOM     86  C   UNL A   1      45.966  29.461  34.984  1.00  0.00     0.009 A 
ATOM     87  C   UNL A   1      44.686  27.548  35.727  1.00  0.00     0.009 A 
ATOM     88  C   UNL A   1      47.148  28.752  35.215  1.00  0.00     0.001 A 
ATOM     89  C   UNL A   1      45.868  26.853  35.984  1.00  0.00     0.001 A 
ATOM     90  C   UNL A   1      47.098  27.453  35.720  1.00  0.00     0.000 A 
ENDBRANCH  72  85
ENDBRANCH  46  47
ENDBRANCH  39  41
ENDBRANCH  38  39
ENDBRANCH  37  38
ENDBRANCH  36  37
ENDBRANCH  35  36
ENDBRANCH  34  35
ENDBRANCH  33  34
ENDBRANCH   1  33
TORSDOF 22
ENDMDL
MODEL 2
REMARK VINA RESULT:     -10.3      1.420      2.267
REMARK SMILES Cc1ccc(O[C@H](C)C(=O)NNC(=O)[C@@H]2[C@@H](C(=O)OCCOCCOCCOC(=O)c3ccc(-c4c5nc(c(-c6ccccc6)c6ccc([nH]6)c(-c6ccccc6)c6nc(c(-c7ccccc7)c7ccc4[nH]7)C=C6)C=C5)cc3)[C@@H]3C=C[C@H]2C3)cc1C
REMARK SMILES IDX 22 1 21 2 20 3 19 4 17 5 18 6 16 7 15 8 82 9 79 10 81 11
REMARK SMILES IDX 83 12 80 13 13 14 12 15 14 17 11 18 9 19 10 20 7 22 8 23
REMARK SMILES IDX 6 24 5 25 1 26 2 27 3 28 85 29 4 30 84 31 86 32 23 33 24 34
REMARK SMILES IDX 25 35 26 36 27 37 28 38 29 39 30 40 31 41 32 42 78 43 33 44
REMARK SMILES IDX 77 45 34 46 35 47 36 48 71 49 37 50 76 51 70 52 72 53 38 54
REMARK SMILES IDX 75 55 69 56 68 57 39 59 61 60 46 61 60 62 47 63 50 64 59 65
REMARK SMILES IDX 73 66 48 67 49 68 58 70 74 71 51 72 40 73 41 74 45 75 42 76
REMARK SMILES IDX 44 77 43 78 62 79 63 80 67 81 64 82 66 83 65 84 52 85 53 86
REMARK SMILES IDX 57 87 54 88 56 89 55 90
REMARK H PARENT 12 16 11 21 72 58 50 69
REMARK Flexibility Score: inf
ROOT
ATOM      1  O   UNL A   1      34.964  31.529  29.157  1.00  0.00    -0.376 OA
ENDROOT
BRANCH   1   2
ATOM      2  C   UNL A   1      34.817  31.170  27.783  1.00  0.00     0.202 C 
BRANCH   2   3
ATOM      3  C   UNL A   1      33.396  31.225  27.190  1.00  0.00     0.261 C 
BRANCH   3   4
ATOM      4  O   UNL A   1      32.784  29.947  26.871  1.00  0.00    -0.463 OA
BRANCH   4   5
ATOM      5  C   UNL A   1      31.756  30.001  25.982  1.00  0.00     0.310 C 
ATOM      6  O   UNL A   1      31.152  31.032  25.698  1.00  0.00    -0.252 OA
BRANCH   5   7
ATOM      7  C   UNL A   1      31.369  28.674  25.346  1.00  0.00     0.119 C 
ATOM      8  C   UNL A   1      32.481  27.615  24.976  1.00  0.00     0.102 C 
ATOM      9  C   UNL A   1      32.210  27.385  23.464  1.00  0.00     0.025 C 
ATOM     10  C   UNL A   1      30.704  28.952  23.965  1.00  0.00     0.027 C 
ATOM     11  C   UNL A   1      30.844  26.774  23.255  1.00  0.00    -0.027 C 
ATOM     12  C   UNL A   1      31.880  28.803  23.000  1.00  0.00     0.017 C 
ATOM     13  C   UNL A   1      29.940  27.713  23.565  1.00  0.00    -0.027 C 
BRANCH   8  14
ATOM     14  C   UNL A   1      32.372  26.425  25.940  1.00  0.00     0.242 C 
ATOM     15  N   UNL A   1      33.215  25.344  25.914  1.00  0.00    -0.267 N 
ATOM     16  H   UNL A   1      33.122  24.697  26.650  1.00  0.00     0.191 HD
ATOM     17  O   UNL A   1      31.546  26.458  26.859  1.00  0.00    -0.273 OA
BRANCH  15  18
ATOM     18  N   UNL A   1      34.179  25.067  24.962  1.00  0.00    -0.264 N 
ATOM     19  C   UNL A   1      33.943  24.387  23.789  1.00  0.00     0.279 C 
ATOM     20  O   UNL A   1      34.811  24.409  22.911  1.00  0.00    -0.269 OA
ATOM     21  H   UNL A   1      35.097  25.375  25.137  1.00  0.00     0.191 HD
BRANCH  19  22
ATOM     22  C   UNL A   1      32.689  23.503  23.647  1.00  0.00     0.260 C 
ATOM     23  C   UNL A   1      32.852  22.681  22.359  1.00  0.00     0.064 C 
BRANCH  22  24
ATOM     24  O   UNL A   1      32.485  22.677  24.793  1.00  0.00    -0.481 OA
BRANCH  24  25
ATOM     25  C   UNL A   1      32.981  21.398  24.772  1.00  0.00     0.120 A 
ATOM     26  C   UNL A   1      34.911  17.534  24.419  1.00  0.00     0.044 C 
ATOM     27  C   UNL A   1      34.276  18.888  24.583  1.00  0.00    -0.048 A 
ATOM     28  C   UNL A   1      32.880  18.991  24.513  1.00  0.00     0.007 A 
ATOM     29  C   UNL A   1      35.032  20.053  24.801  1.00  0.00    -0.045 A 
ATOM     30  C   UNL A   1      32.239  20.230  24.621  1.00  0.00     0.047 A 
ATOM     31  C   UNL A   1      34.371  21.296  24.887  1.00  0.00     0.050 A 
ATOM     32  C   UNL A   1      36.529  20.041  24.953  1.00  0.00     0.045 C 
ENDBRANCH  24  25
ENDBRANCH  22  24
ENDBRANCH  19  22
ENDBRANCH  15  18
ENDBRANCH   8  14
ENDBRANCH   5   7
ENDBRANCH   4   5
ENDBRANCH   3   4
ENDBRANCH   2   3
ENDBRANCH   1   2
BRANCH   1  33
ATOM     33  C   UNL A   1      34.463  32.805  29.521  1.00  0.00     0.188 C 
BRANCH  33  34
ATOM     34  C   UNL A   1      34.944  33.981  28.670  1.00  0.00     0.188 C 
BRANCH  34  35
ATOM     35  O   UNL A   1      34.454  35.253  29.064  1.00  0.00    -0.376 OA
BRANCH  35  36
ATOM     36  C   UNL A   1      33.041  35.389  29.227  1.00  0.00     0.202 C 
BRANCH  36  37
ATOM     37  C   UNL A   1      32.538  36.283  30.379  1.00  0.00     0.261 C 
BRANCH  37  38
ATOM     38  O   UNL A   1      32.332  35.626  31.648  1.00  0.00    -0.460 OA
BRANCH  38  39
ATOM     39  C   UNL A   1      33.120  35.986  32.692  1.00  0.00     0.338 C 
ATOM     40  O   UNL A   1      32.834  36.743  33.591  1.00  0.00    -0.246 OA
BRANCH  39  41
ATOM     41  C   UNL A   1      34.305  35.081  32.709  1.00  0.00     0.060 A 
ATOM     42  C   UNL A   1      34.120  33.767  33.167  1.00  0.00     0.016 A 
ATOM     43  C   UNL A   1      35.557  35.476  32.227  1.00  0.00     0.016 A 
ATOM     44  C   UNL A   1      35.187  32.864  33.185  1.00  0.00     0.010 A 
ATOM     45  C   UNL A   1      36.629  34.577  32.260  1.00  0.00     0.010 A 
ATOM     46  C   UNL A   1      36.459  33.278  32.773  1.00  0.00    -0.014 A 
BRANCH  46  47
ATOM     47  C   UNL A   1      37.649  32.447  33.091  1.00  0.00     0.031 A 
ATOM     48  C   UNL A   1      38.364  32.707  34.392  1.00  0.00     0.074 A 
ATOM     49  C   UNL A   1      38.086  31.467  32.280  1.00  0.00     0.049 A 
ATOM     50  N   UNL A   1      39.465  32.180  34.859  1.00  0.00    -0.248 NA
ATOM     51  C   UNL A   1      37.743  33.701  35.285  1.00  0.00     0.031 C 
ATOM     52  C   UNL A   1      37.455  31.049  31.029  1.00  0.00     0.029 A 
ATOM     53  N   UNL A   1      39.181  30.642  32.396  1.00  0.00    -0.354 N 
ATOM     54  C   UNL A   1      39.679  32.789  36.090  1.00  0.00     0.074 A 
ATOM     55  C   UNL A   1      38.606  33.740  36.286  1.00  0.00     0.031 C 
ATOM     56  C   UNL A   1      38.178  30.050  30.491  1.00  0.00     0.029 A 
ATOM     57  C   UNL A   1      39.344  29.787  31.332  1.00  0.00     0.049 A 
ATOM     58  H   UNL A   1      39.789  30.661  33.169  1.00  0.00     0.167 HD
ATOM     59  C   UNL A   1      40.674  32.578  36.983  1.00  0.00     0.031 A 
ATOM     60  C   UNL A   1      40.337  28.917  31.057  1.00  0.00     0.031 A 
ATOM     61  C   UNL A   1      41.751  31.646  36.792  1.00  0.00     0.049 A 
ATOM     62  C   UNL A   1      41.494  28.774  32.016  1.00  0.00     0.074 A 
ATOM     63  C   UNL A   1      42.811  31.370  37.637  1.00  0.00     0.029 A 
ATOM     64  N   UNL A   1      41.907  30.840  35.676  1.00  0.00    -0.354 N 
ATOM     65  N   UNL A   1      41.690  29.359  33.173  1.00  0.00    -0.248 NA
ATOM     66  C   UNL A   1      42.569  27.847  31.628  1.00  0.00     0.031 C 
ATOM     67  C   UNL A   1      43.642  30.439  37.006  1.00  0.00     0.029 A 
ATOM     68  C   UNL A   1      43.061  30.085  35.799  1.00  0.00     0.049 A 
ATOM     69  H   UNL A   1      41.289  30.808  34.910  1.00  0.00     0.167 HD
ATOM     70  C   UNL A   1      42.886  28.845  33.663  1.00  0.00     0.074 A 
ATOM     71  C   UNL A   1      43.369  27.895  32.684  1.00  0.00     0.031 C 
ATOM     72  C   UNL A   1      43.526  29.133  34.824  1.00  0.00     0.031 A 
BRANCH  59  73
ATOM     73  C   UNL A   1      40.668  33.418  38.228  1.00  0.00    -0.014 A 
ATOM     74  C   UNL A   1      39.954  33.028  39.373  1.00  0.00     0.009 A 
ATOM     75  C   UNL A   1      41.401  34.614  38.260  1.00  0.00     0.009 A 
ATOM     76  C   UNL A   1      39.946  33.838  40.509  1.00  0.00     0.001 A 
ATOM     77  C   UNL A   1      41.417  35.407  39.408  1.00  0.00     0.001 A 
ATOM     78  C   UNL A   1      40.682  35.023  40.528  1.00  0.00     0.000 A 
ENDBRANCH  59  73
BRANCH  60  79
ATOM     79  C   UNL A   1      40.317  28.128  29.794  1.00  0.00    -0.014 A 
ATOM     80  C   UNL A   1      40.992  28.584  28.650  1.00  0.00     0.009 A 
ATOM     81  C   UNL A   1      39.581  26.935  29.713  1.00  0.00     0.009 A 
ATOM     82  C   UNL A   1      40.906  27.877  27.447  1.00  0.00     0.001 A 
ATOM     83  C   UNL A   1      39.523  26.215  28.518  1.00  0.00     0.001 A 
ATOM     84  C   UNL A   1      40.175  26.691  27.384  1.00  0.00     0.000 A 
ENDBRANCH  60  79
BRANCH  72  85
ATOM     85  C   UNL A   1      44.788  28.376  35.135  1.00  0.00    -0.014 A 
ATOM     86  C   UNL A   1      46.052  28.877  34.785  1.00  0.00     0.009 A 
ATOM     87  C   UNL A   1      44.711  27.169  35.848  1.00  0.00     0.009 A 
ATOM     88  C   UNL A   1      47.209  28.170  35.120  1.00  0.00     0.001 A 
ATOM     89  C   UNL A   1      45.870  26.479  36.207  1.00  0.00     0.001 A 
ATOM     90  C   UNL A   1      47.117  26.976  35.836  1.00  0.00     0.000 A 
ENDBRANCH  72  85
ENDBRANCH  46  47
ENDBRANCH  39  41
ENDBRANCH  38  39
ENDBRANCH  37  38
ENDBRANCH  36  37
ENDBRANCH  35  36
ENDBRANCH  34  35
ENDBRANCH  33  34
ENDBRANCH   1  33
TORSDOF 22
ENDMDL
MODEL 3
REMARK VINA RESULT:     -10.2      1.946      3.217
REMARK SMILES Cc1ccc(O[C@H](C)C(=O)NNC(=O)[C@@H]2[C@@H](C(=O)OCCOCCOCCOC(=O)c3ccc(-c4c5nc(c(-c6ccccc6)c6ccc([nH]6)c(-c6ccccc6)c6nc(c(-c7ccccc7)c7ccc4[nH]7)C=C6)C=C5)cc3)[C@@H]3C=C[C@H]2C3)cc1C
REMARK SMILES IDX 22 1 21 2 20 3 19 4 17 5 18 6 16 7 15 8 82 9 79 10 81 11
REMARK SMILES IDX 83 12 80 13 13 14 12 15 14 17 11 18 9 19 10 20 7 22 8 23
REMARK SMILES IDX 6 24 5 25 1 26 2 27 3 28 85 29 4 30 84 31 86 32 23 33 24 34
REMARK SMILES IDX 25 35 26 36 27 37 28 38 29 39 30 40 31 41 32 42 78 43 33 44
REMARK SMILES IDX 77 45 34 46 35 47 36 48 71 49 37 50 76 51 70 52 72 53 38 54
REMARK SMILES IDX 75 55 69 56 68 57 39 59 61 60 46 61 60 62 47 63 50 64 59 65
REMARK SMILES IDX 73 66 48 67 49 68 58 70 74 71 51 72 40 73 41 74 45 75 42 76
REMARK SMILES IDX 44 77 43 78 62 79 63 80 67 81 64 82 66 83 65 84 52 85 53 86
REMARK SMILES IDX 57 87 54 88 56 89 55 90
REMARK H PARENT 12 16 11 21 72 58 50 69
REMARK Flexibility Score: inf
ROOT
ATOM      1  O   UNL A   1      35.095  31.272  28.966  1.00  0.00    -0.376 OA
ENDROOT
BRANCH   1   2
ATOM      2  C   UNL A   1      35.002  30.571  27.726  1.00  0.00     0.202 C 
BRANCH   2   3
ATOM      3  C   UNL A   1      33.742  30.813  26.873  1.00  0.00     0.261 C 
BRANCH   3   4
ATOM      4  O   UNL A   1      32.718  29.786  26.935  1.00  0.00    -0.463 OA
BRANCH   4   5
ATOM      5  C   UNL A   1      31.753  29.868  25.980  1.00  0.00     0.310 C 
ATOM      6  O   UNL A   1      31.225  30.921  25.632  1.00  0.00    -0.252 OA
BRANCH   5   7
ATOM      7  C   UNL A   1      31.336  28.546  25.354  1.00  0.00     0.119 C 
ATOM      8  C   UNL A   1      32.426  27.473  24.959  1.00  0.00     0.102 C 
ATOM      9  C   UNL A   1      32.118  27.247  23.452  1.00  0.00     0.025 C 
ATOM     10  C   UNL A   1      30.643  28.832  23.989  1.00  0.00     0.027 C 
ATOM     11  C   UNL A   1      30.741  26.652  23.275  1.00  0.00    -0.027 C 
ATOM     12  C   UNL A   1      31.794  28.669  22.997  1.00  0.00     0.017 C 
ATOM     13  C   UNL A   1      29.855  27.601  23.606  1.00  0.00    -0.027 C 
BRANCH   8  14
ATOM     14  C   UNL A   1      32.326  26.285  25.925  1.00  0.00     0.242 C 
ATOM     15  N   UNL A   1      33.173  25.208  25.898  1.00  0.00    -0.267 N 
ATOM     16  H   UNL A   1      33.086  24.562  26.636  1.00  0.00     0.191 HD
ATOM     17  O   UNL A   1      31.502  26.316  26.847  1.00  0.00    -0.273 OA
BRANCH  15  18
ATOM     18  N   UNL A   1      34.135  24.933  24.944  1.00  0.00    -0.264 N 
ATOM     19  C   UNL A   1      33.897  24.256  23.769  1.00  0.00     0.279 C 
ATOM     20  O   UNL A   1      34.763  24.280  22.890  1.00  0.00    -0.269 OA
ATOM     21  H   UNL A   1      35.054  25.240  25.117  1.00  0.00     0.191 HD
BRANCH  19  22
ATOM     22  C   UNL A   1      32.643  23.372  23.628  1.00  0.00     0.260 C 
ATOM     23  C   UNL A   1      32.803  22.553  22.337  1.00  0.00     0.064 C 
BRANCH  22  24
ATOM     24  O   UNL A   1      32.442  22.543  24.772  1.00  0.00    -0.481 OA
BRANCH  24  25
ATOM     25  C   UNL A   1      32.974  21.278  24.762  1.00  0.00     0.120 A 
ATOM     26  C   UNL A   1      35.016  17.468  24.448  1.00  0.00     0.044 C 
ATOM     27  C   UNL A   1      34.342  18.805  24.599  1.00  0.00    -0.048 A 
ATOM     28  C   UNL A   1      32.944  18.868  24.518  1.00  0.00     0.007 A 
ATOM     29  C   UNL A   1      35.063  19.992  24.815  1.00  0.00    -0.045 A 
ATOM     30  C   UNL A   1      32.267  20.088  24.613  1.00  0.00     0.047 A 
ATOM     31  C   UNL A   1      34.366  21.217  24.889  1.00  0.00     0.050 A 
ATOM     32  C   UNL A   1      36.558  20.023  24.978  1.00  0.00     0.045 C 
ENDBRANCH  24  25
ENDBRANCH  22  24
ENDBRANCH  19  22
ENDBRANCH  15  18
ENDBRANCH   8  14
ENDBRANCH   5   7
ENDBRANCH   4   5
ENDBRANCH   3   4
ENDBRANCH   2   3
ENDBRANCH   1   2
BRANCH   1  33
ATOM     33  C   UNL A   1      34.394  32.503  29.036  1.00  0.00     0.188 C 
BRANCH  33  34
ATOM     34  C   UNL A   1      34.984  33.657  28.223  1.00  0.00     0.188 C 
BRANCH  34  35
ATOM     35  O   UNL A   1      34.734  34.953  28.743  1.00  0.00    -0.376 OA
BRANCH  35  36
ATOM     36  C   UNL A   1      33.386  35.267  29.097  1.00  0.00     0.202 C 
BRANCH  36  37
ATOM     37  C   UNL A   1      33.105  35.660  30.563  1.00  0.00     0.261 C 
BRANCH  37  38
ATOM     38  O   UNL A   1      33.380  34.647  31.554  1.00  0.00    -0.460 OA
BRANCH  38  39
ATOM     39  C   UNL A   1      34.319  34.912  32.498  1.00  0.00     0.338 C 
ATOM     40  O   UNL A   1      34.191  35.620  33.471  1.00  0.00    -0.246 OA
BRANCH  39  41
ATOM     41  C   UNL A   1      35.454  33.965  32.297  1.00  0.00     0.060 A 
ATOM     42  C   UNL A   1      35.339  32.679  32.845  1.00  0.00     0.016 A 
ATOM     43  C   UNL A   1      36.578  34.296  31.535  1.00  0.00     0.016 A 
ATOM     44  C   UNL A   1      36.359  31.739  32.672  1.00  0.00     0.010 A 
ATOM     45  C   UNL A   1      37.607  33.360  31.375  1.00  0.00     0.010 A 
ATOM     46  C   UNL A   1      37.520  32.090  31.972  1.00  0.00    -0.014 A 
BRANCH  46  47
ATOM     47  C   UNL A   1      38.728  31.229  32.060  1.00  0.00     0.031 A 
ATOM     48  C   UNL A   1      39.705  31.498  33.176  1.00  0.00     0.074 A 
ATOM     49  C   UNL A   1      38.961  30.217  31.206  1.00  0.00     0.049 A 
ATOM     50  N   UNL A   1      40.865  30.947  33.421  1.00  0.00    -0.248 NA
ATOM     51  C   UNL A   1      39.310  32.531  34.149  1.00  0.00     0.031 C 
ATOM     52  C   UNL A   1      38.072  29.790  30.127  1.00  0.00     0.029 A 
ATOM     53  N   UNL A   1      40.034  29.361  31.116  1.00  0.00    -0.354 N 
ATOM     54  C   UNL A   1      41.346  31.578  34.562  1.00  0.00     0.074 A 
ATOM     55  C   UNL A   1      40.363  32.566  34.948  1.00  0.00     0.031 C 
ATOM     56  C   UNL A   1      38.641  28.756  29.480  1.00  0.00     0.029 A 
ATOM     57  C   UNL A   1      39.950  28.477  30.068  1.00  0.00     0.049 A 
ATOM     58  H   UNL A   1      40.790  29.380  31.746  1.00  0.00     0.167 HD
ATOM     59  C   UNL A   1      42.500  31.357  35.234  1.00  0.00     0.031 A 
ATOM     60  C   UNL A   1      40.841  27.570  29.618  1.00  0.00     0.031 A 
ATOM     61  C   UNL A   1      43.489  30.387  34.851  1.00  0.00     0.049 A 
ATOM     62  C   UNL A   1      42.168  27.413  30.320  1.00  0.00     0.074 A 
ATOM     63  C   UNL A   1      44.694  30.097  35.465  1.00  0.00     0.029 A 
ATOM     64  N   UNL A   1      43.388  29.550  33.751  1.00  0.00    -0.354 N 
ATOM     65  N   UNL A   1      42.616  28.019  31.393  1.00  0.00    -0.248 NA
ATOM     66  C   UNL A   1      43.114  26.443  29.744  1.00  0.00     0.031 C 
ATOM     67  C   UNL A   1      45.351  29.126  34.703  1.00  0.00     0.029 A 
ATOM     68  C   UNL A   1      44.522  28.763  33.654  1.00  0.00     0.049 A 
ATOM     69  H   UNL A   1      42.623  29.520  33.132  1.00  0.00     0.167 HD
ATOM     70  C   UNL A   1      43.874  27.479  31.639  1.00  0.00     0.074 A 
ATOM     71  C   UNL A   1      44.117  26.491  30.610  1.00  0.00     0.031 C 
ATOM     72  C   UNL A   1      44.749  27.774  32.632  1.00  0.00     0.031 A 
BRANCH  59  73
ATOM     73  C   UNL A   1      42.776  32.225  36.428  1.00  0.00    -0.014 A 
ATOM     74  C   UNL A   1      42.401  31.833  37.723  1.00  0.00     0.009 A 
ATOM     75  C   UNL A   1      43.434  33.452  36.254  1.00  0.00     0.009 A 
ATOM     76  C   UNL A   1      42.648  32.669  38.813  1.00  0.00     0.001 A 
ATOM     77  C   UNL A   1      43.708  34.272  37.349  1.00  0.00     0.001 A 
ATOM     78  C   UNL A   1      43.306  33.885  38.626  1.00  0.00     0.000 A 
ENDBRANCH  59  73
BRANCH  60  79
ATOM     79  C   UNL A   1      40.538  26.752  28.410  1.00  0.00    -0.014 A 
ATOM     80  C   UNL A   1      39.755  25.591  28.506  1.00  0.00     0.009 A 
ATOM     81  C   UNL A   1      41.071  27.106  27.161  1.00  0.00     0.009 A 
ATOM     82  C   UNL A   1      39.538  24.787  27.383  1.00  0.00     0.001 A 
ATOM     83  C   UNL A   1      40.826  26.318  26.034  1.00  0.00     0.001 A 
ATOM     84  C   UNL A   1      40.070  25.154  26.147  1.00  0.00     0.000 A 
ENDBRANCH  60  79
BRANCH  72  85
ATOM     85  C   UNL A   1      46.029  26.985  32.696  1.00  0.00    -0.014 A 
ATOM     86  C   UNL A   1      47.202  27.435  32.072  1.00  0.00     0.009 A 
ATOM     87  C   UNL A   1      46.072  25.801  33.451  1.00  0.00     0.009 A 
ATOM     88  C   UNL A   1      48.385  26.699  32.180  1.00  0.00     0.001 A 
ATOM     89  C   UNL A   1      47.263  25.084  33.582  1.00  0.00     0.001 A 
ATOM     90  C   UNL A   1      48.416  25.529  32.940  1.00  0.00     0.000 A 
ENDBRANCH  72  85
ENDBRANCH  46  47
ENDBRANCH  39  41
ENDBRANCH  38  39
ENDBRANCH  37  38
ENDBRANCH  36  37
ENDBRANCH  35  36
ENDBRANCH  34  35
ENDBRANCH  33  34
ENDBRANCH   1  33
TORSDOF 22
ENDMDL
