MODEL 1
REMARK VINA RESULT:     -10.1      0.000      0.000
REMARK SMILES COc1cc(/C=C/C(=O)c2ccc(OCC(=O)OCCOCCOCCOC(=O)c3ccc(-c4c5nc(c(-c6ccccc6)c6ccc([nH]6)c(-c6ccccc6)c6nc(c(-c7ccccc7)c7ccc4[nH]7)C=C6)C=C5)cc3)cc2)cc2c1OCCO2
REMARK SMILES IDX 20 1 19 2 18 3 16 4 17 5 15 6 14 7 13 8 10 9 11 10 79 11
REMARK SMILES IDX 12 12 78 13 8 14 9 15 7 16 6 17 5 18 3 19 4 20 82 21 81 22
REMARK SMILES IDX 83 23 80 24 86 25 84 26 85 27 2 28 1 29 21 30 22 31 23 32
REMARK SMILES IDX 24 33 25 34 26 35 27 36 28 37 29 38 30 39 31 40 77 41 32 42
REMARK SMILES IDX 76 43 33 44 34 45 35 46 70 47 36 48 75 49 69 50 71 51 37 52
REMARK SMILES IDX 74 53 68 54 67 55 38 57 60 58 45 59 59 60 46 61 49 62 58 63
REMARK SMILES IDX 72 64 47 65 48 66 57 68 73 69 50 70 39 71 40 72 44 73 41 74
REMARK SMILES IDX 43 75 42 76 61 77 62 78 66 79 63 80 65 81 64 82 51 83 52 84
REMARK SMILES IDX 56 85 53 86 55 87 54 88
REMARK H PARENT 71 56 49 67
REMARK Flexibility Score: inf
ROOT
ATOM      1  C   UNL A   1      41.774  18.828  25.981  1.00  0.00     0.202 C 
ENDROOT
BRANCH   1   2
ATOM      2  C   UNL A   1      42.187  19.832  27.066  1.00  0.00     0.261 C 
BRANCH   2   3
ATOM      3  O   UNL A   1      41.162  20.834  27.271  1.00  0.00    -0.461 OA
BRANCH   3   4
ATOM      4  C   UNL A   1      40.932  21.711  26.258  1.00  0.00     0.344 C 
ATOM      5  O   UNL A   1      41.804  22.163  25.523  1.00  0.00    -0.248 OA
BRANCH   4   6
ATOM      6  C   UNL A   1      39.431  21.962  26.009  1.00  0.00     0.351 C 
BRANCH   6   7
ATOM      7  O   UNL A   1      38.635  20.844  25.630  1.00  0.00    -0.482 OA
BRANCH   7   8
ATOM      8  C   UNL A   1      37.350  21.033  25.188  1.00  0.00     0.120 A 
ATOM      9  C   UNL A   1      34.652  21.761  24.670  1.00  0.00     0.022 A 
ATOM     10  C   UNL A   1      35.647  22.737  24.784  1.00  0.00     0.016 A 
ATOM     11  C   UNL A   1      35.036  20.417  24.680  1.00  0.00     0.016 A 
ATOM     12  C   UNL A   1      36.977  22.375  25.051  1.00  0.00     0.047 A 
ATOM     13  C   UNL A   1      36.387  20.057  24.918  1.00  0.00     0.047 A 
BRANCH   9  14
ATOM     14  C   UNL A   1      33.231  22.230  24.602  1.00  0.00     0.185 C 
ATOM     15  O   UNL A   1      32.317  21.416  24.685  1.00  0.00    -0.289 OA
BRANCH  14  16
ATOM     16  C   UNL A   1      32.972  23.671  24.266  1.00  0.00     0.053 C 
ATOM     17  C   UNL A   1      32.307  24.440  25.153  1.00  0.00     0.012 C 
BRANCH  17  18
ATOM     18  C   UNL A   1      31.723  25.776  24.885  1.00  0.00    -0.018 A 
ATOM     19  C   UNL A   1      31.504  28.133  25.610  1.00  0.00     0.165 A 
ATOM     20  C   UNL A   1      31.962  26.816  25.787  1.00  0.00     0.058 A 
ATOM     21  C   UNL A   1      30.871  28.455  24.416  1.00  0.00     0.203 A 
ATOM     22  C   UNL A   1      30.688  27.439  23.456  1.00  0.00     0.165 A 
ATOM     23  O   UNL A   1      30.517  29.759  24.184  1.00  0.00    -0.483 OA
ATOM     24  C   UNL A   1      31.072  26.107  23.702  1.00  0.00     0.058 A 
ATOM     25  O   UNL A   1      30.165  27.693  22.208  1.00  0.00    -0.486 OA
ATOM     26  C   UNL A   1      29.751  29.938  22.992  1.00  0.00     0.271 C 
ATOM     27  C   UNL A   1      30.305  29.080  21.873  1.00  0.00     0.271 C 
BRANCH  19  28
ATOM     28  O   UNL A   1      31.807  28.969  26.652  1.00  0.00    -0.493 OA
ATOM     29  C   UNL A   1      31.542  28.519  27.977  1.00  0.00     0.278 C 
ENDBRANCH  19  28
ENDBRANCH  17  18
ENDBRANCH  14  16
ENDBRANCH   9  14
ENDBRANCH   7   8
ENDBRANCH   6   7
ENDBRANCH   4   6
ENDBRANCH   3   4
ENDBRANCH   2   3
ENDBRANCH   1   2
BRANCH   1  30
ATOM     30  O   UNL A   1      42.858  18.074  25.443  1.00  0.00    -0.376 OA
BRANCH  30  31
ATOM     31  C   UNL A   1      44.172  18.546  25.735  1.00  0.00     0.188 C 
BRANCH  31  32
ATOM     32  C   UNL A   1      44.952  19.183  24.580  1.00  0.00     0.188 C 
BRANCH  32  33
ATOM     33  O   UNL A   1      44.602  20.556  24.444  1.00  0.00    -0.376 OA
BRANCH  33  34
ATOM     34  C   UNL A   1      45.730  21.417  24.470  1.00  0.00     0.202 C 
BRANCH  34  35
ATOM     35  C   UNL A   1      45.304  22.872  24.245  1.00  0.00     0.261 C 
BRANCH  35  36
ATOM     36  O   UNL A   1      44.703  23.597  25.358  1.00  0.00    -0.460 OA
BRANCH  36  37
ATOM     37  C   UNL A   1      44.855  24.934  25.376  1.00  0.00     0.338 C 
ATOM     38  O   UNL A   1      45.627  25.567  24.680  1.00  0.00    -0.246 OA
BRANCH  37  39
ATOM     39  C   UNL A   1      43.990  25.638  26.347  1.00  0.00     0.060 A 
ATOM     40  C   UNL A   1      44.297  26.964  26.650  1.00  0.00     0.016 A 
ATOM     41  C   UNL A   1      43.095  24.940  27.163  1.00  0.00     0.016 A 
ATOM     42  C   UNL A   1      43.762  27.576  27.789  1.00  0.00     0.010 A 
ATOM     43  C   UNL A   1      42.525  25.567  28.285  1.00  0.00     0.010 A 
ATOM     44  C   UNL A   1      42.860  26.889  28.619  1.00  0.00    -0.014 A 
BRANCH  44  45
ATOM     45  C   UNL A   1      42.188  27.597  29.748  1.00  0.00     0.031 A 
ATOM     46  C   UNL A   1      40.872  28.318  29.597  1.00  0.00     0.074 A 
ATOM     47  C   UNL A   1      42.792  27.598  30.954  1.00  0.00     0.049 A 
ATOM     48  N   UNL A   1      40.238  29.062  30.473  1.00  0.00    -0.248 NA
ATOM     49  C   UNL A   1      40.174  28.181  28.312  1.00  0.00     0.031 C 
ATOM     50  C   UNL A   1      44.050  26.917  31.265  1.00  0.00     0.029 A 
ATOM     51  N   UNL A   1      42.430  28.188  32.140  1.00  0.00    -0.354 N 
ATOM     52  C   UNL A   1      39.079  29.502  29.843  1.00  0.00     0.074 A 
ATOM     53  C   UNL A   1      39.096  28.934  28.508  1.00  0.00     0.031 C 
ATOM     54  C   UNL A   1      44.342  27.107  32.559  1.00  0.00     0.029 A 
ATOM     55  C   UNL A   1      43.337  27.983  33.150  1.00  0.00     0.049 A 
ATOM     56  H   UNL A   1      41.600  28.707  32.253  1.00  0.00     0.167 HD
ATOM     57  C   UNL A   1      38.099  30.308  30.325  1.00  0.00     0.031 A 
ATOM     58  C   UNL A   1      43.394  28.474  34.401  1.00  0.00     0.031 A 
ATOM     59  C   UNL A   1      38.070  30.881  31.649  1.00  0.00     0.049 A 
ATOM     60  C   UNL A   1      42.341  29.423  34.884  1.00  0.00     0.074 A 
ATOM     61  C   UNL A   1      37.107  31.705  32.213  1.00  0.00     0.029 A 
ATOM     62  N   UNL A   1      39.044  30.697  32.617  1.00  0.00    -0.354 N 
ATOM     63  N   UNL A   1      41.275  29.856  34.258  1.00  0.00    -0.248 NA
ATOM     64  C   UNL A   1      42.511  29.965  36.239  1.00  0.00     0.031 C 
ATOM     65  C   UNL A   1      37.519  32.053  33.504  1.00  0.00     0.029 A 
ATOM     66  C   UNL A   1      38.718  31.411  33.760  1.00  0.00     0.049 A 
ATOM     67  H   UNL A   1      39.850  30.141  32.509  1.00  0.00     0.167 HD
ATOM     68  C   UNL A   1      40.649  30.723  35.142  1.00  0.00     0.074 A 
ATOM     69  C   UNL A   1      41.440  30.736  36.355  1.00  0.00     0.031 C 
ATOM     70  C   UNL A   1      39.518  31.446  34.955  1.00  0.00     0.031 A 
BRANCH  57  71
ATOM     71  C   UNL A   1      36.971  30.669  29.398  1.00  0.00    -0.014 A 
ATOM     72  C   UNL A   1      36.900  31.931  28.790  1.00  0.00     0.009 A 
ATOM     73  C   UNL A   1      36.013  29.697  29.062  1.00  0.00     0.009 A 
ATOM     74  C   UNL A   1      35.881  32.219  27.879  1.00  0.00     0.001 A 
ATOM     75  C   UNL A   1      35.007  29.982  28.137  1.00  0.00     0.001 A 
ATOM     76  C   UNL A   1      34.938  31.244  27.550  1.00  0.00     0.000 A 
ENDBRANCH  57  71
BRANCH  58  77
ATOM     77  C   UNL A   1      44.541  28.110  35.267  1.00  0.00    -0.014 A 
ATOM     78  C   UNL A   1      45.635  28.975  35.404  1.00  0.00     0.009 A 
ATOM     79  C   UNL A   1      44.522  26.909  35.995  1.00  0.00     0.009 A 
ATOM     80  C   UNL A   1      46.690  28.643  36.255  1.00  0.00     0.001 A 
ATOM     81  C   UNL A   1      45.566  26.592  36.863  1.00  0.00     0.001 A 
ATOM     82  C   UNL A   1      46.650  27.457  36.990  1.00  0.00     0.000 A 
ENDBRANCH  58  77
BRANCH  70  83
ATOM     83  C   UNL A   1      39.075  32.313  36.098  1.00  0.00    -0.014 A 
ATOM     84  C   UNL A   1      39.639  33.582  36.300  1.00  0.00     0.009 A 
ATOM     85  C   UNL A   1      38.087  31.856  36.984  1.00  0.00     0.009 A 
ATOM     86  C   UNL A   1      39.245  34.365  37.387  1.00  0.00     0.001 A 
ATOM     87  C   UNL A   1      37.681  32.651  38.059  1.00  0.00     0.001 A 
ATOM     88  C   UNL A   1      38.267  33.900  38.265  1.00  0.00     0.000 A 
ENDBRANCH  70  83
ENDBRANCH  44  45
ENDBRANCH  37  39
ENDBRANCH  36  37
ENDBRANCH  35  36
ENDBRANCH  34  35
ENDBRANCH  33  34
ENDBRANCH  32  33
ENDBRANCH  31  32
ENDBRANCH  30  31
ENDBRANCH   1  30
TORSDOF 23
ENDMDL
MODEL 2
REMARK VINA RESULT:      -9.5      3.916      8.321
REMARK SMILES COc1cc(/C=C/C(=O)c2ccc(OCC(=O)OCCOCCOCCOC(=O)c3ccc(-c4c5nc(c(-c6ccccc6)c6ccc([nH]6)c(-c6ccccc6)c6nc(c(-c7ccccc7)c7ccc4[nH]7)C=C6)C=C5)cc3)cc2)cc2c1OCCO2
REMARK SMILES IDX 20 1 19 2 18 3 16 4 17 5 15 6 14 7 13 8 10 9 11 10 79 11
REMARK SMILES IDX 12 12 78 13 8 14 9 15 7 16 6 17 5 18 3 19 4 20 82 21 81 22
REMARK SMILES IDX 83 23 80 24 86 25 84 26 85 27 2 28 1 29 21 30 22 31 23 32
REMARK SMILES IDX 24 33 25 34 26 35 27 36 28 37 29 38 30 39 31 40 77 41 32 42
REMARK SMILES IDX 76 43 33 44 34 45 35 46 70 47 36 48 75 49 69 50 71 51 37 52
REMARK SMILES IDX 74 53 68 54 67 55 38 57 60 58 45 59 59 60 46 61 49 62 58 63
REMARK SMILES IDX 72 64 47 65 48 66 57 68 73 69 50 70 39 71 40 72 44 73 41 74
REMARK SMILES IDX 43 75 42 76 61 77 62 78 66 79 63 80 65 81 64 82 51 83 52 84
REMARK SMILES IDX 56 85 53 86 55 87 54 88
REMARK H PARENT 71 56 49 67
REMARK Flexibility Score: inf
ROOT
ATOM      1  C   UNL A   1      33.777  23.376  26.024  1.00  0.00     0.202 C 
ENDROOT
BRANCH   1   2
ATOM      2  C   UNL A   1      32.539  22.827  25.300  1.00  0.00     0.261 C 
BRANCH   2   3
ATOM      3  O   UNL A   1      31.492  23.825  25.224  1.00  0.00    -0.461 OA
BRANCH   3   4
ATOM      4  C   UNL A   1      31.367  24.514  24.059  1.00  0.00     0.344 C 
ATOM      5  O   UNL A   1      31.866  24.168  22.993  1.00  0.00    -0.248 OA
BRANCH   4   6
ATOM      6  C   UNL A   1      30.387  25.700  24.165  1.00  0.00     0.351 C 
BRANCH   6   7
ATOM      7  O   UNL A   1      30.484  26.527  25.319  1.00  0.00    -0.482 OA
BRANCH   7   8
ATOM      8  C   UNL A   1      31.566  27.356  25.484  1.00  0.00     0.120 A 
ATOM      9  C   UNL A   1      33.623  29.135  26.307  1.00  0.00     0.022 A 
ATOM     10  C   UNL A   1      33.334  27.983  27.047  1.00  0.00     0.016 A 
ATOM     11  C   UNL A   1      32.973  29.318  25.084  1.00  0.00     0.016 A 
ATOM     12  C   UNL A   1      32.309  27.112  26.644  1.00  0.00     0.047 A 
ATOM     13  C   UNL A   1      31.961  28.417  24.665  1.00  0.00     0.047 A 
BRANCH   9  14
ATOM     14  C   UNL A   1      34.575  30.122  26.912  1.00  0.00     0.185 C 
ATOM     15  O   UNL A   1      35.783  29.930  26.828  1.00  0.00    -0.289 OA
BRANCH  14  16
ATOM     16  C   UNL A   1      34.010  31.234  27.748  1.00  0.00     0.053 C 
ATOM     17  C   UNL A   1      34.840  31.936  28.548  1.00  0.00     0.012 C 
BRANCH  17  18
ATOM     18  C   UNL A   1      34.433  32.860  29.633  1.00  0.00    -0.018 A 
ATOM     19  C   UNL A   1      34.605  33.459  32.029  1.00  0.00     0.165 A 
ATOM     20  C   UNL A   1      34.884  32.623  30.934  1.00  0.00     0.058 A 
ATOM     21  C   UNL A   1      33.935  34.653  31.793  1.00  0.00     0.203 A 
ATOM     22  C   UNL A   1      33.539  34.952  30.473  1.00  0.00     0.165 A 
ATOM     23  O   UNL A   1      33.752  35.528  32.832  1.00  0.00    -0.483 OA
ATOM     24  C   UNL A   1      33.748  34.050  29.412  1.00  0.00     0.058 A 
ATOM     25  O   UNL A   1      32.964  36.155  30.134  1.00  0.00    -0.486 OA
ATOM     26  C   UNL A   1      32.931  36.647  32.496  1.00  0.00     0.271 C 
ATOM     27  C   UNL A   1      33.272  37.158  31.111  1.00  0.00     0.271 C 
BRANCH  19  28
ATOM     28  O   UNL A   1      35.102  32.996  33.219  1.00  0.00    -0.493 OA
ATOM     29  C   UNL A   1      36.329  32.274  33.203  1.00  0.00     0.278 C 
ENDBRANCH  19  28
ENDBRANCH  17  18
ENDBRANCH  14  16
ENDBRANCH   9  14
ENDBRANCH   7   8
ENDBRANCH   6   7
ENDBRANCH   4   6
ENDBRANCH   3   4
ENDBRANCH   2   3
ENDBRANCH   1   2
BRANCH   1  30
ATOM     30  O   UNL A   1      34.999  23.179  25.316  1.00  0.00    -0.376 OA
BRANCH  30  31
ATOM     31  C   UNL A   1      35.112  21.976  24.558  1.00  0.00     0.188 C 
BRANCH  31  32
ATOM     32  C   UNL A   1      35.933  20.841  25.179  1.00  0.00     0.188 C 
BRANCH  32  33
ATOM     33  O   UNL A   1      37.313  21.002  24.871  1.00  0.00    -0.376 OA
BRANCH  33  34
ATOM     34  C   UNL A   1      37.976  19.767  24.650  1.00  0.00     0.202 C 
BRANCH  34  35
ATOM     35  C   UNL A   1      39.092  19.561  25.680  1.00  0.00     0.261 C 
BRANCH  35  36
ATOM     36  O   UNL A   1      40.463  19.441  25.200  1.00  0.00    -0.460 OA
BRANCH  36  37
ATOM     37  C   UNL A   1      41.445  19.500  26.119  1.00  0.00     0.338 C 
ATOM     38  O   UNL A   1      42.076  18.549  26.540  1.00  0.00    -0.246 OA
BRANCH  37  39
ATOM     39  C   UNL A   1      41.729  20.859  26.629  1.00  0.00     0.060 A 
ATOM     40  C   UNL A   1      41.848  21.890  25.697  1.00  0.00     0.016 A 
ATOM     41  C   UNL A   1      42.165  21.067  27.940  1.00  0.00     0.016 A 
ATOM     42  C   UNL A   1      42.449  23.103  26.053  1.00  0.00     0.010 A 
ATOM     43  C   UNL A   1      42.732  22.300  28.309  1.00  0.00     0.010 A 
ATOM     44  C   UNL A   1      42.891  23.330  27.367  1.00  0.00    -0.014 A 
BRANCH  44  45
ATOM     45  C   UNL A   1      43.400  24.675  27.768  1.00  0.00     0.031 A 
ATOM     46  C   UNL A   1      42.500  25.773  28.278  1.00  0.00     0.074 A 
ATOM     47  C   UNL A   1      44.721  24.919  27.661  1.00  0.00     0.049 A 
ATOM     48  N   UNL A   1      42.803  27.019  28.557  1.00  0.00    -0.248 NA
ATOM     49  C   UNL A   1      41.091  25.432  28.515  1.00  0.00     0.031 C 
ATOM     50  C   UNL A   1      45.723  23.947  27.217  1.00  0.00     0.029 A 
ATOM     51  N   UNL A   1      45.449  26.054  27.917  1.00  0.00    -0.354 N 
ATOM     52  C   UNL A   1      41.622  27.620  28.980  1.00  0.00     0.074 A 
ATOM     53  C   UNL A   1      40.597  26.596  28.926  1.00  0.00     0.031 C 
ATOM     54  C   UNL A   1      46.934  24.519  27.254  1.00  0.00     0.029 A 
ATOM     55  C   UNL A   1      46.789  25.915  27.650  1.00  0.00     0.049 A 
ATOM     56  H   UNL A   1      45.049  26.886  28.259  1.00  0.00     0.167 HD
ATOM     57  C   UNL A   1      41.410  28.903  29.368  1.00  0.00     0.031 A 
ATOM     58  C   UNL A   1      47.793  26.810  27.671  1.00  0.00     0.031 A 
ATOM     59  C   UNL A   1      42.420  29.933  29.425  1.00  0.00     0.049 A 
ATOM     60  C   UNL A   1      47.519  28.238  28.028  1.00  0.00     0.074 A 
ATOM     61  C   UNL A   1      42.281  31.258  29.813  1.00  0.00     0.029 A 
ATOM     62  N   UNL A   1      43.751  29.761  29.084  1.00  0.00    -0.354 N 
ATOM     63  N   UNL A   1      46.388  28.792  28.387  1.00  0.00    -0.248 NA
ATOM     64  C   UNL A   1      48.657  29.165  27.963  1.00  0.00     0.031 C 
ATOM     65  C   UNL A   1      43.518  31.897  29.665  1.00  0.00     0.029 A 
ATOM     66  C   UNL A   1      44.436  30.959  29.226  1.00  0.00     0.049 A 
ATOM     67  H   UNL A   1      44.152  28.914  28.783  1.00  0.00     0.167 HD
ATOM     68  C   UNL A   1      46.678  30.135  28.589  1.00  0.00     0.074 A 
ATOM     69  C   UNL A   1      48.093  30.306  28.336  1.00  0.00     0.031 C 
ATOM     70  C   UNL A   1      45.837  31.134  28.948  1.00  0.00     0.031 A 
BRANCH  57  71
ATOM     71  C   UNL A   1      40.005  29.302  29.732  1.00  0.00    -0.014 A 
ATOM     72  C   UNL A   1      39.248  30.142  28.903  1.00  0.00     0.009 A 
ATOM     73  C   UNL A   1      39.404  28.753  30.877  1.00  0.00     0.009 A 
ATOM     74  C   UNL A   1      37.921  30.442  29.226  1.00  0.00     0.001 A 
ATOM     75  C   UNL A   1      38.074  29.039  31.187  1.00  0.00     0.001 A 
ATOM     76  C   UNL A   1      37.334  29.887  30.365  1.00  0.00     0.000 A 
ENDBRANCH  57  71
BRANCH  58  77
ATOM     77  C   UNL A   1      49.155  26.374  27.278  1.00  0.00    -0.014 A 
ATOM     78  C   UNL A   1      49.508  26.267  25.926  1.00  0.00     0.009 A 
ATOM     79  C   UNL A   1      50.121  26.107  28.262  1.00  0.00     0.009 A 
ATOM     80  C   UNL A   1      50.805  25.898  25.567  1.00  0.00     0.001 A 
ATOM     81  C   UNL A   1      51.423  25.763  27.899  1.00  0.00     0.001 A 
ATOM     82  C   UNL A   1      51.763  25.656  26.552  1.00  0.00     0.000 A 
ENDBRANCH  58  77
BRANCH  70  83
ATOM     83  C   UNL A   1      46.436  32.504  29.087  1.00  0.00    -0.014 A 
ATOM     84  C   UNL A   1      46.610  33.331  27.966  1.00  0.00     0.009 A 
ATOM     85  C   UNL A   1      46.834  32.972  30.349  1.00  0.00     0.009 A 
ATOM     86  C   UNL A   1      47.201  34.588  28.102  1.00  0.00     0.001 A 
ATOM     87  C   UNL A   1      47.407  34.238  30.483  1.00  0.00     0.001 A 
ATOM     88  C   UNL A   1      47.599  35.041  29.359  1.00  0.00     0.000 A 
ENDBRANCH  70  83
ENDBRANCH  44  45
ENDBRANCH  37  39
ENDBRANCH  36  37
ENDBRANCH  35  36
ENDBRANCH  34  35
ENDBRANCH  33  34
ENDBRANCH  32  33
ENDBRANCH  31  32
ENDBRANCH  30  31
ENDBRANCH   1  30
TORSDOF 23
ENDMDL
MODEL 3
REMARK VINA RESULT:      -9.5      4.185     11.413
REMARK SMILES COc1cc(/C=C/C(=O)c2ccc(OCC(=O)OCCOCCOCCOC(=O)c3ccc(-c4c5nc(c(-c6ccccc6)c6ccc([nH]6)c(-c6ccccc6)c6nc(c(-c7ccccc7)c7ccc4[nH]7)C=C6)C=C5)cc3)cc2)cc2c1OCCO2
REMARK SMILES IDX 20 1 19 2 18 3 16 4 17 5 15 6 14 7 13 8 10 9 11 10 79 11
REMARK SMILES IDX 12 12 78 13 8 14 9 15 7 16 6 17 5 18 3 19 4 20 82 21 81 22
REMARK SMILES IDX 83 23 80 24 86 25 84 26 85 27 2 28 1 29 21 30 22 31 23 32
REMARK SMILES IDX 24 33 25 34 26 35 27 36 28 37 29 38 30 39 31 40 77 41 32 42
REMARK SMILES IDX 76 43 33 44 34 45 35 46 70 47 36 48 75 49 69 50 71 51 37 52
REMARK SMILES IDX 74 53 68 54 67 55 38 57 60 58 45 59 59 60 46 61 49 62 58 63
REMARK SMILES IDX 72 64 47 65 48 66 57 68 73 69 50 70 39 71 40 72 44 73 41 74
REMARK SMILES IDX 43 75 42 76 61 77 62 78 66 79 63 80 65 81 64 82 51 83 52 84
REMARK SMILES IDX 56 85 53 86 55 87 54 88
REMARK H PARENT 71 56 49 67
REMARK Flexibility Score: inf
ROOT
ATOM      1  C   UNL A   1      34.509  33.646  28.946  1.00  0.00     0.202 C 
ENDROOT
BRANCH   1   2
ATOM      2  C   UNL A   1      34.464  32.161  28.561  1.00  0.00     0.261 C 
BRANCH   2   3
ATOM      3  O   UNL A   1      35.731  31.512  28.827  1.00  0.00    -0.461 OA
BRANCH   3   4
ATOM      4  C   UNL A   1      35.847  30.201  28.488  1.00  0.00     0.344 C 
ATOM      5  O   UNL A   1      35.469  29.726  27.422  1.00  0.00    -0.248 OA
BRANCH   4   6
ATOM      6  C   UNL A   1      36.659  29.385  29.514  1.00  0.00     0.351 C 
BRANCH   6   7
ATOM      7  O   UNL A   1      38.049  29.669  29.624  1.00  0.00    -0.482 OA
BRANCH   7   8
ATOM      8  C   UNL A   1      38.968  28.852  29.014  1.00  0.00     0.120 A 
ATOM      9  C   UNL A   1      40.753  27.430  27.320  1.00  0.00     0.022 A 
ATOM     10  C   UNL A   1      40.800  28.826  27.399  1.00  0.00     0.016 A 
ATOM     11  C   UNL A   1      39.904  26.745  28.193  1.00  0.00     0.016 A 
ATOM     12  C   UNL A   1      39.908  29.526  28.228  1.00  0.00     0.047 A 
ATOM     13  C   UNL A   1      39.029  27.457  29.053  1.00  0.00     0.047 A 
BRANCH   9  14
ATOM     14  C   UNL A   1      41.581  26.772  26.259  1.00  0.00     0.185 C 
ATOM     15  O   UNL A   1      41.642  27.269  25.140  1.00  0.00    -0.289 OA
BRANCH  14  16
ATOM     16  C   UNL A   1      42.180  25.426  26.556  1.00  0.00     0.053 C 
ATOM     17  C   UNL A   1      42.363  24.554  25.543  1.00  0.00     0.012 C 
BRANCH  17  18
ATOM     18  C   UNL A   1      42.668  23.111  25.678  1.00  0.00    -0.018 A 
ATOM     19  C   UNL A   1      41.814  20.842  26.184  1.00  0.00     0.165 A 
ATOM     20  C   UNL A   1      41.654  22.235  26.073  1.00  0.00     0.058 A 
ATOM     21  C   UNL A   1      43.018  20.283  25.772  1.00  0.00     0.203 A 
ATOM     22  C   UNL A   1      44.029  21.140  25.294  1.00  0.00     0.165 A 
ATOM     23  O   UNL A   1      43.149  18.918  25.772  1.00  0.00    -0.483 OA
ATOM     24  C   UNL A   1      43.874  22.540  25.284  1.00  0.00     0.058 A 
ATOM     25  O   UNL A   1      45.209  20.663  24.770  1.00  0.00    -0.486 OA
ATOM     26  C   UNL A   1      44.470  18.473  25.463  1.00  0.00     0.271 C 
ATOM     27  C   UNL A   1      45.061  19.303  24.342  1.00  0.00     0.271 C 
BRANCH  19  28
ATOM     28  O   UNL A   1      40.701  20.192  26.646  1.00  0.00    -0.493 OA
ATOM     29  C   UNL A   1      39.986  19.353  25.744  1.00  0.00     0.278 C 
ENDBRANCH  19  28
ENDBRANCH  17  18
ENDBRANCH  14  16
ENDBRANCH   9  14
ENDBRANCH   7   8
ENDBRANCH   6   7
ENDBRANCH   4   6
ENDBRANCH   3   4
ENDBRANCH   2   3
ENDBRANCH   1   2
BRANCH   1  30
ATOM     30  O   UNL A   1      33.231  34.281  28.966  1.00  0.00    -0.376 OA
BRANCH  30  31
ATOM     31  C   UNL A   1      33.211  35.665  29.309  1.00  0.00     0.188 C 
BRANCH  31  32
ATOM     32  C   UNL A   1      32.720  36.023  30.716  1.00  0.00     0.188 C 
BRANCH  32  33
ATOM     33  O   UNL A   1      32.916  37.409  30.971  1.00  0.00    -0.376 OA
BRANCH  33  34
ATOM     34  C   UNL A   1      33.647  37.653  32.162  1.00  0.00     0.202 C 
BRANCH  34  35
ATOM     35  C   UNL A   1      33.554  36.451  33.109  1.00  0.00     0.261 C 
BRANCH  35  36
ATOM     36  O   UNL A   1      34.763  35.681  33.369  1.00  0.00    -0.460 OA
BRANCH  36  37
ATOM     37  C   UNL A   1      34.666  34.340  33.298  1.00  0.00     0.338 C 
ATOM     38  O   UNL A   1      33.629  33.704  33.310  1.00  0.00    -0.246 OA
BRANCH  37  39
ATOM     39  C   UNL A   1      35.963  33.634  33.206  1.00  0.00     0.060 A 
ATOM     40  C   UNL A   1      37.039  34.158  33.922  1.00  0.00     0.016 A 
ATOM     41  C   UNL A   1      36.200  32.673  32.219  1.00  0.00     0.016 A 
ATOM     42  C   UNL A   1      38.350  33.771  33.619  1.00  0.00     0.010 A 
ATOM     43  C   UNL A   1      37.514  32.254  31.943  1.00  0.00     0.010 A 
ATOM     44  C   UNL A   1      38.606  32.805  32.632  1.00  0.00    -0.014 A 
BRANCH  44  45
ATOM     45  C   UNL A   1      39.993  32.297  32.418  1.00  0.00     0.031 A 
ATOM     46  C   UNL A   1      40.956  32.927  31.443  1.00  0.00     0.074 A 
ATOM     47  C   UNL A   1      40.397  31.221  33.122  1.00  0.00     0.049 A 
ATOM     48  N   UNL A   1      42.150  32.516  31.086  1.00  0.00    -0.248 NA
ATOM     49  C   UNL A   1      40.536  34.177  30.796  1.00  0.00     0.031 C 
ATOM     50  C   UNL A   1      39.593  30.523  34.127  1.00  0.00     0.029 A 
ATOM     51  N   UNL A   1      41.583  30.528  33.104  1.00  0.00    -0.354 N 
ATOM     52  C   UNL A   1      42.618  33.440  30.158  1.00  0.00     0.074 A 
ATOM     53  C   UNL A   1      41.577  34.439  30.011  1.00  0.00     0.031 C 
ATOM     54  C   UNL A   1      40.314  29.518  34.643  1.00  0.00     0.029 A 
ATOM     55  C   UNL A   1      41.599  29.453  33.957  1.00  0.00     0.049 A 
ATOM     56  H   UNL A   1      42.346  30.779  32.534  1.00  0.00     0.167 HD
ATOM     57  C   UNL A   1      43.797  33.451  29.485  1.00  0.00     0.031 A 
ATOM     58  C   UNL A   1      42.516  28.486  34.146  1.00  0.00     0.031 A 
ATOM     59  C   UNL A   1      44.841  32.463  29.620  1.00  0.00     0.049 A 
ATOM     60  C   UNL A   1      43.774  28.477  33.335  1.00  0.00     0.074 A 
ATOM     61  C   UNL A   1      46.067  32.409  28.974  1.00  0.00     0.029 A 
ATOM     62  N   UNL A   1      44.785  31.356  30.450  1.00  0.00    -0.354 N 
ATOM     63  N   UNL A   1      44.179  29.339  32.436  1.00  0.00    -0.248 NA
ATOM     64  C   UNL A   1      44.694  27.352  33.555  1.00  0.00     0.031 C 
ATOM     65  C   UNL A   1      46.734  31.248  29.381  1.00  0.00     0.029 A 
ATOM     66  C   UNL A   1      45.941  30.601  30.313  1.00  0.00     0.049 A 
ATOM     67  H   UNL A   1      44.035  31.136  31.048  1.00  0.00     0.167 HD
ATOM     68  C   UNL A   1      45.398  28.858  31.979  1.00  0.00     0.074 A 
ATOM     69  C   UNL A   1      45.679  27.645  32.717  1.00  0.00     0.031 C 
ATOM     70  C   UNL A   1      46.208  29.381  31.026  1.00  0.00     0.031 A 
BRANCH  57  71
ATOM     71  C   UNL A   1      44.025  34.555  28.489  1.00  0.00    -0.014 A 
ATOM     72  C   UNL A   1      44.845  35.652  28.791  1.00  0.00     0.009 A 
ATOM     73  C   UNL A   1      43.479  34.447  27.199  1.00  0.00     0.009 A 
ATOM     74  C   UNL A   1      45.098  36.630  27.825  1.00  0.00     0.001 A 
ATOM     75  C   UNL A   1      43.749  35.417  26.231  1.00  0.00     0.001 A 
ATOM     76  C   UNL A   1      44.553  36.510  26.545  1.00  0.00     0.000 A 
ENDBRANCH  57  71
BRANCH  58  77
ATOM     77  C   UNL A   1      42.232  27.404  35.119  1.00  0.00    -0.014 A 
ATOM     78  C   UNL A   1      42.716  27.482  36.432  1.00  0.00     0.009 A 
ATOM     79  C   UNL A   1      41.436  26.310  34.745  1.00  0.00     0.009 A 
ATOM     80  C   UNL A   1      42.406  26.480  37.354  1.00  0.00     0.001 A 
ATOM     81  C   UNL A   1      41.109  25.324  35.676  1.00  0.00     0.001 A 
ATOM     82  C   UNL A   1      41.596  25.408  36.978  1.00  0.00     0.000 A 
ENDBRANCH  58  77
BRANCH  70  83
ATOM     83  C   UNL A   1      47.476  28.633  30.733  1.00  0.00    -0.014 A 
ATOM     84  C   UNL A   1      47.509  27.626  29.756  1.00  0.00     0.009 A 
ATOM     85  C   UNL A   1      48.649  28.935  31.442  1.00  0.00     0.009 A 
ATOM     86  C   UNL A   1      48.685  26.912  29.517  1.00  0.00     0.001 A 
ATOM     87  C   UNL A   1      49.828  28.232  31.187  1.00  0.00     0.001 A 
ATOM     88  C   UNL A   1      49.843  27.216  30.232  1.00  0.00     0.000 A 
ENDBRANCH  70  83
ENDBRANCH  44  45
ENDBRANCH  37  39
ENDBRANCH  36  37
ENDBRANCH  35  36
ENDBRANCH  34  35
ENDBRANCH  33  34
ENDBRANCH  32  33
ENDBRANCH  31  32
ENDBRANCH  30  31
ENDBRANCH   1  30
TORSDOF 23
ENDMDL
