MODEL 1
REMARK VINA RESULT:     -10.3      0.000      0.000
REMARK SMILES C[C@@H](C(=O)OCCOCCOCCOC(=O)c1ccc(-c2c3nc(c(-c4ccccc4)c4ccc([nH]4)c(-c4ccccc4)c4nc(c(-c5ccccc5)c5ccc2[nH]5)C=C4)C=C3)cc1)c1cccc(C(=O)c2ccccc2)c1
REMARK SMILES IDX 9 1 8 2 7 3 6 4 5 5 3 6 4 7 2 8 1 9 65 10 66 11 78 12 67 13
REMARK SMILES IDX 69 14 68 15 70 16 71 17 72 18 73 19 77 20 74 21 76 22 75 23
REMARK SMILES IDX 10 24 11 25 12 26 13 27 14 28 15 29 16 30 17 31 18 32 64 33
REMARK SMILES IDX 19 34 63 35 20 36 21 37 22 38 57 39 23 40 62 41 56 42 58 43
REMARK SMILES IDX 24 44 61 45 55 46 54 47 25 49 47 50 32 51 46 52 33 53 36 54
REMARK SMILES IDX 45 55 59 56 34 57 35 58 44 60 60 61 37 62 26 63 27 64 31 65
REMARK SMILES IDX 28 66 30 67 29 68 48 69 49 70 53 71 50 72 52 73 51 74 38 75
REMARK SMILES IDX 39 76 43 77 40 78 42 79 41 80
REMARK H PARENT 58 48 36 59
REMARK Flexibility Score: inf
ROOT
ATOM      1  C   UNL A   1      40.397  21.567  25.877  1.00  0.00     0.188 C 
ENDROOT
BRANCH   1   2
ATOM      2  O   UNL A   1      39.191  21.983  26.507  1.00  0.00    -0.376 OA
BRANCH   2   3
ATOM      3  C   UNL A   1      39.010  23.375  26.770  1.00  0.00     0.202 C 
BRANCH   3   4
ATOM      4  C   UNL A   1      37.681  24.040  26.355  1.00  0.00     0.261 C 
BRANCH   4   5
ATOM      5  O   UNL A   1      36.716  23.133  25.779  1.00  0.00    -0.463 OA
BRANCH   5   6
ATOM      6  C   UNL A   1      36.306  23.401  24.511  1.00  0.00     0.313 C 
ATOM      7  O   UNL A   1      36.968  23.131  23.512  1.00  0.00    -0.252 OA
BRANCH   6   8
ATOM      8  C   UNL A   1      34.878  23.975  24.423  1.00  0.00     0.126 C 
ATOM      9  C   UNL A   1      34.754  25.368  25.063  1.00  0.00     0.025 C 
BRANCH   8  10
ATOM     10  C   UNL A   1      33.776  22.968  24.794  1.00  0.00    -0.033 A 
ATOM     11  C   UNL A   1      32.849  23.195  25.827  1.00  0.00     0.004 A 
ATOM     12  C   UNL A   1      33.592  21.808  24.015  1.00  0.00     0.016 A 
ATOM     13  C   UNL A   1      31.810  22.289  26.085  1.00  0.00     0.001 A 
ATOM     14  C   UNL A   1      32.578  20.876  24.291  1.00  0.00     0.023 A 
ATOM     15  C   UNL A   1      31.677  21.129  25.324  1.00  0.00     0.012 A 
BRANCH  14  16
ATOM     16  C   UNL A   1      32.399  19.655  23.455  1.00  0.00     0.193 C 
ATOM     17  O   UNL A   1      31.957  19.746  22.314  1.00  0.00    -0.289 OA
BRANCH  16  18
ATOM     18  C   UNL A   1      32.796  18.323  23.965  1.00  0.00     0.022 A 
ATOM     19  C   UNL A   1      33.662  17.548  23.186  1.00  0.00     0.012 A 
ATOM     20  C   UNL A   1      32.355  17.857  25.208  1.00  0.00     0.012 A 
ATOM     21  C   UNL A   1      34.135  16.334  23.681  1.00  0.00     0.001 A 
ATOM     22  C   UNL A   1      32.834  16.642  25.700  1.00  0.00     0.001 A 
ATOM     23  C   UNL A   1      33.731  15.887  24.940  1.00  0.00     0.000 A 
ENDBRANCH  16  18
ENDBRANCH  14  16
ENDBRANCH   8  10
ENDBRANCH   6   8
ENDBRANCH   5   6
ENDBRANCH   4   5
ENDBRANCH   3   4
ENDBRANCH   2   3
ENDBRANCH   1   2
BRANCH   1  24
ATOM     24  C   UNL A   1      40.929  20.149  26.143  1.00  0.00     0.188 C 
BRANCH  24  25
ATOM     25  O   UNL A   1      42.223  19.909  25.646  1.00  0.00    -0.376 OA
BRANCH  25  26
ATOM     26  C   UNL A   1      43.276  20.784  26.007  1.00  0.00     0.202 C 
BRANCH  26  27
ATOM     27  C   UNL A   1      43.970  21.669  24.952  1.00  0.00     0.261 C 
BRANCH  27  28
ATOM     28  O   UNL A   1      43.459  22.998  24.762  1.00  0.00    -0.460 OA
BRANCH  28  29
ATOM     29  C   UNL A   1      44.283  24.027  25.055  1.00  0.00     0.338 C 
ATOM     30  O   UNL A   1      45.334  24.312  24.494  1.00  0.00    -0.246 OA
BRANCH  29  31
ATOM     31  C   UNL A   1      43.575  24.912  26.006  1.00  0.00     0.060 A 
ATOM     32  C   UNL A   1      43.858  26.285  25.998  1.00  0.00     0.016 A 
ATOM     33  C   UNL A   1      42.620  24.394  26.884  1.00  0.00     0.016 A 
ATOM     34  C   UNL A   1      43.197  27.143  26.879  1.00  0.00     0.010 A 
ATOM     35  C   UNL A   1      41.980  25.252  27.785  1.00  0.00     0.010 A 
ATOM     36  C   UNL A   1      42.283  26.625  27.804  1.00  0.00    -0.014 A 
BRANCH  36  37
ATOM     37  C   UNL A   1      41.793  27.478  28.914  1.00  0.00     0.031 A 
ATOM     38  C   UNL A   1      42.541  27.452  30.218  1.00  0.00     0.074 A 
ATOM     39  C   UNL A   1      40.719  28.276  28.774  1.00  0.00     0.049 A 
ATOM     40  N   UNL A   1      42.269  28.058  31.345  1.00  0.00    -0.248 NA
ATOM     41  C   UNL A   1      43.759  26.626  30.254  1.00  0.00     0.031 C 
ATOM     42  C   UNL A   1      39.943  28.446  27.548  1.00  0.00     0.029 A 
ATOM     43  N   UNL A   1      40.099  29.096  29.684  1.00  0.00    -0.354 N 
ATOM     44  C   UNL A   1      43.266  27.668  32.230  1.00  0.00     0.074 A 
ATOM     45  C   UNL A   1      44.139  26.763  31.514  1.00  0.00     0.031 C 
ATOM     46  C   UNL A   1      38.950  29.322  27.783  1.00  0.00     0.029 A 
ATOM     47  C   UNL A   1      38.992  29.738  29.183  1.00  0.00     0.049 A 
ATOM     48  H   UNL A   1      40.418  29.214  30.609  1.00  0.00     0.167 HD
ATOM     49  C   UNL A   1      43.438  28.026  33.524  1.00  0.00     0.031 A 
ATOM     50  C   UNL A   1      38.104  30.549  29.790  1.00  0.00     0.031 A 
ATOM     51  C   UNL A   1      42.563  28.911  34.243  1.00  0.00     0.049 A 
ATOM     52  C   UNL A   1      38.268  30.862  31.257  1.00  0.00     0.074 A 
ATOM     53  C   UNL A   1      42.659  29.337  35.557  1.00  0.00     0.029 A 
ATOM     54  N   UNL A   1      41.423  29.497  33.716  1.00  0.00    -0.354 N 
ATOM     55  N   UNL A   1      39.220  30.498  32.082  1.00  0.00    -0.248 NA
ATOM     56  C   UNL A   1      37.229  31.701  31.876  1.00  0.00     0.031 C 
ATOM     57  C   UNL A   1      41.541  30.126  35.843  1.00  0.00     0.029 A 
ATOM     58  C   UNL A   1      40.789  30.253  34.687  1.00  0.00     0.049 A 
ATOM     59  H   UNL A   1      41.111  29.391  32.788  1.00  0.00     0.167 HD
ATOM     60  C   UNL A   1      38.911  31.085  33.304  1.00  0.00     0.074 A 
ATOM     61  C   UNL A   1      37.694  31.844  33.108  1.00  0.00     0.031 C 
ATOM     62  C   UNL A   1      39.577  31.005  34.483  1.00  0.00     0.031 A 
BRANCH  49  63
ATOM     63  C   UNL A   1      44.591  27.406  34.262  1.00  0.00    -0.014 A 
ATOM     64  C   UNL A   1      44.495  26.131  34.843  1.00  0.00     0.009 A 
ATOM     65  C   UNL A   1      45.805  28.106  34.358  1.00  0.00     0.009 A 
ATOM     66  C   UNL A   1      45.579  25.588  35.536  1.00  0.00     0.001 A 
ATOM     67  C   UNL A   1      46.897  27.546  35.022  1.00  0.00     0.001 A 
ATOM     68  C   UNL A   1      46.779  26.292  35.619  1.00  0.00     0.000 A 
ENDBRANCH  49  63
BRANCH  50  69
ATOM     69  C   UNL A   1      36.950  31.107  29.033  1.00  0.00    -0.014 A 
ATOM     70  C   UNL A   1      36.917  32.465  28.678  1.00  0.00     0.009 A 
ATOM     71  C   UNL A   1      35.856  30.296  28.694  1.00  0.00     0.009 A 
ATOM     72  C   UNL A   1      35.802  33.004  28.029  1.00  0.00     0.001 A 
ATOM     73  C   UNL A   1      34.758  30.828  28.014  1.00  0.00     0.001 A 
ATOM     74  C   UNL A   1      34.727  32.183  27.693  1.00  0.00     0.000 A 
ENDBRANCH  50  69
BRANCH  62  75
ATOM     75  C   UNL A   1      39.031  31.789  35.647  1.00  0.00    -0.014 A 
ATOM     76  C   UNL A   1      38.145  31.214  36.570  1.00  0.00     0.009 A 
ATOM     77  C   UNL A   1      39.451  33.115  35.845  1.00  0.00     0.009 A 
ATOM     78  C   UNL A   1      37.663  31.962  37.648  1.00  0.00     0.001 A 
ATOM     79  C   UNL A   1      38.995  33.848  36.941  1.00  0.00     0.001 A 
ATOM     80  C   UNL A   1      38.092  33.275  37.835  1.00  0.00     0.000 A 
ENDBRANCH  62  75
ENDBRANCH  36  37
ENDBRANCH  29  31
ENDBRANCH  28  29
ENDBRANCH  27  28
ENDBRANCH  26  27
ENDBRANCH  25  26
ENDBRANCH  24  25
ENDBRANCH   1  24
TORSDOF 20
ENDMDL
MODEL 2
REMARK VINA RESULT:     -10.3      1.706      3.551
REMARK SMILES C[C@@H](C(=O)OCCOCCOCCOC(=O)c1ccc(-c2c3nc(c(-c4ccccc4)c4ccc([nH]4)c(-c4ccccc4)c4nc(c(-c5ccccc5)c5ccc2[nH]5)C=C4)C=C3)cc1)c1cccc(C(=O)c2ccccc2)c1
REMARK SMILES IDX 9 1 8 2 7 3 6 4 5 5 3 6 4 7 2 8 1 9 65 10 66 11 78 12 67 13
REMARK SMILES IDX 69 14 68 15 70 16 71 17 72 18 73 19 77 20 74 21 76 22 75 23
REMARK SMILES IDX 10 24 11 25 12 26 13 27 14 28 15 29 16 30 17 31 18 32 64 33
REMARK SMILES IDX 19 34 63 35 20 36 21 37 22 38 57 39 23 40 62 41 56 42 58 43
REMARK SMILES IDX 24 44 61 45 55 46 54 47 25 49 47 50 32 51 46 52 33 53 36 54
REMARK SMILES IDX 45 55 59 56 34 57 35 58 44 60 60 61 37 62 26 63 27 64 31 65
REMARK SMILES IDX 28 66 30 67 29 68 48 69 49 70 53 71 50 72 52 73 51 74 38 75
REMARK SMILES IDX 39 76 43 77 40 78 42 79 41 80
REMARK H PARENT 58 48 36 59
REMARK Flexibility Score: inf
ROOT
ATOM      1  C   UNL A   1      40.009  21.444  26.404  1.00  0.00     0.188 C 
ENDROOT
BRANCH   1   2
ATOM      2  O   UNL A   1      38.639  21.833  26.388  1.00  0.00    -0.376 OA
BRANCH   2   3
ATOM      3  C   UNL A   1      38.329  23.207  26.154  1.00  0.00     0.202 C 
BRANCH   3   4
ATOM      4  C   UNL A   1      36.961  23.562  25.536  1.00  0.00     0.261 C 
BRANCH   4   5
ATOM      5  O   UNL A   1      36.439  22.563  24.633  1.00  0.00    -0.463 OA
BRANCH   5   6
ATOM      6  C   UNL A   1      35.275  21.960  24.994  1.00  0.00     0.313 C 
ATOM      7  O   UNL A   1      35.160  21.245  25.987  1.00  0.00    -0.252 OA
BRANCH   6   8
ATOM      8  C   UNL A   1      34.072  22.341  24.107  1.00  0.00     0.126 C 
ATOM      9  C   UNL A   1      34.477  23.157  22.868  1.00  0.00     0.025 C 
BRANCH   8  10
ATOM     10  C   UNL A   1      32.862  22.874  24.893  1.00  0.00    -0.033 A 
ATOM     11  C   UNL A   1      31.907  22.030  25.490  1.00  0.00     0.004 A 
ATOM     12  C   UNL A   1      32.733  24.256  25.134  1.00  0.00     0.016 A 
ATOM     13  C   UNL A   1      30.860  22.551  26.264  1.00  0.00     0.001 A 
ATOM     14  C   UNL A   1      31.664  24.788  25.874  1.00  0.00     0.023 A 
ATOM     15  C   UNL A   1      30.734  23.926  26.452  1.00  0.00     0.012 A 
BRANCH  14  16
ATOM     16  C   UNL A   1      31.545  26.254  26.120  1.00  0.00     0.193 C 
ATOM     17  O   UNL A   1      31.010  26.668  27.143  1.00  0.00    -0.289 OA
BRANCH  16  18
ATOM     18  C   UNL A   1      32.112  27.230  25.162  1.00  0.00     0.022 A 
ATOM     19  C   UNL A   1      33.412  27.695  25.384  1.00  0.00     0.012 A 
ATOM     20  C   UNL A   1      31.391  27.654  24.041  1.00  0.00     0.012 A 
ATOM     21  C   UNL A   1      34.013  28.537  24.449  1.00  0.00     0.001 A 
ATOM     22  C   UNL A   1      31.999  28.494  23.106  1.00  0.00     0.001 A 
ATOM     23  C   UNL A   1      33.311  28.926  23.307  1.00  0.00     0.000 A 
ENDBRANCH  16  18
ENDBRANCH  14  16
ENDBRANCH   8  10
ENDBRANCH   6   8
ENDBRANCH   5   6
ENDBRANCH   4   5
ENDBRANCH   3   4
ENDBRANCH   2   3
ENDBRANCH   1   2
BRANCH   1  24
ATOM     24  C   UNL A   1      40.375  19.988  26.068  1.00  0.00     0.188 C 
BRANCH  24  25
ATOM     25  O   UNL A   1      41.681  19.816  25.571  1.00  0.00    -0.376 OA
BRANCH  25  26
ATOM     26  C   UNL A   1      42.738  20.577  26.126  1.00  0.00     0.202 C 
BRANCH  26  27
ATOM     27  C   UNL A   1      43.678  21.405  25.228  1.00  0.00     0.261 C 
BRANCH  27  28
ATOM     28  O   UNL A   1      43.195  22.672  24.753  1.00  0.00    -0.460 OA
BRANCH  28  29
ATOM     29  C   UNL A   1      44.008  23.741  24.904  1.00  0.00     0.338 C 
ATOM     30  O   UNL A   1      45.000  24.012  24.239  1.00  0.00    -0.246 OA
BRANCH  29  31
ATOM     31  C   UNL A   1      43.352  24.672  25.849  1.00  0.00     0.060 A 
ATOM     32  C   UNL A   1      43.825  25.989  25.944  1.00  0.00     0.016 A 
ATOM     33  C   UNL A   1      42.263  24.257  26.617  1.00  0.00     0.016 A 
ATOM     34  C   UNL A   1      43.219  26.890  26.820  1.00  0.00     0.010 A 
ATOM     35  C   UNL A   1      41.675  25.154  27.515  1.00  0.00     0.010 A 
ATOM     36  C   UNL A   1      42.165  26.467  27.640  1.00  0.00    -0.014 A 
BRANCH  36  37
ATOM     37  C   UNL A   1      41.707  27.328  28.757  1.00  0.00     0.031 A 
ATOM     38  C   UNL A   1      42.473  27.287  30.050  1.00  0.00     0.074 A 
ATOM     39  C   UNL A   1      40.646  28.146  28.632  1.00  0.00     0.049 A 
ATOM     40  N   UNL A   1      42.228  27.897  31.181  1.00  0.00    -0.248 NA
ATOM     41  C   UNL A   1      43.676  26.439  30.068  1.00  0.00     0.031 C 
ATOM     42  C   UNL A   1      39.856  28.331  27.418  1.00  0.00     0.029 A 
ATOM     43  N   UNL A   1      40.054  28.977  29.552  1.00  0.00    -0.354 N 
ATOM     44  C   UNL A   1      43.231  27.489  32.051  1.00  0.00     0.074 A 
ATOM     45  C   UNL A   1      44.076  26.568  31.323  1.00  0.00     0.031 C 
ATOM     46  C   UNL A   1      38.882  29.225  27.668  1.00  0.00     0.029 A 
ATOM     47  C   UNL A   1      38.952  29.639  29.067  1.00  0.00     0.049 A 
ATOM     48  H   UNL A   1      40.389  29.088  30.472  1.00  0.00     0.167 HD
ATOM     49  C   UNL A   1      43.427  27.842  33.343  1.00  0.00     0.031 A 
ATOM     50  C   UNL A   1      38.088  30.466  29.687  1.00  0.00     0.031 A 
ATOM     51  C   UNL A   1      42.579  28.743  34.075  1.00  0.00     0.049 A 
ATOM     52  C   UNL A   1      38.279  30.775  31.151  1.00  0.00     0.074 A 
ATOM     53  C   UNL A   1      42.702  29.166  35.387  1.00  0.00     0.029 A 
ATOM     54  N   UNL A   1      41.443  29.350  33.564  1.00  0.00    -0.354 N 
ATOM     55  N   UNL A   1      39.236  30.393  31.963  1.00  0.00    -0.248 NA
ATOM     56  C   UNL A   1      37.265  31.632  31.785  1.00  0.00     0.031 C 
ATOM     57  C   UNL A   1      41.603  29.975  35.690  1.00  0.00     0.029 A 
ATOM     58  C   UNL A   1      40.837  30.117  34.545  1.00  0.00     0.049 A 
ATOM     59  H   UNL A   1      41.116  29.251  32.641  1.00  0.00     0.167 HD
ATOM     60  C   UNL A   1      38.955  30.985  33.189  1.00  0.00     0.074 A 
ATOM     61  C   UNL A   1      37.750  31.766  33.011  1.00  0.00     0.031 C 
ATOM     62  C   UNL A   1      39.636  30.891  34.358  1.00  0.00     0.031 A 
BRANCH  49  63
ATOM     63  C   UNL A   1      44.579  27.201  34.065  1.00  0.00    -0.014 A 
ATOM     64  C   UNL A   1      45.897  27.657  33.901  1.00  0.00     0.009 A 
ATOM     65  C   UNL A   1      44.334  26.132  34.942  1.00  0.00     0.009 A 
ATOM     66  C   UNL A   1      46.949  27.030  34.574  1.00  0.00     0.001 A 
ATOM     67  C   UNL A   1      45.383  25.530  35.639  1.00  0.00     0.001 A 
ATOM     68  C   UNL A   1      46.690  25.973  35.446  1.00  0.00     0.000 A 
ENDBRANCH  49  63
BRANCH  50  69
ATOM     69  C   UNL A   1      36.934  31.046  28.946  1.00  0.00    -0.014 A 
ATOM     70  C   UNL A   1      36.916  32.408  28.603  1.00  0.00     0.009 A 
ATOM     71  C   UNL A   1      35.826  30.252  28.612  1.00  0.00     0.009 A 
ATOM     72  C   UNL A   1      35.802  32.966  27.971  1.00  0.00     0.001 A 
ATOM     73  C   UNL A   1      34.729  30.805  27.948  1.00  0.00     0.001 A 
ATOM     74  C   UNL A   1      34.712  32.163  27.639  1.00  0.00     0.000 A 
ENDBRANCH  50  69
BRANCH  62  75
ATOM     75  C   UNL A   1      39.121  31.684  35.530  1.00  0.00    -0.014 A 
ATOM     76  C   UNL A   1      38.225  31.131  36.456  1.00  0.00     0.009 A 
ATOM     77  C   UNL A   1      39.582  32.996  35.733  1.00  0.00     0.009 A 
ATOM     78  C   UNL A   1      37.772  31.887  37.541  1.00  0.00     0.001 A 
ATOM     79  C   UNL A   1      39.155  33.736  36.836  1.00  0.00     0.001 A 
ATOM     80  C   UNL A   1      38.242  33.185  37.733  1.00  0.00     0.000 A 
ENDBRANCH  62  75
ENDBRANCH  36  37
ENDBRANCH  29  31
ENDBRANCH  28  29
ENDBRANCH  27  28
ENDBRANCH  26  27
ENDBRANCH  25  26
ENDBRANCH  24  25
ENDBRANCH   1  24
TORSDOF 20
ENDMDL
MODEL 3
REMARK VINA RESULT:      -9.9      4.508      7.237
REMARK SMILES C[C@@H](C(=O)OCCOCCOCCOC(=O)c1ccc(-c2c3nc(c(-c4ccccc4)c4ccc([nH]4)c(-c4ccccc4)c4nc(c(-c5ccccc5)c5ccc2[nH]5)C=C4)C=C3)cc1)c1cccc(C(=O)c2ccccc2)c1
REMARK SMILES IDX 9 1 8 2 7 3 6 4 5 5 3 6 4 7 2 8 1 9 65 10 66 11 78 12 67 13
REMARK SMILES IDX 69 14 68 15 70 16 71 17 72 18 73 19 77 20 74 21 76 22 75 23
REMARK SMILES IDX 10 24 11 25 12 26 13 27 14 28 15 29 16 30 17 31 18 32 64 33
REMARK SMILES IDX 19 34 63 35 20 36 21 37 22 38 57 39 23 40 62 41 56 42 58 43
REMARK SMILES IDX 24 44 61 45 55 46 54 47 25 49 47 50 32 51 46 52 33 53 36 54
REMARK SMILES IDX 45 55 59 56 34 57 35 58 44 60 60 61 37 62 26 63 27 64 31 65
REMARK SMILES IDX 28 66 30 67 29 68 48 69 49 70 53 71 50 72 52 73 51 74 38 75
REMARK SMILES IDX 39 76 43 77 40 78 42 79 41 80
REMARK H PARENT 58 48 36 59
REMARK Flexibility Score: inf
ROOT
ATOM      1  C   UNL A   1      40.676  22.164  26.467  1.00  0.00     0.188 C 
ENDROOT
BRANCH   1   2
ATOM      2  O   UNL A   1      39.888  22.983  27.324  1.00  0.00    -0.376 OA
BRANCH   2   3
ATOM      3  C   UNL A   1      39.239  24.123  26.762  1.00  0.00     0.202 C 
BRANCH   3   4
ATOM      4  C   UNL A   1      37.845  23.944  26.126  1.00  0.00     0.261 C 
BRANCH   4   5
ATOM      5  O   UNL A   1      37.254  22.645  26.347  1.00  0.00    -0.463 OA
BRANCH   5   6
ATOM      6  C   UNL A   1      36.394  22.194  25.396  1.00  0.00     0.313 C 
ATOM      7  O   UNL A   1      36.747  21.553  24.409  1.00  0.00    -0.252 OA
BRANCH   6   8
ATOM      8  C   UNL A   1      34.909  22.461  25.718  1.00  0.00     0.126 C 
ATOM      9  C   UNL A   1      34.386  21.599  26.879  1.00  0.00     0.025 C 
BRANCH   8  10
ATOM     10  C   UNL A   1      34.004  22.531  24.476  1.00  0.00    -0.033 A 
ATOM     11  C   UNL A   1      33.187  21.462  24.064  1.00  0.00     0.004 A 
ATOM     12  C   UNL A   1      33.883  23.739  23.761  1.00  0.00     0.016 A 
ATOM     13  C   UNL A   1      32.317  21.590  22.972  1.00  0.00     0.001 A 
ATOM     14  C   UNL A   1      33.043  23.864  22.642  1.00  0.00     0.023 A 
ATOM     15  C   UNL A   1      32.248  22.784  22.258  1.00  0.00     0.012 A 
BRANCH  14  16
ATOM     16  C   UNL A   1      32.927  25.151  21.899  1.00  0.00     0.193 C 
ATOM     17  O   UNL A   1      33.287  25.224  20.729  1.00  0.00    -0.289 OA
BRANCH  16  18
ATOM     18  C   UNL A   1      32.332  26.344  22.541  1.00  0.00     0.022 A 
ATOM     19  C   UNL A   1      33.044  27.547  22.488  1.00  0.00     0.012 A 
ATOM     20  C   UNL A   1      31.076  26.293  23.154  1.00  0.00     0.012 A 
ATOM     21  C   UNL A   1      32.468  28.712  22.994  1.00  0.00     0.001 A 
ATOM     22  C   UNL A   1      30.503  27.463  23.656  1.00  0.00     0.001 A 
ATOM     23  C   UNL A   1      31.196  28.672  23.566  1.00  0.00     0.000 A 
ENDBRANCH  16  18
ENDBRANCH  14  16
ENDBRANCH   8  10
ENDBRANCH   6   8
ENDBRANCH   5   6
ENDBRANCH   4   5
ENDBRANCH   3   4
ENDBRANCH   2   3
ENDBRANCH   1   2
BRANCH   1  24
ATOM     24  C   UNL A   1      40.187  20.745  26.131  1.00  0.00     0.188 C 
BRANCH  24  25
ATOM     25  O   UNL A   1      40.882  19.717  26.794  1.00  0.00    -0.376 OA
BRANCH  25  26
ATOM     26  C   UNL A   1      42.297  19.699  26.750  1.00  0.00     0.202 C 
BRANCH  26  27
ATOM     27  C   UNL A   1      43.050  18.794  25.754  1.00  0.00     0.261 C 
BRANCH  27  28
ATOM     28  O   UNL A   1      43.425  19.366  24.491  1.00  0.00    -0.460 OA
BRANCH  28  29
ATOM     29  C   UNL A   1      44.739  19.600  24.283  1.00  0.00     0.338 C 
ATOM     30  O   UNL A   1      45.536  18.867  23.710  1.00  0.00    -0.246 OA
BRANCH  29  31
ATOM     31  C   UNL A   1      45.005  21.012  24.637  1.00  0.00     0.060 A 
ATOM     32  C   UNL A   1      45.644  21.299  25.853  1.00  0.00     0.016 A 
ATOM     33  C   UNL A   1      44.649  22.044  23.768  1.00  0.00     0.016 A 
ATOM     34  C   UNL A   1      45.914  22.621  26.207  1.00  0.00     0.010 A 
ATOM     35  C   UNL A   1      44.896  23.370  24.139  1.00  0.00     0.010 A 
ATOM     36  C   UNL A   1      45.507  23.667  25.370  1.00  0.00    -0.014 A 
BRANCH  36  37
ATOM     37  C   UNL A   1      45.540  25.065  25.865  1.00  0.00     0.031 A 
ATOM     38  C   UNL A   1      46.848  25.806  25.822  1.00  0.00     0.074 A 
ATOM     39  C   UNL A   1      44.437  25.679  26.328  1.00  0.00     0.049 A 
ATOM     40  N   UNL A   1      47.138  27.006  26.254  1.00  0.00    -0.248 NA
ATOM     41  C   UNL A   1      47.981  25.093  25.212  1.00  0.00     0.031 C 
ATOM     42  C   UNL A   1      43.097  25.101  26.365  1.00  0.00     0.029 A 
ATOM     43  N   UNL A   1      44.278  26.936  26.858  1.00  0.00    -0.354 N 
ATOM     44  C   UNL A   1      48.490  27.182  25.990  1.00  0.00     0.074 A 
ATOM     45  C   UNL A   1      48.965  25.962  25.376  1.00  0.00     0.031 C 
ATOM     46  C   UNL A   1      42.249  26.005  26.888  1.00  0.00     0.029 A 
ATOM     47  C   UNL A   1      42.993  27.206  27.263  1.00  0.00     0.049 A 
ATOM     48  H   UNL A   1      45.017  27.584  26.939  1.00  0.00     0.167 HD
ATOM     49  C   UNL A   1      49.269  28.260  26.242  1.00  0.00     0.031 A 
ATOM     50  C   UNL A   1      42.482  28.286  27.884  1.00  0.00     0.031 A 
ATOM     51  C   UNL A   1      48.804  29.468  26.869  1.00  0.00     0.049 A 
ATOM     52  C   UNL A   1      43.391  29.439  28.233  1.00  0.00     0.074 A 
ATOM     53  C   UNL A   1      49.519  30.617  27.160  1.00  0.00     0.029 A 
ATOM     54  N   UNL A   1      47.509  29.680  27.313  1.00  0.00    -0.354 N 
ATOM     55  N   UNL A   1      44.665  29.601  27.970  1.00  0.00    -0.248 NA
ATOM     56  C   UNL A   1      42.785  30.560  28.969  1.00  0.00     0.031 C 
ATOM     57  C   UNL A   1      48.672  31.497  27.841  1.00  0.00     0.029 A 
ATOM     58  C   UNL A   1      47.412  30.927  27.907  1.00  0.00     0.049 A 
ATOM     59  H   UNL A   1      46.767  29.039  27.220  1.00  0.00     0.167 HD
ATOM     60  C   UNL A   1      45.004  30.849  28.480  1.00  0.00     0.074 A 
ATOM     61  C   UNL A   1      43.798  31.411  29.051  1.00  0.00     0.031 C 
ATOM     62  C   UNL A   1      46.207  31.477  28.474  1.00  0.00     0.031 A 
BRANCH  49  63
ATOM     63  C   UNL A   1      50.727  28.154  25.890  1.00  0.00    -0.014 A 
ATOM     64  C   UNL A   1      51.207  28.521  24.623  1.00  0.00     0.009 A 
ATOM     65  C   UNL A   1      51.638  27.697  26.857  1.00  0.00     0.009 A 
ATOM     66  C   UNL A   1      52.565  28.397  24.320  1.00  0.00     0.001 A 
ATOM     67  C   UNL A   1      52.998  27.607  26.562  1.00  0.00     0.001 A 
ATOM     68  C   UNL A   1      53.459  27.946  25.291  1.00  0.00     0.000 A 
ENDBRANCH  49  63
BRANCH  50  69
ATOM     69  C   UNL A   1      41.041  28.333  28.255  1.00  0.00    -0.014 A 
ATOM     70  C   UNL A   1      40.110  28.981  27.428  1.00  0.00     0.009 A 
ATOM     71  C   UNL A   1      40.593  27.765  29.458  1.00  0.00     0.009 A 
ATOM     72  C   UNL A   1      38.770  29.086  27.811  1.00  0.00     0.001 A 
ATOM     73  C   UNL A   1      39.247  27.840  29.822  1.00  0.00     0.001 A 
ATOM     74  C   UNL A   1      38.339  28.510  29.005  1.00  0.00     0.000 A 
ENDBRANCH  50  69
BRANCH  62  75
ATOM     75  C   UNL A   1      46.275  32.859  29.065  1.00  0.00    -0.014 A 
ATOM     76  C   UNL A   1      46.552  33.065  30.425  1.00  0.00     0.009 A 
ATOM     77  C   UNL A   1      46.103  33.977  28.231  1.00  0.00     0.009 A 
ATOM     78  C   UNL A   1      46.620  34.361  30.945  1.00  0.00     0.001 A 
ATOM     79  C   UNL A   1      46.207  35.270  28.746  1.00  0.00     0.001 A 
ATOM     80  C   UNL A   1      46.453  35.461  30.105  1.00  0.00     0.000 A 
ENDBRANCH  62  75
ENDBRANCH  36  37
ENDBRANCH  29  31
ENDBRANCH  28  29
ENDBRANCH  27  28
ENDBRANCH  26  27
ENDBRANCH  25  26
ENDBRANCH  24  25
ENDBRANCH   1  24
TORSDOF 20
ENDMDL
