MODEL 1
REMARK VINA RESULT:      -9.4      0.000      0.000
REMARK SMILES Cc1nc(CSCC(=O)N2CCCC[C@@H]2C(=O)OCCOCCOCCOC(=O)c2ccc(-c3c4nc(c(-c5ccccc5)c5ccc([nH]5)c(-c5ccccc5)c5nc(c(-c6ccccc6)c6ccc3[nH]6)C=C5)C=C4)cc2)cs1
REMARK SMILES IDX 21 1 20 2 19 3 18 4 16 5 17 6 15 7 10 8 11 9 12 10 14 11
REMARK SMILES IDX 13 12 8 13 9 14 7 15 6 16 5 17 4 18 1 19 2 20 3 21 79 22
REMARK SMILES IDX 78 23 22 24 23 25 24 26 25 27 26 28 27 29 28 30 29 31 30 32
REMARK SMILES IDX 31 33 77 34 32 35 76 36 33 37 34 38 35 39 70 40 36 41 75 42
REMARK SMILES IDX 69 43 71 44 37 45 74 46 68 47 67 48 38 50 60 51 45 52 59 53
REMARK SMILES IDX 46 54 49 55 58 56 72 57 47 58 48 59 57 61 73 62 50 63 39 64
REMARK SMILES IDX 40 65 44 66 41 67 43 68 42 69 61 70 62 71 66 72 63 73 65 74
REMARK SMILES IDX 64 75 51 76 52 77 56 78 53 79 55 80 54 81
REMARK H PARENT 71 49 49 60
REMARK Flexibility Score: inf
ROOT
ATOM      1  O   UNL A   1      40.586  21.489  25.884  1.00  0.00    -0.376 OA
ENDROOT
BRANCH   1   2
ATOM      2  C   UNL A   1      39.330  22.105  26.138  1.00  0.00     0.202 C 
BRANCH   2   3
ATOM      3  C   UNL A   1      38.108  21.410  25.524  1.00  0.00     0.261 C 
BRANCH   3   4
ATOM      4  O   UNL A   1      36.840  22.100  25.428  1.00  0.00    -0.462 OA
BRANCH   4   5
ATOM      5  C   UNL A   1      36.214  22.406  24.269  1.00  0.00     0.328 C 
ATOM      6  O   UNL A   1      36.671  23.105  23.371  1.00  0.00    -0.250 OA
BRANCH   5   7
ATOM      7  C   UNL A   1      34.803  21.804  24.192  1.00  0.00     0.195 C 
ATOM      8  N   UNL A   1      33.744  22.789  24.448  1.00  0.00    -0.328 N 
ATOM      9  C   UNL A   1      32.369  22.304  24.475  1.00  0.00     0.120 C 
ATOM     10  C   UNL A   1      32.209  20.973  25.217  1.00  0.00     0.022 C 
ATOM     11  C   UNL A   1      34.626  20.484  24.948  1.00  0.00     0.037 C 
ATOM     12  C   UNL A   1      33.219  19.940  24.735  1.00  0.00     0.005 C 
BRANCH   8  13
ATOM     13  C   UNL A   1      34.049  23.967  25.131  1.00  0.00     0.233 C 
ATOM     14  O   UNL A   1      34.253  23.978  26.338  1.00  0.00    -0.274 OA
BRANCH  13  15
ATOM     15  C   UNL A   1      34.120  25.183  24.199  1.00  0.00     0.170 C 
BRANCH  15  16
ATOM     16  S   UNL A   1      33.143  25.055  22.654  1.00  0.00    -0.146 SA
BRANCH  16  17
ATOM     17  C   UNL A   1      31.591  25.832  23.169  1.00  0.00     0.127 C 
BRANCH  17  18
ATOM     18  C   UNL A   1      31.680  26.633  24.424  1.00  0.00     0.061 A 
ATOM     19  C   UNL A   1      32.431  29.960  25.698  1.00  0.00     0.079 C 
ATOM     20  C   UNL A   1      32.021  28.549  25.487  1.00  0.00     0.090 A 
ATOM     21  N   UNL A   1      32.077  27.955  24.319  1.00  0.00    -0.246 NA
ATOM     22  S   UNL A   1      31.434  27.580  26.774  1.00  0.00    -0.127 S 
ATOM     23  C   UNL A   1      31.255  26.264  25.688  1.00  0.00     0.091 A 
ENDBRANCH  17  18
ENDBRANCH  16  17
ENDBRANCH  15  16
ENDBRANCH  13  15
ENDBRANCH   8  13
ENDBRANCH   5   7
ENDBRANCH   4   5
ENDBRANCH   3   4
ENDBRANCH   2   3
ENDBRANCH   1   2
BRANCH   1  24
ATOM     24  C   UNL A   1      40.884  20.357  26.680  1.00  0.00     0.188 C 
BRANCH  24  25
ATOM     25  C   UNL A   1      42.236  19.706  26.380  1.00  0.00     0.188 C 
BRANCH  25  26
ATOM     26  O   UNL A   1      42.973  20.030  25.217  1.00  0.00    -0.376 OA
BRANCH  26  27
ATOM     27  C   UNL A   1      44.062  20.934  25.339  1.00  0.00     0.202 C 
BRANCH  27  28
ATOM     28  C   UNL A   1      44.131  22.163  24.414  1.00  0.00     0.261 C 
BRANCH  28  29
ATOM     29  O   UNL A   1      43.361  23.307  24.822  1.00  0.00    -0.460 OA
BRANCH  29  30
ATOM     30  C   UNL A   1      44.082  24.421  25.128  1.00  0.00     0.338 C 
ATOM     31  O   UNL A   1      45.127  24.778  24.627  1.00  0.00    -0.246 OA
BRANCH  30  32
ATOM     32  C   UNL A   1      43.256  25.298  26.003  1.00  0.00     0.060 A 
ATOM     33  C   UNL A   1      43.574  26.669  26.050  1.00  0.00     0.016 A 
ATOM     34  C   UNL A   1      42.173  24.805  26.729  1.00  0.00     0.016 A 
ATOM     35  C   UNL A   1      42.828  27.544  26.837  1.00  0.00     0.010 A 
ATOM     36  C   UNL A   1      41.459  25.673  27.563  1.00  0.00     0.010 A 
ATOM     37  C   UNL A   1      41.811  27.034  27.650  1.00  0.00    -0.014 A 
BRANCH  37  38
ATOM     38  C   UNL A   1      41.340  27.842  28.799  1.00  0.00     0.031 A 
ATOM     39  C   UNL A   1      42.110  27.719  30.087  1.00  0.00     0.074 A 
ATOM     40  C   UNL A   1      40.296  28.683  28.714  1.00  0.00     0.049 A 
ATOM     41  N   UNL A   1      41.879  28.262  31.254  1.00  0.00    -0.248 NA
ATOM     42  C   UNL A   1      43.305  26.860  30.046  1.00  0.00     0.031 C 
ATOM     43  C   UNL A   1      39.524  28.964  27.506  1.00  0.00     0.029 A 
ATOM     44  N   UNL A   1      39.711  29.459  29.682  1.00  0.00    -0.354 N 
ATOM     45  C   UNL A   1      42.889  27.795  32.087  1.00  0.00     0.074 A 
ATOM     46  C   UNL A   1      43.711  26.902  31.302  1.00  0.00     0.031 C 
ATOM     47  C   UNL A   1      38.558  29.850  27.808  1.00  0.00     0.029 A 
ATOM     48  C   UNL A   1      38.621  30.165  29.236  1.00  0.00     0.049 A 
ATOM     49  H   UNL A   1      40.040  29.506  30.608  1.00  0.00     0.167 HD
ATOM     50  C   UNL A   1      43.117  28.082  33.390  1.00  0.00     0.031 A 
ATOM     51  C   UNL A   1      37.764  30.956  29.911  1.00  0.00     0.031 A 
ATOM     52  C   UNL A   1      42.280  28.945  34.178  1.00  0.00     0.049 A 
ATOM     53  C   UNL A   1      37.958  31.161  31.392  1.00  0.00     0.074 A 
ATOM     54  C   UNL A   1      42.414  29.298  35.508  1.00  0.00     0.029 A 
ATOM     55  N   UNL A   1      41.139  29.577  33.708  1.00  0.00    -0.354 N 
ATOM     56  N   UNL A   1      38.914  30.719  32.174  1.00  0.00    -0.248 NA
ATOM     57  C   UNL A   1      36.950  31.981  32.082  1.00  0.00     0.031 C 
ATOM     58  C   UNL A   1      41.316  30.090  35.861  1.00  0.00     0.029 A 
ATOM     59  C   UNL A   1      40.539  30.291  34.730  1.00  0.00     0.049 A 
ATOM     60  H   UNL A   1      40.804  29.525  32.783  1.00  0.00     0.167 HD
ATOM     61  C   UNL A   1      38.644  31.235  33.437  1.00  0.00     0.074 A 
ATOM     62  C   UNL A   1      37.439  32.029  33.314  1.00  0.00     0.031 C 
ATOM     63  C   UNL A   1      39.335  31.073  34.593  1.00  0.00     0.031 A 
BRANCH  50  64
ATOM     64  C   UNL A   1      44.286  27.396  34.043  1.00  0.00    -0.014 A 
ATOM     65  C   UNL A   1      45.566  27.975  34.059  1.00  0.00     0.009 A 
ATOM     66  C   UNL A   1      44.109  26.130  34.623  1.00  0.00     0.009 A 
ATOM     67  C   UNL A   1      46.653  27.277  34.589  1.00  0.00     0.001 A 
ATOM     68  C   UNL A   1      45.190  25.451  35.186  1.00  0.00     0.001 A 
ATOM     69  C   UNL A   1      46.464  26.017  35.154  1.00  0.00     0.000 A 
ENDBRANCH  50  64
BRANCH  51  70
ATOM     70  C   UNL A   1      36.639  31.614  29.198  1.00  0.00    -0.014 A 
ATOM     71  C   UNL A   1      35.435  30.926  28.985  1.00  0.00     0.009 A 
ATOM     72  C   UNL A   1      36.761  32.929  28.720  1.00  0.00     0.009 A 
ATOM     73  C   UNL A   1      34.382  31.535  28.297  1.00  0.00     0.001 A 
ATOM     74  C   UNL A   1      35.697  33.545  28.057  1.00  0.00     0.001 A 
ATOM     75  C   UNL A   1      34.510  32.845  27.840  1.00  0.00     0.000 A 
ENDBRANCH  51  70
BRANCH  63  76
ATOM     76  C   UNL A   1      38.834  31.804  35.810  1.00  0.00    -0.014 A 
ATOM     77  C   UNL A   1      38.022  31.175  36.765  1.00  0.00     0.009 A 
ATOM     78  C   UNL A   1      39.223  33.138  36.023  1.00  0.00     0.009 A 
ATOM     79  C   UNL A   1      37.580  31.877  37.889  1.00  0.00     0.001 A 
ATOM     80  C   UNL A   1      38.808  33.825  37.164  1.00  0.00     0.001 A 
ATOM     81  C   UNL A   1      37.978  33.199  38.091  1.00  0.00     0.000 A 
ENDBRANCH  63  76
ENDBRANCH  37  38
ENDBRANCH  30  32
ENDBRANCH  29  30
ENDBRANCH  28  29
ENDBRANCH  27  28
ENDBRANCH  26  27
ENDBRANCH  25  26
ENDBRANCH  24  25
ENDBRANCH   1  24
TORSDOF 22
ENDMDL
MODEL 2
REMARK VINA RESULT:      -9.3      3.940      8.820
REMARK SMILES Cc1nc(CSCC(=O)N2CCCC[C@@H]2C(=O)OCCOCCOCCOC(=O)c2ccc(-c3c4nc(c(-c5ccccc5)c5ccc([nH]5)c(-c5ccccc5)c5nc(c(-c6ccccc6)c6ccc3[nH]6)C=C5)C=C4)cc2)cs1
REMARK SMILES IDX 21 1 20 2 19 3 18 4 16 5 17 6 15 7 10 8 11 9 12 10 14 11
REMARK SMILES IDX 13 12 8 13 9 14 7 15 6 16 5 17 4 18 1 19 2 20 3 21 79 22
REMARK SMILES IDX 78 23 22 24 23 25 24 26 25 27 26 28 27 29 28 30 29 31 30 32
REMARK SMILES IDX 31 33 77 34 32 35 76 36 33 37 34 38 35 39 70 40 36 41 75 42
REMARK SMILES IDX 69 43 71 44 37 45 74 46 68 47 67 48 38 50 60 51 45 52 59 53
REMARK SMILES IDX 46 54 49 55 58 56 72 57 47 58 48 59 57 61 73 62 50 63 39 64
REMARK SMILES IDX 40 65 44 66 41 67 43 68 42 69 61 70 62 71 66 72 63 73 65 74
REMARK SMILES IDX 64 75 51 76 52 77 56 78 53 79 55 80 54 81
REMARK H PARENT 71 49 49 60
REMARK Flexibility Score: inf
ROOT
ATOM      1  O   UNL A   1      34.806  30.038  27.303  1.00  0.00    -0.376 OA
ENDROOT
BRANCH   1   2
ATOM      2  C   UNL A   1      33.550  29.768  26.693  1.00  0.00     0.202 C 
BRANCH   2   3
ATOM      3  C   UNL A   1      33.201  28.286  26.510  1.00  0.00     0.261 C 
BRANCH   3   4
ATOM      4  O   UNL A   1      31.876  27.890  26.079  1.00  0.00    -0.462 OA
BRANCH   4   5
ATOM      5  C   UNL A   1      31.489  26.615  25.851  1.00  0.00     0.328 C 
ATOM      6  O   UNL A   1      30.333  26.231  25.715  1.00  0.00    -0.250 OA
BRANCH   5   7
ATOM      7  C   UNL A   1      32.678  25.642  25.814  1.00  0.00     0.195 C 
ATOM      8  N   UNL A   1      33.281  25.523  24.480  1.00  0.00    -0.328 N 
ATOM      9  C   UNL A   1      34.369  24.566  24.320  1.00  0.00     0.120 C 
ATOM     10  C   UNL A   1      34.121  23.236  25.041  1.00  0.00     0.022 C 
ATOM     11  C   UNL A   1      32.433  24.302  26.514  1.00  0.00     0.037 C 
ATOM     12  C   UNL A   1      33.700  23.456  26.488  1.00  0.00     0.005 C 
BRANCH   8  13
ATOM     13  C   UNL A   1      32.541  25.886  23.355  1.00  0.00     0.233 C 
ATOM     14  O   UNL A   1      31.467  25.358  23.092  1.00  0.00    -0.274 OA
BRANCH  13  15
ATOM     15  C   UNL A   1      33.212  27.003  22.547  1.00  0.00     0.170 C 
BRANCH  15  16
ATOM     16  S   UNL A   1      32.546  28.688  22.821  1.00  0.00    -0.146 SA
BRANCH  16  17
ATOM     17  C   UNL A   1      30.815  28.450  22.346  1.00  0.00     0.127 C 
BRANCH  17  18
ATOM     18  C   UNL A   1      29.961  29.667  22.467  1.00  0.00     0.061 A 
ATOM     19  C   UNL A   1      27.910  31.979  20.542  1.00  0.00     0.079 C 
ATOM     20  C   UNL A   1      28.614  31.192  21.586  1.00  0.00     0.090 A 
ATOM     21  N   UNL A   1      29.405  30.184  21.309  1.00  0.00    -0.246 NA
ATOM     22  S   UNL A   1      28.439  31.550  23.254  1.00  0.00    -0.127 S 
ATOM     23  C   UNL A   1      29.515  30.267  23.631  1.00  0.00     0.091 A 
ENDBRANCH  17  18
ENDBRANCH  16  17
ENDBRANCH  15  16
ENDBRANCH  13  15
ENDBRANCH   8  13
ENDBRANCH   5   7
ENDBRANCH   4   5
ENDBRANCH   3   4
ENDBRANCH   2   3
ENDBRANCH   1   2
BRANCH   1  24
ATOM     24  C   UNL A   1      34.774  30.944  28.390  1.00  0.00     0.188 C 
BRANCH  24  25
ATOM     25  C   UNL A   1      34.789  32.421  27.987  1.00  0.00     0.188 C 
BRANCH  25  26
ATOM     26  O   UNL A   1      33.770  33.312  28.400  1.00  0.00    -0.376 OA
BRANCH  26  27
ATOM     27  C   UNL A   1      34.068  34.699  28.454  1.00  0.00     0.202 C 
BRANCH  27  28
ATOM     28  C   UNL A   1      33.168  35.635  29.281  1.00  0.00     0.261 C 
BRANCH  28  29
ATOM     29  O   UNL A   1      32.513  35.043  30.416  1.00  0.00    -0.460 OA
BRANCH  29  30
ATOM     30  C   UNL A   1      32.772  35.632  31.616  1.00  0.00     0.338 C 
ATOM     31  O   UNL A   1      32.086  36.446  32.197  1.00  0.00    -0.246 OA
BRANCH  30  32
ATOM     32  C   UNL A   1      33.916  34.925  32.258  1.00  0.00     0.060 A 
ATOM     33  C   UNL A   1      35.180  35.542  32.214  1.00  0.00     0.016 A 
ATOM     34  C   UNL A   1      33.752  33.710  32.922  1.00  0.00     0.016 A 
ATOM     35  C   UNL A   1      36.285  34.939  32.811  1.00  0.00     0.010 A 
ATOM     36  C   UNL A   1      34.872  33.077  33.472  1.00  0.00     0.010 A 
ATOM     37  C   UNL A   1      36.146  33.670  33.382  1.00  0.00    -0.014 A 
BRANCH  37  38
ATOM     38  C   UNL A   1      37.358  32.843  33.591  1.00  0.00     0.031 A 
ATOM     39  C   UNL A   1      38.126  33.059  34.867  1.00  0.00     0.074 A 
ATOM     40  C   UNL A   1      37.756  31.908  32.712  1.00  0.00     0.049 A 
ATOM     41  N   UNL A   1      39.246  32.518  35.271  1.00  0.00    -0.248 NA
ATOM     42  C   UNL A   1      37.544  34.024  35.816  1.00  0.00     0.031 C 
ATOM     43  C   UNL A   1      37.056  31.537  31.486  1.00  0.00     0.029 A 
ATOM     44  N   UNL A   1      38.864  31.099  32.732  1.00  0.00    -0.354 N 
ATOM     45  C   UNL A   1      39.510  33.090  36.509  1.00  0.00     0.074 A 
ATOM     46  C   UNL A   1      38.454  34.041  36.775  1.00  0.00     0.031 C 
ATOM     47  C   UNL A   1      37.756  30.571  30.864  1.00  0.00     0.029 A 
ATOM     48  C   UNL A   1      38.971  30.288  31.629  1.00  0.00     0.049 A 
ATOM     49  H   UNL A   1      39.520  31.100  33.465  1.00  0.00     0.167 HD
ATOM     50  C   UNL A   1      40.537  32.848  37.356  1.00  0.00     0.031 A 
ATOM     51  C   UNL A   1      39.951  29.434  31.273  1.00  0.00     0.031 A 
ATOM     52  C   UNL A   1      41.605  31.927  37.077  1.00  0.00     0.049 A 
ATOM     53  C   UNL A   1      41.154  29.274  32.167  1.00  0.00     0.074 A 
ATOM     54  C   UNL A   1      42.700  31.611  37.861  1.00  0.00     0.029 A 
ATOM     55  N   UNL A   1      41.718  31.185  35.912  1.00  0.00    -0.354 N 
ATOM     56  N   UNL A   1      41.397  29.815  33.336  1.00  0.00    -0.248 NA
ATOM     57  C   UNL A   1      42.217  28.378  31.687  1.00  0.00     0.031 C 
ATOM     58  C   UNL A   1      43.511  30.728  37.139  1.00  0.00     0.029 A 
ATOM     59  C   UNL A   1      42.882  30.436  35.938  1.00  0.00     0.049 A 
ATOM     60  H   UNL A   1      41.066  31.189  35.173  1.00  0.00     0.167 HD
ATOM     61  C   UNL A   1      42.621  29.299  33.749  1.00  0.00     0.074 A 
ATOM     62  C   UNL A   1      43.065  28.396  32.707  1.00  0.00     0.031 C 
ATOM     63  C   UNL A   1      43.312  29.545  34.890  1.00  0.00     0.031 A 
BRANCH  50  64
ATOM     64  C   UNL A   1      40.573  33.651  38.629  1.00  0.00    -0.014 A 
ATOM     65  C   UNL A   1      41.237  34.887  38.701  1.00  0.00     0.009 A 
ATOM     66  C   UNL A   1      39.960  33.144  39.784  1.00  0.00     0.009 A 
ATOM     67  C   UNL A   1      41.335  35.568  39.916  1.00  0.00     0.001 A 
ATOM     68  C   UNL A   1      40.027  33.845  40.988  1.00  0.00     0.001 A 
ATOM     69  C   UNL A   1      40.728  35.048  41.058  1.00  0.00     0.000 A 
ENDBRANCH  50  64
BRANCH  51  70
ATOM     70  C   UNL A   1      39.842  28.663  30.007  1.00  0.00    -0.014 A 
ATOM     71  C   UNL A   1      40.272  29.224  28.795  1.00  0.00     0.009 A 
ATOM     72  C   UNL A   1      39.303  27.366  29.999  1.00  0.00     0.009 A 
ATOM     73  C   UNL A   1      40.153  28.510  27.600  1.00  0.00     0.001 A 
ATOM     74  C   UNL A   1      39.211  26.643  28.807  1.00  0.00     0.001 A 
ATOM     75  C   UNL A   1      39.629  27.218  27.608  1.00  0.00     0.000 A 
ENDBRANCH  51  70
BRANCH  63  76
ATOM     76  C   UNL A   1      44.600  28.792  35.098  1.00  0.00    -0.014 A 
ATOM     77  C   UNL A   1      45.837  29.327  34.708  1.00  0.00     0.009 A 
ATOM     78  C   UNL A   1      44.573  27.541  35.738  1.00  0.00     0.009 A 
ATOM     79  C   UNL A   1      47.016  28.609  34.923  1.00  0.00     0.001 A 
ATOM     80  C   UNL A   1      45.756  26.842  35.981  1.00  0.00     0.001 A 
ATOM     81  C   UNL A   1      46.975  27.371  35.564  1.00  0.00     0.000 A 
ENDBRANCH  63  76
ENDBRANCH  37  38
ENDBRANCH  30  32
ENDBRANCH  29  30
ENDBRANCH  28  29
ENDBRANCH  27  28
ENDBRANCH  26  27
ENDBRANCH  25  26
ENDBRANCH  24  25
ENDBRANCH   1  24
TORSDOF 22
ENDMDL
MODEL 3
REMARK VINA RESULT:      -9.3      4.441      9.525
REMARK SMILES Cc1nc(CSCC(=O)N2CCCC[C@@H]2C(=O)OCCOCCOCCOC(=O)c2ccc(-c3c4nc(c(-c5ccccc5)c5ccc([nH]5)c(-c5ccccc5)c5nc(c(-c6ccccc6)c6ccc3[nH]6)C=C5)C=C4)cc2)cs1
REMARK SMILES IDX 21 1 20 2 19 3 18 4 16 5 17 6 15 7 10 8 11 9 12 10 14 11
REMARK SMILES IDX 13 12 8 13 9 14 7 15 6 16 5 17 4 18 1 19 2 20 3 21 79 22
REMARK SMILES IDX 78 23 22 24 23 25 24 26 25 27 26 28 27 29 28 30 29 31 30 32
REMARK SMILES IDX 31 33 77 34 32 35 76 36 33 37 34 38 35 39 70 40 36 41 75 42
REMARK SMILES IDX 69 43 71 44 37 45 74 46 68 47 67 48 38 50 60 51 45 52 59 53
REMARK SMILES IDX 46 54 49 55 58 56 72 57 47 58 48 59 57 61 73 62 50 63 39 64
REMARK SMILES IDX 40 65 44 66 41 67 43 68 42 69 61 70 62 71 66 72 63 73 65 74
REMARK SMILES IDX 64 75 51 76 52 77 56 78 53 79 55 80 54 81
REMARK H PARENT 71 49 49 60
REMARK Flexibility Score: inf
ROOT
ATOM      1  O   UNL A   1      34.528  30.151  26.964  1.00  0.00    -0.376 OA
ENDROOT
BRANCH   1   2
ATOM      2  C   UNL A   1      33.357  29.396  27.249  1.00  0.00     0.202 C 
BRANCH   2   3
ATOM      3  C   UNL A   1      33.399  27.917  26.840  1.00  0.00     0.261 C 
BRANCH   3   4
ATOM      4  O   UNL A   1      32.189  27.123  26.827  1.00  0.00    -0.462 OA
BRANCH   4   5
ATOM      5  C   UNL A   1      32.138  25.800  26.552  1.00  0.00     0.328 C 
ATOM      6  O   UNL A   1      31.242  25.034  26.887  1.00  0.00    -0.250 OA
BRANCH   5   7
ATOM      7  C   UNL A   1      33.376  25.317  25.783  1.00  0.00     0.195 C 
ATOM      8  N   UNL A   1      33.281  25.552  24.336  1.00  0.00    -0.328 N 
ATOM      9  C   UNL A   1      34.373  25.060  23.504  1.00  0.00     0.120 C 
ATOM     10  C   UNL A   1      34.859  23.663  23.903  1.00  0.00     0.022 C 
ATOM     11  C   UNL A   1      33.858  23.913  26.159  1.00  0.00     0.037 C 
ATOM     12  C   UNL A   1      35.133  23.574  25.399  1.00  0.00     0.005 C 
BRANCH   8  13
ATOM     13  C   UNL A   1      32.030  25.744  23.750  1.00  0.00     0.233 C 
ATOM     14  O   UNL A   1      31.185  24.857  23.730  1.00  0.00    -0.274 OA
BRANCH  13  15
ATOM     15  C   UNL A   1      31.856  27.159  23.188  1.00  0.00     0.170 C 
BRANCH  15  16
ATOM     16  S   UNL A   1      30.584  28.189  24.012  1.00  0.00    -0.146 SA
BRANCH  16  17
ATOM     17  C   UNL A   1      29.474  28.533  22.623  1.00  0.00     0.127 C 
BRANCH  17  18
ATOM     18  C   UNL A   1      29.085  29.965  22.475  1.00  0.00     0.061 A 
ATOM     19  C   UNL A   1      27.680  32.365  20.123  1.00  0.00     0.079 C 
ATOM     20  C   UNL A   1      28.211  31.630  21.299  1.00  0.00     0.090 A 
ATOM     21  N   UNL A   1      28.590  30.376  21.248  1.00  0.00    -0.246 NA
ATOM     22  S   UNL A   1      28.367  32.381  22.834  1.00  0.00    -0.127 S 
ATOM     23  C   UNL A   1      29.003  30.921  23.472  1.00  0.00     0.091 A 
ENDBRANCH  17  18
ENDBRANCH  16  17
ENDBRANCH  15  16
ENDBRANCH  13  15
ENDBRANCH   8  13
ENDBRANCH   5   7
ENDBRANCH   4   5
ENDBRANCH   3   4
ENDBRANCH   2   3
ENDBRANCH   1   2
BRANCH   1  24
ATOM     24  C   UNL A   1      35.054  30.894  28.047  1.00  0.00     0.188 C 
BRANCH  24  25
ATOM     25  C   UNL A   1      34.323  32.209  28.331  1.00  0.00     0.188 C 
BRANCH  25  26
ATOM     26  O   UNL A   1      34.079  32.651  29.653  1.00  0.00    -0.376 OA
BRANCH  26  27
ATOM     27  C   UNL A   1      34.034  34.048  29.899  1.00  0.00     0.202 C 
BRANCH  27  28
ATOM     28  C   UNL A   1      34.546  34.596  31.244  1.00  0.00     0.261 C 
BRANCH  28  29
ATOM     29  O   UNL A   1      35.239  33.660  32.087  1.00  0.00    -0.460 OA
BRANCH  29  30
ATOM     30  C   UNL A   1      36.547  33.948  32.334  1.00  0.00     0.338 C 
ATOM     31  O   UNL A   1      36.983  34.723  33.158  1.00  0.00    -0.246 OA
BRANCH  30  32
ATOM     32  C   UNL A   1      37.398  32.961  31.614  1.00  0.00     0.060 A 
ATOM     33  C   UNL A   1      38.212  32.108  32.383  1.00  0.00     0.016 A 
ATOM     34  C   UNL A   1      37.373  32.841  30.225  1.00  0.00     0.016 A 
ATOM     35  C   UNL A   1      39.018  31.152  31.768  1.00  0.00     0.010 A 
ATOM     36  C   UNL A   1      38.225  31.921  29.604  1.00  0.00     0.010 A 
ATOM     37  C   UNL A   1      39.078  31.104  30.372  1.00  0.00    -0.014 A 
BRANCH  37  38
ATOM     38  C   UNL A   1      40.237  30.442  29.727  1.00  0.00     0.031 A 
ATOM     39  C   UNL A   1      41.508  31.240  29.615  1.00  0.00     0.074 A 
ATOM     40  C   UNL A   1      40.193  29.175  29.285  1.00  0.00     0.049 A 
ATOM     41  N   UNL A   1      42.643  30.928  29.045  1.00  0.00    -0.248 NA
ATOM     42  C   UNL A   1      41.489  32.578  30.231  1.00  0.00     0.031 C 
ATOM     43  C   UNL A   1      39.057  28.265  29.414  1.00  0.00     0.029 A 
ATOM     44  N   UNL A   1      41.148  28.438  28.633  1.00  0.00    -0.354 N 
ATOM     45  C   UNL A   1      43.463  32.036  29.220  1.00  0.00     0.074 A 
ATOM     46  C   UNL A   1      42.688  33.037  29.917  1.00  0.00     0.031 C 
ATOM     47  C   UNL A   1      39.382  27.087  28.851  1.00  0.00     0.029 A 
ATOM     48  C   UNL A   1      40.729  27.176  28.289  1.00  0.00     0.049 A 
ATOM     49  H   UNL A   1      42.049  28.780  28.430  1.00  0.00     0.167 HD
ATOM     50  C   UNL A   1      44.750  32.210  28.838  1.00  0.00     0.031 A 
ATOM     51  C   UNL A   1      41.358  26.216  27.583  1.00  0.00     0.031 A 
ATOM     52  C   UNL A   1      45.511  31.227  28.116  1.00  0.00     0.049 A 
ATOM     53  C   UNL A   1      42.745  26.476  27.052  1.00  0.00     0.074 A 
ATOM     54  C   UNL A   1      46.819  31.302  27.673  1.00  0.00     0.029 A 
ATOM     55  N   UNL A   1      45.022  29.993  27.717  1.00  0.00    -0.354 N 
ATOM     56  N   UNL A   1      43.516  27.524  27.221  1.00  0.00    -0.248 NA
ATOM     57  C   UNL A   1      43.347  25.414  26.233  1.00  0.00     0.031 C 
ATOM     58  C   UNL A   1      47.099  30.140  26.946  1.00  0.00     0.029 A 
ATOM     59  C   UNL A   1      45.991  29.309  27.002  1.00  0.00     0.049 A 
ATOM     60  H   UNL A   1      44.119  29.652  27.913  1.00  0.00     0.167 HD
ATOM     61  C   UNL A   1      44.706  27.233  26.562  1.00  0.00     0.074 A 
ATOM     62  C   UNL A   1      44.556  25.908  25.998  1.00  0.00     0.031 C 
ATOM     63  C   UNL A   1      45.824  27.991  26.442  1.00  0.00     0.031 A 
BRANCH  50  64
ATOM     64  C   UNL A   1      45.376  33.544  29.145  1.00  0.00    -0.014 A 
ATOM     65  C   UNL A   1      45.315  34.612  28.235  1.00  0.00     0.009 A 
ATOM     66  C   UNL A   1      46.067  33.722  30.353  1.00  0.00     0.009 A 
ATOM     67  C   UNL A   1      45.983  35.809  28.503  1.00  0.00     0.001 A 
ATOM     68  C   UNL A   1      46.701  34.933  30.634  1.00  0.00     0.001 A 
ATOM     69  C   UNL A   1      46.673  35.969  29.703  1.00  0.00     0.000 A 
ENDBRANCH  50  64
BRANCH  51  70
ATOM     70  C   UNL A   1      40.684  24.916  27.330  1.00  0.00    -0.014 A 
ATOM     71  C   UNL A   1      39.517  24.861  26.553  1.00  0.00     0.009 A 
ATOM     72  C   UNL A   1      41.195  23.724  27.868  1.00  0.00     0.009 A 
ATOM     73  C   UNL A   1      38.870  23.643  26.330  1.00  0.00     0.001 A 
ATOM     74  C   UNL A   1      40.562  22.504  27.620  1.00  0.00     0.001 A 
ATOM     75  C   UNL A   1      39.396  22.465  26.857  1.00  0.00     0.000 A 
ENDBRANCH  51  70
BRANCH  63  76
ATOM     76  C   UNL A   1      46.995  27.390  25.710  1.00  0.00    -0.014 A 
ATOM     77  C   UNL A   1      47.172  27.570  24.330  1.00  0.00     0.009 A 
ATOM     78  C   UNL A   1      47.962  26.667  26.429  1.00  0.00     0.009 A 
ATOM     79  C   UNL A   1      48.273  27.008  23.680  1.00  0.00     0.001 A 
ATOM     80  C   UNL A   1      49.078  26.136  25.783  1.00  0.00     0.001 A 
ATOM     81  C   UNL A   1      49.228  26.297  24.407  1.00  0.00     0.000 A 
ENDBRANCH  63  76
ENDBRANCH  37  38
ENDBRANCH  30  32
ENDBRANCH  29  30
ENDBRANCH  28  29
ENDBRANCH  27  28
ENDBRANCH  26  27
ENDBRANCH  25  26
ENDBRANCH  24  25
ENDBRANCH   1  24
TORSDOF 22
ENDMDL
