MODEL 1
REMARK VINA RESULT:     -10.7      0.000      0.000
REMARK SMILES CC[C@](NC(=O)c1cccc(CS(C)(=O)=O)c1)(C(=O)OCCOCCOCCOC(=O)c1ccc(-c2c3nc(c(-c4ccccc4)c4ccc([nH]4)c(-c4ccccc4)c4nc(c(-c5ccccc5)c5ccc2[nH]5)C=C4)C=C3)cc1)c1ccccc1
REMARK SMILES IDX 24 1 23 2 22 3 21 4 20 5 18 6 19 7 3 8 2 9 1 10 80 11 81 12
REMARK SMILES IDX 85 13 82 14 84 15 83 16 4 17 5 18 6 20 7 21 8 22 17 23 9 24
REMARK SMILES IDX 11 25 10 26 12 27 13 28 14 29 15 30 16 31 25 32 26 33 27 34
REMARK SMILES IDX 28 35 29 36 30 37 31 38 32 39 33 40 79 41 34 42 78 43 35 44
REMARK SMILES IDX 36 45 37 46 72 47 38 48 77 49 71 50 73 51 39 52 76 53 70 54
REMARK SMILES IDX 69 55 40 57 62 58 47 59 61 60 48 61 51 62 60 63 74 64 49 65
REMARK SMILES IDX 50 66 59 68 75 69 52 70 41 71 42 72 46 73 43 74 45 75 44 76
REMARK SMILES IDX 63 77 64 78 68 79 65 80 67 81 66 82 53 83 54 84 58 85 55 86
REMARK SMILES IDX 57 87 56 88
REMARK H PARENT 4 19 73 56 51 67
REMARK Flexibility Score: inf
ROOT
ATOM      1  C   UNL A   1      40.524  21.241  26.451  1.00  0.00     0.188 C 
ENDROOT
BRANCH   1   2
ATOM      2  O   UNL A   1      39.565  21.646  25.481  1.00  0.00    -0.376 OA
BRANCH   2   3
ATOM      3  C   UNL A   1      38.181  21.565  25.802  1.00  0.00     0.202 C 
BRANCH   3   4
ATOM      4  C   UNL A   1      37.214  22.570  25.153  1.00  0.00     0.261 C 
BRANCH   4   5
ATOM      5  O   UNL A   1      36.032  21.994  24.549  1.00  0.00    -0.461 OA
BRANCH   5   6
ATOM      6  C   UNL A   1      34.998  21.728  25.405  1.00  0.00     0.336 C 
ATOM      7  O   UNL A   1      35.136  21.709  26.627  1.00  0.00    -0.249 OA
BRANCH   6   8
ATOM      8  C   UNL A   1      33.586  21.468  24.672  1.00  0.00     0.163 C 
BRANCH   8   9
ATOM      9  C   UNL A   1      33.721  22.474  23.480  1.00  0.00     0.042 C 
ATOM     10  C   UNL A   1      32.522  22.749  22.593  1.00  0.00     0.007 C 
ENDBRANCH   8   9
BRANCH   8  11
ATOM     11  C   UNL A   1      33.491  19.977  24.264  1.00  0.00    -0.011 A 
ATOM     12  C   UNL A   1      34.441  19.012  24.664  1.00  0.00     0.007 A 
ATOM     13  C   UNL A   1      32.469  19.504  23.426  1.00  0.00     0.007 A 
ATOM     14  C   UNL A   1      34.359  17.671  24.265  1.00  0.00     0.000 A 
ATOM     15  C   UNL A   1      32.366  18.161  23.041  1.00  0.00     0.000 A 
ATOM     16  C   UNL A   1      33.311  17.241  23.465  1.00  0.00     0.000 A 
ENDBRANCH   8  11
BRANCH   8  17
ATOM     17  N   UNL A   1      32.498  21.945  25.594  1.00  0.00    -0.332 N 
ATOM     18  C   UNL A   1      32.082  23.065  26.264  1.00  0.00     0.252 C 
ATOM     19  H   UNL A   1      31.875  21.205  25.777  1.00  0.00     0.165 HD
ATOM     20  O   UNL A   1      31.350  22.908  27.242  1.00  0.00    -0.269 OA
BRANCH  18  21
ATOM     21  C   UNL A   1      32.391  24.456  25.889  1.00  0.00     0.040 A 
ATOM     22  C   UNL A   1      33.687  24.935  26.100  1.00  0.00     0.014 A 
ATOM     23  C   UNL A   1      31.393  25.340  25.457  1.00  0.00     0.018 A 
ATOM     24  C   UNL A   1      34.004  26.256  25.781  1.00  0.00     0.001 A 
ATOM     25  C   UNL A   1      31.712  26.668  25.089  1.00  0.00    -0.032 A 
ATOM     26  C   UNL A   1      33.031  27.108  25.254  1.00  0.00     0.005 A 
BRANCH  25  27
ATOM     27  C   UNL A   1      30.702  27.511  24.355  1.00  0.00     0.172 C 
BRANCH  27  28
ATOM     28  S   UNL A   1      31.149  27.971  22.694  1.00  0.00     0.151 S 
ATOM     29  C   UNL A   1      31.701  26.464  21.930  1.00  0.00     0.158 C 
ATOM     30  O   UNL A   1      29.908  28.326  22.030  1.00  0.00    -0.229 OA
ATOM     31  O   UNL A   1      32.250  28.912  22.715  1.00  0.00    -0.229 OA
ENDBRANCH  27  28
ENDBRANCH  25  27
ENDBRANCH  18  21
ENDBRANCH   8  17
ENDBRANCH   6   8
ENDBRANCH   5   6
ENDBRANCH   4   5
ENDBRANCH   3   4
ENDBRANCH   2   3
ENDBRANCH   1   2
BRANCH   1  32
ATOM     32  C   UNL A   1      41.208  19.868  26.322  1.00  0.00     0.188 C 
BRANCH  32  33
ATOM     33  O   UNL A   1      42.244  19.819  25.380  1.00  0.00    -0.376 OA
BRANCH  33  34
ATOM     34  C   UNL A   1      43.495  20.388  25.715  1.00  0.00     0.202 C 
BRANCH  34  35
ATOM     35  C   UNL A   1      44.141  21.556  24.937  1.00  0.00     0.261 C 
BRANCH  35  36
ATOM     36  O   UNL A   1      43.512  22.845  25.013  1.00  0.00    -0.460 OA
BRANCH  36  37
ATOM     37  C   UNL A   1      44.283  23.884  25.406  1.00  0.00     0.338 C 
ATOM     38  O   UNL A   1      45.434  24.129  25.057  1.00  0.00    -0.246 OA
BRANCH  37  39
ATOM     39  C   UNL A   1      43.476  24.781  26.252  1.00  0.00     0.060 A 
ATOM     40  C   UNL A   1      43.672  26.162  26.165  1.00  0.00     0.016 A 
ATOM     41  C   UNL A   1      42.571  24.262  27.179  1.00  0.00     0.016 A 
ATOM     42  C   UNL A   1      42.961  27.024  26.993  1.00  0.00     0.010 A 
ATOM     43  C   UNL A   1      41.892  25.134  28.043  1.00  0.00     0.010 A 
ATOM     44  C   UNL A   1      42.109  26.521  27.979  1.00  0.00    -0.014 A 
BRANCH  44  45
ATOM     45  C   UNL A   1      41.636  27.435  29.055  1.00  0.00     0.031 A 
ATOM     46  C   UNL A   1      42.428  27.509  30.337  1.00  0.00     0.074 A 
ATOM     47  C   UNL A   1      40.599  28.274  28.875  1.00  0.00     0.049 A 
ATOM     48  N   UNL A   1      42.135  28.109  31.464  1.00  0.00    -0.248 NA
ATOM     49  C   UNL A   1      43.722  26.807  30.346  1.00  0.00     0.031 C 
ATOM     50  C   UNL A   1      39.823  28.423  27.643  1.00  0.00     0.029 A 
ATOM     51  N   UNL A   1      40.024  29.174  29.741  1.00  0.00    -0.354 N 
ATOM     52  C   UNL A   1      43.203  27.842  32.315  1.00  0.00     0.074 A 
ATOM     53  C   UNL A   1      44.130  27.003  31.589  1.00  0.00     0.031 C 
ATOM     54  C   UNL A   1      38.875  29.357  27.835  1.00  0.00     0.029 A 
ATOM     55  C   UNL A   1      38.930  29.820  29.219  1.00  0.00     0.049 A 
ATOM     56  H   UNL A   1      40.364  29.339  30.650  1.00  0.00     0.167 HD
ATOM     57  C   UNL A   1      43.400  28.265  33.586  1.00  0.00     0.031 A 
ATOM     58  C   UNL A   1      38.044  30.650  29.804  1.00  0.00     0.031 A 
ATOM     59  C   UNL A   1      42.503  29.133  34.299  1.00  0.00     0.049 A 
ATOM     60  C   UNL A   1      38.196  30.985  31.265  1.00  0.00     0.074 A 
ATOM     61  C   UNL A   1      42.598  29.592  35.601  1.00  0.00     0.029 A 
ATOM     62  N   UNL A   1      41.354  29.686  33.759  1.00  0.00    -0.354 N 
ATOM     63  N   UNL A   1      39.156  30.657  32.094  1.00  0.00    -0.248 NA
ATOM     64  C   UNL A   1      37.128  31.794  31.874  1.00  0.00     0.031 C 
ATOM     65  C   UNL A   1      41.473  30.379  35.867  1.00  0.00     0.029 A 
ATOM     66  C   UNL A   1      40.712  30.459  34.712  1.00  0.00     0.049 A 
ATOM     67  H   UNL A   1      41.040  29.550  32.836  1.00  0.00     0.167 HD
ATOM     68  C   UNL A   1      38.821  31.233  33.314  1.00  0.00     0.074 A 
ATOM     69  C   UNL A   1      37.579  31.950  33.111  1.00  0.00     0.031 C 
ATOM     70  C   UNL A   1      39.481  31.173  34.496  1.00  0.00     0.031 A 
BRANCH  57  71
ATOM     71  C   UNL A   1      44.607  27.739  34.308  1.00  0.00    -0.014 A 
ATOM     72  C   UNL A   1      44.574  26.532  35.024  1.00  0.00     0.009 A 
ATOM     73  C   UNL A   1      45.808  28.462  34.248  1.00  0.00     0.009 A 
ATOM     74  C   UNL A   1      45.716  26.078  35.690  1.00  0.00     0.001 A 
ATOM     75  C   UNL A   1      46.954  27.993  34.890  1.00  0.00     0.001 A 
ATOM     76  C   UNL A   1      46.904  26.805  35.618  1.00  0.00     0.000 A 
ENDBRANCH  57  71
BRANCH  58  77
ATOM     77  C   UNL A   1      36.880  31.167  29.034  1.00  0.00    -0.014 A 
ATOM     78  C   UNL A   1      36.815  32.511  28.637  1.00  0.00     0.009 A 
ATOM     79  C   UNL A   1      35.802  30.319  28.729  1.00  0.00     0.009 A 
ATOM     80  C   UNL A   1      35.689  32.998  27.968  1.00  0.00     0.001 A 
ATOM     81  C   UNL A   1      34.692  30.801  28.031  1.00  0.00     0.001 A 
ATOM     82  C   UNL A   1      34.632  32.142  27.660  1.00  0.00     0.000 A 
ENDBRANCH  58  77
BRANCH  70  83
ATOM     83  C   UNL A   1      38.900  31.938  35.652  1.00  0.00    -0.014 A 
ATOM     84  C   UNL A   1      38.195  31.288  36.676  1.00  0.00     0.009 A 
ATOM     85  C   UNL A   1      39.104  33.324  35.739  1.00  0.00     0.009 A 
ATOM     86  C   UNL A   1      37.678  32.017  37.748  1.00  0.00     0.001 A 
ATOM     87  C   UNL A   1      38.611  34.046  36.827  1.00  0.00     0.001 A 
ATOM     88  C   UNL A   1      37.890  33.394  37.825  1.00  0.00     0.000 A 
ENDBRANCH  70  83
ENDBRANCH  44  45
ENDBRANCH  37  39
ENDBRANCH  36  37
ENDBRANCH  35  36
ENDBRANCH  34  35
ENDBRANCH  33  34
ENDBRANCH  32  33
ENDBRANCH   1  32
TORSDOF 23
ENDMDL
MODEL 2
REMARK VINA RESULT:     -10.5      4.107      6.207
REMARK SMILES CC[C@](NC(=O)c1cccc(CS(C)(=O)=O)c1)(C(=O)OCCOCCOCCOC(=O)c1ccc(-c2c3nc(c(-c4ccccc4)c4ccc([nH]4)c(-c4ccccc4)c4nc(c(-c5ccccc5)c5ccc2[nH]5)C=C4)C=C3)cc1)c1ccccc1
REMARK SMILES IDX 24 1 23 2 22 3 21 4 20 5 18 6 19 7 3 8 2 9 1 10 80 11 81 12
REMARK SMILES IDX 85 13 82 14 84 15 83 16 4 17 5 18 6 20 7 21 8 22 17 23 9 24
REMARK SMILES IDX 11 25 10 26 12 27 13 28 14 29 15 30 16 31 25 32 26 33 27 34
REMARK SMILES IDX 28 35 29 36 30 37 31 38 32 39 33 40 79 41 34 42 78 43 35 44
REMARK SMILES IDX 36 45 37 46 72 47 38 48 77 49 71 50 73 51 39 52 76 53 70 54
REMARK SMILES IDX 69 55 40 57 62 58 47 59 61 60 48 61 51 62 60 63 74 64 49 65
REMARK SMILES IDX 50 66 59 68 75 69 52 70 41 71 42 72 46 73 43 74 45 75 44 76
REMARK SMILES IDX 63 77 64 78 68 79 65 80 67 81 66 82 53 83 54 84 58 85 55 86
REMARK SMILES IDX 57 87 56 88
REMARK H PARENT 4 19 73 56 51 67
REMARK Flexibility Score: inf
ROOT
ATOM      1  C   UNL A   1      39.950  21.799  26.257  1.00  0.00     0.188 C 
ENDROOT
BRANCH   1   2
ATOM      2  O   UNL A   1      38.895  21.021  25.705  1.00  0.00    -0.376 OA
BRANCH   2   3
ATOM      3  C   UNL A   1      37.850  21.678  24.997  1.00  0.00     0.202 C 
BRANCH   3   4
ATOM      4  C   UNL A   1      36.875  22.570  25.784  1.00  0.00     0.261 C 
BRANCH   4   5
ATOM      5  O   UNL A   1      35.521  22.613  25.276  1.00  0.00    -0.461 OA
BRANCH   5   6
ATOM      6  C   UNL A   1      34.567  22.056  26.084  1.00  0.00     0.336 C 
ATOM      7  O   UNL A   1      34.681  22.003  27.308  1.00  0.00    -0.249 OA
BRANCH   6   8
ATOM      8  C   UNL A   1      33.277  21.501  25.293  1.00  0.00     0.163 C 
BRANCH   8   9
ATOM      9  C   UNL A   1      33.379  22.361  23.989  1.00  0.00     0.042 C 
ATOM     10  C   UNL A   1      32.423  22.099  22.842  1.00  0.00     0.007 C 
ENDBRANCH   8   9
BRANCH   8  11
ATOM     11  C   UNL A   1      33.425  19.974  25.084  1.00  0.00    -0.011 A 
ATOM     12  C   UNL A   1      32.396  19.056  25.389  1.00  0.00     0.007 A 
ATOM     13  C   UNL A   1      34.621  19.404  24.619  1.00  0.00     0.007 A 
ATOM     14  C   UNL A   1      32.553  17.673  25.222  1.00  0.00     0.000 A 
ATOM     15  C   UNL A   1      34.778  18.025  24.427  1.00  0.00     0.000 A 
ATOM     16  C   UNL A   1      33.741  17.157  24.725  1.00  0.00     0.000 A 
ENDBRANCH   8  11
BRANCH   8  17
ATOM     17  N   UNL A   1      32.054  21.921  26.061  1.00  0.00    -0.332 N 
ATOM     18  C   UNL A   1      31.381  23.043  26.463  1.00  0.00     0.252 C 
ATOM     19  H   UNL A   1      31.578  21.121  26.383  1.00  0.00     0.165 HD
ATOM     20  O   UNL A   1      30.626  22.942  27.432  1.00  0.00    -0.269 OA
BRANCH  18  21
ATOM     21  C   UNL A   1      31.435  24.361  25.807  1.00  0.00     0.040 A 
ATOM     22  C   UNL A   1      30.392  24.727  24.952  1.00  0.00     0.014 A 
ATOM     23  C   UNL A   1      32.560  25.191  25.916  1.00  0.00     0.018 A 
ATOM     24  C   UNL A   1      30.428  25.959  24.294  1.00  0.00     0.001 A 
ATOM     25  C   UNL A   1      32.587  26.459  25.289  1.00  0.00    -0.032 A 
ATOM     26  C   UNL A   1      31.504  26.828  24.483  1.00  0.00     0.005 A 
BRANCH  25  27
ATOM     27  C   UNL A   1      33.660  27.454  25.647  1.00  0.00     0.172 C 
BRANCH  27  28
ATOM     28  S   UNL A   1      33.139  28.803  26.685  1.00  0.00     0.151 S 
ATOM     29  C   UNL A   1      31.782  28.158  27.636  1.00  0.00     0.158 C 
ATOM     30  O   UNL A   1      34.220  29.023  27.628  1.00  0.00    -0.229 OA
ATOM     31  O   UNL A   1      32.656  29.902  25.873  1.00  0.00    -0.229 OA
ENDBRANCH  27  28
ENDBRANCH  25  27
ENDBRANCH  18  21
ENDBRANCH   8  17
ENDBRANCH   6   8
ENDBRANCH   5   6
ENDBRANCH   4   5
ENDBRANCH   3   4
ENDBRANCH   2   3
ENDBRANCH   1   2
BRANCH   1  32
ATOM     32  C   UNL A   1      41.362  21.196  26.377  1.00  0.00     0.188 C 
BRANCH  32  33
ATOM     33  O   UNL A   1      41.614  20.123  25.512  1.00  0.00    -0.376 OA
BRANCH  33  34
ATOM     34  C   UNL A   1      42.279  18.983  26.019  1.00  0.00     0.202 C 
BRANCH  34  35
ATOM     35  C   UNL A   1      43.622  18.456  25.466  1.00  0.00     0.261 C 
BRANCH  35  36
ATOM     36  O   UNL A   1      44.082  18.974  24.208  1.00  0.00    -0.460 OA
BRANCH  36  37
ATOM     37  C   UNL A   1      45.247  19.659  24.214  1.00  0.00     0.338 C 
ATOM     38  O   UNL A   1      46.325  19.298  23.750  1.00  0.00    -0.246 OA
BRANCH  37  39
ATOM     39  C   UNL A   1      45.007  21.002  24.772  1.00  0.00     0.060 A 
ATOM     40  C   UNL A   1      44.599  22.033  23.922  1.00  0.00     0.016 A 
ATOM     41  C   UNL A   1      45.243  21.265  26.122  1.00  0.00     0.016 A 
ATOM     42  C   UNL A   1      44.418  23.320  24.416  1.00  0.00     0.010 A 
ATOM     43  C   UNL A   1      45.104  22.574  26.605  1.00  0.00     0.010 A 
ATOM     44  C   UNL A   1      44.724  23.620  25.746  1.00  0.00    -0.014 A 
BRANCH  44  45
ATOM     45  C   UNL A   1      44.849  25.047  26.151  1.00  0.00     0.031 A 
ATOM     46  C   UNL A   1      46.194  25.718  26.020  1.00  0.00     0.074 A 
ATOM     47  C   UNL A   1      43.782  25.781  26.518  1.00  0.00     0.049 A 
ATOM     48  N   UNL A   1      46.583  26.895  26.445  1.00  0.00    -0.248 NA
ATOM     49  C   UNL A   1      47.238  24.954  25.316  1.00  0.00     0.031 C 
ATOM     50  C   UNL A   1      42.395  25.315  26.557  1.00  0.00     0.029 A 
ATOM     51  N   UNL A   1      43.703  27.093  26.924  1.00  0.00    -0.354 N 
ATOM     52  C   UNL A   1      47.919  27.000  26.072  1.00  0.00     0.074 A 
ATOM     53  C   UNL A   1      48.281  25.763  25.418  1.00  0.00     0.031 C 
ATOM     54  C   UNL A   1      41.607  26.325  26.964  1.00  0.00     0.029 A 
ATOM     55  C   UNL A   1      42.437  27.485  27.282  1.00  0.00     0.049 A 
ATOM     56  H   UNL A   1      44.482  27.694  26.954  1.00  0.00     0.167 HD
ATOM     57  C   UNL A   1      48.768  28.040  26.249  1.00  0.00     0.031 A 
ATOM     58  C   UNL A   1      42.003  28.628  27.850  1.00  0.00     0.031 A 
ATOM     59  C   UNL A   1      48.404  29.288  26.860  1.00  0.00     0.049 A 
ATOM     60  C   UNL A   1      42.995  29.712  28.180  1.00  0.00     0.074 A 
ATOM     61  C   UNL A   1      49.201  30.390  27.114  1.00  0.00     0.029 A 
ATOM     62  N   UNL A   1      47.128  29.604  27.297  1.00  0.00    -0.354 N 
ATOM     63  N   UNL A   1      44.275  29.774  27.911  1.00  0.00    -0.248 NA
ATOM     64  C   UNL A   1      42.479  30.881  28.911  1.00  0.00     0.031 C 
ATOM     65  C   UNL A   1      48.418  31.354  27.758  1.00  0.00     0.029 A 
ATOM     66  C   UNL A   1      47.122  30.874  27.849  1.00  0.00     0.049 A 
ATOM     67  H   UNL A   1      46.344  29.014  27.227  1.00  0.00     0.167 HD
ATOM     68  C   UNL A   1      44.715  30.991  28.418  1.00  0.00     0.074 A 
ATOM     69  C   UNL A   1      43.559  31.647  28.994  1.00  0.00     0.031 C 
ATOM     70  C   UNL A   1      45.964  31.518  28.411  1.00  0.00     0.031 A 
BRANCH  57  71
ATOM     71  C   UNL A   1      50.197  27.842  25.829  1.00  0.00    -0.014 A 
ATOM     72  C   UNL A   1      50.639  28.161  24.536  1.00  0.00     0.009 A 
ATOM     73  C   UNL A   1      51.121  27.348  26.762  1.00  0.00     0.009 A 
ATOM     74  C   UNL A   1      51.975  27.957  24.179  1.00  0.00     0.001 A 
ATOM     75  C   UNL A   1      52.460  27.171  26.412  1.00  0.00     0.001 A 
ATOM     76  C   UNL A   1      52.884  27.468  25.118  1.00  0.00     0.000 A 
ENDBRANCH  57  71
BRANCH  58  77
ATOM     77  C   UNL A   1      40.570  28.784  28.220  1.00  0.00    -0.014 A 
ATOM     78  C   UNL A   1      40.096  28.358  29.470  1.00  0.00     0.009 A 
ATOM     79  C   UNL A   1      39.657  29.324  27.299  1.00  0.00     0.009 A 
ATOM     80  C   UNL A   1      38.737  28.454  29.782  1.00  0.00     0.001 A 
ATOM     81  C   UNL A   1      38.305  29.449  27.626  1.00  0.00     0.001 A 
ATOM     82  C   UNL A   1      37.845  29.004  28.863  1.00  0.00     0.000 A 
ENDBRANCH  58  77
BRANCH  70  83
ATOM     83  C   UNL A   1      46.139  32.889  29.001  1.00  0.00    -0.014 A 
ATOM     84  C   UNL A   1      46.497  33.063  30.347  1.00  0.00     0.009 A 
ATOM     85  C   UNL A   1      45.990  34.021  28.184  1.00  0.00     0.009 A 
ATOM     86  C   UNL A   1      46.669  34.346  30.870  1.00  0.00     0.001 A 
ATOM     87  C   UNL A   1      46.192  35.301  28.702  1.00  0.00     0.001 A 
ATOM     88  C   UNL A   1      46.522  35.463  30.046  1.00  0.00     0.000 A 
ENDBRANCH  70  83
ENDBRANCH  44  45
ENDBRANCH  37  39
ENDBRANCH  36  37
ENDBRANCH  35  36
ENDBRANCH  34  35
ENDBRANCH  33  34
ENDBRANCH  32  33
ENDBRANCH   1  32
TORSDOF 23
ENDMDL
MODEL 3
REMARK VINA RESULT:     -10.5      4.491      7.077
REMARK SMILES CC[C@](NC(=O)c1cccc(CS(C)(=O)=O)c1)(C(=O)OCCOCCOCCOC(=O)c1ccc(-c2c3nc(c(-c4ccccc4)c4ccc([nH]4)c(-c4ccccc4)c4nc(c(-c5ccccc5)c5ccc2[nH]5)C=C4)C=C3)cc1)c1ccccc1
REMARK SMILES IDX 24 1 23 2 22 3 21 4 20 5 18 6 19 7 3 8 2 9 1 10 80 11 81 12
REMARK SMILES IDX 85 13 82 14 84 15 83 16 4 17 5 18 6 20 7 21 8 22 17 23 9 24
REMARK SMILES IDX 11 25 10 26 12 27 13 28 14 29 15 30 16 31 25 32 26 33 27 34
REMARK SMILES IDX 28 35 29 36 30 37 31 38 32 39 33 40 79 41 34 42 78 43 35 44
REMARK SMILES IDX 36 45 37 46 72 47 38 48 77 49 71 50 73 51 39 52 76 53 70 54
REMARK SMILES IDX 69 55 40 57 62 58 47 59 61 60 48 61 51 62 60 63 74 64 49 65
REMARK SMILES IDX 50 66 59 68 75 69 52 70 41 71 42 72 46 73 43 74 45 75 44 76
REMARK SMILES IDX 63 77 64 78 68 79 65 80 67 81 66 82 53 83 54 84 58 85 55 86
REMARK SMILES IDX 57 87 56 88
REMARK H PARENT 4 19 73 56 51 67
REMARK Flexibility Score: inf
ROOT
ATOM      1  C   UNL A   1      38.992  21.885  26.029  1.00  0.00     0.188 C 
ENDROOT
BRANCH   1   2
ATOM      2  O   UNL A   1      38.174  23.037  26.192  1.00  0.00    -0.376 OA
BRANCH   2   3
ATOM      3  C   UNL A   1      36.973  23.143  25.436  1.00  0.00     0.202 C 
BRANCH   3   4
ATOM      4  C   UNL A   1      36.155  24.442  25.532  1.00  0.00     0.261 C 
BRANCH   4   5
ATOM      5  O   UNL A   1      34.803  24.366  25.022  1.00  0.00    -0.461 OA
BRANCH   5   6
ATOM      6  C   UNL A   1      33.816  24.294  25.967  1.00  0.00     0.336 C 
ATOM      7  O   UNL A   1      33.935  23.643  27.004  1.00  0.00    -0.249 OA
BRANCH   6   8
ATOM      8  C   UNL A   1      32.500  25.154  25.611  1.00  0.00     0.163 C 
BRANCH   8   9
ATOM      9  C   UNL A   1      31.408  24.248  26.273  1.00  0.00     0.042 C 
ATOM     10  C   UNL A   1      30.960  22.981  25.570  1.00  0.00     0.007 C 
ENDBRANCH   8   9
BRANCH   8  11
ATOM     11  C   UNL A   1      32.636  26.570  26.225  1.00  0.00    -0.011 A 
ATOM     12  C   UNL A   1      33.873  27.240  26.337  1.00  0.00     0.007 A 
ATOM     13  C   UNL A   1      31.530  27.256  26.753  1.00  0.00     0.007 A 
ATOM     14  C   UNL A   1      33.987  28.510  26.920  1.00  0.00     0.000 A 
ATOM     15  C   UNL A   1      31.631  28.534  27.316  1.00  0.00     0.000 A 
ATOM     16  C   UNL A   1      32.861  29.165  27.396  1.00  0.00     0.000 A 
ENDBRANCH   8  11
BRANCH   8  17
ATOM     17  N   UNL A   1      32.323  25.124  24.118  1.00  0.00    -0.332 N 
ATOM     18  C   UNL A   1      31.402  25.414  23.148  1.00  0.00     0.252 C 
ATOM     19  H   UNL A   1      33.144  24.781  23.697  1.00  0.00     0.165 HD
ATOM     20  O   UNL A   1      31.523  24.855  22.057  1.00  0.00    -0.269 OA
BRANCH  18  21
ATOM     21  C   UNL A   1      30.297  26.382  23.271  1.00  0.00     0.040 A 
ATOM     22  C   UNL A   1      29.046  25.922  23.691  1.00  0.00     0.014 A 
ATOM     23  C   UNL A   1      30.436  27.714  22.854  1.00  0.00     0.018 A 
ATOM     24  C   UNL A   1      27.974  26.809  23.792  1.00  0.00     0.001 A 
ATOM     25  C   UNL A   1      29.369  28.631  22.994  1.00  0.00    -0.032 A 
ATOM     26  C   UNL A   1      28.141  28.158  23.472  1.00  0.00     0.005 A 
BRANCH  25  27
ATOM     27  C   UNL A   1      29.614  30.107  22.822  1.00  0.00     0.172 C 
BRANCH  27  28
ATOM     28  S   UNL A   1      28.171  31.089  22.478  1.00  0.00     0.151 S 
ATOM     29  C   UNL A   1      28.761  32.764  22.389  1.00  0.00     0.158 C 
ATOM     30  O   UNL A   1      27.759  30.738  21.131  1.00  0.00    -0.229 OA
ATOM     31  O   UNL A   1      27.224  30.987  23.570  1.00  0.00    -0.229 OA
ENDBRANCH  27  28
ENDBRANCH  25  27
ENDBRANCH  18  21
ENDBRANCH   8  17
ENDBRANCH   6   8
ENDBRANCH   5   6
ENDBRANCH   4   5
ENDBRANCH   3   4
ENDBRANCH   2   3
ENDBRANCH   1   2
BRANCH   1  32
ATOM     32  C   UNL A   1      40.430  21.884  26.581  1.00  0.00     0.188 C 
BRANCH  32  33
ATOM     33  O   UNL A   1      40.815  20.689  27.203  1.00  0.00    -0.376 OA
BRANCH  33  34
ATOM     34  C   UNL A   1      41.115  19.568  26.395  1.00  0.00     0.202 C 
BRANCH  34  35
ATOM     35  C   UNL A   1      42.551  19.154  26.001  1.00  0.00     0.261 C 
BRANCH  35  36
ATOM     36  O   UNL A   1      43.039  19.561  24.713  1.00  0.00    -0.460 OA
BRANCH  36  37
ATOM     37  C   UNL A   1      44.379  19.666  24.568  1.00  0.00     0.338 C 
ATOM     38  O   UNL A   1      45.156  18.794  24.190  1.00  0.00    -0.246 OA
BRANCH  37  39
ATOM     39  C   UNL A   1      44.778  21.061  24.824  1.00  0.00     0.060 A 
ATOM     40  C   UNL A   1      45.396  21.385  26.034  1.00  0.00     0.016 A 
ATOM     41  C   UNL A   1      44.487  22.065  23.899  1.00  0.00     0.016 A 
ATOM     42  C   UNL A   1      45.732  22.704  26.319  1.00  0.00     0.010 A 
ATOM     43  C   UNL A   1      44.786  23.399  24.212  1.00  0.00     0.010 A 
ATOM     44  C   UNL A   1      45.380  23.732  25.443  1.00  0.00    -0.014 A 
BRANCH  44  45
ATOM     45  C   UNL A   1      45.442  25.140  25.922  1.00  0.00     0.031 A 
ATOM     46  C   UNL A   1      46.766  25.862  25.864  1.00  0.00     0.074 A 
ATOM     47  C   UNL A   1      44.340  25.818  26.294  1.00  0.00     0.049 A 
ATOM     48  N   UNL A   1      47.101  27.028  26.358  1.00  0.00    -0.248 NA
ATOM     49  C   UNL A   1      47.855  25.171  25.154  1.00  0.00     0.031 C 
ATOM     50  C   UNL A   1      42.971  25.304  26.270  1.00  0.00     0.029 A 
ATOM     51  N   UNL A   1      44.205  27.104  26.762  1.00  0.00    -0.354 N 
ATOM     52  C   UNL A   1      48.442  27.198  26.030  1.00  0.00     0.074 A 
ATOM     53  C   UNL A   1      48.866  26.008  25.327  1.00  0.00     0.031 C 
ATOM     54  C   UNL A   1      42.136  26.264  26.703  1.00  0.00     0.029 A 
ATOM     55  C   UNL A   1      42.916  27.434  27.103  1.00  0.00     0.049 A 
ATOM     56  H   UNL A   1      44.961  27.729  26.846  1.00  0.00     0.167 HD
ATOM     57  C   UNL A   1      49.249  28.255  26.284  1.00  0.00     0.031 A 
ATOM     58  C   UNL A   1      42.426  28.531  27.714  1.00  0.00     0.031 A 
ATOM     59  C   UNL A   1      48.825  29.458  26.945  1.00  0.00     0.049 A 
ATOM     60  C   UNL A   1      43.370  29.631  28.127  1.00  0.00     0.074 A 
ATOM     61  C   UNL A   1      49.575  30.573  27.277  1.00  0.00     0.029 A 
ATOM     62  N   UNL A   1      47.527  29.708  27.360  1.00  0.00    -0.354 N 
ATOM     63  N   UNL A   1      44.654  29.749  27.898  1.00  0.00    -0.248 NA
ATOM     64  C   UNL A   1      42.793  30.743  28.900  1.00  0.00     0.031 C 
ATOM     65  C   UNL A   1      48.741  31.475  27.945  1.00  0.00     0.029 A 
ATOM     66  C   UNL A   1      47.460  30.947  27.974  1.00  0.00     0.049 A 
ATOM     67  H   UNL A   1      46.766  29.095  27.238  1.00  0.00     0.167 HD
ATOM     68  C   UNL A   1      45.036  30.953  28.478  1.00  0.00     0.074 A 
ATOM     69  C   UNL A   1      43.842  31.539  29.052  1.00  0.00     0.031 C 
ATOM     70  C   UNL A   1      46.265  31.522  28.534  1.00  0.00     0.031 A 
BRANCH  57  71
ATOM     71  C   UNL A   1      50.695  28.128  25.896  1.00  0.00    -0.014 A 
ATOM     72  C   UNL A   1      51.158  28.507  24.626  1.00  0.00     0.009 A 
ATOM     73  C   UNL A   1      51.614  27.639  26.838  1.00  0.00     0.009 A 
ATOM     74  C   UNL A   1      52.509  28.368  24.299  1.00  0.00     0.001 A 
ATOM     75  C   UNL A   1      52.968  27.527  26.518  1.00  0.00     0.001 A 
ATOM     76  C   UNL A   1      53.412  27.884  25.246  1.00  0.00     0.000 A 
ENDBRANCH  57  71
BRANCH  58  77
ATOM     77  C   UNL A   1      40.979  28.619  28.049  1.00  0.00    -0.014 A 
ATOM     78  C   UNL A   1      40.473  28.041  29.223  1.00  0.00     0.009 A 
ATOM     79  C   UNL A   1      40.086  29.250  27.167  1.00  0.00     0.009 A 
ATOM     80  C   UNL A   1      39.103  28.078  29.497  1.00  0.00     0.001 A 
ATOM     81  C   UNL A   1      38.722  29.313  27.459  1.00  0.00     0.001 A 
ATOM     82  C   UNL A   1      38.230  28.718  28.618  1.00  0.00     0.000 A 
ENDBRANCH  58  77
BRANCH  70  83
ATOM     83  C   UNL A   1      46.376  32.866  29.197  1.00  0.00    -0.014 A 
ATOM     84  C   UNL A   1      46.173  34.054  28.478  1.00  0.00     0.009 A 
ATOM     85  C   UNL A   1      46.641  32.941  30.574  1.00  0.00     0.009 A 
ATOM     86  C   UNL A   1      46.266  35.290  29.118  1.00  0.00     0.001 A 
ATOM     87  C   UNL A   1      46.705  34.177  31.217  1.00  0.00     0.001 A 
ATOM     88  C   UNL A   1      46.527  35.351  30.488  1.00  0.00     0.000 A 
ENDBRANCH  70  83
ENDBRANCH  44  45
ENDBRANCH  37  39
ENDBRANCH  36  37
ENDBRANCH  35  36
ENDBRANCH  34  35
ENDBRANCH  33  34
ENDBRANCH  32  33
ENDBRANCH   1  32
TORSDOF 23
ENDMDL
