MODEL 1
REMARK VINA RESULT:      -9.9      0.000      0.000
REMARK SMILES CC[C@@H]1CCC[C@@](Cc2ccccn2)(C(=O)OCCOCCOCCOC(=O)c2ccc(-c3c4nc(c(-c5ccccc5)c5ccc([nH]5)c(-c5ccccc5)c5nc(c(-c6ccccc6)c6ccc3[nH]6)C=C5)C=C4)cc2)C1
REMARK SMILES IDX 21 1 20 2 19 3 18 4 17 5 15 6 16 7 7 8 3 9 4 10 77 11 5 12
REMARK SMILES IDX 6 13 2 14 1 15 8 16 9 17 10 18 14 19 11 20 13 21 12 22 22 23
REMARK SMILES IDX 23 24 24 25 25 26 26 27 27 28 28 29 29 30 30 31 76 32 31 33
REMARK SMILES IDX 75 34 32 35 33 36 34 37 69 38 35 39 74 40 68 41 70 42 36 43
REMARK SMILES IDX 73 44 67 45 66 46 37 48 59 49 44 50 58 51 45 52 48 53 57 54
REMARK SMILES IDX 71 55 46 56 47 57 56 59 72 60 49 61 38 62 39 63 43 64 40 65
REMARK SMILES IDX 42 66 41 67 60 68 61 69 65 70 62 71 64 72 63 73 50 74 51 75
REMARK SMILES IDX 55 76 52 77 54 78 53 79
REMARK H PARENT 70 47 48 58
REMARK Flexibility Score: inf
ROOT
ATOM      1  C   UNL A   1      34.279  32.871  28.126  1.00  0.00     0.188 C 
ENDROOT
BRANCH   1   2
ATOM      2  O   UNL A   1      33.924  31.498  28.215  1.00  0.00    -0.376 OA
BRANCH   2   3
ATOM      3  C   UNL A   1      34.053  30.668  27.069  1.00  0.00     0.202 C 
BRANCH   3   4
ATOM      4  C   UNL A   1      32.883  29.747  26.703  1.00  0.00     0.261 C 
BRANCH   4   5
ATOM      5  O   UNL A   1      33.206  28.523  25.997  1.00  0.00    -0.463 OA
BRANCH   5   6
ATOM      6  C   UNL A   1      32.924  28.503  24.666  1.00  0.00     0.312 C 
ATOM      7  O   UNL A   1      33.354  29.352  23.888  1.00  0.00    -0.252 OA
BRANCH   6   8
ATOM      8  C   UNL A   1      31.908  27.418  24.215  1.00  0.00     0.074 C 
ATOM      9  C   UNL A   1      33.217  25.334  24.980  1.00  0.00    -0.010 C 
ATOM     10  C   UNL A   1      31.983  24.718  25.639  1.00  0.00     0.003 C 
ATOM     11  C   UNL A   1      32.744  26.176  23.786  1.00  0.00     0.022 C 
ATOM     12  C   UNL A   1      31.015  25.780  26.137  1.00  0.00     0.001 C 
ATOM     13  C   UNL A   1      30.782  26.974  25.195  1.00  0.00     0.019 C 
BRANCH   9  14
ATOM     14  C   UNL A   1      34.200  24.227  24.560  1.00  0.00     0.000 C 
ATOM     15  C   UNL A   1      33.524  23.058  23.859  1.00  0.00     0.004 C 
ENDBRANCH   9  14
BRANCH   8  16
ATOM     16  C   UNL A   1      31.263  28.022  22.919  1.00  0.00     0.075 C 
BRANCH  16  17
ATOM     17  C   UNL A   1      29.943  28.730  23.140  1.00  0.00     0.041 A 
ATOM     18  C   UNL A   1      28.731  28.064  22.980  1.00  0.00     0.024 A 
ATOM     19  N   UNL A   1      30.004  30.054  23.420  1.00  0.00    -0.261 NA
ATOM     20  C   UNL A   1      27.548  28.793  23.027  1.00  0.00     0.003 A 
ATOM     21  C   UNL A   1      28.837  30.731  23.499  1.00  0.00     0.111 A 
ATOM     22  C   UNL A   1      27.598  30.154  23.291  1.00  0.00     0.020 A 
ENDBRANCH  16  17
ENDBRANCH   8  16
ENDBRANCH   6   8
ENDBRANCH   5   6
ENDBRANCH   4   5
ENDBRANCH   3   4
ENDBRANCH   2   3
ENDBRANCH   1   2
BRANCH   1  23
ATOM     23  C   UNL A   1      33.174  33.934  28.156  1.00  0.00     0.188 C 
BRANCH  23  24
ATOM     24  O   UNL A   1      32.892  34.450  29.440  1.00  0.00    -0.376 OA
BRANCH  24  25
ATOM     25  C   UNL A   1      33.998  34.875  30.214  1.00  0.00     0.202 C 
BRANCH  25  26
ATOM     26  C   UNL A   1      34.166  34.113  31.535  1.00  0.00     0.261 C 
BRANCH  26  27
ATOM     27  O   UNL A   1      34.731  32.792  31.413  1.00  0.00    -0.460 OA
BRANCH  27  28
ATOM     28  C   UNL A   1      35.627  32.421  32.352  1.00  0.00     0.338 C 
ATOM     29  O   UNL A   1      35.469  32.442  33.566  1.00  0.00    -0.246 OA
BRANCH  28  30
ATOM     30  C   UNL A   1      36.757  31.746  31.673  1.00  0.00     0.060 A 
ATOM     31  C   UNL A   1      37.698  31.066  32.459  1.00  0.00     0.016 A 
ATOM     32  C   UNL A   1      36.886  31.759  30.283  1.00  0.00     0.016 A 
ATOM     33  C   UNL A   1      38.767  30.401  31.856  1.00  0.00     0.010 A 
ATOM     34  C   UNL A   1      37.976  31.114  29.683  1.00  0.00     0.010 A 
ATOM     35  C   UNL A   1      38.928  30.438  30.465  1.00  0.00    -0.014 A 
BRANCH  35  36
ATOM     36  C   UNL A   1      40.174  29.909  29.852  1.00  0.00     0.031 A 
ATOM     37  C   UNL A   1      41.357  30.826  29.723  1.00  0.00     0.074 A 
ATOM     38  C   UNL A   1      40.278  28.631  29.447  1.00  0.00     0.049 A 
ATOM     39  N   UNL A   1      42.504  30.623  29.129  1.00  0.00    -0.248 NA
ATOM     40  C   UNL A   1      41.228  32.148  30.357  1.00  0.00     0.031 C 
ATOM     41  C   UNL A   1      39.251  27.606  29.608  1.00  0.00     0.029 A 
ATOM     42  N   UNL A   1      41.311  27.976  28.817  1.00  0.00    -0.354 N 
ATOM     43  C   UNL A   1      43.223  31.800  29.293  1.00  0.00     0.074 A 
ATOM     44  C   UNL A   1      42.388  32.707  30.050  1.00  0.00     0.031 C 
ATOM     45  C   UNL A   1      39.706  26.448  29.095  1.00  0.00     0.029 A 
ATOM     46  C   UNL A   1      41.028  26.666  28.509  1.00  0.00     0.049 A 
ATOM     47  H   UNL A   1      42.172  28.406  28.609  1.00  0.00     0.167 HD
ATOM     48  C   UNL A   1      44.460  32.107  28.835  1.00  0.00     0.031 A 
ATOM     49  C   UNL A   1      41.735  25.764  27.796  1.00  0.00     0.031 A 
ATOM     50  C   UNL A   1      45.283  31.217  28.062  1.00  0.00     0.049 A 
ATOM     51  C   UNL A   1      43.057  26.172  27.192  1.00  0.00     0.074 A 
ATOM     52  C   UNL A   1      46.538  31.452  27.525  1.00  0.00     0.029 A 
ATOM     53  N   UNL A   1      44.928  29.926  27.702  1.00  0.00    -0.354 N 
ATOM     54  N   UNL A   1      43.719  27.297  27.324  1.00  0.00    -0.248 NA
ATOM     55  C   UNL A   1      43.720  25.191  26.318  1.00  0.00     0.031 C 
ATOM     56  C   UNL A   1      46.912  30.328  26.784  1.00  0.00     0.029 A 
ATOM     57  C   UNL A   1      45.923  29.367  26.919  1.00  0.00     0.049 A 
ATOM     58  H   UNL A   1      44.093  29.476  27.964  1.00  0.00     0.167 HD
ATOM     59  C   UNL A   1      44.879  27.149  26.571  1.00  0.00     0.074 A 
ATOM     60  C   UNL A   1      44.844  25.819  26.002  1.00  0.00     0.031 C 
ATOM     61  C   UNL A   1      45.881  28.039  26.363  1.00  0.00     0.031 A 
BRANCH  48  62
ATOM     62  C   UNL A   1      44.957  33.501  29.085  1.00  0.00    -0.014 A 
ATOM     63  C   UNL A   1      44.720  34.546  28.179  1.00  0.00     0.009 A 
ATOM     64  C   UNL A   1      45.667  33.772  30.266  1.00  0.00     0.009 A 
ATOM     65  C   UNL A   1      45.215  35.826  28.436  1.00  0.00     0.001 A 
ATOM     66  C   UNL A   1      46.136  35.058  30.534  1.00  0.00     0.001 A 
ATOM     67  C   UNL A   1      45.918  36.082  29.614  1.00  0.00     0.000 A 
ENDBRANCH  48  62
BRANCH  49  68
ATOM     68  C   UNL A   1      41.187  24.404  27.531  1.00  0.00    -0.014 A 
ATOM     69  C   UNL A   1      40.093  24.220  26.671  1.00  0.00     0.009 A 
ATOM     70  C   UNL A   1      41.715  23.285  28.196  1.00  0.00     0.009 A 
ATOM     71  C   UNL A   1      39.521  22.955  26.510  1.00  0.00     0.001 A 
ATOM     72  C   UNL A   1      41.165  22.015  28.005  1.00  0.00     0.001 A 
ATOM     73  C   UNL A   1      40.059  21.853  27.172  1.00  0.00     0.000 A 
ENDBRANCH  49  68
BRANCH  61  74
ATOM     74  C   UNL A   1      47.044  27.598  25.517  1.00  0.00    -0.014 A 
ATOM     75  C   UNL A   1      48.129  26.900  26.070  1.00  0.00     0.009 A 
ATOM     76  C   UNL A   1      47.018  27.824  24.130  1.00  0.00     0.009 A 
ATOM     77  C   UNL A   1      49.174  26.460  25.254  1.00  0.00     0.001 A 
ATOM     78  C   UNL A   1      48.049  27.356  23.315  1.00  0.00     0.001 A 
ATOM     79  C   UNL A   1      49.130  26.680  23.878  1.00  0.00     0.000 A 
ENDBRANCH  61  74
ENDBRANCH  35  36
ENDBRANCH  28  30
ENDBRANCH  27  28
ENDBRANCH  26  27
ENDBRANCH  25  26
ENDBRANCH  24  25
ENDBRANCH  23  24
ENDBRANCH   1  23
TORSDOF 20
ENDMDL
MODEL 2
REMARK VINA RESULT:      -9.8      4.526      9.538
REMARK SMILES CC[C@@H]1CCC[C@@](Cc2ccccn2)(C(=O)OCCOCCOCCOC(=O)c2ccc(-c3c4nc(c(-c5ccccc5)c5ccc([nH]5)c(-c5ccccc5)c5nc(c(-c6ccccc6)c6ccc3[nH]6)C=C5)C=C4)cc2)C1
REMARK SMILES IDX 21 1 20 2 19 3 18 4 17 5 15 6 16 7 7 8 3 9 4 10 77 11 5 12
REMARK SMILES IDX 6 13 2 14 1 15 8 16 9 17 10 18 14 19 11 20 13 21 12 22 22 23
REMARK SMILES IDX 23 24 24 25 25 26 26 27 27 28 28 29 29 30 30 31 76 32 31 33
REMARK SMILES IDX 75 34 32 35 33 36 34 37 69 38 35 39 74 40 68 41 70 42 36 43
REMARK SMILES IDX 73 44 67 45 66 46 37 48 59 49 44 50 58 51 45 52 48 53 57 54
REMARK SMILES IDX 71 55 46 56 47 57 56 59 72 60 49 61 38 62 39 63 43 64 40 65
REMARK SMILES IDX 42 66 41 67 60 68 61 69 65 70 62 71 64 72 63 73 50 74 51 75
REMARK SMILES IDX 55 76 52 77 54 78 53 79
REMARK H PARENT 70 47 48 58
REMARK Flexibility Score: inf
ROOT
ATOM      1  C   UNL A   1      39.286  21.785  26.120  1.00  0.00     0.188 C 
ENDROOT
BRANCH   1   2
ATOM      2  O   UNL A   1      39.071  23.142  26.484  1.00  0.00    -0.376 OA
BRANCH   2   3
ATOM      3  C   UNL A   1      37.760  23.685  26.416  1.00  0.00     0.202 C 
BRANCH   3   4
ATOM      4  C   UNL A   1      37.053  23.707  25.056  1.00  0.00     0.261 C 
BRANCH   4   5
ATOM      5  O   UNL A   1      35.835  22.931  24.936  1.00  0.00    -0.463 OA
BRANCH   5   6
ATOM      6  C   UNL A   1      35.151  23.061  23.767  1.00  0.00     0.312 C 
ATOM      7  O   UNL A   1      35.714  23.146  22.679  1.00  0.00    -0.252 OA
BRANCH   6   8
ATOM      8  C   UNL A   1      33.613  23.235  23.909  1.00  0.00     0.074 C 
ATOM      9  C   UNL A   1      33.030  20.840  24.663  1.00  0.00    -0.010 C 
ATOM     10  C   UNL A   1      32.135  21.343  25.796  1.00  0.00     0.003 C 
ATOM     11  C   UNL A   1      32.972  21.869  23.524  1.00  0.00     0.022 C 
ATOM     12  C   UNL A   1      32.593  22.692  26.326  1.00  0.00     0.001 C 
ATOM     13  C   UNL A   1      33.024  23.721  25.267  1.00  0.00     0.019 C 
BRANCH   9  14
ATOM     14  C   UNL A   1      32.575  19.442  24.210  1.00  0.00     0.000 C 
ATOM     15  C   UNL A   1      33.706  18.423  24.182  1.00  0.00     0.004 C 
ENDBRANCH   9  14
BRANCH   8  16
ATOM     16  C   UNL A   1      33.245  24.263  22.783  1.00  0.00     0.075 C 
BRANCH  16  17
ATOM     17  C   UNL A   1      32.297  25.362  23.215  1.00  0.00     0.041 A 
ATOM     18  C   UNL A   1      30.925  25.141  23.294  1.00  0.00     0.024 A 
ATOM     19  N   UNL A   1      32.843  26.581  23.439  1.00  0.00    -0.261 NA
ATOM     20  C   UNL A   1      30.079  26.219  23.530  1.00  0.00     0.003 A 
ATOM     21  C   UNL A   1      32.001  27.604  23.705  1.00  0.00     0.111 A 
ATOM     22  C   UNL A   1      30.624  27.478  23.738  1.00  0.00     0.020 A 
ENDBRANCH  16  17
ENDBRANCH   8  16
ENDBRANCH   6   8
ENDBRANCH   5   6
ENDBRANCH   4   5
ENDBRANCH   3   4
ENDBRANCH   2   3
ENDBRANCH   1   2
BRANCH   1  23
ATOM     23  C   UNL A   1      40.440  21.009  26.766  1.00  0.00     0.188 C 
BRANCH  23  24
ATOM     24  O   UNL A   1      41.359  20.455  25.849  1.00  0.00    -0.376 OA
BRANCH  24  25
ATOM     25  C   UNL A   1      42.726  20.491  26.215  1.00  0.00     0.202 C 
BRANCH  25  26
ATOM     26  C   UNL A   1      43.602  21.335  25.281  1.00  0.00     0.261 C 
BRANCH  26  27
ATOM     27  O   UNL A   1      43.038  22.606  24.895  1.00  0.00    -0.460 OA
BRANCH  27  28
ATOM     28  C   UNL A   1      43.837  23.689  25.010  1.00  0.00     0.338 C 
ATOM     29  O   UNL A   1      44.779  23.986  24.286  1.00  0.00    -0.246 OA
BRANCH  28  30
ATOM     30  C   UNL A   1      43.240  24.601  26.012  1.00  0.00     0.060 A 
ATOM     31  C   UNL A   1      43.637  25.945  26.011  1.00  0.00     0.016 A 
ATOM     32  C   UNL A   1      42.288  24.154  26.930  1.00  0.00     0.016 A 
ATOM     33  C   UNL A   1      43.084  26.842  26.926  1.00  0.00     0.010 A 
ATOM     34  C   UNL A   1      41.755  25.050  27.866  1.00  0.00     0.010 A 
ATOM     35  C   UNL A   1      42.155  26.398  27.876  1.00  0.00    -0.014 A 
BRANCH  35  36
ATOM     36  C   UNL A   1      41.731  27.305  28.974  1.00  0.00     0.031 A 
ATOM     37  C   UNL A   1      42.524  27.310  30.250  1.00  0.00     0.074 A 
ATOM     38  C   UNL A   1      40.685  28.140  28.840  1.00  0.00     0.049 A 
ATOM     39  N   UNL A   1      42.284  27.932  31.375  1.00  0.00    -0.248 NA
ATOM     40  C   UNL A   1      43.760  26.511  30.250  1.00  0.00     0.031 C 
ATOM     41  C   UNL A   1      39.893  28.317  27.626  1.00  0.00     0.029 A 
ATOM     42  N   UNL A   1      40.111  29.004  29.744  1.00  0.00    -0.354 N 
ATOM     43  C   UNL A   1      43.322  27.577  32.227  1.00  0.00     0.074 A 
ATOM     44  C   UNL A   1      44.198  26.696  31.486  1.00  0.00     0.031 C 
ATOM     45  C   UNL A   1      38.938  29.237  27.858  1.00  0.00     0.029 A 
ATOM     46  C   UNL A   1      39.009  29.664  29.255  1.00  0.00     0.049 A 
ATOM     47  H   UNL A   1      40.460  29.137  30.655  1.00  0.00     0.167 HD
ATOM     48  C   UNL A   1      43.516  27.934  33.519  1.00  0.00     0.031 A 
ATOM     49  C   UNL A   1      38.132  30.480  29.876  1.00  0.00     0.031 A 
ATOM     50  C   UNL A   1      42.635  28.790  34.265  1.00  0.00     0.049 A 
ATOM     51  C   UNL A   1      38.303  30.764  31.350  1.00  0.00     0.074 A 
ATOM     52  C   UNL A   1      42.733  29.182  35.589  1.00  0.00     0.029 A 
ATOM     53  N   UNL A   1      41.485  29.375  33.757  1.00  0.00    -0.354 N 
ATOM     54  N   UNL A   1      39.270  30.401  32.158  1.00  0.00    -0.248 NA
ATOM     55  C   UNL A   1      37.246  31.554  32.002  1.00  0.00     0.031 C 
ATOM     56  C   UNL A   1      41.606  29.949  35.901  1.00  0.00     0.029 A 
ATOM     57  C   UNL A   1      40.845  30.093  34.752  1.00  0.00     0.049 A 
ATOM     58  H   UNL A   1      41.171  29.291  32.828  1.00  0.00     0.167 HD
ATOM     59  C   UNL A   1      38.948  30.934  33.402  1.00  0.00     0.074 A 
ATOM     60  C   UNL A   1      37.709  31.664  33.239  1.00  0.00     0.031 C 
ATOM     61  C   UNL A   1      39.615  30.823  34.577  1.00  0.00     0.031 A 
BRANCH  48  62
ATOM     62  C   UNL A   1      44.687  27.321  34.230  1.00  0.00    -0.014 A 
ATOM     63  C   UNL A   1      45.965  27.899  34.187  1.00  0.00     0.009 A 
ATOM     64  C   UNL A   1      44.496  26.145  34.974  1.00  0.00     0.009 A 
ATOM     65  C   UNL A   1      47.036  27.290  34.846  1.00  0.00     0.001 A 
ATOM     66  C   UNL A   1      45.560  25.554  35.654  1.00  0.00     0.001 A 
ATOM     67  C   UNL A   1      46.831  26.121  35.582  1.00  0.00     0.000 A 
ENDBRANCH  48  62
BRANCH  49  68
ATOM     68  C   UNL A   1      36.956  31.033  29.146  1.00  0.00    -0.014 A 
ATOM     69  C   UNL A   1      35.877  30.211  28.785  1.00  0.00     0.009 A 
ATOM     70  C   UNL A   1      36.940  32.378  28.744  1.00  0.00     0.009 A 
ATOM     71  C   UNL A   1      34.828  30.714  28.011  1.00  0.00     0.001 A 
ATOM     72  C   UNL A   1      35.872  32.890  28.002  1.00  0.00     0.001 A 
ATOM     73  C   UNL A   1      34.823  32.054  27.624  1.00  0.00     0.000 A 
ENDBRANCH  49  68
BRANCH  61  74
ATOM     74  C   UNL A   1      39.048  31.533  35.775  1.00  0.00    -0.014 A 
ATOM     75  C   UNL A   1      38.132  30.905  36.633  1.00  0.00     0.009 A 
ATOM     76  C   UNL A   1      39.494  32.829  36.089  1.00  0.00     0.009 A 
ATOM     77  C   UNL A   1      37.656  31.569  37.766  1.00  0.00     0.001 A 
ATOM     78  C   UNL A   1      39.040  33.477  37.239  1.00  0.00     0.001 A 
ATOM     79  C   UNL A   1      38.116  32.850  38.073  1.00  0.00     0.000 A 
ENDBRANCH  61  74
ENDBRANCH  35  36
ENDBRANCH  28  30
ENDBRANCH  27  28
ENDBRANCH  26  27
ENDBRANCH  25  26
ENDBRANCH  24  25
ENDBRANCH  23  24
ENDBRANCH   1  23
TORSDOF 20
ENDMDL
MODEL 3
REMARK VINA RESULT:      -9.8      1.302      3.157
REMARK SMILES CC[C@@H]1CCC[C@@](Cc2ccccn2)(C(=O)OCCOCCOCCOC(=O)c2ccc(-c3c4nc(c(-c5ccccc5)c5ccc([nH]5)c(-c5ccccc5)c5nc(c(-c6ccccc6)c6ccc3[nH]6)C=C5)C=C4)cc2)C1
REMARK SMILES IDX 21 1 20 2 19 3 18 4 17 5 15 6 16 7 7 8 3 9 4 10 77 11 5 12
REMARK SMILES IDX 6 13 2 14 1 15 8 16 9 17 10 18 14 19 11 20 13 21 12 22 22 23
REMARK SMILES IDX 23 24 24 25 25 26 26 27 27 28 28 29 29 30 30 31 76 32 31 33
REMARK SMILES IDX 75 34 32 35 33 36 34 37 69 38 35 39 74 40 68 41 70 42 36 43
REMARK SMILES IDX 73 44 67 45 66 46 37 48 59 49 44 50 58 51 45 52 48 53 57 54
REMARK SMILES IDX 71 55 46 56 47 57 56 59 72 60 49 61 38 62 39 63 43 64 40 65
REMARK SMILES IDX 42 66 41 67 60 68 61 69 65 70 62 71 64 72 63 73 50 74 51 75
REMARK SMILES IDX 55 76 52 77 54 78 53 79
REMARK H PARENT 70 47 48 58
REMARK Flexibility Score: inf
ROOT
ATOM      1  C   UNL A   1      34.190  32.904  27.997  1.00  0.00     0.188 C 
ENDROOT
BRANCH   1   2
ATOM      2  O   UNL A   1      33.868  31.549  28.278  1.00  0.00    -0.376 OA
BRANCH   2   3
ATOM      3  C   UNL A   1      33.904  30.590  27.230  1.00  0.00     0.202 C 
BRANCH   3   4
ATOM      4  C   UNL A   1      33.714  29.112  27.590  1.00  0.00     0.261 C 
BRANCH   4   5
ATOM      5  O   UNL A   1      33.539  28.185  26.490  1.00  0.00    -0.463 OA
BRANCH   5   6
ATOM      6  C   UNL A   1      32.429  27.400  26.535  1.00  0.00     0.312 C 
ATOM      7  O   UNL A   1      31.592  27.491  27.430  1.00  0.00    -0.252 OA
BRANCH   6   8
ATOM      8  C   UNL A   1      32.356  26.284  25.457  1.00  0.00     0.074 C 
ATOM      9  C   UNL A   1      30.710  27.428  23.837  1.00  0.00    -0.010 C 
ATOM     10  C   UNL A   1      31.571  27.093  22.619  1.00  0.00     0.003 C 
ATOM     11  C   UNL A   1      30.911  26.316  24.877  1.00  0.00     0.022 C 
ATOM     12  C   UNL A   1      33.047  27.009  22.972  1.00  0.00     0.001 C 
ATOM     13  C   UNL A   1      33.385  26.286  24.287  1.00  0.00     0.019 C 
BRANCH   9  14
ATOM     14  C   UNL A   1      29.237  27.577  23.419  1.00  0.00     0.000 C 
ATOM     15  C   UNL A   1      28.929  28.920  22.773  1.00  0.00     0.004 C 
ENDBRANCH   9  14
BRANCH   8  16
ATOM     16  C   UNL A   1      32.504  24.956  26.278  1.00  0.00     0.075 C 
BRANCH  16  17
ATOM     17  C   UNL A   1      33.283  23.862  25.579  1.00  0.00     0.041 A 
ATOM     18  C   UNL A   1      32.651  22.958  24.729  1.00  0.00     0.024 A 
ATOM     19  N   UNL A   1      34.599  23.763  25.885  1.00  0.00    -0.261 NA
ATOM     20  C   UNL A   1      33.370  21.872  24.243  1.00  0.00     0.003 A 
ATOM     21  C   UNL A   1      35.284  22.719  25.367  1.00  0.00     0.111 A 
ATOM     22  C   UNL A   1      34.713  21.745  24.568  1.00  0.00     0.020 A 
ENDBRANCH  16  17
ENDBRANCH   8  16
ENDBRANCH   6   8
ENDBRANCH   5   6
ENDBRANCH   4   5
ENDBRANCH   3   4
ENDBRANCH   2   3
ENDBRANCH   1   2
BRANCH   1  23
ATOM     23  C   UNL A   1      33.124  33.986  28.206  1.00  0.00     0.188 C 
BRANCH  23  24
ATOM     24  O   UNL A   1      33.056  34.495  29.521  1.00  0.00    -0.376 OA
BRANCH  24  25
ATOM     25  C   UNL A   1      34.218  35.132  30.020  1.00  0.00     0.202 C 
BRANCH  25  26
ATOM     26  C   UNL A   1      34.373  35.046  31.543  1.00  0.00     0.261 C 
BRANCH  26  27
ATOM     27  O   UNL A   1      35.445  34.198  32.003  1.00  0.00    -0.460 OA
BRANCH  27  28
ATOM     28  C   UNL A   1      35.296  32.869  31.817  1.00  0.00     0.338 C 
ATOM     29  O   UNL A   1      34.245  32.239  31.839  1.00  0.00    -0.246 OA
BRANCH  28  30
ATOM     30  C   UNL A   1      36.583  32.320  31.336  1.00  0.00     0.060 A 
ATOM     31  C   UNL A   1      36.912  32.477  29.982  1.00  0.00     0.016 A 
ATOM     32  C   UNL A   1      37.471  31.676  32.200  1.00  0.00     0.016 A 
ATOM     33  C   UNL A   1      38.125  31.991  29.492  1.00  0.00     0.010 A 
ATOM     34  C   UNL A   1      38.676  31.164  31.700  1.00  0.00     0.010 A 
ATOM     35  C   UNL A   1      39.007  31.311  30.341  1.00  0.00    -0.014 A 
BRANCH  35  36
ATOM     36  C   UNL A   1      40.192  30.618  29.773  1.00  0.00     0.031 A 
ATOM     37  C   UNL A   1      41.490  31.370  29.681  1.00  0.00     0.074 A 
ATOM     38  C   UNL A   1      40.140  29.334  29.375  1.00  0.00     0.049 A 
ATOM     39  N   UNL A   1      42.619  31.013  29.127  1.00  0.00    -0.248 NA
ATOM     40  C   UNL A   1      41.515  32.702  30.306  1.00  0.00     0.031 C 
ATOM     41  C   UNL A   1      38.982  28.454  29.504  1.00  0.00     0.029 A 
ATOM     42  N   UNL A   1      41.098  28.544  28.783  1.00  0.00    -0.354 N 
ATOM     43  C   UNL A   1      43.481  32.086  29.311  1.00  0.00     0.074 A 
ATOM     44  C   UNL A   1      42.749  33.100  30.036  1.00  0.00     0.031 C 
ATOM     45  C   UNL A   1      39.297  27.242  29.010  1.00  0.00     0.029 A 
ATOM     46  C   UNL A   1      40.655  27.280  28.469  1.00  0.00     0.049 A 
ATOM     47  H   UNL A   1      42.014  28.855  28.602  1.00  0.00     0.167 HD
ATOM     48  C   UNL A   1      44.763  32.224  28.894  1.00  0.00     0.031 A 
ATOM     49  C   UNL A   1      41.260  26.288  27.784  1.00  0.00     0.031 A 
ATOM     50  C   UNL A   1      45.486  31.227  28.152  1.00  0.00     0.049 A 
ATOM     51  C   UNL A   1      42.644  26.513  27.223  1.00  0.00     0.074 A 
ATOM     52  C   UNL A   1      46.778  31.290  27.658  1.00  0.00     0.029 A 
ATOM     53  N   UNL A   1      44.976  29.992  27.785  1.00  0.00    -0.354 N 
ATOM     54  N   UNL A   1      43.443  27.542  27.374  1.00  0.00    -0.248 NA
ATOM     55  C   UNL A   1      43.200  25.446  26.375  1.00  0.00     0.031 C 
ATOM     56  C   UNL A   1      47.025  30.121  26.933  1.00  0.00     0.029 A 
ATOM     57  C   UNL A   1      45.913  29.300  27.037  1.00  0.00     0.049 A 
ATOM     58  H   UNL A   1      44.080  29.657  28.019  1.00  0.00     0.167 HD
ATOM     59  C   UNL A   1      44.598  27.237  26.661  1.00  0.00     0.074 A 
ATOM     60  C   UNL A   1      44.407  25.918  26.096  1.00  0.00     0.031 C 
ATOM     61  C   UNL A   1      45.715  27.984  26.485  1.00  0.00     0.031 A 
BRANCH  48  62
ATOM     62  C   UNL A   1      45.431  33.542  29.156  1.00  0.00    -0.014 A 
ATOM     63  C   UNL A   1      45.344  34.609  28.250  1.00  0.00     0.009 A 
ATOM     64  C   UNL A   1      46.150  33.718  30.349  1.00  0.00     0.009 A 
ATOM     65  C   UNL A   1      45.996  35.815  28.518  1.00  0.00     0.001 A 
ATOM     66  C   UNL A   1      46.777  34.933  30.628  1.00  0.00     0.001 A 
ATOM     67  C   UNL A   1      46.707  35.977  29.709  1.00  0.00     0.000 A 
ENDBRANCH  48  62
BRANCH  49  68
ATOM     68  C   UNL A   1      40.546  25.010  27.505  1.00  0.00    -0.014 A 
ATOM     69  C   UNL A   1      41.072  23.779  27.930  1.00  0.00     0.009 A 
ATOM     70  C   UNL A   1      39.364  25.009  26.747  1.00  0.00     0.009 A 
ATOM     71  C   UNL A   1      40.450  22.579  27.575  1.00  0.00     0.001 A 
ATOM     72  C   UNL A   1      38.723  23.810  26.424  1.00  0.00     0.001 A 
ATOM     73  C   UNL A   1      39.274  22.595  26.827  1.00  0.00     0.000 A 
ENDBRANCH  49  68
BRANCH  61  74
ATOM     74  C   UNL A   1      46.837  27.388  25.680  1.00  0.00    -0.014 A 
ATOM     75  C   UNL A   1      46.972  27.649  24.308  1.00  0.00     0.009 A 
ATOM     76  C   UNL A   1      47.815  26.611  26.322  1.00  0.00     0.009 A 
ATOM     77  C   UNL A   1      48.051  27.123  23.592  1.00  0.00     0.001 A 
ATOM     78  C   UNL A   1      48.907  26.113  25.610  1.00  0.00     0.001 A 
ATOM     79  C   UNL A   1      49.021  26.363  24.244  1.00  0.00     0.000 A 
ENDBRANCH  61  74
ENDBRANCH  35  36
ENDBRANCH  28  30
ENDBRANCH  27  28
ENDBRANCH  26  27
ENDBRANCH  25  26
ENDBRANCH  24  25
ENDBRANCH  23  24
ENDBRANCH   1  23
TORSDOF 20
ENDMDL
