MODEL 1
REMARK VINA RESULT:      -8.9      0.000      0.000
REMARK SMILES CC(C)[NH2+][C@]1(C(=O)OCCOCCOCCOC(=O)c2ccc(-c3c4nc(c(-c5ccccc5)c5ccc([nH]5)c(-c5ccccc5)c5nc(c(-c6ccccc6)c6ccc3[nH]6)C=C5)C=C4)cc2)CCC[C@@H]([N@@H+](C)C2CC2)C1
REMARK SMILES IDX 12 1 11 2 10 3 9 4 8 5 6 6 7 7 5 8 68 9 77 10 69 11 71 12
REMARK SMILES IDX 70 13 4 14 2 17 1 18 3 19 72 20 73 21 74 23 75 24 76 25
REMARK SMILES IDX 13 26 14 27 15 28 16 29 17 30 18 31 19 32 20 33 21 34 67 35
REMARK SMILES IDX 22 36 66 37 23 38 24 39 25 40 60 41 26 42 65 43 59 44 61 45
REMARK SMILES IDX 27 46 64 47 58 48 57 49 28 51 50 52 35 53 49 54 36 55 39 56
REMARK SMILES IDX 48 57 62 58 37 59 38 60 47 62 63 63 40 64 29 65 30 66 34 67
REMARK SMILES IDX 31 68 33 69 32 70 51 71 52 72 56 73 53 74 55 75 54 76 41 77
REMARK SMILES IDX 42 78 46 79 43 80 45 81 44 82
REMARK H PARENT 4 15 4 16 72 22 61 50 39 61
REMARK Flexibility Score: inf
ROOT
ATOM      1  C   UNL A   1      34.620  31.602  28.180  1.00  0.00     0.188 C 
ENDROOT
BRANCH   1   2
ATOM      2  O   UNL A   1      34.785  30.831  26.995  1.00  0.00    -0.376 OA
BRANCH   2   3
ATOM      3  C   UNL A   1      34.110  29.579  26.942  1.00  0.00     0.202 C 
BRANCH   3   4
ATOM      4  C   UNL A   1      32.843  29.413  27.797  1.00  0.00     0.261 C 
BRANCH   4   5
ATOM      5  O   UNL A   1      31.620  29.138  27.095  1.00  0.00    -0.459 OA
BRANCH   5   6
ATOM      6  C   UNL A   1      31.512  27.866  26.628  1.00  0.00     0.368 C 
ATOM      7  O   UNL A   1      31.490  26.888  27.378  1.00  0.00    -0.245 OA
BRANCH   6   8
ATOM      8  C   UNL A   1      31.384  27.707  25.080  1.00  0.00     0.200 C 
ATOM      9  C   UNL A   1      30.258  26.626  24.990  1.00  0.00     0.081 C 
ATOM     10  C   UNL A   1      30.876  29.043  24.468  1.00  0.00     0.146 C 
ATOM     11  C   UNL A   1      29.582  26.504  23.637  1.00  0.00     0.013 C 
ATOM     12  C   UNL A   1      30.070  28.924  23.152  1.00  0.00     0.190 C 
ATOM     13  C   UNL A   1      28.986  27.840  23.216  1.00  0.00     0.065 C 
BRANCH   8  14
ATOM     14  N   UNL A   1      32.545  27.130  24.345  1.00  0.00    -0.330 N 
ATOM     15  H   UNL A   1      32.303  27.183  23.355  1.00  0.00     0.347 HD
ATOM     16  H   UNL A   1      33.315  27.687  24.714  1.00  0.00     0.347 HD
BRANCH  14  17
ATOM     17  C   UNL A   1      33.039  25.766  24.567  1.00  0.00     0.176 C 
ATOM     18  C   UNL A   1      33.433  25.238  23.176  1.00  0.00     0.075 C 
ATOM     19  C   UNL A   1      34.262  25.633  25.478  1.00  0.00     0.075 C 
ENDBRANCH  14  17
ENDBRANCH   8  14
BRANCH  12  20
ATOM     20  N   UNL A   1      29.597  30.227  22.620  1.00  0.00    -0.332 N 
ATOM     21  C   UNL A   1      30.088  30.440  21.247  1.00  0.00     0.333 C 
ATOM     22  H   UNL A   1      30.013  30.857  23.307  1.00  0.00     0.348 HD
BRANCH  20  23
ATOM     23  C   UNL A   1      28.164  30.609  22.701  1.00  0.00     0.184 C 
ATOM     24  C   UNL A   1      27.361  30.988  23.910  1.00  0.00     0.071 C 
ATOM     25  C   UNL A   1      27.857  32.060  22.988  1.00  0.00     0.071 C 
ENDBRANCH  20  23
ENDBRANCH  12  20
ENDBRANCH   6   8
ENDBRANCH   5   6
ENDBRANCH   4   5
ENDBRANCH   3   4
ENDBRANCH   2   3
ENDBRANCH   1   2
BRANCH   1  26
ATOM     26  C   UNL A   1      35.630  32.713  28.395  1.00  0.00     0.188 C 
BRANCH  26  27
ATOM     27  O   UNL A   1      35.102  33.933  28.902  1.00  0.00    -0.376 OA
BRANCH  27  28
ATOM     28  C   UNL A   1      33.687  34.081  28.726  1.00  0.00     0.202 C 
BRANCH  28  29
ATOM     29  C   UNL A   1      33.022  35.294  29.422  1.00  0.00     0.261 C 
BRANCH  29  30
ATOM     30  O   UNL A   1      32.363  35.034  30.684  1.00  0.00    -0.460 OA
BRANCH  30  31
ATOM     31  C   UNL A   1      32.811  35.683  31.787  1.00  0.00     0.338 C 
ATOM     32  O   UNL A   1      32.239  36.588  32.369  1.00  0.00    -0.246 OA
BRANCH  31  33
ATOM     33  C   UNL A   1      33.979  34.938  32.349  1.00  0.00     0.060 A 
ATOM     34  C   UNL A   1      35.235  35.567  32.337  1.00  0.00     0.016 A 
ATOM     35  C   UNL A   1      33.851  33.674  32.934  1.00  0.00     0.016 A 
ATOM     36  C   UNL A   1      36.365  34.916  32.845  1.00  0.00     0.010 A 
ATOM     37  C   UNL A   1      34.987  33.014  33.429  1.00  0.00     0.010 A 
ATOM     38  C   UNL A   1      36.259  33.612  33.346  1.00  0.00    -0.014 A 
BRANCH  38  39
ATOM     39  C   UNL A   1      37.487  32.791  33.538  1.00  0.00     0.031 A 
ATOM     40  C   UNL A   1      38.283  32.999  34.802  1.00  0.00     0.074 A 
ATOM     41  C   UNL A   1      37.890  31.858  32.655  1.00  0.00     0.049 A 
ATOM     42  N   UNL A   1      39.400  32.437  35.190  1.00  0.00    -0.248 NA
ATOM     43  C   UNL A   1      37.740  33.979  35.757  1.00  0.00     0.031 C 
ATOM     44  C   UNL A   1      37.203  31.500  31.417  1.00  0.00     0.029 A 
ATOM     45  N   UNL A   1      38.996  31.039  32.675  1.00  0.00    -0.354 N 
ATOM     46  C   UNL A   1      39.697  33.002  36.424  1.00  0.00     0.074 A 
ATOM     47  C   UNL A   1      38.661  33.970  36.708  1.00  0.00     0.031 C 
ATOM     48  C   UNL A   1      37.904  30.534  30.793  1.00  0.00     0.029 A 
ATOM     49  C   UNL A   1      39.107  30.230  31.570  1.00  0.00     0.049 A 
ATOM     50  H   UNL A   1      39.647  31.033  33.413  1.00  0.00     0.167 HD
ATOM     51  C   UNL A   1      40.732  32.741  37.257  1.00  0.00     0.031 A 
ATOM     52  C   UNL A   1      40.075  29.359  31.215  1.00  0.00     0.031 A 
ATOM     53  C   UNL A   1      41.779  31.795  36.987  1.00  0.00     0.049 A 
ATOM     54  C   UNL A   1      41.268  29.149  32.118  1.00  0.00     0.074 A 
ATOM     55  C   UNL A   1      42.868  31.465  37.776  1.00  0.00     0.029 A 
ATOM     56  N   UNL A   1      41.875  31.033  35.834  1.00  0.00    -0.354 N 
ATOM     57  N   UNL A   1      41.527  29.677  33.289  1.00  0.00    -0.248 NA
ATOM     58  C   UNL A   1      42.300  28.212  31.644  1.00  0.00     0.031 C 
ATOM     59  C   UNL A   1      43.653  30.544  37.076  1.00  0.00     0.029 A 
ATOM     60  C   UNL A   1      43.018  30.251  35.881  1.00  0.00     0.049 A 
ATOM     61  H   UNL A   1      41.228  31.045  35.093  1.00  0.00     0.167 HD
ATOM     62  C   UNL A   1      42.727  29.110  33.707  1.00  0.00     0.074 A 
ATOM     63  C   UNL A   1      43.141  28.190  32.669  1.00  0.00     0.031 C 
ATOM     64  C   UNL A   1      43.421  29.330  34.851  1.00  0.00     0.031 A 
BRANCH  51  65
ATOM     65  C   UNL A   1      40.799  33.533  38.534  1.00  0.00    -0.014 A 
ATOM     66  C   UNL A   1      41.464  34.767  38.595  1.00  0.00     0.009 A 
ATOM     67  C   UNL A   1      40.172  33.040  39.688  1.00  0.00     0.009 A 
ATOM     68  C   UNL A   1      41.532  35.474  39.797  1.00  0.00     0.001 A 
ATOM     69  C   UNL A   1      40.214  33.763  40.881  1.00  0.00     0.001 A 
ATOM     70  C   UNL A   1      40.904  34.973  40.937  1.00  0.00     0.000 A 
ENDBRANCH  51  65
BRANCH  52  71
ATOM     71  C   UNL A   1      39.986  28.619  29.927  1.00  0.00    -0.014 A 
ATOM     72  C   UNL A   1      39.477  27.312  29.883  1.00  0.00     0.009 A 
ATOM     73  C   UNL A   1      40.459  29.200  28.739  1.00  0.00     0.009 A 
ATOM     74  C   UNL A   1      39.470  26.592  28.684  1.00  0.00     0.001 A 
ATOM     75  C   UNL A   1      40.423  28.490  27.537  1.00  0.00     0.001 A 
ATOM     76  C   UNL A   1      39.938  27.183  27.512  1.00  0.00     0.000 A 
ENDBRANCH  52  71
BRANCH  64  77
ATOM     77  C   UNL A   1      44.673  28.524  35.076  1.00  0.00    -0.014 A 
ATOM     78  C   UNL A   1      45.935  28.998  34.687  1.00  0.00     0.009 A 
ATOM     79  C   UNL A   1      44.588  27.287  35.737  1.00  0.00     0.009 A 
ATOM     80  C   UNL A   1      47.080  28.233  34.922  1.00  0.00     0.001 A 
ATOM     81  C   UNL A   1      45.737  26.539  35.997  1.00  0.00     0.001 A 
ATOM     82  C   UNL A   1      46.982  27.008  35.580  1.00  0.00     0.000 A 
ENDBRANCH  64  77
ENDBRANCH  38  39
ENDBRANCH  31  33
ENDBRANCH  30  31
ENDBRANCH  29  30
ENDBRANCH  28  29
ENDBRANCH  27  28
ENDBRANCH  26  27
ENDBRANCH   1  26
TORSDOF 21
ENDMDL
MODEL 2
REMARK VINA RESULT:      -8.7      1.536      2.072
REMARK SMILES CC(C)[NH2+][C@]1(C(=O)OCCOCCOCCOC(=O)c2ccc(-c3c4nc(c(-c5ccccc5)c5ccc([nH]5)c(-c5ccccc5)c5nc(c(-c6ccccc6)c6ccc3[nH]6)C=C5)C=C4)cc2)CCC[C@@H]([N@@H+](C)C2CC2)C1
REMARK SMILES IDX 12 1 11 2 10 3 9 4 8 5 6 6 7 7 5 8 68 9 77 10 69 11 71 12
REMARK SMILES IDX 70 13 4 14 2 17 1 18 3 19 72 20 73 21 74 23 75 24 76 25
REMARK SMILES IDX 13 26 14 27 15 28 16 29 17 30 18 31 19 32 20 33 21 34 67 35
REMARK SMILES IDX 22 36 66 37 23 38 24 39 25 40 60 41 26 42 65 43 59 44 61 45
REMARK SMILES IDX 27 46 64 47 58 48 57 49 28 51 50 52 35 53 49 54 36 55 39 56
REMARK SMILES IDX 48 57 62 58 37 59 38 60 47 62 63 63 40 64 29 65 30 66 34 67
REMARK SMILES IDX 31 68 33 69 32 70 51 71 52 72 56 73 53 74 55 75 54 76 41 77
REMARK SMILES IDX 42 78 46 79 43 80 45 81 44 82
REMARK H PARENT 4 15 4 16 72 22 61 50 39 61
REMARK Flexibility Score: inf
ROOT
ATOM      1  C   UNL A   1      34.907  31.929  28.436  1.00  0.00     0.188 C 
ENDROOT
BRANCH   1   2
ATOM      2  O   UNL A   1      34.560  31.320  27.198  1.00  0.00    -0.376 OA
BRANCH   2   3
ATOM      3  C   UNL A   1      33.973  30.025  27.260  1.00  0.00     0.202 C 
BRANCH   3   4
ATOM      4  C   UNL A   1      32.438  29.931  27.203  1.00  0.00     0.261 C 
BRANCH   4   5
ATOM      5  O   UNL A   1      31.883  28.933  26.332  1.00  0.00    -0.459 OA
BRANCH   5   6
ATOM      6  C   UNL A   1      31.553  27.768  26.948  1.00  0.00     0.368 C 
ATOM      7  O   UNL A   1      31.182  27.725  28.123  1.00  0.00    -0.245 OA
BRANCH   6   8
ATOM      8  C   UNL A   1      31.636  26.476  26.074  1.00  0.00     0.200 C 
ATOM      9  C   UNL A   1      30.166  26.384  25.549  1.00  0.00     0.081 C 
ATOM     10  C   UNL A   1      32.602  26.726  24.882  1.00  0.00     0.146 C 
ATOM     11  C   UNL A   1      29.962  25.479  24.348  1.00  0.00     0.013 C 
ATOM     12  C   UNL A   1      32.326  25.903  23.601  1.00  0.00     0.190 C 
ATOM     13  C   UNL A   1      30.848  25.920  23.191  1.00  0.00     0.065 C 
BRANCH   8  14
ATOM     14  N   UNL A   1      31.888  25.183  26.771  1.00  0.00    -0.330 N 
ATOM     15  H   UNL A   1      32.610  25.376  27.465  1.00  0.00     0.347 HD
ATOM     16  H   UNL A   1      30.947  24.927  27.069  1.00  0.00     0.347 HD
BRANCH  14  17
ATOM     17  C   UNL A   1      32.314  23.965  26.074  1.00  0.00     0.176 C 
ATOM     18  C   UNL A   1      33.718  23.646  26.619  1.00  0.00     0.075 C 
ATOM     19  C   UNL A   1      31.442  22.725  26.288  1.00  0.00     0.075 C 
ENDBRANCH  14  17
ENDBRANCH   8  14
BRANCH  12  20
ATOM     20  N   UNL A   1      33.269  26.192  22.490  1.00  0.00    -0.332 N 
ATOM     21  C   UNL A   1      33.093  25.225  21.391  1.00  0.00     0.333 C 
ATOM     22  H   UNL A   1      34.156  26.095  22.984  1.00  0.00     0.348 HD
BRANCH  20  23
ATOM     23  C   UNL A   1      33.392  27.563  21.931  1.00  0.00     0.184 C 
ATOM     24  C   UNL A   1      32.928  28.861  22.522  1.00  0.00     0.071 C 
ATOM     25  C   UNL A   1      34.378  28.489  22.603  1.00  0.00     0.071 C 
ENDBRANCH  20  23
ENDBRANCH  12  20
ENDBRANCH   6   8
ENDBRANCH   5   6
ENDBRANCH   4   5
ENDBRANCH   3   4
ENDBRANCH   2   3
ENDBRANCH   1   2
BRANCH   1  26
ATOM     26  C   UNL A   1      35.744  33.192  28.343  1.00  0.00     0.188 C 
BRANCH  26  27
ATOM     27  O   UNL A   1      35.152  34.362  28.892  1.00  0.00    -0.376 OA
BRANCH  27  28
ATOM     28  C   UNL A   1      33.722  34.394  28.810  1.00  0.00     0.202 C 
BRANCH  28  29
ATOM     29  C   UNL A   1      33.005  35.531  29.578  1.00  0.00     0.261 C 
BRANCH  29  30
ATOM     30  O   UNL A   1      32.316  35.155  30.795  1.00  0.00    -0.460 OA
BRANCH  30  31
ATOM     31  C   UNL A   1      32.708  35.731  31.957  1.00  0.00     0.338 C 
ATOM     32  O   UNL A   1      32.088  36.568  32.589  1.00  0.00    -0.246 OA
BRANCH  31  33
ATOM     33  C   UNL A   1      33.885  34.984  32.498  1.00  0.00     0.060 A 
ATOM     34  C   UNL A   1      35.137  35.619  32.483  1.00  0.00     0.016 A 
ATOM     35  C   UNL A   1      33.770  33.711  33.066  1.00  0.00     0.016 A 
ATOM     36  C   UNL A   1      36.276  34.967  32.971  1.00  0.00     0.010 A 
ATOM     37  C   UNL A   1      34.913  33.050  33.541  1.00  0.00     0.010 A 
ATOM     38  C   UNL A   1      36.182  33.656  33.455  1.00  0.00    -0.014 A 
BRANCH  38  39
ATOM     39  C   UNL A   1      37.415  32.838  33.623  1.00  0.00     0.031 A 
ATOM     40  C   UNL A   1      38.220  33.030  34.884  1.00  0.00     0.074 A 
ATOM     41  C   UNL A   1      37.816  31.923  32.721  1.00  0.00     0.049 A 
ATOM     42  N   UNL A   1      39.343  32.467  35.254  1.00  0.00    -0.248 NA
ATOM     43  C   UNL A   1      37.680  33.990  35.860  1.00  0.00     0.031 C 
ATOM     44  C   UNL A   1      37.122  31.582  31.483  1.00  0.00     0.029 A 
ATOM     45  N   UNL A   1      38.927  31.110  32.719  1.00  0.00    -0.354 N 
ATOM     46  C   UNL A   1      39.647  33.013  36.495  1.00  0.00     0.074 A 
ATOM     47  C   UNL A   1      38.608  33.970  36.803  1.00  0.00     0.031 C 
ATOM     48  C   UNL A   1      37.823  30.631  30.837  1.00  0.00     0.029 A 
ATOM     49  C   UNL A   1      39.034  30.320  31.599  1.00  0.00     0.049 A 
ATOM     50  H   UNL A   1      39.584  31.095  33.452  1.00  0.00     0.167 HD
ATOM     51  C   UNL A   1      40.690  32.744  37.315  1.00  0.00     0.031 A 
ATOM     52  C   UNL A   1      40.004  29.460  31.223  1.00  0.00     0.031 A 
ATOM     53  C   UNL A   1      41.740  31.808  37.021  1.00  0.00     0.049 A 
ATOM     54  C   UNL A   1      41.205  29.242  32.112  1.00  0.00     0.074 A 
ATOM     55  C   UNL A   1      42.837  31.471  37.796  1.00  0.00     0.029 A 
ATOM     56  N   UNL A   1      41.831  31.066  35.855  1.00  0.00    -0.354 N 
ATOM     57  N   UNL A   1      41.470  29.752  33.290  1.00  0.00    -0.248 NA
ATOM     58  C   UNL A   1      42.238  28.319  31.615  1.00  0.00     0.031 C 
ATOM     59  C   UNL A   1      43.621  30.566  37.075  1.00  0.00     0.029 A 
ATOM     60  C   UNL A   1      42.978  30.290  35.880  1.00  0.00     0.049 A 
ATOM     61  H   UNL A   1      41.177  31.087  35.119  1.00  0.00     0.167 HD
ATOM     62  C   UNL A   1      42.677  29.184  33.689  1.00  0.00     0.074 A 
ATOM     63  C   UNL A   1      43.087  28.284  32.633  1.00  0.00     0.031 C 
ATOM     64  C   UNL A   1      43.378  29.389  34.831  1.00  0.00     0.031 A 
BRANCH  51  65
ATOM     65  C   UNL A   1      40.763  33.514  38.605  1.00  0.00    -0.014 A 
ATOM     66  C   UNL A   1      40.075  33.087  39.751  1.00  0.00     0.009 A 
ATOM     67  C   UNL A   1      41.546  34.676  38.675  1.00  0.00     0.009 A 
ATOM     68  C   UNL A   1      40.140  33.830  40.932  1.00  0.00     0.001 A 
ATOM     69  C   UNL A   1      41.634  35.400  39.864  1.00  0.00     0.001 A 
ATOM     70  C   UNL A   1      40.923  34.982  40.988  1.00  0.00     0.000 A 
ENDBRANCH  51  65
BRANCH  52  71
ATOM     71  C   UNL A   1      39.909  28.742  29.922  1.00  0.00    -0.014 A 
ATOM     72  C   UNL A   1      39.424  27.426  29.863  1.00  0.00     0.009 A 
ATOM     73  C   UNL A   1      40.352  29.352  28.738  1.00  0.00     0.009 A 
ATOM     74  C   UNL A   1      39.412  26.728  28.652  1.00  0.00     0.001 A 
ATOM     75  C   UNL A   1      40.311  28.663  27.525  1.00  0.00     0.001 A 
ATOM     76  C   UNL A   1      39.850  27.349  27.483  1.00  0.00     0.000 A 
ENDBRANCH  52  71
BRANCH  64  77
ATOM     77  C   UNL A   1      44.636  28.587  35.033  1.00  0.00    -0.014 A 
ATOM     78  C   UNL A   1      44.614  27.317  35.631  1.00  0.00     0.009 A 
ATOM     79  C   UNL A   1      45.861  29.095  34.569  1.00  0.00     0.009 A 
ATOM     80  C   UNL A   1      45.796  26.591  35.793  1.00  0.00     0.001 A 
ATOM     81  C   UNL A   1      47.036  28.353  34.705  1.00  0.00     0.001 A 
ATOM     82  C   UNL A   1      47.004  27.106  35.325  1.00  0.00     0.000 A 
ENDBRANCH  64  77
ENDBRANCH  38  39
ENDBRANCH  31  33
ENDBRANCH  30  31
ENDBRANCH  29  30
ENDBRANCH  28  29
ENDBRANCH  27  28
ENDBRANCH  26  27
ENDBRANCH   1  26
TORSDOF 21
ENDMDL
MODEL 3
REMARK VINA RESULT:      -8.6      2.287      4.681
REMARK SMILES CC(C)[NH2+][C@]1(C(=O)OCCOCCOCCOC(=O)c2ccc(-c3c4nc(c(-c5ccccc5)c5ccc([nH]5)c(-c5ccccc5)c5nc(c(-c6ccccc6)c6ccc3[nH]6)C=C5)C=C4)cc2)CCC[C@@H]([N@@H+](C)C2CC2)C1
REMARK SMILES IDX 12 1 11 2 10 3 9 4 8 5 6 6 7 7 5 8 68 9 77 10 69 11 71 12
REMARK SMILES IDX 70 13 4 14 2 17 1 18 3 19 72 20 73 21 74 23 75 24 76 25
REMARK SMILES IDX 13 26 14 27 15 28 16 29 17 30 18 31 19 32 20 33 21 34 67 35
REMARK SMILES IDX 22 36 66 37 23 38 24 39 25 40 60 41 26 42 65 43 59 44 61 45
REMARK SMILES IDX 27 46 64 47 58 48 57 49 28 51 50 52 35 53 49 54 36 55 39 56
REMARK SMILES IDX 48 57 62 58 37 59 38 60 47 62 63 63 40 64 29 65 30 66 34 67
REMARK SMILES IDX 31 68 33 69 32 70 51 71 52 72 56 73 53 74 55 75 54 76 41 77
REMARK SMILES IDX 42 78 46 79 43 80 45 81 44 82
REMARK H PARENT 4 15 4 16 72 22 61 50 39 61
REMARK Flexibility Score: inf
ROOT
ATOM      1  C   UNL A   1      31.410  29.062  25.068  1.00  0.00     0.188 C 
ENDROOT
BRANCH   1   2
ATOM      2  O   UNL A   1      30.800  29.348  23.814  1.00  0.00    -0.376 OA
BRANCH   2   3
ATOM      3  C   UNL A   1      30.321  28.237  23.064  1.00  0.00     0.202 C 
BRANCH   3   4
ATOM      4  C   UNL A   1      31.335  27.468  22.199  1.00  0.00     0.261 C 
BRANCH   4   5
ATOM      5  O   UNL A   1      32.575  27.104  22.826  1.00  0.00    -0.459 OA
BRANCH   5   6
ATOM      6  C   UNL A   1      33.031  25.867  22.498  1.00  0.00     0.368 C 
ATOM      7  O   UNL A   1      33.429  25.589  21.366  1.00  0.00    -0.245 OA
BRANCH   6   8
ATOM      8  C   UNL A   1      33.055  24.812  23.650  1.00  0.00     0.200 C 
ATOM      9  C   UNL A   1      32.280  23.631  22.980  1.00  0.00     0.081 C 
ATOM     10  C   UNL A   1      34.525  24.386  23.923  1.00  0.00     0.146 C 
ATOM     11  C   UNL A   1      32.450  22.281  23.651  1.00  0.00     0.013 C 
ATOM     12  C   UNL A   1      34.723  22.958  24.487  1.00  0.00     0.190 C 
ATOM     13  C   UNL A   1      33.922  21.900  23.719  1.00  0.00     0.065 C 
BRANCH   8  14
ATOM     14  N   UNL A   1      32.296  25.127  24.894  1.00  0.00    -0.330 N 
ATOM     15  H   UNL A   1      32.852  24.754  25.663  1.00  0.00     0.347 HD
ATOM     16  H   UNL A   1      32.162  26.134  24.800  1.00  0.00     0.347 HD
BRANCH  14  17
ATOM     17  C   UNL A   1      30.921  24.672  25.132  1.00  0.00     0.176 C 
ATOM     18  C   UNL A   1      30.989  23.800  26.399  1.00  0.00     0.075 C 
ATOM     19  C   UNL A   1      29.882  25.768  25.379  1.00  0.00     0.075 C 
ENDBRANCH  14  17
ENDBRANCH   8  14
BRANCH  12  20
ATOM     20  N   UNL A   1      36.146  22.598  24.714  1.00  0.00    -0.332 N 
ATOM     21  C   UNL A   1      36.885  23.731  25.297  1.00  0.00     0.333 C 
ATOM     22  H   UNL A   1      36.424  22.374  23.758  1.00  0.00     0.348 HD
BRANCH  20  23
ATOM     23  C   UNL A   1      36.512  21.347  25.426  1.00  0.00     0.184 C 
ATOM     24  C   UNL A   1      36.247  19.927  25.024  1.00  0.00     0.071 C 
ATOM     25  C   UNL A   1      37.612  20.509  24.817  1.00  0.00     0.071 C 
ENDBRANCH  20  23
ENDBRANCH  12  20
ENDBRANCH   6   8
ENDBRANCH   5   6
ENDBRANCH   4   5
ENDBRANCH   3   4
ENDBRANCH   2   3
ENDBRANCH   1   2
BRANCH   1  26
ATOM     26  C   UNL A   1      31.825  30.266  25.894  1.00  0.00     0.188 C 
BRANCH  26  27
ATOM     27  O   UNL A   1      32.761  30.005  26.932  1.00  0.00    -0.376 OA
BRANCH  27  28
ATOM     28  C   UNL A   1      33.414  31.173  27.443  1.00  0.00     0.202 C 
BRANCH  28  29
ATOM     29  C   UNL A   1      32.554  32.455  27.564  1.00  0.00     0.261 C 
BRANCH  29  30
ATOM     30  O   UNL A   1      33.265  33.716  27.541  1.00  0.00    -0.460 OA
BRANCH  30  31
ATOM     31  C   UNL A   1      33.443  34.374  28.712  1.00  0.00     0.338 C 
ATOM     32  O   UNL A   1      32.657  35.151  29.225  1.00  0.00    -0.246 OA
BRANCH  31  33
ATOM     33  C   UNL A   1      34.624  33.795  29.422  1.00  0.00     0.060 A 
ATOM     34  C   UNL A   1      35.904  34.072  28.915  1.00  0.00     0.016 A 
ATOM     35  C   UNL A   1      34.500  33.043  30.595  1.00  0.00     0.016 A 
ATOM     36  C   UNL A   1      37.047  33.552  29.535  1.00  0.00     0.010 A 
ATOM     37  C   UNL A   1      35.644  32.508  31.207  1.00  0.00     0.010 A 
ATOM     38  C   UNL A   1      36.922  32.721  30.655  1.00  0.00    -0.014 A 
BRANCH  38  39
ATOM     39  C   UNL A   1      38.073  31.880  31.086  1.00  0.00     0.031 A 
ATOM     40  C   UNL A   1      38.695  32.172  32.429  1.00  0.00     0.074 A 
ATOM     41  C   UNL A   1      38.553  30.861  30.348  1.00  0.00     0.049 A 
ATOM     42  N   UNL A   1      39.721  31.610  33.016  1.00  0.00    -0.248 NA
ATOM     43  C   UNL A   1      38.068  33.248  33.214  1.00  0.00     0.031 C 
ATOM     44  C   UNL A   1      38.030  30.419  29.059  1.00  0.00     0.029 A 
ATOM     45  N   UNL A   1      39.609  30.012  30.592  1.00  0.00    -0.354 N 
ATOM     46  C   UNL A   1      39.869  32.271  34.230  1.00  0.00     0.074 A 
ATOM     47  C   UNL A   1      38.847  33.292  34.283  1.00  0.00     0.031 C 
ATOM     48  C   UNL A   1      38.768  29.381  28.622  1.00  0.00     0.029 A 
ATOM     49  C   UNL A   1      39.837  29.107  29.584  1.00  0.00     0.049 A 
ATOM     50  H   UNL A   1      40.150  30.049  31.414  1.00  0.00     0.167 HD
ATOM     51  C   UNL A   1      40.765  32.050  35.220  1.00  0.00     0.031 A 
ATOM     52  C   UNL A   1      40.805  28.177  29.443  1.00  0.00     0.031 A 
ATOM     53  C   UNL A   1      41.797  31.051  35.180  1.00  0.00     0.049 A 
ATOM     54  C   UNL A   1      41.851  28.009  30.520  1.00  0.00     0.074 A 
ATOM     55  C   UNL A   1      42.750  30.757  36.140  1.00  0.00     0.029 A 
ATOM     56  N   UNL A   1      42.018  30.189  34.119  1.00  0.00    -0.354 N 
ATOM     57  N   UNL A   1      41.967  28.628  31.669  1.00  0.00    -0.248 NA
ATOM     58  C   UNL A   1      42.896  27.001  30.277  1.00  0.00     0.031 C 
ATOM     59  C   UNL A   1      43.583  29.753  35.637  1.00  0.00     0.029 A 
ATOM     60  C   UNL A   1      43.108  29.378  34.391  1.00  0.00     0.049 A 
ATOM     61  H   UNL A   1      41.481  30.157  33.295  1.00  0.00     0.167 HD
ATOM     62  C   UNL A   1      43.072  28.061  32.298  1.00  0.00     0.074 A 
ATOM     63  C   UNL A   1      43.585  27.041  31.409  1.00  0.00     0.031 C 
ATOM     64  C   UNL A   1      43.609  28.358  33.508  1.00  0.00     0.031 A 
BRANCH  51  65
ATOM     65  C   UNL A   1      40.689  32.948  36.424  1.00  0.00    -0.014 A 
ATOM     66  C   UNL A   1      41.529  34.064  36.558  1.00  0.00     0.009 A 
ATOM     67  C   UNL A   1      39.750  32.677  37.432  1.00  0.00     0.009 A 
ATOM     68  C   UNL A   1      41.455  34.871  37.696  1.00  0.00     0.001 A 
ATOM     69  C   UNL A   1      39.657  33.503  38.552  1.00  0.00     0.001 A 
ATOM     70  C   UNL A   1      40.516  34.592  38.689  1.00  0.00     0.000 A 
ENDBRANCH  51  65
BRANCH  52  71
ATOM     71  C   UNL A   1      40.863  27.331  28.220  1.00  0.00    -0.014 A 
ATOM     72  C   UNL A   1      41.525  27.780  27.067  1.00  0.00     0.009 A 
ATOM     73  C   UNL A   1      40.211  26.088  28.183  1.00  0.00     0.009 A 
ATOM     74  C   UNL A   1      41.508  27.017  25.896  1.00  0.00     0.001 A 
ATOM     75  C   UNL A   1      40.221  25.314  27.021  1.00  0.00     0.001 A 
ATOM     76  C   UNL A   1      40.860  25.783  25.875  1.00  0.00     0.000 A 
ENDBRANCH  52  71
BRANCH  64  77
ATOM     77  C   UNL A   1      44.780  27.535  33.974  1.00  0.00    -0.014 A 
ATOM     78  C   UNL A   1      44.605  26.313  34.641  1.00  0.00     0.009 A 
ATOM     79  C   UNL A   1      46.086  27.972  33.693  1.00  0.00     0.009 A 
ATOM     80  C   UNL A   1      45.712  25.566  35.050  1.00  0.00     0.001 A 
ATOM     81  C   UNL A   1      47.190  27.208  34.076  1.00  0.00     0.001 A 
ATOM     82  C   UNL A   1      47.002  26.010  34.763  1.00  0.00     0.000 A 
ENDBRANCH  64  77
ENDBRANCH  38  39
ENDBRANCH  31  33
ENDBRANCH  30  31
ENDBRANCH  29  30
ENDBRANCH  28  29
ENDBRANCH  27  28
ENDBRANCH  26  27
ENDBRANCH   1  26
TORSDOF 21
ENDMDL
