MODEL 1
REMARK VINA RESULT:     -11.3      0.000      0.000
REMARK SMILES Cc1ccc(C)c(/C=C2\SC(=S)N(CC(=O)OCCOCCOCCOC(=O)c3ccc(-c4c5nc(c(-c6ccccc6)c6ccc([nH]6)c(-c6ccccc6)c6nc(c(-c7ccccc7)c7ccc4[nH]7)C=C6)C=C5)cc3)C2=O)c1
REMARK SMILES IDX 21 1 20 2 19 3 18 4 17 5 15 6 16 7 14 8 13 9 8 10 9 11 10 12
REMARK SMILES IDX 77 13 11 14 78 15 12 16 7 17 1 18 2 19 3 20 79 21 4 22 5 23
REMARK SMILES IDX 6 24 22 25 23 26 24 27 25 28 26 29 27 30 28 31 29 32 30 33
REMARK SMILES IDX 76 34 31 35 75 36 32 37 33 38 34 39 69 40 35 41 74 42 68 43
REMARK SMILES IDX 70 44 36 45 73 46 67 47 66 48 37 50 59 51 44 52 58 53 45 54
REMARK SMILES IDX 48 55 57 56 71 57 46 58 47 59 56 61 72 62 49 63 38 64 39 65
REMARK SMILES IDX 43 66 40 67 42 68 41 69 60 70 61 71 65 72 62 73 64 74 63 75
REMARK SMILES IDX 50 76 51 77 55 78 52 79 54 80 53 81
REMARK H PARENT 70 49 48 60
REMARK Flexibility Score: inf
ROOT
ATOM      1  C   UNL A   1      34.024  37.565  32.502  1.00  0.00     0.188 C 
ENDROOT
BRANCH   1   2
ATOM      2  O   UNL A   1      32.988  37.613  31.522  1.00  0.00    -0.376 OA
BRANCH   2   3
ATOM      3  C   UNL A   1      33.264  36.919  30.302  1.00  0.00     0.202 C 
BRANCH   3   4
ATOM      4  C   UNL A   1      32.640  35.502  30.179  1.00  0.00     0.261 C 
BRANCH   4   5
ATOM      5  O   UNL A   1      32.895  34.763  28.932  1.00  0.00    -0.462 OA
BRANCH   5   6
ATOM      6  C   UNL A   1      34.150  34.210  28.897  1.00  0.00     0.326 C 
ATOM      7  O   UNL A   1      35.066  34.753  28.275  1.00  0.00    -0.250 OA
BRANCH   6   8
ATOM      8  C   UNL A   1      34.314  32.724  29.382  1.00  0.00     0.250 C 
BRANCH   8   9
ATOM      9  N   UNL A   1      34.634  31.470  28.623  1.00  0.00    -0.282 N 
ATOM     10  C   UNL A   1      33.402  28.882  26.370  1.00  0.00     0.029 C 
ATOM     11  C   UNL A   1      34.243  29.660  27.084  1.00  0.00     0.081 C 
ATOM     12  S   UNL A   1      35.908  29.528  27.425  1.00  0.00    -0.054 SA
ATOM     13  C   UNL A   1      33.774  30.967  27.668  1.00  0.00     0.266 C 
ATOM     14  C   UNL A   1      35.924  31.039  28.366  1.00  0.00     0.148 C 
ATOM     15  O   UNL A   1      32.879  31.604  27.130  1.00  0.00    -0.268 OA
ATOM     16  S   UNL A   1      37.368  31.806  28.713  1.00  0.00    -0.052 S 
BRANCH  10  17
ATOM     17  C   UNL A   1      33.491  27.623  25.551  1.00  0.00    -0.021 A 
ATOM     18  C   UNL A   1      34.116  23.851  25.998  1.00  0.00     0.044 C 
ATOM     19  C   UNL A   1      33.889  25.192  25.366  1.00  0.00    -0.051 A 
ATOM     20  C   UNL A   1      33.969  25.285  23.979  1.00  0.00     0.004 A 
ATOM     21  C   UNL A   1      33.666  26.356  26.139  1.00  0.00     0.011 A 
ATOM     22  C   UNL A   1      33.773  26.507  23.366  1.00  0.00     0.004 A 
ATOM     23  C   UNL A   1      33.515  27.668  24.125  1.00  0.00    -0.044 A 
ATOM     24  C   UNL A   1      33.325  28.899  23.284  1.00  0.00     0.045 C 
ENDBRANCH  10  17
ENDBRANCH   8   9
ENDBRANCH   6   8
ENDBRANCH   5   6
ENDBRANCH   4   5
ENDBRANCH   3   4
ENDBRANCH   2   3
ENDBRANCH   1   2
BRANCH   1  25
ATOM     25  C   UNL A   1      33.879  36.443  33.557  1.00  0.00     0.188 C 
BRANCH  25  26
ATOM     26  O   UNL A   1      35.097  35.726  33.700  1.00  0.00    -0.376 OA
BRANCH  26  27
ATOM     27  C   UNL A   1      35.410  34.756  32.714  1.00  0.00     0.202 C 
BRANCH  27  28
ATOM     28  C   UNL A   1      35.935  33.383  33.164  1.00  0.00     0.261 C 
BRANCH  28  29
ATOM     29  O   UNL A   1      36.965  32.687  32.423  1.00  0.00    -0.460 OA
BRANCH  29  30
ATOM     30  C   UNL A   1      38.290  32.645  32.634  1.00  0.00     0.338 C 
ATOM     31  O   UNL A   1      38.864  33.482  33.327  1.00  0.00    -0.246 OA
BRANCH  30  32
ATOM     32  C   UNL A   1      39.069  31.638  31.913  1.00  0.00     0.060 A 
ATOM     33  C   UNL A   1      38.549  30.360  31.991  1.00  0.00     0.016 A 
ATOM     34  C   UNL A   1      40.293  31.880  31.271  1.00  0.00     0.016 A 
ATOM     35  C   UNL A   1      39.354  29.313  31.614  1.00  0.00     0.010 A 
ATOM     36  C   UNL A   1      41.075  30.798  30.843  1.00  0.00     0.010 A 
ATOM     37  C   UNL A   1      40.615  29.506  31.075  1.00  0.00    -0.014 A 
BRANCH  37  38
ATOM     38  C   UNL A   1      41.301  28.241  30.805  1.00  0.00     0.031 A 
ATOM     39  C   UNL A   1      42.378  27.844  31.751  1.00  0.00     0.074 A 
ATOM     40  C   UNL A   1      41.092  27.579  29.651  1.00  0.00     0.049 A 
ATOM     41  N   UNL A   1      43.588  27.468  31.459  1.00  0.00    -0.248 NA
ATOM     42  C   UNL A   1      42.096  27.926  33.190  1.00  0.00     0.031 C 
ATOM     43  C   UNL A   1      40.052  27.890  28.672  1.00  0.00     0.029 A 
ATOM     44  N   UNL A   1      41.693  26.454  29.140  1.00  0.00    -0.354 N 
ATOM     45  C   UNL A   1      44.145  27.070  32.669  1.00  0.00     0.074 A 
ATOM     46  C   UNL A   1      43.235  27.474  33.711  1.00  0.00     0.031 C 
ATOM     47  C   UNL A   1      39.932  26.858  27.819  1.00  0.00     0.029 A 
ATOM     48  C   UNL A   1      40.934  25.857  28.145  1.00  0.00     0.049 A 
ATOM     49  H   UNL A   1      42.563  26.111  29.444  1.00  0.00     0.167 HD
ATOM     50  C   UNL A   1      45.141  26.149  32.734  1.00  0.00     0.031 A 
ATOM     51  C   UNL A   1      41.025  24.601  27.650  1.00  0.00     0.031 A 
ATOM     52  C   UNL A   1      45.963  26.070  31.565  1.00  0.00     0.049 A 
ATOM     53  C   UNL A   1      42.374  24.051  27.882  1.00  0.00     0.074 A 
ATOM     54  C   UNL A   1      47.081  26.703  31.071  1.00  0.00     0.029 A 
ATOM     55  N   UNL A   1      45.483  25.260  30.577  1.00  0.00    -0.354 N 
ATOM     56  N   UNL A   1      43.430  24.428  27.222  1.00  0.00    -0.248 NA
ATOM     57  C   UNL A   1      42.632  23.201  29.041  1.00  0.00     0.031 C 
ATOM     58  C   UNL A   1      47.198  26.317  29.703  1.00  0.00     0.029 A 
ATOM     59  C   UNL A   1      46.143  25.467  29.393  1.00  0.00     0.049 A 
ATOM     60  H   UNL A   1      44.756  24.609  30.699  1.00  0.00     0.167 HD
ATOM     61  C   UNL A   1      44.475  24.210  28.097  1.00  0.00     0.074 A 
ATOM     62  C   UNL A   1      43.961  23.300  29.108  1.00  0.00     0.031 C 
ATOM     63  C   UNL A   1      45.538  25.059  28.145  1.00  0.00     0.031 A 
BRANCH  50  64
ATOM     64  C   UNL A   1      44.991  24.955  33.647  1.00  0.00    -0.014 A 
ATOM     65  C   UNL A   1      44.201  23.867  33.248  1.00  0.00     0.009 A 
ATOM     66  C   UNL A   1      45.356  25.016  35.010  1.00  0.00     0.009 A 
ATOM     67  C   UNL A   1      43.791  22.896  34.174  1.00  0.00     0.001 A 
ATOM     68  C   UNL A   1      44.978  24.035  35.926  1.00  0.00     0.001 A 
ATOM     69  C   UNL A   1      44.181  22.981  35.509  1.00  0.00     0.000 A 
ENDBRANCH  50  64
BRANCH  51  70
ATOM     70  C   UNL A   1      39.924  23.795  27.080  1.00  0.00    -0.014 A 
ATOM     71  C   UNL A   1      38.717  24.386  26.686  1.00  0.00     0.009 A 
ATOM     72  C   UNL A   1      40.134  22.445  26.735  1.00  0.00     0.009 A 
ATOM     73  C   UNL A   1      37.762  23.654  25.969  1.00  0.00     0.001 A 
ATOM     74  C   UNL A   1      39.175  21.707  26.041  1.00  0.00     0.001 A 
ATOM     75  C   UNL A   1      37.991  22.317  25.646  1.00  0.00     0.000 A 
ENDBRANCH  51  70
BRANCH  63  76
ATOM     76  C   UNL A   1      45.901  25.802  26.898  1.00  0.00    -0.014 A 
ATOM     77  C   UNL A   1      46.937  25.396  26.044  1.00  0.00     0.009 A 
ATOM     78  C   UNL A   1      45.127  26.917  26.540  1.00  0.00     0.009 A 
ATOM     79  C   UNL A   1      47.207  26.106  24.871  1.00  0.00     0.001 A 
ATOM     80  C   UNL A   1      45.386  27.614  25.359  1.00  0.00     0.001 A 
ATOM     81  C   UNL A   1      46.428  27.211  24.527  1.00  0.00     0.000 A 
ENDBRANCH  63  76
ENDBRANCH  37  38
ENDBRANCH  30  32
ENDBRANCH  29  30
ENDBRANCH  28  29
ENDBRANCH  27  28
ENDBRANCH  26  27
ENDBRANCH  25  26
ENDBRANCH   1  25
TORSDOF 19
ENDMDL
MODEL 2
REMARK VINA RESULT:     -10.5      2.493      4.172
REMARK SMILES Cc1ccc(C)c(/C=C2\SC(=S)N(CC(=O)OCCOCCOCCOC(=O)c3ccc(-c4c5nc(c(-c6ccccc6)c6ccc([nH]6)c(-c6ccccc6)c6nc(c(-c7ccccc7)c7ccc4[nH]7)C=C6)C=C5)cc3)C2=O)c1
REMARK SMILES IDX 21 1 20 2 19 3 18 4 17 5 15 6 16 7 14 8 13 9 8 10 9 11 10 12
REMARK SMILES IDX 77 13 11 14 78 15 12 16 7 17 1 18 2 19 3 20 79 21 4 22 5 23
REMARK SMILES IDX 6 24 22 25 23 26 24 27 25 28 26 29 27 30 28 31 29 32 30 33
REMARK SMILES IDX 76 34 31 35 75 36 32 37 33 38 34 39 69 40 35 41 74 42 68 43
REMARK SMILES IDX 70 44 36 45 73 46 67 47 66 48 37 50 59 51 44 52 58 53 45 54
REMARK SMILES IDX 48 55 57 56 71 57 46 58 47 59 56 61 72 62 49 63 38 64 39 65
REMARK SMILES IDX 43 66 40 67 42 68 41 69 60 70 61 71 65 72 62 73 64 74 63 75
REMARK SMILES IDX 50 76 51 77 55 78 52 79 54 80 53 81
REMARK H PARENT 70 49 48 60
REMARK Flexibility Score: inf
ROOT
ATOM      1  C   UNL A   1      33.773  32.571  27.907  1.00  0.00     0.188 C 
ENDROOT
BRANCH   1   2
ATOM      2  O   UNL A   1      32.480  32.466  27.313  1.00  0.00    -0.376 OA
BRANCH   2   3
ATOM      3  C   UNL A   1      32.165  31.188  26.749  1.00  0.00     0.202 C 
BRANCH   3   4
ATOM      4  C   UNL A   1      32.890  29.974  27.391  1.00  0.00     0.261 C 
BRANCH   4   5
ATOM      5  O   UNL A   1      32.830  28.697  26.663  1.00  0.00    -0.462 OA
BRANCH   5   6
ATOM      6  C   UNL A   1      31.605  28.089  26.770  1.00  0.00     0.326 C 
ATOM      7  O   UNL A   1      31.036  27.995  27.860  1.00  0.00    -0.250 OA
BRANCH   6   8
ATOM      8  C   UNL A   1      31.098  27.233  25.553  1.00  0.00     0.250 C 
BRANCH   8   9
ATOM      9  N   UNL A   1      31.688  26.027  24.883  1.00  0.00    -0.282 N 
ATOM     10  C   UNL A   1      32.459  22.474  25.151  1.00  0.00     0.029 C 
ATOM     11  C   UNL A   1      32.261  23.703  24.628  1.00  0.00     0.081 C 
ATOM     12  S   UNL A   1      32.608  24.360  23.094  1.00  0.00    -0.054 SA
ATOM     13  C   UNL A   1      31.522  24.761  25.405  1.00  0.00     0.266 C 
ATOM     14  C   UNL A   1      31.923  25.946  23.522  1.00  0.00     0.148 C 
ATOM     15  O   UNL A   1      30.669  24.450  26.224  1.00  0.00    -0.268 OA
ATOM     16  S   UNL A   1      31.537  27.052  22.329  1.00  0.00    -0.052 S 
BRANCH  10  17
ATOM     17  C   UNL A   1      33.012  21.154  24.688  1.00  0.00    -0.021 A 
ATOM     18  C   UNL A   1      32.149  18.277  22.280  1.00  0.00     0.044 C 
ATOM     19  C   UNL A   1      32.834  19.095  23.334  1.00  0.00    -0.051 A 
ATOM     20  C   UNL A   1      33.889  18.513  24.034  1.00  0.00     0.004 A 
ATOM     21  C   UNL A   1      32.396  20.397  23.673  1.00  0.00     0.011 A 
ATOM     22  C   UNL A   1      34.536  19.238  25.016  1.00  0.00     0.004 A 
ATOM     23  C   UNL A   1      34.130  20.550  25.338  1.00  0.00    -0.044 A 
ATOM     24  C   UNL A   1      34.954  21.178  26.427  1.00  0.00     0.045 C 
ENDBRANCH  10  17
ENDBRANCH   8   9
ENDBRANCH   6   8
ENDBRANCH   5   6
ENDBRANCH   4   5
ENDBRANCH   3   4
ENDBRANCH   2   3
ENDBRANCH   1   2
BRANCH   1  25
ATOM     25  C   UNL A   1      33.978  33.805  28.818  1.00  0.00     0.188 C 
BRANCH  25  26
ATOM     26  O   UNL A   1      33.977  33.426  30.187  1.00  0.00    -0.376 OA
BRANCH  26  27
ATOM     27  C   UNL A   1      35.032  32.597  30.642  1.00  0.00     0.202 C 
BRANCH  27  28
ATOM     28  C   UNL A   1      35.760  32.969  31.944  1.00  0.00     0.261 C 
BRANCH  28  29
ATOM     29  O   UNL A   1      37.114  32.529  32.207  1.00  0.00    -0.460 OA
BRANCH  29  30
ATOM     30  C   UNL A   1      38.255  32.850  31.576  1.00  0.00     0.338 C 
ATOM     31  O   UNL A   1      38.584  34.018  31.383  1.00  0.00    -0.246 OA
BRANCH  30  32
ATOM     32  C   UNL A   1      39.054  31.764  31.008  1.00  0.00     0.060 A 
ATOM     33  C   UNL A   1      38.469  30.517  31.117  1.00  0.00     0.016 A 
ATOM     34  C   UNL A   1      40.346  31.911  30.481  1.00  0.00     0.016 A 
ATOM     35  C   UNL A   1      39.259  29.414  30.895  1.00  0.00     0.010 A 
ATOM     36  C   UNL A   1      41.115  30.772  30.209  1.00  0.00     0.010 A 
ATOM     37  C   UNL A   1      40.575  29.518  30.478  1.00  0.00    -0.014 A 
BRANCH  37  38
ATOM     38  C   UNL A   1      41.224  28.211  30.364  1.00  0.00     0.031 A 
ATOM     39  C   UNL A   1      42.216  27.859  31.415  1.00  0.00     0.074 A 
ATOM     40  C   UNL A   1      41.069  27.460  29.257  1.00  0.00     0.049 A 
ATOM     41  N   UNL A   1      43.426  27.417  31.244  1.00  0.00    -0.248 NA
ATOM     42  C   UNL A   1      41.839  28.074  32.818  1.00  0.00     0.031 C 
ATOM     43  C   UNL A   1      40.113  27.723  28.183  1.00  0.00     0.029 A 
ATOM     44  N   UNL A   1      41.656  26.275  28.886  1.00  0.00    -0.354 N 
ATOM     45  C   UNL A   1      43.882  27.104  32.520  1.00  0.00     0.074 A 
ATOM     46  C   UNL A   1      42.919  27.628  33.456  1.00  0.00     0.031 C 
ATOM     47  C   UNL A   1      40.009  26.626  27.412  1.00  0.00     0.029 A 
ATOM     48  C   UNL A   1      40.944  25.622  27.891  1.00  0.00     0.049 A 
ATOM     49  H   UNL A   1      42.488  25.929  29.280  1.00  0.00     0.167 HD
ATOM     50  C   UNL A   1      44.831  26.158  32.734  1.00  0.00     0.031 A 
ATOM     51  C   UNL A   1      41.017  24.326  27.511  1.00  0.00     0.031 A 
ATOM     52  C   UNL A   1      45.729  25.949  31.638  1.00  0.00     0.049 A 
ATOM     53  C   UNL A   1      42.323  23.750  27.885  1.00  0.00     0.074 A 
ATOM     54  C   UNL A   1      46.903  26.497  31.175  1.00  0.00     0.029 A 
ATOM     55  N   UNL A   1      45.285  25.075  30.689  1.00  0.00    -0.354 N 
ATOM     56  N   UNL A   1      43.437  24.032  27.274  1.00  0.00    -0.248 NA
ATOM     57  C   UNL A   1      42.463  22.994  29.126  1.00  0.00     0.031 C 
ATOM     58  C   UNL A   1      47.099  25.991  29.857  1.00  0.00     0.029 A 
ATOM     59  C   UNL A   1      46.033  25.155  29.543  1.00  0.00     0.049 A 
ATOM     60  H   UNL A   1      44.524  24.463  30.812  1.00  0.00     0.167 HD
ATOM     61  C   UNL A   1      44.408  23.852  28.238  1.00  0.00     0.074 A 
ATOM     62  C   UNL A   1      43.787  23.051  29.281  1.00  0.00     0.031 C 
ATOM     63  C   UNL A   1      45.500  24.663  28.292  1.00  0.00     0.031 A 
BRANCH  50  64
ATOM     64  C   UNL A   1      44.569  25.052  33.730  1.00  0.00    -0.014 A 
ATOM     65  C   UNL A   1      45.340  24.971  34.899  1.00  0.00     0.009 A 
ATOM     66  C   UNL A   1      43.797  23.920  33.392  1.00  0.00     0.009 A 
ATOM     67  C   UNL A   1      45.341  23.807  35.682  1.00  0.00     0.001 A 
ATOM     68  C   UNL A   1      43.770  22.773  34.185  1.00  0.00     0.001 A 
ATOM     69  C   UNL A   1      44.556  22.712  35.325  1.00  0.00     0.000 A 
ENDBRANCH  50  64
BRANCH  51  70
ATOM     70  C   UNL A   1      39.925  23.513  26.932  1.00  0.00    -0.014 A 
ATOM     71  C   UNL A   1      38.746  24.107  26.462  1.00  0.00     0.009 A 
ATOM     72  C   UNL A   1      40.124  22.146  26.655  1.00  0.00     0.009 A 
ATOM     73  C   UNL A   1      37.808  23.359  25.739  1.00  0.00     0.001 A 
ATOM     74  C   UNL A   1      39.181  21.394  25.955  1.00  0.00     0.001 A 
ATOM     75  C   UNL A   1      38.026  22.006  25.485  1.00  0.00     0.000 A 
ENDBRANCH  51  70
BRANCH  63  76
ATOM     76  C   UNL A   1      45.978  25.283  27.017  1.00  0.00    -0.014 A 
ATOM     77  C   UNL A   1      45.460  26.485  26.513  1.00  0.00     0.009 A 
ATOM     78  C   UNL A   1      47.036  24.663  26.333  1.00  0.00     0.009 A 
ATOM     79  C   UNL A   1      45.973  27.040  25.338  1.00  0.00     0.001 A 
ATOM     80  C   UNL A   1      47.559  25.227  25.169  1.00  0.00     0.001 A 
ATOM     81  C   UNL A   1      47.024  26.413  24.669  1.00  0.00     0.000 A 
ENDBRANCH  63  76
ENDBRANCH  37  38
ENDBRANCH  30  32
ENDBRANCH  29  30
ENDBRANCH  28  29
ENDBRANCH  27  28
ENDBRANCH  26  27
ENDBRANCH  25  26
ENDBRANCH   1  25
TORSDOF 19
ENDMDL
MODEL 3
REMARK VINA RESULT:     -10.2      4.970      9.845
REMARK SMILES Cc1ccc(C)c(/C=C2\SC(=S)N(CC(=O)OCCOCCOCCOC(=O)c3ccc(-c4c5nc(c(-c6ccccc6)c6ccc([nH]6)c(-c6ccccc6)c6nc(c(-c7ccccc7)c7ccc4[nH]7)C=C6)C=C5)cc3)C2=O)c1
REMARK SMILES IDX 21 1 20 2 19 3 18 4 17 5 15 6 16 7 14 8 13 9 8 10 9 11 10 12
REMARK SMILES IDX 77 13 11 14 78 15 12 16 7 17 1 18 2 19 3 20 79 21 4 22 5 23
REMARK SMILES IDX 6 24 22 25 23 26 24 27 25 28 26 29 27 30 28 31 29 32 30 33
REMARK SMILES IDX 76 34 31 35 75 36 32 37 33 38 34 39 69 40 35 41 74 42 68 43
REMARK SMILES IDX 70 44 36 45 73 46 67 47 66 48 37 50 59 51 44 52 58 53 45 54
REMARK SMILES IDX 48 55 57 56 71 57 46 58 47 59 56 61 72 62 49 63 38 64 39 65
REMARK SMILES IDX 43 66 40 67 42 68 41 69 60 70 61 71 65 72 62 73 64 74 63 75
REMARK SMILES IDX 50 76 51 77 55 78 52 79 54 80 53 81
REMARK H PARENT 70 49 48 60
REMARK Flexibility Score: inf
ROOT
ATOM      1  C   UNL A   1      41.111  22.010  26.795  1.00  0.00     0.188 C 
ENDROOT
BRANCH   1   2
ATOM      2  O   UNL A   1      39.707  21.834  26.980  1.00  0.00    -0.376 OA
BRANCH   2   3
ATOM      3  C   UNL A   1      38.888  22.211  25.869  1.00  0.00     0.202 C 
BRANCH   3   4
ATOM      4  C   UNL A   1      38.028  21.075  25.252  1.00  0.00     0.261 C 
BRANCH   4   5
ATOM      5  O   UNL A   1      36.735  21.458  24.663  1.00  0.00    -0.462 OA
BRANCH   5   6
ATOM      6  C   UNL A   1      35.673  20.876  25.308  1.00  0.00     0.326 C 
ATOM      7  O   UNL A   1      35.211  19.799  24.924  1.00  0.00    -0.250 OA
BRANCH   6   8
ATOM      8  C   UNL A   1      34.857  21.755  26.324  1.00  0.00     0.250 C 
BRANCH   8   9
ATOM      9  N   UNL A   1      33.846  22.840  26.098  1.00  0.00    -0.282 N 
ATOM     10  C   UNL A   1      33.267  26.412  25.657  1.00  0.00     0.029 C 
ATOM     11  C   UNL A   1      33.067  25.077  25.669  1.00  0.00     0.081 C 
ATOM     12  S   UNL A   1      31.661  24.132  25.477  1.00  0.00    -0.054 SA
ATOM     13  C   UNL A   1      34.229  24.125  25.772  1.00  0.00     0.266 C 
ATOM     14  C   UNL A   1      32.559  22.605  25.644  1.00  0.00     0.148 C 
ATOM     15  O   UNL A   1      35.329  24.435  25.338  1.00  0.00    -0.268 OA
ATOM     16  S   UNL A   1      31.874  21.161  25.154  1.00  0.00    -0.052 S 
BRANCH  10  17
ATOM     17  C   UNL A   1      32.437  27.650  25.456  1.00  0.00    -0.021 A 
ATOM     18  C   UNL A   1      29.684  29.010  23.135  1.00  0.00     0.044 C 
ATOM     19  C   UNL A   1      30.737  28.929  24.200  1.00  0.00    -0.051 A 
ATOM     20  C   UNL A   1      31.082  30.098  24.872  1.00  0.00     0.004 A 
ATOM     21  C   UNL A   1      31.421  27.724  24.484  1.00  0.00     0.011 A 
ATOM     22  C   UNL A   1      32.054  30.058  25.852  1.00  0.00     0.004 A 
ATOM     23  C   UNL A   1      32.719  28.855  26.168  1.00  0.00    -0.044 A 
ATOM     24  C   UNL A   1      33.739  29.007  27.261  1.00  0.00     0.045 C 
ENDBRANCH  10  17
ENDBRANCH   8   9
ENDBRANCH   6   8
ENDBRANCH   5   6
ENDBRANCH   4   5
ENDBRANCH   3   4
ENDBRANCH   2   3
ENDBRANCH   1   2
BRANCH   1  25
ATOM     25  C   UNL A   1      42.007  21.039  27.601  1.00  0.00     0.188 C 
BRANCH  25  26
ATOM     26  O   UNL A   1      41.461  19.728  27.594  1.00  0.00    -0.376 OA
BRANCH  26  27
ATOM     27  C   UNL A   1      42.316  18.660  27.222  1.00  0.00     0.202 C 
BRANCH  27  28
ATOM     28  C   UNL A   1      42.992  18.695  25.842  1.00  0.00     0.261 C 
BRANCH  28  29
ATOM     29  O   UNL A   1      44.205  19.449  25.612  1.00  0.00    -0.460 OA
BRANCH  29  30
ATOM     30  C   UNL A   1      44.506  20.302  24.619  1.00  0.00     0.338 C 
ATOM     31  O   UNL A   1      44.837  19.909  23.503  1.00  0.00    -0.246 OA
BRANCH  30  32
ATOM     32  C   UNL A   1      44.550  21.731  24.931  1.00  0.00     0.060 A 
ATOM     33  C   UNL A   1      45.273  22.038  26.068  1.00  0.00     0.016 A 
ATOM     34  C   UNL A   1      43.854  22.726  24.228  1.00  0.00     0.016 A 
ATOM     35  C   UNL A   1      45.122  23.292  26.608  1.00  0.00     0.010 A 
ATOM     36  C   UNL A   1      43.759  24.016  24.769  1.00  0.00     0.010 A 
ATOM     37  C   UNL A   1      44.355  24.272  26.000  1.00  0.00    -0.014 A 
BRANCH  37  38
ATOM     38  C   UNL A   1      44.301  25.502  26.791  1.00  0.00     0.031 A 
ATOM     39  C   UNL A   1      45.545  26.314  26.858  1.00  0.00     0.074 A 
ATOM     40  C   UNL A   1      43.236  25.773  27.571  1.00  0.00     0.049 A 
ATOM     41  N   UNL A   1      46.129  26.780  27.922  1.00  0.00    -0.248 NA
ATOM     42  C   UNL A   1      46.253  26.595  25.602  1.00  0.00     0.031 C 
ATOM     43  C   UNL A   1      41.972  25.039  27.562  1.00  0.00     0.029 A 
ATOM     44  N   UNL A   1      43.015  26.790  28.468  1.00  0.00    -0.354 N 
ATOM     45  C   UNL A   1      47.159  27.585  27.447  1.00  0.00     0.074 A 
ATOM     46  C   UNL A   1      47.263  27.350  26.029  1.00  0.00     0.031 C 
ATOM     47  C   UNL A   1      41.045  25.757  28.218  1.00  0.00     0.029 A 
ATOM     48  C   UNL A   1      41.669  26.956  28.755  1.00  0.00     0.049 A 
ATOM     49  H   UNL A   1      43.730  27.338  28.862  1.00  0.00     0.167 HD
ATOM     50  C   UNL A   1      47.642  28.633  28.162  1.00  0.00     0.031 A 
ATOM     51  C   UNL A   1      41.048  28.020  29.312  1.00  0.00     0.031 A 
ATOM     52  C   UNL A   1      47.494  28.510  29.581  1.00  0.00     0.049 A 
ATOM     53  C   UNL A   1      42.003  28.820  30.102  1.00  0.00     0.074 A 
ATOM     54  C   UNL A   1      48.194  27.950  30.626  1.00  0.00     0.029 A 
ATOM     55  N   UNL A   1      46.290  28.924  30.072  1.00  0.00    -0.354 N 
ATOM     56  N   UNL A   1      42.477  28.446  31.255  1.00  0.00    -0.248 NA
ATOM     57  C   UNL A   1      42.645  29.991  29.512  1.00  0.00     0.031 C 
ATOM     58  C   UNL A   1      47.317  27.951  31.751  1.00  0.00     0.029 A 
ATOM     59  C   UNL A   1      46.102  28.502  31.363  1.00  0.00     0.049 A 
ATOM     60  H   UNL A   1      45.639  29.460  29.564  1.00  0.00     0.167 HD
ATOM     61  C   UNL A   1      43.708  29.064  31.333  1.00  0.00     0.074 A 
ATOM     62  C   UNL A   1      43.682  30.127  30.341  1.00  0.00     0.031 C 
ATOM     63  C   UNL A   1      44.768  28.442  31.919  1.00  0.00     0.031 A 
BRANCH  50  64
ATOM     64  C   UNL A   1      47.733  29.996  27.517  1.00  0.00    -0.014 A 
ATOM     65  C   UNL A   1      48.975  30.643  27.428  1.00  0.00     0.009 A 
ATOM     66  C   UNL A   1      46.583  30.780  27.280  1.00  0.00     0.009 A 
ATOM     67  C   UNL A   1      49.054  32.010  27.125  1.00  0.00     0.001 A 
ATOM     68  C   UNL A   1      46.661  32.132  26.946  1.00  0.00     0.001 A 
ATOM     69  C   UNL A   1      47.899  32.751  26.884  1.00  0.00     0.000 A 
ENDBRANCH  50  64
BRANCH  51  70
ATOM     70  C   UNL A   1      39.651  28.449  29.080  1.00  0.00    -0.014 A 
ATOM     71  C   UNL A   1      38.688  28.373  30.094  1.00  0.00     0.009 A 
ATOM     72  C   UNL A   1      39.302  29.130  27.897  1.00  0.00     0.009 A 
ATOM     73  C   UNL A   1      37.427  28.961  29.930  1.00  0.00     0.001 A 
ATOM     74  C   UNL A   1      38.039  29.698  27.722  1.00  0.00     0.001 A 
ATOM     75  C   UNL A   1      37.105  29.623  28.746  1.00  0.00     0.000 A 
ENDBRANCH  51  70
BRANCH  63  76
ATOM     76  C   UNL A   1      44.489  27.447  33.001  1.00  0.00    -0.014 A 
ATOM     77  C   UNL A   1      44.200  27.819  34.322  1.00  0.00     0.009 A 
ATOM     78  C   UNL A   1      44.454  26.086  32.659  1.00  0.00     0.009 A 
ATOM     79  C   UNL A   1      43.908  26.848  35.284  1.00  0.00     0.001 A 
ATOM     80  C   UNL A   1      44.144  25.119  33.616  1.00  0.00     0.001 A 
ATOM     81  C   UNL A   1      43.875  25.500  34.929  1.00  0.00     0.000 A 
ENDBRANCH  63  76
ENDBRANCH  37  38
ENDBRANCH  30  32
ENDBRANCH  29  30
ENDBRANCH  28  29
ENDBRANCH  27  28
ENDBRANCH  26  27
ENDBRANCH  25  26
ENDBRANCH   1  25
TORSDOF 19
ENDMDL
