MODEL 1
REMARK VINA RESULT:     -10.6      0.000      0.000
REMARK SMILES C[C@H]1Oc2ccccc2C=C1/C=C/C(=O)N[C@H](C(=O)OCCOCCOCCOC(=O)c1ccc(-c2c3nc(c(-c4ccccc4)c4ccc([nH]4)c(-c4ccccc4)c4nc(c(-c5ccccc5)c5ccc2[nH]5)C=C4)C=C3)cc1)c1ccccc1
REMARK SMILES IDX 24 1 23 2 22 3 21 4 20 5 18 6 19 7 17 8 16 9 14 10 15 11
REMARK SMILES IDX 13 13 12 14 11 15 1 16 2 17 3 18 4 19 10 20 5 21 9 22 6 23
REMARK SMILES IDX 8 24 7 25 80 26 81 27 85 28 82 29 84 30 83 31 25 32 26 33
REMARK SMILES IDX 27 34 28 35 29 36 30 37 31 38 32 39 33 40 79 41 34 42 78 43
REMARK SMILES IDX 35 44 36 45 37 46 72 47 38 48 77 49 71 50 73 51 39 52 76 53
REMARK SMILES IDX 70 54 69 55 40 57 62 58 47 59 61 60 48 61 51 62 60 63 74 64
REMARK SMILES IDX 49 65 50 66 59 68 75 69 52 70 41 71 42 72 46 73 43 74 45 75
REMARK SMILES IDX 44 76 63 77 64 78 68 79 65 80 67 81 66 82 53 83 54 84 58 85
REMARK SMILES IDX 55 86 57 87 56 88
REMARK H PARENT 16 12 73 56 51 67
REMARK Flexibility Score: inf
ROOT
ATOM      1  C   UNL A   1      37.573  23.002  25.932  1.00  0.00     0.188 C 
ENDROOT
BRANCH   1   2
ATOM      2  O   UNL A   1      37.135  23.726  24.788  1.00  0.00    -0.376 OA
BRANCH   2   3
ATOM      3  C   UNL A   1      35.764  23.766  24.444  1.00  0.00     0.202 C 
BRANCH   3   4
ATOM      4  C   UNL A   1      34.837  24.613  25.318  1.00  0.00     0.261 C 
BRANCH   4   5
ATOM      5  O   UNL A   1      33.724  25.227  24.645  1.00  0.00    -0.461 OA
BRANCH   5   6
ATOM      6  C   UNL A   1      32.905  26.003  25.418  1.00  0.00     0.333 C 
ATOM      7  O   UNL A   1      33.281  26.713  26.345  1.00  0.00    -0.249 OA
BRANCH   6   8
ATOM      8  C   UNL A   1      31.437  25.842  25.005  1.00  0.00     0.223 C 
BRANCH   8   9
ATOM      9  N   UNL A   1      30.718  25.284  26.154  1.00  0.00    -0.335 N 
ATOM     10  C   UNL A   1      30.324  24.015  26.413  1.00  0.00     0.244 C 
ATOM     11  O   UNL A   1      29.677  23.756  27.422  1.00  0.00    -0.270 OA
ATOM     12  H   UNL A   1      30.484  25.939  26.851  1.00  0.00     0.165 HD
BRANCH  10  13
ATOM     13  C   UNL A   1      30.817  22.927  25.548  1.00  0.00     0.071 C 
ATOM     14  C   UNL A   1      31.906  22.193  25.815  1.00  0.00     0.013 C 
BRANCH  14  15
ATOM     15  C   UNL A   1      32.324  21.055  25.024  1.00  0.00    -0.007 C 
ATOM     16  C   UNL A   1      32.873  22.130  22.778  1.00  0.00     0.058 C 
ATOM     17  C   UNL A   1      32.046  21.073  23.525  1.00  0.00     0.200 C 
ATOM     18  O   UNL A   1      32.246  19.829  22.822  1.00  0.00    -0.485 OA
ATOM     19  C   UNL A   1      32.812  18.784  23.490  1.00  0.00     0.127 A 
ATOM     20  C   UNL A   1      32.861  19.994  25.635  1.00  0.00     0.019 C 
ATOM     21  C   UNL A   1      33.021  17.621  22.752  1.00  0.00     0.047 A 
ATOM     22  C   UNL A   1      33.150  18.818  24.843  1.00  0.00     0.017 A 
ATOM     23  C   UNL A   1      33.566  16.492  23.364  1.00  0.00     0.004 A 
ATOM     24  C   UNL A   1      33.710  17.692  25.453  1.00  0.00     0.012 A 
ATOM     25  C   UNL A   1      33.914  16.528  24.713  1.00  0.00     0.001 A 
ENDBRANCH  14  15
ENDBRANCH  10  13
ENDBRANCH   8   9
BRANCH   8  26
ATOM     26  C   UNL A   1      30.697  27.089  24.518  1.00  0.00    -0.014 A 
ATOM     27  C   UNL A   1      29.516  26.993  23.761  1.00  0.00     0.006 A 
ATOM     28  C   UNL A   1      31.253  28.372  24.702  1.00  0.00     0.006 A 
ATOM     29  C   UNL A   1      28.958  28.125  23.155  1.00  0.00     0.000 A 
ATOM     30  C   UNL A   1      30.673  29.506  24.122  1.00  0.00     0.000 A 
ATOM     31  C   UNL A   1      29.532  29.379  23.339  1.00  0.00     0.000 A 
ENDBRANCH   8  26
ENDBRANCH   6   8
ENDBRANCH   5   6
ENDBRANCH   4   5
ENDBRANCH   3   4
ENDBRANCH   2   3
ENDBRANCH   1   2
BRANCH   1  32
ATOM     32  C   UNL A   1      38.200  21.598  25.806  1.00  0.00     0.188 C 
BRANCH  32  33
ATOM     33  O   UNL A   1      39.593  21.568  25.657  1.00  0.00    -0.376 OA
BRANCH  33  34
ATOM     34  C   UNL A   1      40.414  20.961  26.624  1.00  0.00     0.202 C 
BRANCH  34  35
ATOM     35  C   UNL A   1      41.001  21.678  27.854  1.00  0.00     0.261 C 
BRANCH  35  36
ATOM     36  O   UNL A   1      41.921  22.755  27.643  1.00  0.00    -0.460 OA
BRANCH  36  37
ATOM     37  C   UNL A   1      42.600  23.197  28.728  1.00  0.00     0.338 C 
ATOM     38  O   UNL A   1      42.732  22.621  29.800  1.00  0.00    -0.246 OA
BRANCH  37  39
ATOM     39  C   UNL A   1      43.330  24.435  28.380  1.00  0.00     0.060 A 
ATOM     40  C   UNL A   1      43.904  25.242  29.360  1.00  0.00     0.016 A 
ATOM     41  C   UNL A   1      43.456  24.780  27.030  1.00  0.00     0.016 A 
ATOM     42  C   UNL A   1      44.617  26.388  28.976  1.00  0.00     0.010 A 
ATOM     43  C   UNL A   1      44.154  25.932  26.650  1.00  0.00     0.010 A 
ATOM     44  C   UNL A   1      44.760  26.740  27.618  1.00  0.00    -0.014 A 
BRANCH  44  45
ATOM     45  C   UNL A   1      45.689  27.834  27.215  1.00  0.00     0.031 A 
ATOM     46  C   UNL A   1      45.254  29.267  27.095  1.00  0.00     0.074 A 
ATOM     47  C   UNL A   1      46.966  27.504  26.933  1.00  0.00     0.049 A 
ATOM     48  N   UNL A   1      45.999  30.333  26.916  1.00  0.00    -0.248 NA
ATOM     49  C   UNL A   1      43.813  29.551  27.167  1.00  0.00     0.031 C 
ATOM     50  C   UNL A   1      47.495  26.139  26.934  1.00  0.00     0.029 A 
ATOM     51  N   UNL A   1      48.054  28.283  26.619  1.00  0.00    -0.354 N 
ATOM     52  C   UNL A   1      45.125  31.413  26.890  1.00  0.00     0.074 A 
ATOM     53  C   UNL A   1      43.787  30.871  27.006  1.00  0.00     0.031 C 
ATOM     54  C   UNL A   1      48.816  26.181  26.704  1.00  0.00     0.029 A 
ATOM     55  C   UNL A   1      49.226  27.570  26.513  1.00  0.00     0.049 A 
ATOM     56  H   UNL A   1      48.001  29.257  26.484  1.00  0.00     0.167 HD
ATOM     57  C   UNL A   1      45.420  32.734  26.807  1.00  0.00     0.031 A 
ATOM     58  C   UNL A   1      50.495  27.980  26.317  1.00  0.00     0.031 A 
ATOM     59  C   UNL A   1      46.756  33.266  26.677  1.00  0.00     0.049 A 
ATOM     60  C   UNL A   1      50.787  29.453  26.212  1.00  0.00     0.074 A 
ATOM     61  C   UNL A   1      47.148  34.595  26.652  1.00  0.00     0.029 A 
ATOM     62  N   UNL A   1      47.908  32.509  26.542  1.00  0.00    -0.354 N 
ATOM     63  N   UNL A   1      49.965  30.467  26.327  1.00  0.00    -0.248 NA
ATOM     64  C   UNL A   1      52.186  29.839  25.974  1.00  0.00     0.031 C 
ATOM     65  C   UNL A   1      48.524  34.643  26.427  1.00  0.00     0.029 A 
ATOM     66  C   UNL A   1      49.005  33.345  26.399  1.00  0.00     0.049 A 
ATOM     67  H   UNL A   1      47.943  31.526  26.545  1.00  0.00     0.167 HD
ATOM     68  C   UNL A   1      50.752  31.606  26.212  1.00  0.00     0.074 A 
ATOM     69  C   UNL A   1      52.118  31.161  26.039  1.00  0.00     0.031 C 
ATOM     70  C   UNL A   1      50.368  32.905  26.243  1.00  0.00     0.031 A 
BRANCH  57  71
ATOM     71  C   UNL A   1      44.303  33.741  26.908  1.00  0.00    -0.014 A 
ATOM     72  C   UNL A   1      43.701  34.251  25.744  1.00  0.00     0.009 A 
ATOM     73  C   UNL A   1      43.993  34.332  28.143  1.00  0.00     0.009 A 
ATOM     74  C   UNL A   1      42.848  35.357  25.812  1.00  0.00     0.001 A 
ATOM     75  C   UNL A   1      43.118  35.418  28.210  1.00  0.00     0.001 A 
ATOM     76  C   UNL A   1      42.559  35.940  27.043  1.00  0.00     0.000 A 
ENDBRANCH  57  71
BRANCH  58  77
ATOM     77  C   UNL A   1      51.599  26.981  26.290  1.00  0.00    -0.014 A 
ATOM     78  C   UNL A   1      52.362  26.716  27.438  1.00  0.00     0.009 A 
ATOM     79  C   UNL A   1      51.910  26.300  25.102  1.00  0.00     0.009 A 
ATOM     80  C   UNL A   1      53.423  25.809  27.393  1.00  0.00     0.001 A 
ATOM     81  C   UNL A   1      52.946  25.364  25.070  1.00  0.00     0.001 A 
ATOM     82  C   UNL A   1      53.708  25.126  26.212  1.00  0.00     0.000 A 
ENDBRANCH  58  77
BRANCH  70  83
ATOM     83  C   UNL A   1      51.427  33.969  26.113  1.00  0.00    -0.014 A 
ATOM     84  C   UNL A   1      52.013  34.513  27.268  1.00  0.00     0.009 A 
ATOM     85  C   UNL A   1      51.758  34.516  24.864  1.00  0.00     0.009 A 
ATOM     86  C   UNL A   1      52.887  35.598  27.178  1.00  0.00     0.001 A 
ATOM     87  C   UNL A   1      52.662  35.578  24.774  1.00  0.00     0.001 A 
ATOM     88  C   UNL A   1      53.215  36.127  25.931  1.00  0.00     0.000 A 
ENDBRANCH  70  83
ENDBRANCH  44  45
ENDBRANCH  37  39
ENDBRANCH  36  37
ENDBRANCH  35  36
ENDBRANCH  34  35
ENDBRANCH  33  34
ENDBRANCH  32  33
ENDBRANCH   1  32
TORSDOF 21
ENDMDL
MODEL 2
REMARK VINA RESULT:     -10.1      6.070     10.625
REMARK SMILES C[C@H]1Oc2ccccc2C=C1/C=C/C(=O)N[C@H](C(=O)OCCOCCOCCOC(=O)c1ccc(-c2c3nc(c(-c4ccccc4)c4ccc([nH]4)c(-c4ccccc4)c4nc(c(-c5ccccc5)c5ccc2[nH]5)C=C4)C=C3)cc1)c1ccccc1
REMARK SMILES IDX 24 1 23 2 22 3 21 4 20 5 18 6 19 7 17 8 16 9 14 10 15 11
REMARK SMILES IDX 13 13 12 14 11 15 1 16 2 17 3 18 4 19 10 20 5 21 9 22 6 23
REMARK SMILES IDX 8 24 7 25 80 26 81 27 85 28 82 29 84 30 83 31 25 32 26 33
REMARK SMILES IDX 27 34 28 35 29 36 30 37 31 38 32 39 33 40 79 41 34 42 78 43
REMARK SMILES IDX 35 44 36 45 37 46 72 47 38 48 77 49 71 50 73 51 39 52 76 53
REMARK SMILES IDX 70 54 69 55 40 57 62 58 47 59 61 60 48 61 51 62 60 63 74 64
REMARK SMILES IDX 49 65 50 66 59 68 75 69 52 70 41 71 42 72 46 73 43 74 45 75
REMARK SMILES IDX 44 76 63 77 64 78 68 79 65 80 67 81 66 82 53 83 54 84 58 85
REMARK SMILES IDX 55 86 57 87 56 88
REMARK H PARENT 16 12 73 56 51 67
REMARK Flexibility Score: inf
ROOT
ATOM      1  C   UNL A   1      40.991  20.763  26.930  1.00  0.00     0.188 C 
ENDROOT
BRANCH   1   2
ATOM      2  O   UNL A   1      39.877  21.461  26.387  1.00  0.00    -0.376 OA
BRANCH   2   3
ATOM      3  C   UNL A   1      39.593  22.786  26.791  1.00  0.00     0.202 C 
BRANCH   3   4
ATOM      4  C   UNL A   1      38.385  23.479  26.156  1.00  0.00     0.261 C 
BRANCH   4   5
ATOM      5  O   UNL A   1      37.109  22.862  26.393  1.00  0.00    -0.461 OA
BRANCH   5   6
ATOM      6  C   UNL A   1      36.127  23.139  25.482  1.00  0.00     0.333 C 
ATOM      7  O   UNL A   1      35.938  24.236  24.966  1.00  0.00    -0.249 OA
BRANCH   6   8
ATOM      8  C   UNL A   1      35.255  21.906  25.213  1.00  0.00     0.223 C 
BRANCH   8   9
ATOM      9  N   UNL A   1      34.511  21.619  26.444  1.00  0.00    -0.335 N 
ATOM     10  C   UNL A   1      33.773  22.433  27.234  1.00  0.00     0.244 C 
ATOM     11  O   UNL A   1      33.265  22.009  28.266  1.00  0.00    -0.270 OA
ATOM     12  H   UNL A   1      34.556  20.683  26.743  1.00  0.00     0.165 HD
BRANCH  10  13
ATOM     13  C   UNL A   1      33.460  23.794  26.758  1.00  0.00     0.071 C 
ATOM     14  C   UNL A   1      32.307  24.133  26.166  1.00  0.00     0.013 C 
BRANCH  14  15
ATOM     15  C   UNL A   1      31.957  25.490  25.801  1.00  0.00    -0.007 C 
ATOM     16  C   UNL A   1      30.339  25.127  23.863  1.00  0.00     0.058 C 
ATOM     17  C   UNL A   1      31.641  25.788  24.339  1.00  0.00     0.200 C 
ATOM     18  O   UNL A   1      31.547  27.181  23.976  1.00  0.00    -0.485 OA
ATOM     19  C   UNL A   1      31.583  28.119  24.966  1.00  0.00     0.127 A 
ATOM     20  C   UNL A   1      32.001  26.451  26.729  1.00  0.00     0.019 C 
ATOM     21  C   UNL A   1      31.445  29.446  24.563  1.00  0.00     0.047 A 
ATOM     22  C   UNL A   1      31.776  27.819  26.314  1.00  0.00     0.017 A 
ATOM     23  C   UNL A   1      31.501  30.472  25.506  1.00  0.00     0.004 A 
ATOM     24  C   UNL A   1      31.817  28.846  27.260  1.00  0.00     0.012 A 
ATOM     25  C   UNL A   1      31.683  30.173  26.854  1.00  0.00     0.001 A 
ENDBRANCH  14  15
ENDBRANCH  10  13
ENDBRANCH   8   9
BRANCH   8  26
ATOM     26  C   UNL A   1      34.269  21.976  24.046  1.00  0.00    -0.014 A 
ATOM     27  C   UNL A   1      34.278  23.053  23.142  1.00  0.00     0.006 A 
ATOM     28  C   UNL A   1      33.234  21.027  23.921  1.00  0.00     0.006 A 
ATOM     29  C   UNL A   1      33.253  23.210  22.202  1.00  0.00     0.000 A 
ATOM     30  C   UNL A   1      32.229  21.170  22.958  1.00  0.00     0.000 A 
ATOM     31  C   UNL A   1      32.233  22.268  22.106  1.00  0.00     0.000 A 
ENDBRANCH   8  26
ENDBRANCH   6   8
ENDBRANCH   5   6
ENDBRANCH   4   5
ENDBRANCH   3   4
ENDBRANCH   2   3
ENDBRANCH   1   2
BRANCH   1  32
ATOM     32  C   UNL A   1      42.354  20.732  26.207  1.00  0.00     0.188 C 
BRANCH  32  33
ATOM     33  O   UNL A   1      43.184  21.839  26.434  1.00  0.00    -0.376 OA
BRANCH  33  34
ATOM     34  C   UNL A   1      44.012  22.345  25.417  1.00  0.00     0.202 C 
BRANCH  34  35
ATOM     35  C   UNL A   1      44.024  23.810  24.940  1.00  0.00     0.261 C 
BRANCH  35  36
ATOM     36  O   UNL A   1      43.861  24.846  25.915  1.00  0.00    -0.460 OA
BRANCH  36  37
ATOM     37  C   UNL A   1      42.735  25.595  25.825  1.00  0.00     0.338 C 
ATOM     38  O   UNL A   1      41.932  25.609  24.901  1.00  0.00    -0.246 OA
BRANCH  37  39
ATOM     39  C   UNL A   1      42.505  26.291  27.109  1.00  0.00     0.060 A 
ATOM     40  C   UNL A   1      43.267  27.396  27.485  1.00  0.00     0.016 A 
ATOM     41  C   UNL A   1      41.484  25.830  27.947  1.00  0.00     0.016 A 
ATOM     42  C   UNL A   1      42.987  28.044  28.697  1.00  0.00     0.010 A 
ATOM     43  C   UNL A   1      41.217  26.468  29.164  1.00  0.00     0.010 A 
ATOM     44  C   UNL A   1      41.953  27.596  29.544  1.00  0.00    -0.014 A 
BRANCH  44  45
ATOM     45  C   UNL A   1      41.531  28.411  30.718  1.00  0.00     0.031 A 
ATOM     46  C   UNL A   1      42.260  28.384  32.032  1.00  0.00     0.074 A 
ATOM     47  C   UNL A   1      40.437  29.189  30.585  1.00  0.00     0.049 A 
ATOM     48  N   UNL A   1      42.096  29.166  33.072  1.00  0.00    -0.248 NA
ATOM     49  C   UNL A   1      43.289  27.350  32.220  1.00  0.00     0.031 C 
ATOM     50  C   UNL A   1      39.594  29.244  29.390  1.00  0.00     0.029 A 
ATOM     51  N   UNL A   1      39.860  30.095  31.443  1.00  0.00    -0.354 N 
ATOM     52  C   UNL A   1      43.020  28.746  34.021  1.00  0.00     0.074 A 
ATOM     53  C   UNL A   1      43.700  27.596  33.460  1.00  0.00     0.031 C 
ATOM     54  C   UNL A   1      38.652  30.185  29.562  1.00  0.00     0.029 A 
ATOM     55  C   UNL A   1      38.805  30.780  30.887  1.00  0.00     0.049 A 
ATOM     56  H   UNL A   1      40.172  30.240  32.366  1.00  0.00     0.167 HD
ATOM     57  C   UNL A   1      43.291  29.289  35.233  1.00  0.00     0.031 A 
ATOM     58  C   UNL A   1      38.060  31.796  31.367  1.00  0.00     0.031 A 
ATOM     59  C   UNL A   1      42.599  30.426  35.791  1.00  0.00     0.049 A 
ATOM     60  C   UNL A   1      38.376  32.366  32.723  1.00  0.00     0.074 A 
ATOM     61  C   UNL A   1      42.855  31.082  36.985  1.00  0.00     0.029 A 
ATOM     62  N   UNL A   1      41.518  31.069  35.210  1.00  0.00    -0.354 N 
ATOM     63  N   UNL A   1      39.342  32.046  33.548  1.00  0.00    -0.248 NA
ATOM     64  C   UNL A   1      37.514  33.457  33.205  1.00  0.00     0.031 C 
ATOM     65  C   UNL A   1      41.887  32.070  37.161  1.00  0.00     0.029 A 
ATOM     66  C   UNL A   1      41.078  32.090  36.037  1.00  0.00     0.049 A 
ATOM     67  H   UNL A   1      41.121  30.835  34.340  1.00  0.00     0.167 HD
ATOM     68  C   UNL A   1      39.225  32.916  34.625  1.00  0.00     0.074 A 
ATOM     69  C   UNL A   1      38.109  33.792  34.341  1.00  0.00     0.031 C 
ATOM     70  C   UNL A   1      39.978  32.975  35.750  1.00  0.00     0.031 A 
BRANCH  57  71
ATOM     71  C   UNL A   1      44.423  28.724  36.052  1.00  0.00    -0.014 A 
ATOM     72  C   UNL A   1      45.748  29.114  35.794  1.00  0.00     0.009 A 
ATOM     73  C   UNL A   1      44.194  27.654  36.932  1.00  0.00     0.009 A 
ATOM     74  C   UNL A   1      46.818  28.421  36.368  1.00  0.00     0.001 A 
ATOM     75  C   UNL A   1      45.263  26.982  37.526  1.00  0.00     0.001 A 
ATOM     76  C   UNL A   1      46.575  27.354  37.231  1.00  0.00     0.000 A 
ENDBRANCH  57  71
BRANCH  58  77
ATOM     77  C   UNL A   1      36.991  32.394  30.519  1.00  0.00    -0.014 A 
ATOM     78  C   UNL A   1      37.254  33.503  29.701  1.00  0.00     0.009 A 
ATOM     79  C   UNL A   1      35.690  31.868  30.544  1.00  0.00     0.009 A 
ATOM     80  C   UNL A   1      36.235  34.084  28.942  1.00  0.00     0.001 A 
ATOM     81  C   UNL A   1      34.682  32.425  29.754  1.00  0.00     0.001 A 
ATOM     82  C   UNL A   1      34.953  33.538  28.960  1.00  0.00     0.000 A 
ENDBRANCH  58  77
BRANCH  70  83
ATOM     83  C   UNL A   1      39.656  34.034  36.773  1.00  0.00    -0.014 A 
ATOM     84  C   UNL A   1      40.229  35.311  36.656  1.00  0.00     0.009 A 
ATOM     85  C   UNL A   1      38.889  33.738  37.910  1.00  0.00     0.009 A 
ATOM     86  C   UNL A   1      40.063  36.260  37.666  1.00  0.00     0.001 A 
ATOM     87  C   UNL A   1      38.694  34.702  38.902  1.00  0.00     0.001 A 
ATOM     88  C   UNL A   1      39.292  35.957  38.787  1.00  0.00     0.000 A 
ENDBRANCH  70  83
ENDBRANCH  44  45
ENDBRANCH  37  39
ENDBRANCH  36  37
ENDBRANCH  35  36
ENDBRANCH  34  35
ENDBRANCH  33  34
ENDBRANCH  32  33
ENDBRANCH   1  32
TORSDOF 21
ENDMDL
MODEL 3
REMARK VINA RESULT:      -9.9      5.204     10.533
REMARK SMILES C[C@H]1Oc2ccccc2C=C1/C=C/C(=O)N[C@H](C(=O)OCCOCCOCCOC(=O)c1ccc(-c2c3nc(c(-c4ccccc4)c4ccc([nH]4)c(-c4ccccc4)c4nc(c(-c5ccccc5)c5ccc2[nH]5)C=C4)C=C3)cc1)c1ccccc1
REMARK SMILES IDX 24 1 23 2 22 3 21 4 20 5 18 6 19 7 17 8 16 9 14 10 15 11
REMARK SMILES IDX 13 13 12 14 11 15 1 16 2 17 3 18 4 19 10 20 5 21 9 22 6 23
REMARK SMILES IDX 8 24 7 25 80 26 81 27 85 28 82 29 84 30 83 31 25 32 26 33
REMARK SMILES IDX 27 34 28 35 29 36 30 37 31 38 32 39 33 40 79 41 34 42 78 43
REMARK SMILES IDX 35 44 36 45 37 46 72 47 38 48 77 49 71 50 73 51 39 52 76 53
REMARK SMILES IDX 70 54 69 55 40 57 62 58 47 59 61 60 48 61 51 62 60 63 74 64
REMARK SMILES IDX 49 65 50 66 59 68 75 69 52 70 41 71 42 72 46 73 43 74 45 75
REMARK SMILES IDX 44 76 63 77 64 78 68 79 65 80 67 81 66 82 53 83 54 84 58 85
REMARK SMILES IDX 55 86 57 87 56 88
REMARK H PARENT 16 12 73 56 51 67
REMARK Flexibility Score: inf
ROOT
ATOM      1  C   UNL A   1      45.065  18.684  25.552  1.00  0.00     0.188 C 
ENDROOT
BRANCH   1   2
ATOM      2  O   UNL A   1      43.743  18.353  25.958  1.00  0.00    -0.376 OA
BRANCH   2   3
ATOM      3  C   UNL A   1      42.654  19.183  25.607  1.00  0.00     0.202 C 
BRANCH   3   4
ATOM      4  C   UNL A   1      41.951  19.948  26.731  1.00  0.00     0.261 C 
BRANCH   4   5
ATOM      5  O   UNL A   1      41.319  21.183  26.353  1.00  0.00    -0.461 OA
BRANCH   5   6
ATOM      6  C   UNL A   1      41.429  22.214  27.244  1.00  0.00     0.333 C 
ATOM      7  O   UNL A   1      42.213  22.246  28.187  1.00  0.00    -0.249 OA
BRANCH   6   8
ATOM      8  C   UNL A   1      40.413  23.322  26.939  1.00  0.00     0.223 C 
BRANCH   8   9
ATOM      9  N   UNL A   1      41.074  24.293  26.063  1.00  0.00    -0.335 N 
ATOM     10  C   UNL A   1      40.939  25.638  25.983  1.00  0.00     0.244 C 
ATOM     11  O   UNL A   1      41.551  26.277  25.133  1.00  0.00    -0.270 OA
ATOM     12  H   UNL A   1      41.720  23.905  25.431  1.00  0.00     0.165 HD
BRANCH  10  13
ATOM     13  C   UNL A   1      40.169  26.339  27.027  1.00  0.00     0.071 C 
ATOM     14  C   UNL A   1      40.209  27.664  27.224  1.00  0.00     0.013 C 
BRANCH  14  15
ATOM     15  C   UNL A   1      39.370  28.363  28.174  1.00  0.00    -0.007 C 
ATOM     16  C   UNL A   1      40.356  27.629  30.408  1.00  0.00     0.058 C 
ATOM     17  C   UNL A   1      39.102  27.707  29.524  1.00  0.00     0.200 C 
ATOM     18  O   UNL A   1      38.070  28.308  30.334  1.00  0.00    -0.485 OA
ATOM     19  C   UNL A   1      37.524  29.489  29.927  1.00  0.00     0.127 A 
ATOM     20  C   UNL A   1      38.790  29.513  27.815  1.00  0.00     0.019 C 
ATOM     21  C   UNL A   1      36.563  30.045  30.769  1.00  0.00     0.047 A 
ATOM     22  C   UNL A   1      37.853  30.127  28.731  1.00  0.00     0.017 A 
ATOM     23  C   UNL A   1      35.929  31.237  30.415  1.00  0.00     0.004 A 
ATOM     24  C   UNL A   1      37.229  31.327  28.384  1.00  0.00     0.012 A 
ATOM     25  C   UNL A   1      36.264  31.880  29.225  1.00  0.00     0.001 A 
ENDBRANCH  14  15
ENDBRANCH  10  13
ENDBRANCH   8   9
BRANCH   8  26
ATOM     26  C   UNL A   1      39.084  22.908  26.303  1.00  0.00    -0.014 A 
ATOM     27  C   UNL A   1      37.983  23.781  26.269  1.00  0.00     0.006 A 
ATOM     28  C   UNL A   1      38.885  21.587  25.851  1.00  0.00     0.006 A 
ATOM     29  C   UNL A   1      36.721  23.330  25.868  1.00  0.00     0.000 A 
ATOM     30  C   UNL A   1      37.628  21.149  25.418  1.00  0.00     0.000 A 
ATOM     31  C   UNL A   1      36.544  22.018  25.438  1.00  0.00     0.000 A 
ENDBRANCH   8  26
ENDBRANCH   6   8
ENDBRANCH   5   6
ENDBRANCH   4   5
ENDBRANCH   3   4
ENDBRANCH   2   3
ENDBRANCH   1   2
BRANCH   1  32
ATOM     32  C   UNL A   1      45.351  19.904  24.651  1.00  0.00     0.188 C 
BRANCH  32  33
ATOM     33  O   UNL A   1      46.058  20.951  25.258  1.00  0.00    -0.376 OA
BRANCH  33  34
ATOM     34  C   UNL A   1      45.625  22.284  25.140  1.00  0.00     0.202 C 
BRANCH  34  35
ATOM     35  C   UNL A   1      46.422  23.410  24.455  1.00  0.00     0.261 C 
BRANCH  35  36
ATOM     36  O   UNL A   1      45.974  24.760  24.620  1.00  0.00    -0.460 OA
BRANCH  36  37
ATOM     37  C   UNL A   1      46.872  25.641  25.124  1.00  0.00     0.338 C 
ATOM     38  O   UNL A   1      47.960  25.937  24.648  1.00  0.00    -0.246 OA
BRANCH  37  39
ATOM     39  C   UNL A   1      46.270  26.351  26.273  1.00  0.00     0.060 A 
ATOM     40  C   UNL A   1      47.049  27.092  27.159  1.00  0.00     0.016 A 
ATOM     41  C   UNL A   1      44.884  26.284  26.450  1.00  0.00     0.016 A 
ATOM     42  C   UNL A   1      46.428  27.777  28.214  1.00  0.00     0.010 A 
ATOM     43  C   UNL A   1      44.268  26.954  27.513  1.00  0.00     0.010 A 
ATOM     44  C   UNL A   1      45.031  27.726  28.397  1.00  0.00    -0.014 A 
BRANCH  44  45
ATOM     45  C   UNL A   1      44.365  28.619  29.387  1.00  0.00     0.031 A 
ATOM     46  C   UNL A   1      43.917  28.143  30.740  1.00  0.00     0.074 A 
ATOM     47  C   UNL A   1      44.147  29.902  29.031  1.00  0.00     0.049 A 
ATOM     48  N   UNL A   1      43.480  28.856  31.751  1.00  0.00    -0.248 NA
ATOM     49  C   UNL A   1      43.945  26.696  30.997  1.00  0.00     0.031 C 
ATOM     50  C   UNL A   1      44.460  30.469  27.718  1.00  0.00     0.029 A 
ATOM     51  N   UNL A   1      43.639  30.964  29.740  1.00  0.00    -0.354 N 
ATOM     52  C   UNL A   1      43.214  27.952  32.773  1.00  0.00     0.074 A 
ATOM     53  C   UNL A   1      43.478  26.631  32.241  1.00  0.00     0.031 C 
ATOM     54  C   UNL A   1      44.204  31.785  27.737  1.00  0.00     0.029 A 
ATOM     55  C   UNL A   1      43.683  32.154  29.051  1.00  0.00     0.049 A 
ATOM     56  H   UNL A   1      43.279  30.882  30.653  1.00  0.00     0.167 HD
ATOM     57  C   UNL A   1      42.817  28.209  34.043  1.00  0.00     0.031 A 
ATOM     58  C   UNL A   1      43.375  33.409  29.435  1.00  0.00     0.031 A 
ATOM     59  C   UNL A   1      42.542  29.528  34.562  1.00  0.00     0.049 A 
ATOM     60  C   UNL A   1      42.920  33.659  30.847  1.00  0.00     0.074 A 
ATOM     61  C   UNL A   1      42.197  29.882  35.857  1.00  0.00     0.029 A 
ATOM     62  N   UNL A   1      42.569  30.699  33.824  1.00  0.00    -0.354 N 
ATOM     63  N   UNL A   1      42.807  32.810  31.840  1.00  0.00    -0.248 NA
ATOM     64  C   UNL A   1      42.573  35.044  31.201  1.00  0.00     0.031 C 
ATOM     65  C   UNL A   1      41.944  31.254  35.885  1.00  0.00     0.029 A 
ATOM     66  C   UNL A   1      42.215  31.770  34.629  1.00  0.00     0.049 A 
ATOM     67  H   UNL A   1      42.804  30.762  32.870  1.00  0.00     0.167 HD
ATOM     68  C   UNL A   1      42.413  33.563  32.939  1.00  0.00     0.074 A 
ATOM     69  C   UNL A   1      42.326  34.939  32.499  1.00  0.00     0.031 C 
ATOM     70  C   UNL A   1      42.143  33.143  34.199  1.00  0.00     0.031 A 
BRANCH  57  71
ATOM     71  C   UNL A   1      42.697  27.065  35.018  1.00  0.00    -0.014 A 
ATOM     72  C   UNL A   1      43.829  26.604  35.712  1.00  0.00     0.009 A 
ATOM     73  C   UNL A   1      41.512  26.317  35.089  1.00  0.00     0.009 A 
ATOM     74  C   UNL A   1      43.787  25.400  36.420  1.00  0.00     0.001 A 
ATOM     75  C   UNL A   1      41.464  25.129  35.821  1.00  0.00     0.001 A 
ATOM     76  C   UNL A   1      42.606  24.662  36.472  1.00  0.00     0.000 A 
ENDBRANCH  57  71
BRANCH  58  77
ATOM     77  C   UNL A   1      43.565  34.541  28.485  1.00  0.00    -0.014 A 
ATOM     78  C   UNL A   1      44.819  35.154  28.335  1.00  0.00     0.009 A 
ATOM     79  C   UNL A   1      42.482  35.029  27.738  1.00  0.00     0.009 A 
ATOM     80  C   UNL A   1      44.979  36.242  27.473  1.00  0.00     0.001 A 
ATOM     81  C   UNL A   1      42.653  36.091  26.847  1.00  0.00     0.001 A 
ATOM     82  C   UNL A   1      43.899  36.703  26.722  1.00  0.00     0.000 A 
ENDBRANCH  58  77
BRANCH  70  83
ATOM     83  C   UNL A   1      41.747  34.171  35.227  1.00  0.00    -0.014 A 
ATOM     84  C   UNL A   1      40.403  34.563  35.338  1.00  0.00     0.009 A 
ATOM     85  C   UNL A   1      42.711  34.835  36.000  1.00  0.00     0.009 A 
ATOM     86  C   UNL A   1      40.035  35.614  36.180  1.00  0.00     0.001 A 
ATOM     87  C   UNL A   1      42.335  35.862  36.870  1.00  0.00     0.001 A 
ATOM     88  C   UNL A   1      41.001  36.261  36.948  1.00  0.00     0.000 A 
ENDBRANCH  70  83
ENDBRANCH  44  45
ENDBRANCH  37  39
ENDBRANCH  36  37
ENDBRANCH  35  36
ENDBRANCH  34  35
ENDBRANCH  33  34
ENDBRANCH  32  33
ENDBRANCH   1  32
TORSDOF 21
ENDMDL
