MODEL 1
REMARK VINA RESULT:      -9.3      0.000      0.000
REMARK SMILES Cc1cc(C(=O)NC[C@@H]2CC[C@H](C(=O)OCCOCCOCCOC(=O)c3ccc(-c4c5nc(c(-c6ccccc6)c6ccc([nH]6)c(-c6ccccc6)c6nc(c(-c7ccccc7)c7ccc4[nH]7)C=C6)C=C5)cc3)O2)on1
REMARK SMILES IDX 19 1 18 2 17 3 16 4 15 5 13 6 14 7 12 8 9 9 10 10 75 11
REMARK SMILES IDX 11 12 8 13 7 14 5 15 6 16 4 18 1 19 2 20 3 21 77 22 76 23
REMARK SMILES IDX 20 24 21 25 22 26 23 27 24 28 25 29 26 30 27 31 28 32 74 33
REMARK SMILES IDX 29 34 73 35 30 36 31 37 32 38 67 39 33 40 72 41 66 42 68 43
REMARK SMILES IDX 34 44 71 45 65 46 64 47 35 49 57 50 42 51 56 52 43 53 46 54
REMARK SMILES IDX 55 55 69 56 44 57 45 58 54 60 70 61 47 62 36 63 37 64 41 65
REMARK SMILES IDX 38 66 40 67 39 68 58 69 59 70 63 71 60 72 62 73 61 74 48 75
REMARK SMILES IDX 49 76 53 77 50 78 52 79 51 80
REMARK H PARENT 7 17 68 48 46 59
REMARK Flexibility Score: inf
ROOT
ATOM      1  C   UNL A   1      40.201  22.765  27.127  1.00  0.00     0.188 C 
ENDROOT
BRANCH   1   2
ATOM      2  O   UNL A   1      39.627  23.873  26.448  1.00  0.00    -0.376 OA
BRANCH   2   3
ATOM      3  C   UNL A   1      38.218  23.838  26.207  1.00  0.00     0.202 C 
BRANCH   3   4
ATOM      4  C   UNL A   1      37.609  22.515  25.707  1.00  0.00     0.261 C 
BRANCH   4   5
ATOM      5  O   UNL A   1      36.177  22.414  25.897  1.00  0.00    -0.461 OA
BRANCH   5   6
ATOM      6  C   UNL A   1      35.413  23.291  25.194  1.00  0.00     0.335 C 
ATOM      7  O   UNL A   1      35.466  23.423  23.975  1.00  0.00    -0.249 OA
BRANCH   6   8
ATOM      8  C   UNL A   1      34.439  24.108  26.067  1.00  0.00     0.228 C 
ATOM      9  C   UNL A   1      32.712  22.659  26.605  1.00  0.00     0.138 C 
ATOM     10  C   UNL A   1      32.188  23.574  25.507  1.00  0.00     0.037 C 
ATOM     11  O   UNL A   1      33.926  23.255  27.103  1.00  0.00    -0.361 OA
ATOM     12  C   UNL A   1      33.182  24.704  25.464  1.00  0.00     0.047 C 
BRANCH   9  13
ATOM     13  C   UNL A   1      33.006  21.247  26.071  1.00  0.00     0.148 C 
BRANCH  13  14
ATOM     14  N   UNL A   1      32.535  21.103  24.712  1.00  0.00    -0.347 N 
ATOM     15  C   UNL A   1      32.543  20.011  23.879  1.00  0.00     0.289 C 
ATOM     16  O   UNL A   1      32.075  20.186  22.753  1.00  0.00    -0.266 OA
ATOM     17  H   UNL A   1      32.147  21.919  24.321  1.00  0.00     0.164 HD
BRANCH  15  18
ATOM     18  C   UNL A   1      33.058  18.735  24.330  1.00  0.00     0.224 A 
ATOM     19  C   UNL A   1      35.040  15.827  25.356  1.00  0.00     0.070 C 
ATOM     20  C   UNL A   1      34.054  16.873  25.009  1.00  0.00     0.081 A 
ATOM     21  C   UNL A   1      34.279  18.095  24.342  1.00  0.00     0.083 A 
ATOM     22  N   UNL A   1      32.768  16.734  25.337  1.00  0.00    -0.084 NA
ATOM     23  O   UNL A   1      32.145  17.889  24.902  1.00  0.00    -0.351 OA
ENDBRANCH  15  18
ENDBRANCH  13  14
ENDBRANCH   9  13
ENDBRANCH   6   8
ENDBRANCH   5   6
ENDBRANCH   4   5
ENDBRANCH   3   4
ENDBRANCH   2   3
ENDBRANCH   1   2
BRANCH   1  24
ATOM     24  C   UNL A   1      41.090  21.834  26.295  1.00  0.00     0.188 C 
BRANCH  24  25
ATOM     25  O   UNL A   1      41.985  21.050  27.053  1.00  0.00    -0.376 OA
BRANCH  25  26
ATOM     26  C   UNL A   1      41.913  19.629  27.020  1.00  0.00     0.202 C 
BRANCH  26  27
ATOM     27  C   UNL A   1      42.726  18.825  25.978  1.00  0.00     0.261 C 
BRANCH  27  28
ATOM     28  O   UNL A   1      43.088  19.495  24.755  1.00  0.00    -0.460 OA
BRANCH  28  29
ATOM     29  C   UNL A   1      44.408  19.635  24.492  1.00  0.00     0.338 C 
ATOM     30  O   UNL A   1      45.106  18.858  23.856  1.00  0.00    -0.246 OA
BRANCH  29  31
ATOM     31  C   UNL A   1      44.804  21.032  24.827  1.00  0.00     0.060 A 
ATOM     32  C   UNL A   1      45.288  21.283  26.122  1.00  0.00     0.016 A 
ATOM     33  C   UNL A   1      44.796  22.061  23.880  1.00  0.00     0.016 A 
ATOM     34  C   UNL A   1      45.684  22.570  26.493  1.00  0.00     0.010 A 
ATOM     35  C   UNL A   1      45.179  23.356  24.257  1.00  0.00     0.010 A 
ATOM     36  C   UNL A   1      45.572  23.627  25.581  1.00  0.00    -0.014 A 
BRANCH  36  37
ATOM     37  C   UNL A   1      45.592  25.025  26.088  1.00  0.00     0.031 A 
ATOM     38  C   UNL A   1      46.909  25.760  26.062  1.00  0.00     0.074 A 
ATOM     39  C   UNL A   1      44.484  25.665  26.506  1.00  0.00     0.049 A 
ATOM     40  N   UNL A   1      47.194  26.982  26.435  1.00  0.00    -0.248 NA
ATOM     41  C   UNL A   1      48.063  25.008  25.538  1.00  0.00     0.031 C 
ATOM     42  C   UNL A   1      43.136  25.105  26.536  1.00  0.00     0.029 A 
ATOM     43  N   UNL A   1      44.328  26.945  26.984  1.00  0.00    -0.354 N 
ATOM     44  C   UNL A   1      48.556  27.137  26.202  1.00  0.00     0.074 A 
ATOM     45  C   UNL A   1      49.048  25.878  25.693  1.00  0.00     0.031 C 
ATOM     46  C   UNL A   1      42.288  26.037  27.010  1.00  0.00     0.029 A 
ATOM     47  C   UNL A   1      43.036  27.248  27.343  1.00  0.00     0.049 A 
ATOM     48  H   UNL A   1      45.072  27.584  27.064  1.00  0.00     0.167 HD
ATOM     49  C   UNL A   1      49.333  28.232  26.380  1.00  0.00     0.031 A 
ATOM     50  C   UNL A   1      42.523  28.370  27.887  1.00  0.00     0.031 A 
ATOM     51  C   UNL A   1      48.859  29.484  26.902  1.00  0.00     0.049 A 
ATOM     52  C   UNL A   1      43.424  29.549  28.160  1.00  0.00     0.074 A 
ATOM     53  C   UNL A   1      49.571  30.652  27.116  1.00  0.00     0.029 A 
ATOM     54  N   UNL A   1      47.556  29.731  27.299  1.00  0.00    -0.354 N 
ATOM     55  N   UNL A   1      44.705  29.690  27.916  1.00  0.00    -0.248 NA
ATOM     56  C   UNL A   1      42.799  30.731  28.774  1.00  0.00     0.031 C 
ATOM     57  C   UNL A   1      48.711  31.585  27.704  1.00  0.00     0.029 A 
ATOM     58  C   UNL A   1      47.447  31.024  27.782  1.00  0.00     0.049 A 
ATOM     59  H   UNL A   1      46.816  29.083  27.246  1.00  0.00     0.167 HD
ATOM     60  C   UNL A   1      45.027  30.987  28.305  1.00  0.00     0.074 A 
ATOM     61  C   UNL A   1      43.805  31.593  28.789  1.00  0.00     0.031 C 
ATOM     62  C   UNL A   1      46.226  31.621  28.260  1.00  0.00     0.031 A 
BRANCH  49  63
ATOM     63  C   UNL A   1      50.794  28.099  26.044  1.00  0.00    -0.014 A 
ATOM     64  C   UNL A   1      51.717  27.589  26.970  1.00  0.00     0.009 A 
ATOM     65  C   UNL A   1      51.248  28.478  24.772  1.00  0.00     0.009 A 
ATOM     66  C   UNL A   1      53.073  27.502  26.643  1.00  0.00     0.001 A 
ATOM     67  C   UNL A   1      52.597  28.356  24.435  1.00  0.00     0.001 A 
ATOM     68  C   UNL A   1      53.509  27.880  25.375  1.00  0.00     0.000 A 
ENDBRANCH  49  63
BRANCH  50  69
ATOM     69  C   UNL A   1      41.075  28.445  28.231  1.00  0.00    -0.014 A 
ATOM     70  C   UNL A   1      40.603  27.968  29.465  1.00  0.00     0.009 A 
ATOM     71  C   UNL A   1      40.150  28.952  27.306  1.00  0.00     0.009 A 
ATOM     72  C   UNL A   1      39.235  27.970  29.750  1.00  0.00     0.001 A 
ATOM     73  C   UNL A   1      38.787  28.983  27.606  1.00  0.00     0.001 A 
ATOM     74  C   UNL A   1      38.329  28.482  28.823  1.00  0.00     0.000 A 
ENDBRANCH  50  69
BRANCH  62  75
ATOM     75  C   UNL A   1      46.266  33.063  28.691  1.00  0.00    -0.014 A 
ATOM     76  C   UNL A   1      46.016  34.112  27.793  1.00  0.00     0.009 A 
ATOM     77  C   UNL A   1      46.535  33.374  30.035  1.00  0.00     0.009 A 
ATOM     78  C   UNL A   1      46.083  35.442  28.220  1.00  0.00     0.001 A 
ATOM     79  C   UNL A   1      46.565  34.701  30.467  1.00  0.00     0.001 A 
ATOM     80  C   UNL A   1      46.354  35.734  29.556  1.00  0.00     0.000 A 
ENDBRANCH  62  75
ENDBRANCH  36  37
ENDBRANCH  29  31
ENDBRANCH  28  29
ENDBRANCH  27  28
ENDBRANCH  26  27
ENDBRANCH  25  26
ENDBRANCH  24  25
ENDBRANCH   1  24
TORSDOF 20
ENDMDL
MODEL 2
REMARK VINA RESULT:      -9.3      4.837      8.947
REMARK SMILES Cc1cc(C(=O)NC[C@@H]2CC[C@H](C(=O)OCCOCCOCCOC(=O)c3ccc(-c4c5nc(c(-c6ccccc6)c6ccc([nH]6)c(-c6ccccc6)c6nc(c(-c7ccccc7)c7ccc4[nH]7)C=C6)C=C5)cc3)O2)on1
REMARK SMILES IDX 19 1 18 2 17 3 16 4 15 5 13 6 14 7 12 8 9 9 10 10 75 11
REMARK SMILES IDX 11 12 8 13 7 14 5 15 6 16 4 18 1 19 2 20 3 21 77 22 76 23
REMARK SMILES IDX 20 24 21 25 22 26 23 27 24 28 25 29 26 30 27 31 28 32 74 33
REMARK SMILES IDX 29 34 73 35 30 36 31 37 32 38 67 39 33 40 72 41 66 42 68 43
REMARK SMILES IDX 34 44 71 45 65 46 64 47 35 49 57 50 42 51 56 52 43 53 46 54
REMARK SMILES IDX 55 55 69 56 44 57 45 58 54 60 70 61 47 62 36 63 37 64 41 65
REMARK SMILES IDX 38 66 40 67 39 68 58 69 59 70 63 71 60 72 62 73 61 74 48 75
REMARK SMILES IDX 49 76 53 77 50 78 52 79 51 80
REMARK H PARENT 7 17 68 48 46 59
REMARK Flexibility Score: inf
ROOT
ATOM      1  C   UNL A   1      39.363  21.485  26.004  1.00  0.00     0.188 C 
ENDROOT
BRANCH   1   2
ATOM      2  O   UNL A   1      38.549  22.540  26.498  1.00  0.00    -0.376 OA
BRANCH   2   3
ATOM      3  C   UNL A   1      37.919  23.390  25.536  1.00  0.00     0.202 C 
BRANCH   3   4
ATOM      4  C   UNL A   1      36.575  22.927  24.942  1.00  0.00     0.261 C 
BRANCH   4   5
ATOM      5  O   UNL A   1      35.636  24.001  24.696  1.00  0.00    -0.461 OA
BRANCH   5   6
ATOM      6  C   UNL A   1      34.318  23.686  24.808  1.00  0.00     0.335 C 
ATOM      7  O   UNL A   1      33.592  24.088  25.712  1.00  0.00    -0.249 OA
BRANCH   6   8
ATOM      8  C   UNL A   1      33.795  22.784  23.673  1.00  0.00     0.228 C 
ATOM      9  C   UNL A   1      32.925  24.221  22.077  1.00  0.00     0.138 C 
ATOM     10  C   UNL A   1      31.739  23.634  22.827  1.00  0.00     0.037 C 
ATOM     11  O   UNL A   1      34.074  23.419  22.416  1.00  0.00    -0.361 OA
ATOM     12  C   UNL A   1      32.318  22.458  23.568  1.00  0.00     0.047 C 
BRANCH   9  13
ATOM     13  C   UNL A   1      33.178  25.685  22.475  1.00  0.00     0.148 C 
BRANCH  13  14
ATOM     14  N   UNL A   1      32.095  26.533  22.031  1.00  0.00    -0.347 N 
ATOM     15  C   UNL A   1      31.201  27.286  22.753  1.00  0.00     0.289 C 
ATOM     16  O   UNL A   1      30.367  27.912  22.097  1.00  0.00    -0.266 OA
ATOM     17  H   UNL A   1      31.978  26.577  21.055  1.00  0.00     0.164 HD
BRANCH  15  18
ATOM     18  C   UNL A   1      31.270  27.339  24.198  1.00  0.00     0.224 A 
ATOM     19  C   UNL A   1      31.640  28.200  27.742  1.00  0.00     0.070 C 
ATOM     20  C   UNL A   1      31.415  27.644  26.391  1.00  0.00     0.081 A 
ATOM     21  C   UNL A   1      31.757  28.214  25.146  1.00  0.00     0.083 A 
ATOM     22  N   UNL A   1      30.810  26.466  26.230  1.00  0.00    -0.084 NA
ATOM     23  O   UNL A   1      30.732  26.270  24.864  1.00  0.00    -0.351 OA
ENDBRANCH  15  18
ENDBRANCH  13  14
ENDBRANCH   9  13
ENDBRANCH   6   8
ENDBRANCH   5   6
ENDBRANCH   4   5
ENDBRANCH   3   4
ENDBRANCH   2   3
ENDBRANCH   1   2
BRANCH   1  24
ATOM     24  C   UNL A   1      40.750  21.333  26.637  1.00  0.00     0.188 C 
BRANCH  24  25
ATOM     25  O   UNL A   1      41.712  20.735  25.796  1.00  0.00    -0.376 OA
BRANCH  25  26
ATOM     26  C   UNL A   1      43.101  20.985  25.989  1.00  0.00     0.202 C 
BRANCH  26  27
ATOM     27  C   UNL A   1      43.844  22.012  25.103  1.00  0.00     0.261 C 
BRANCH  27  28
ATOM     28  O   UNL A   1      43.236  23.306  24.929  1.00  0.00    -0.460 OA
BRANCH  28  29
ATOM     29  C   UNL A   1      43.997  24.391  25.204  1.00  0.00     0.338 C 
ATOM     30  O   UNL A   1      44.974  24.770  24.574  1.00  0.00    -0.246 OA
BRANCH  29  31
ATOM     31  C   UNL A   1      43.273  25.226  26.204  1.00  0.00     0.060 A 
ATOM     32  C   UNL A   1      43.581  26.596  26.259  1.00  0.00     0.016 A 
ATOM     33  C   UNL A   1      42.251  24.714  27.008  1.00  0.00     0.016 A 
ATOM     34  C   UNL A   1      42.930  27.433  27.168  1.00  0.00     0.010 A 
ATOM     35  C   UNL A   1      41.608  25.551  27.932  1.00  0.00     0.010 A 
ATOM     36  C   UNL A   1      41.984  26.902  28.054  1.00  0.00    -0.014 A 
BRANCH  36  37
ATOM     37  C   UNL A   1      41.611  27.680  29.266  1.00  0.00     0.031 A 
ATOM     38  C   UNL A   1      40.347  28.501  29.207  1.00  0.00     0.074 A 
ATOM     39  C   UNL A   1      42.317  27.630  30.410  1.00  0.00     0.049 A 
ATOM     40  N   UNL A   1      39.797  29.257  30.123  1.00  0.00    -0.248 NA
ATOM     41  C   UNL A   1      39.601  28.458  27.937  1.00  0.00     0.031 C 
ATOM     42  C   UNL A   1      43.525  26.840  30.633  1.00  0.00     0.029 A 
ATOM     43  N   UNL A   1      42.104  28.267  31.610  1.00  0.00    -0.354 N 
ATOM     44  C   UNL A   1      38.652  29.785  29.536  1.00  0.00     0.074 A 
ATOM     45  C   UNL A   1      38.606  29.296  28.177  1.00  0.00     0.031 C 
ATOM     46  C   UNL A   1      43.949  27.039  31.895  1.00  0.00     0.029 A 
ATOM     47  C   UNL A   1      43.059  27.992  32.560  1.00  0.00     0.049 A 
ATOM     48  H   UNL A   1      41.340  28.864  31.774  1.00  0.00     0.167 HD
ATOM     49  C   UNL A   1      37.711  30.595  30.077  1.00  0.00     0.031 A 
ATOM     50  C   UNL A   1      43.204  28.465  33.814  1.00  0.00     0.031 A 
ATOM     51  C   UNL A   1      37.755  31.101  31.422  1.00  0.00     0.049 A 
ATOM     52  C   UNL A   1      42.191  29.436  34.368  1.00  0.00     0.074 A 
ATOM     53  C   UNL A   1      36.845  31.926  32.061  1.00  0.00     0.029 A 
ATOM     54  N   UNL A   1      38.766  30.838  32.331  1.00  0.00    -0.354 N 
ATOM     55  N   UNL A   1      41.102  29.910  33.810  1.00  0.00    -0.248 NA
ATOM     56  C   UNL A   1      42.423  29.925  35.736  1.00  0.00     0.031 C 
ATOM     57  C   UNL A   1      37.340  32.213  33.337  1.00  0.00     0.029 A 
ATOM     58  C   UNL A   1      38.516  31.505  33.519  1.00  0.00     0.049 A 
ATOM     59  H   UNL A   1      39.546  30.263  32.159  1.00  0.00     0.167 HD
ATOM     60  C   UNL A   1      40.501  30.717  34.772  1.00  0.00     0.074 A 
ATOM     61  C   UNL A   1      41.339  30.656  35.951  1.00  0.00     0.031 C 
ATOM     62  C   UNL A   1      39.355  31.438  34.688  1.00  0.00     0.031 A 
BRANCH  49  63
ATOM     63  C   UNL A   1      36.573  31.014  29.187  1.00  0.00    -0.014 A 
ATOM     64  C   UNL A   1      35.552  30.120  28.831  1.00  0.00     0.009 A 
ATOM     65  C   UNL A   1      36.517  32.333  28.709  1.00  0.00     0.009 A 
ATOM     66  C   UNL A   1      34.520  30.526  27.980  1.00  0.00     0.001 A 
ATOM     67  C   UNL A   1      35.467  32.746  27.889  1.00  0.00     0.001 A 
ATOM     68  C   UNL A   1      34.476  31.839  27.515  1.00  0.00     0.000 A 
ENDBRANCH  49  63
BRANCH  50  69
ATOM     69  C   UNL A   1      44.364  28.042  34.649  1.00  0.00    -0.014 A 
ATOM     70  C   UNL A   1      44.268  26.929  35.501  1.00  0.00     0.009 A 
ATOM     71  C   UNL A   1      45.558  28.778  34.630  1.00  0.00     0.009 A 
ATOM     72  C   UNL A   1      45.333  26.584  36.338  1.00  0.00     0.001 A 
ATOM     73  C   UNL A   1      46.632  28.411  35.444  1.00  0.00     0.001 A 
ATOM     74  C   UNL A   1      46.515  27.322  36.305  1.00  0.00     0.000 A 
ENDBRANCH  50  69
BRANCH  62  75
ATOM     75  C   UNL A   1      38.905  32.174  35.923  1.00  0.00    -0.014 A 
ATOM     76  C   UNL A   1      38.080  31.572  36.885  1.00  0.00     0.009 A 
ATOM     77  C   UNL A   1      39.341  33.492  36.137  1.00  0.00     0.009 A 
ATOM     78  C   UNL A   1      37.662  32.291  38.009  1.00  0.00     0.001 A 
ATOM     79  C   UNL A   1      38.953  34.195  37.278  1.00  0.00     0.001 A 
ATOM     80  C   UNL A   1      38.101  33.599  38.206  1.00  0.00     0.000 A 
ENDBRANCH  62  75
ENDBRANCH  36  37
ENDBRANCH  29  31
ENDBRANCH  28  29
ENDBRANCH  27  28
ENDBRANCH  26  27
ENDBRANCH  25  26
ENDBRANCH  24  25
ENDBRANCH   1  24
TORSDOF 20
ENDMDL
MODEL 3
REMARK VINA RESULT:      -9.2      2.163      3.867
REMARK SMILES Cc1cc(C(=O)NC[C@@H]2CC[C@H](C(=O)OCCOCCOCCOC(=O)c3ccc(-c4c5nc(c(-c6ccccc6)c6ccc([nH]6)c(-c6ccccc6)c6nc(c(-c7ccccc7)c7ccc4[nH]7)C=C6)C=C5)cc3)O2)on1
REMARK SMILES IDX 19 1 18 2 17 3 16 4 15 5 13 6 14 7 12 8 9 9 10 10 75 11
REMARK SMILES IDX 11 12 8 13 7 14 5 15 6 16 4 18 1 19 2 20 3 21 77 22 76 23
REMARK SMILES IDX 20 24 21 25 22 26 23 27 24 28 25 29 26 30 27 31 28 32 74 33
REMARK SMILES IDX 29 34 73 35 30 36 31 37 32 38 67 39 33 40 72 41 66 42 68 43
REMARK SMILES IDX 34 44 71 45 65 46 64 47 35 49 57 50 42 51 56 52 43 53 46 54
REMARK SMILES IDX 55 55 69 56 44 57 45 58 54 60 70 61 47 62 36 63 37 64 41 65
REMARK SMILES IDX 38 66 40 67 39 68 58 69 59 70 63 71 60 72 62 73 61 74 48 75
REMARK SMILES IDX 49 76 53 77 50 78 52 79 51 80
REMARK H PARENT 7 17 68 48 46 59
REMARK Flexibility Score: inf
ROOT
ATOM      1  C   UNL A   1      39.532  23.010  26.482  1.00  0.00     0.188 C 
ENDROOT
BRANCH   1   2
ATOM      2  O   UNL A   1      38.250  23.513  26.129  1.00  0.00    -0.376 OA
BRANCH   2   3
ATOM      3  C   UNL A   1      37.216  22.558  25.877  1.00  0.00     0.202 C 
BRANCH   3   4
ATOM      4  C   UNL A   1      35.769  23.077  25.778  1.00  0.00     0.261 C 
BRANCH   4   5
ATOM      5  O   UNL A   1      34.929  22.318  24.875  1.00  0.00    -0.461 OA
BRANCH   5   6
ATOM      6  C   UNL A   1      34.651  22.900  23.679  1.00  0.00     0.335 C 
ATOM      7  O   UNL A   1      35.406  23.677  23.103  1.00  0.00    -0.249 OA
BRANCH   6   8
ATOM      8  C   UNL A   1      33.294  22.480  23.082  1.00  0.00     0.228 C 
ATOM      9  C   UNL A   1      31.858  24.257  23.469  1.00  0.00     0.138 C 
ATOM     10  C   UNL A   1      31.517  23.188  24.498  1.00  0.00     0.037 C 
ATOM     11  O   UNL A   1      32.685  23.628  22.470  1.00  0.00    -0.361 OA
ATOM     12  C   UNL A   1      32.192  21.947  23.977  1.00  0.00     0.047 C 
BRANCH   9  13
ATOM     13  C   UNL A   1      32.616  25.433  24.107  1.00  0.00     0.148 C 
BRANCH  13  14
ATOM     14  N   UNL A   1      33.416  26.124  23.121  1.00  0.00    -0.347 N 
ATOM     15  C   UNL A   1      33.161  27.273  22.414  1.00  0.00     0.289 C 
ATOM     16  O   UNL A   1      34.035  27.628  21.623  1.00  0.00    -0.266 OA
ATOM     17  H   UNL A   1      34.284  25.702  22.923  1.00  0.00     0.164 HD
BRANCH  15  18
ATOM     18  C   UNL A   1      31.936  28.017  22.621  1.00  0.00     0.224 A 
ATOM     19  C   UNL A   1      29.287  30.393  23.504  1.00  0.00     0.070 C 
ATOM     20  C   UNL A   1      30.187  29.320  23.030  1.00  0.00     0.081 A 
ATOM     21  C   UNL A   1      31.531  29.087  23.391  1.00  0.00     0.083 A 
ATOM     22  N   UNL A   1      29.766  28.420  22.140  1.00  0.00    -0.084 NA
ATOM     23  O   UNL A   1      30.851  27.600  21.895  1.00  0.00    -0.351 OA
ENDBRANCH  15  18
ENDBRANCH  13  14
ENDBRANCH   9  13
ENDBRANCH   6   8
ENDBRANCH   5   6
ENDBRANCH   4   5
ENDBRANCH   3   4
ENDBRANCH   2   3
ENDBRANCH   1   2
BRANCH   1  24
ATOM     24  C   UNL A   1      39.813  21.543  26.139  1.00  0.00     0.188 C 
BRANCH  24  25
ATOM     25  O   UNL A   1      41.178  21.189  26.168  1.00  0.00    -0.376 OA
BRANCH  25  26
ATOM     26  C   UNL A   1      41.599  19.968  26.769  1.00  0.00     0.202 C 
BRANCH  26  27
ATOM     27  C   UNL A   1      42.559  19.015  26.019  1.00  0.00     0.261 C 
BRANCH  27  28
ATOM     28  O   UNL A   1      43.030  19.428  24.722  1.00  0.00    -0.460 OA
BRANCH  28  29
ATOM     29  C   UNL A   1      44.366  19.564  24.562  1.00  0.00     0.338 C 
ATOM     30  O   UNL A   1      45.119  18.761  24.030  1.00  0.00    -0.246 OA
BRANCH  29  31
ATOM     31  C   UNL A   1      44.727  20.981  24.851  1.00  0.00     0.060 A 
ATOM     32  C   UNL A   1      45.384  21.255  26.063  1.00  0.00     0.016 A 
ATOM     33  C   UNL A   1      44.518  22.011  23.929  1.00  0.00     0.016 A 
ATOM     34  C   UNL A   1      45.757  22.562  26.387  1.00  0.00     0.010 A 
ATOM     35  C   UNL A   1      44.878  23.325  24.261  1.00  0.00     0.010 A 
ATOM     36  C   UNL A   1      45.449  23.614  25.515  1.00  0.00    -0.014 A 
BRANCH  36  37
ATOM     37  C   UNL A   1      45.463  25.009  26.031  1.00  0.00     0.031 A 
ATOM     38  C   UNL A   1      46.777  25.751  26.003  1.00  0.00     0.074 A 
ATOM     39  C   UNL A   1      44.355  25.641  26.457  1.00  0.00     0.049 A 
ATOM     40  N   UNL A   1      47.058  26.971  26.383  1.00  0.00    -0.248 NA
ATOM     41  C   UNL A   1      47.933  25.008  25.470  1.00  0.00     0.031 C 
ATOM     42  C   UNL A   1      43.009  25.074  26.489  1.00  0.00     0.029 A 
ATOM     43  N   UNL A   1      44.194  26.917  26.944  1.00  0.00    -0.354 N 
ATOM     44  C   UNL A   1      48.418  27.135  26.145  1.00  0.00     0.074 A 
ATOM     45  C   UNL A   1      48.914  25.881  25.627  1.00  0.00     0.031 C 
ATOM     46  C   UNL A   1      42.158  25.998  26.972  1.00  0.00     0.029 A 
ATOM     47  C   UNL A   1      42.902  27.212  27.309  1.00  0.00     0.049 A 
ATOM     48  H   UNL A   1      44.935  27.559  27.025  1.00  0.00     0.167 HD
ATOM     49  C   UNL A   1      49.190  28.232  26.327  1.00  0.00     0.031 A 
ATOM     50  C   UNL A   1      42.386  28.327  27.863  1.00  0.00     0.031 A 
ATOM     51  C   UNL A   1      48.712  29.479  26.859  1.00  0.00     0.049 A 
ATOM     52  C   UNL A   1      43.282  29.508  28.140  1.00  0.00     0.074 A 
ATOM     53  C   UNL A   1      49.419  30.649  27.078  1.00  0.00     0.029 A 
ATOM     54  N   UNL A   1      47.409  29.717  27.263  1.00  0.00    -0.354 N 
ATOM     55  N   UNL A   1      44.561  29.658  27.891  1.00  0.00    -0.248 NA
ATOM     56  C   UNL A   1      42.654  30.684  28.764  1.00  0.00     0.031 C 
ATOM     57  C   UNL A   1      48.557  31.575  27.674  1.00  0.00     0.029 A 
ATOM     58  C   UNL A   1      47.296  31.007  27.754  1.00  0.00     0.049 A 
ATOM     59  H   UNL A   1      46.672  29.066  27.209  1.00  0.00     0.167 HD
ATOM     60  C   UNL A   1      44.879  30.954  28.287  1.00  0.00     0.074 A 
ATOM     61  C   UNL A   1      43.656  31.551  28.780  1.00  0.00     0.031 C 
ATOM     62  C   UNL A   1      46.074  31.594  28.241  1.00  0.00     0.031 A 
BRANCH  49  63
ATOM     63  C   UNL A   1      50.650  28.109  25.984  1.00  0.00    -0.014 A 
ATOM     64  C   UNL A   1      51.601  27.732  26.945  1.00  0.00     0.009 A 
ATOM     65  C   UNL A   1      51.076  28.361  24.671  1.00  0.00     0.009 A 
ATOM     66  C   UNL A   1      52.954  27.652  26.608  1.00  0.00     0.001 A 
ATOM     67  C   UNL A   1      52.424  28.245  24.328  1.00  0.00     0.001 A 
ATOM     68  C   UNL A   1      53.363  27.902  25.300  1.00  0.00     0.000 A 
ENDBRANCH  49  63
BRANCH  50  69
ATOM     69  C   UNL A   1      40.939  28.392  28.213  1.00  0.00    -0.014 A 
ATOM     70  C   UNL A   1      40.467  27.859  29.424  1.00  0.00     0.009 A 
ATOM     71  C   UNL A   1      40.015  28.948  27.316  1.00  0.00     0.009 A 
ATOM     72  C   UNL A   1      39.100  27.854  29.712  1.00  0.00     0.001 A 
ATOM     73  C   UNL A   1      38.652  28.972  27.621  1.00  0.00     0.001 A 
ATOM     74  C   UNL A   1      38.195  28.415  28.813  1.00  0.00     0.000 A 
ENDBRANCH  50  69
BRANCH  62  75
ATOM     75  C   UNL A   1      46.109  33.034  28.681  1.00  0.00    -0.014 A 
ATOM     76  C   UNL A   1      45.864  34.088  27.787  1.00  0.00     0.009 A 
ATOM     77  C   UNL A   1      46.367  33.338  30.028  1.00  0.00     0.009 A 
ATOM     78  C   UNL A   1      45.926  35.415  28.223  1.00  0.00     0.001 A 
ATOM     79  C   UNL A   1      46.392  34.662  30.469  1.00  0.00     0.001 A 
ATOM     80  C   UNL A   1      46.186  35.700  29.563  1.00  0.00     0.000 A 
ENDBRANCH  62  75
ENDBRANCH  36  37
ENDBRANCH  29  31
ENDBRANCH  28  29
ENDBRANCH  27  28
ENDBRANCH  26  27
ENDBRANCH  25  26
ENDBRANCH  24  25
ENDBRANCH   1  24
TORSDOF 20
ENDMDL
