MODEL 1
REMARK VINA RESULT:     -12.3      0.000      0.000
REMARK SMILES Cc1c(CC(=O)OCCOCCOCCOC(=O)c2ccc(-c3c4nc(c(-c5ccccc5)c5ccc([nH]5)c(-c5ccccc5)c5nc(c(-c6ccccc6)c6ccc3[nH]6)C=C5)C=C4)cc2)cc(-c2ccccc2)cc1-c1ccccc1
REMARK SMILES IDX 11 1 10 2 9 3 8 4 7 5 5 6 6 7 4 8 3 9 1 10 2 11 76 12 67 13
REMARK SMILES IDX 75 14 68 15 77 16 78 17 82 18 79 19 81 20 80 21 69 22 70 23
REMARK SMILES IDX 74 24 71 25 73 26 72 27 12 28 13 29 14 30 15 31 16 32 17 33
REMARK SMILES IDX 18 34 19 35 20 36 66 37 21 38 65 39 22 40 23 41 24 42 59 43
REMARK SMILES IDX 25 44 64 45 58 46 60 47 26 48 63 49 57 50 56 51 27 53 49 54
REMARK SMILES IDX 34 55 48 56 35 57 38 58 47 59 61 60 36 61 37 62 46 64 62 65
REMARK SMILES IDX 39 66 28 67 29 68 33 69 30 70 32 71 31 72 50 73 51 74 55 75
REMARK SMILES IDX 52 76 54 77 53 78 40 79 41 80 45 81 42 82 44 83 43 84
REMARK H PARENT 60 52 38 63
REMARK Flexibility Score: inf
ROOT
ATOM      1  C   UNL A   1      36.656  22.622  23.661  1.00  0.00     0.188 C 
ENDROOT
BRANCH   1   2
ATOM      2  O   UNL A   1      35.254  22.836  23.461  1.00  0.00    -0.376 OA
BRANCH   2   3
ATOM      3  C   UNL A   1      34.561  23.936  24.053  1.00  0.00     0.202 C 
BRANCH   3   4
ATOM      4  C   UNL A   1      33.693  25.007  23.135  1.00  0.00     0.261 C 
BRANCH   4   5
ATOM      5  O   UNL A   1      32.081  25.388  23.219  1.00  0.00    -0.463 OA
BRANCH   5   6
ATOM      6  C   UNL A   1      30.790  25.001  23.608  1.00  0.00     0.310 C 
ATOM      7  O   UNL A   1      30.084  24.066  23.239  1.00  0.00    -0.252 OA
BRANCH   6   8
ATOM      8  C   UNL A   1      30.106  25.830  24.645  1.00  0.00     0.158 C 
BRANCH   8   9
ATOM      9  C   UNL A   1      30.668  27.190  24.627  1.00  0.00    -0.033 A 
ATOM     10  C   UNL A   1      32.410  26.563  26.369  1.00  0.00     0.045 C 
ATOM     11  C   UNL A   1      31.676  27.590  25.519  1.00  0.00    -0.039 A 
ATOM     12  C   UNL A   1      31.971  28.963  25.584  1.00  0.00    -0.015 A 
ATOM     13  C   UNL A   1      29.994  28.087  23.818  1.00  0.00     0.013 A 
ATOM     14  C   UNL A   1      31.198  29.881  24.826  1.00  0.00     0.017 A 
ATOM     15  C   UNL A   1      30.208  29.446  23.939  1.00  0.00    -0.017 A 
BRANCH  12  16
ATOM     16  C   UNL A   1      33.072  29.428  26.431  1.00  0.00    -0.018 A 
ATOM     17  C   UNL A   1      34.297  28.754  26.472  1.00  0.00     0.009 A 
ATOM     18  C   UNL A   1      32.942  30.645  27.125  1.00  0.00     0.009 A 
ATOM     19  C   UNL A   1      35.366  29.284  27.195  1.00  0.00     0.001 A 
ATOM     20  C   UNL A   1      34.013  31.182  27.832  1.00  0.00     0.001 A 
ATOM     21  C   UNL A   1      35.223  30.496  27.872  1.00  0.00     0.000 A 
ENDBRANCH  12  16
BRANCH  15  22
ATOM     22  C   UNL A   1      29.313  30.287  23.152  1.00  0.00    -0.018 A 
ATOM     23  C   UNL A   1      29.051  29.976  21.809  1.00  0.00     0.009 A 
ATOM     24  C   UNL A   1      28.948  31.553  23.638  1.00  0.00     0.009 A 
ATOM     25  C   UNL A   1      28.440  30.913  20.974  1.00  0.00     0.001 A 
ATOM     26  C   UNL A   1      28.338  32.487  22.803  1.00  0.00     0.001 A 
ATOM     27  C   UNL A   1      28.086  32.167  21.471  1.00  0.00     0.000 A 
ENDBRANCH  15  22
ENDBRANCH   8   9
ENDBRANCH   6   8
ENDBRANCH   5   6
ENDBRANCH   4   5
ENDBRANCH   3   4
ENDBRANCH   2   3
ENDBRANCH   1   2
BRANCH   1  28
ATOM     28  C   UNL A   1      37.129  23.507  24.800  1.00  0.00     0.188 C 
BRANCH  28  29
ATOM     29  O   UNL A   1      37.483  22.871  26.018  1.00  0.00    -0.376 OA
BRANCH  29  30
ATOM     30  C   UNL A   1      38.464  21.834  25.775  1.00  0.00     0.202 C 
BRANCH  30  31
ATOM     31  C   UNL A   1      39.739  21.932  26.660  1.00  0.00     0.261 C 
BRANCH  31  32
ATOM     32  O   UNL A   1      40.529  23.085  26.272  1.00  0.00    -0.460 OA
BRANCH  32  33
ATOM     33  C   UNL A   1      41.095  23.896  27.224  1.00  0.00     0.338 C 
ATOM     34  O   UNL A   1      41.963  23.563  28.015  1.00  0.00    -0.246 OA
BRANCH  33  35
ATOM     35  C   UNL A   1      40.273  25.164  27.314  1.00  0.00     0.060 A 
ATOM     36  C   UNL A   1      40.600  26.376  26.696  1.00  0.00     0.016 A 
ATOM     37  C   UNL A   1      39.417  25.262  28.364  1.00  0.00     0.016 A 
ATOM     38  C   UNL A   1      40.246  27.659  27.288  1.00  0.00     0.010 A 
ATOM     39  C   UNL A   1      39.394  26.500  29.018  1.00  0.00     0.010 A 
ATOM     40  C   UNL A   1      39.734  27.784  28.589  1.00  0.00    -0.014 A 
BRANCH  40  41
ATOM     41  C   UNL A   1      39.908  29.058  29.562  1.00  0.00     0.031 A 
ATOM     42  C   UNL A   1      38.991  30.272  30.145  1.00  0.00     0.074 A 
ATOM     43  C   UNL A   1      41.138  29.112  30.122  1.00  0.00     0.049 A 
ATOM     44  N   UNL A   1      39.423  31.519  30.302  1.00  0.00    -0.248 NA
ATOM     45  C   UNL A   1      37.556  30.276  30.561  1.00  0.00     0.031 C 
ATOM     46  C   UNL A   1      41.629  29.976  31.188  1.00  0.00     0.029 A 
ATOM     47  N   UNL A   1      42.270  28.429  29.705  1.00  0.00    -0.354 N 
ATOM     48  C   UNL A   1      38.395  32.274  30.889  1.00  0.00     0.074 A 
ATOM     49  C   UNL A   1      37.230  31.551  30.651  1.00  0.00     0.031 C 
ATOM     50  C   UNL A   1      42.970  29.971  31.154  1.00  0.00     0.029 A 
ATOM     51  C   UNL A   1      43.389  29.206  29.992  1.00  0.00     0.049 A 
ATOM     52  H   UNL A   1      42.281  27.542  29.276  1.00  0.00     0.167 HD
ATOM     53  C   UNL A   1      38.523  33.338  31.730  1.00  0.00     0.031 A 
ATOM     54  C   UNL A   1      44.133  29.668  28.944  1.00  0.00     0.031 A 
ATOM     55  C   UNL A   1      39.911  33.715  31.823  1.00  0.00     0.049 A 
ATOM     56  C   UNL A   1      44.027  31.178  28.759  1.00  0.00     0.074 A 
ATOM     57  C   UNL A   1      40.904  33.621  32.777  1.00  0.00     0.029 A 
ATOM     58  N   UNL A   1      40.546  33.978  30.630  1.00  0.00    -0.354 N 
ATOM     59  N   UNL A   1      43.483  32.013  29.608  1.00  0.00    -0.248 NA
ATOM     60  C   UNL A   1      44.453  31.856  27.530  1.00  0.00     0.031 C 
ATOM     61  C   UNL A   1      42.159  33.788  32.106  1.00  0.00     0.029 A 
ATOM     62  C   UNL A   1      41.908  34.044  30.771  1.00  0.00     0.049 A 
ATOM     63  H   UNL A   1      40.075  34.104  29.774  1.00  0.00     0.167 HD
ATOM     64  C   UNL A   1      43.354  33.243  29.016  1.00  0.00     0.074 A 
ATOM     65  C   UNL A   1      44.004  33.105  27.728  1.00  0.00     0.031 C 
ATOM     66  C   UNL A   1      42.660  34.286  29.557  1.00  0.00     0.031 A 
BRANCH  53  67
ATOM     67  C   UNL A   1      37.378  33.904  32.604  1.00  0.00    -0.014 A 
ATOM     68  C   UNL A   1      37.472  33.847  34.004  1.00  0.00     0.009 A 
ATOM     69  C   UNL A   1      36.163  34.468  32.138  1.00  0.00     0.009 A 
ATOM     70  C   UNL A   1      36.418  34.258  34.852  1.00  0.00     0.001 A 
ATOM     71  C   UNL A   1      35.103  34.871  32.969  1.00  0.00     0.001 A 
ATOM     72  C   UNL A   1      35.226  34.755  34.336  1.00  0.00     0.000 A 
ENDBRANCH  53  67
BRANCH  54  73
ATOM     73  C   UNL A   1      44.332  28.640  27.862  1.00  0.00    -0.014 A 
ATOM     74  C   UNL A   1      44.928  27.408  28.230  1.00  0.00     0.009 A 
ATOM     75  C   UNL A   1      43.744  28.711  26.591  1.00  0.00     0.009 A 
ATOM     76  C   UNL A   1      44.861  26.279  27.406  1.00  0.00     0.001 A 
ATOM     77  C   UNL A   1      43.705  27.585  25.749  1.00  0.00     0.001 A 
ATOM     78  C   UNL A   1      44.244  26.367  26.164  1.00  0.00     0.000 A 
ENDBRANCH  54  73
BRANCH  66  79
ATOM     79  C   UNL A   1      42.554  35.636  28.891  1.00  0.00    -0.014 A 
ATOM     80  C   UNL A   1      41.960  35.773  27.630  1.00  0.00     0.009 A 
ATOM     81  C   UNL A   1      43.171  36.784  29.435  1.00  0.00     0.009 A 
ATOM     82  C   UNL A   1      41.946  37.007  26.968  1.00  0.00     0.001 A 
ATOM     83  C   UNL A   1      43.182  38.008  28.766  1.00  0.00     0.001 A 
ATOM     84  C   UNL A   1      42.561  38.121  27.533  1.00  0.00     0.000 A 
ENDBRANCH  66  79
ENDBRANCH  40  41
ENDBRANCH  33  35
ENDBRANCH  32  33
ENDBRANCH  31  32
ENDBRANCH  30  31
ENDBRANCH  29  30
ENDBRANCH  28  29
ENDBRANCH   1  28
TORSDOF 20
ENDMDL
MODEL 2
REMARK VINA RESULT:     -11.8      0.615      3.208
REMARK SMILES Cc1c(CC(=O)OCCOCCOCCOC(=O)c2ccc(-c3c4nc(c(-c5ccccc5)c5ccc([nH]5)c(-c5ccccc5)c5nc(c(-c6ccccc6)c6ccc3[nH]6)C=C5)C=C4)cc2)cc(-c2ccccc2)cc1-c1ccccc1
REMARK SMILES IDX 11 1 10 2 9 3 8 4 7 5 5 6 6 7 4 8 3 9 1 10 2 11 76 12 67 13
REMARK SMILES IDX 75 14 68 15 77 16 78 17 82 18 79 19 81 20 80 21 69 22 70 23
REMARK SMILES IDX 74 24 71 25 73 26 72 27 12 28 13 29 14 30 15 31 16 32 17 33
REMARK SMILES IDX 18 34 19 35 20 36 66 37 21 38 65 39 22 40 23 41 24 42 59 43
REMARK SMILES IDX 25 44 64 45 58 46 60 47 26 48 63 49 57 50 56 51 27 53 49 54
REMARK SMILES IDX 34 55 48 56 35 57 38 58 47 59 61 60 36 61 37 62 46 64 62 65
REMARK SMILES IDX 39 66 28 67 29 68 33 69 30 70 32 71 31 72 50 73 51 74 55 75
REMARK SMILES IDX 52 76 54 77 53 78 40 79 41 80 45 81 42 82 44 83 43 84
REMARK H PARENT 60 52 38 63
REMARK Flexibility Score: inf
ROOT
ATOM      1  C   UNL A   1      36.436  22.243  23.873  1.00  0.00     0.188 C 
ENDROOT
BRANCH   1   2
ATOM      2  O   UNL A   1      35.565  23.313  24.258  1.00  0.00    -0.376 OA
BRANCH   2   3
ATOM      3  C   UNL A   1      35.222  23.560  25.623  1.00  0.00     0.202 C 
BRANCH   3   4
ATOM      4  C   UNL A   1      33.915  24.493  26.031  1.00  0.00     0.261 C 
BRANCH   4   5
ATOM      5  O   UNL A   1      32.427  24.584  25.303  1.00  0.00    -0.463 OA
BRANCH   5   6
ATOM      6  C   UNL A   1      31.600  25.234  24.376  1.00  0.00     0.310 C 
ATOM      7  O   UNL A   1      31.741  25.434  23.172  1.00  0.00    -0.252 OA
BRANCH   6   8
ATOM      8  C   UNL A   1      30.314  25.802  24.881  1.00  0.00     0.158 C 
BRANCH   8   9
ATOM      9  C   UNL A   1      30.418  27.270  24.930  1.00  0.00    -0.033 A 
ATOM     10  C   UNL A   1      28.638  27.522  23.133  1.00  0.00     0.045 C 
ATOM     11  C   UNL A   1      29.724  28.096  24.032  1.00  0.00    -0.039 A 
ATOM     12  C   UNL A   1      30.076  29.457  24.005  1.00  0.00    -0.015 A 
ATOM     13  C   UNL A   1      31.395  27.754  25.782  1.00  0.00     0.013 A 
ATOM     14  C   UNL A   1      31.152  29.917  24.808  1.00  0.00     0.017 A 
ATOM     15  C   UNL A   1      31.815  29.067  25.700  1.00  0.00    -0.017 A 
BRANCH  12  16
ATOM     16  C   UNL A   1      29.326  30.381  23.151  1.00  0.00    -0.018 A 
ATOM     17  C   UNL A   1      28.664  31.493  23.682  1.00  0.00     0.009 A 
ATOM     18  C   UNL A   1      29.373  30.220  21.754  1.00  0.00     0.009 A 
ATOM     19  C   UNL A   1      28.058  32.420  22.833  1.00  0.00     0.001 A 
ATOM     20  C   UNL A   1      28.783  31.154  20.907  1.00  0.00     0.001 A 
ATOM     21  C   UNL A   1      28.120  32.250  21.450  1.00  0.00     0.000 A 
ENDBRANCH  12  16
BRANCH  15  22
ATOM     22  C   UNL A   1      32.964  29.404  26.532  1.00  0.00    -0.018 A 
ATOM     23  C   UNL A   1      33.083  30.687  27.087  1.00  0.00     0.009 A 
ATOM     24  C   UNL A   1      34.083  28.555  26.541  1.00  0.00     0.009 A 
ATOM     25  C   UNL A   1      34.296  31.110  27.635  1.00  0.00     0.001 A 
ATOM     26  C   UNL A   1      35.293  28.978  27.089  1.00  0.00     0.001 A 
ATOM     27  C   UNL A   1      35.398  30.256  27.634  1.00  0.00     0.000 A 
ENDBRANCH  15  22
ENDBRANCH   8   9
ENDBRANCH   6   8
ENDBRANCH   5   6
ENDBRANCH   4   5
ENDBRANCH   3   4
ENDBRANCH   2   3
ENDBRANCH   1   2
BRANCH   1  28
ATOM     28  C   UNL A   1      36.396  21.169  24.946  1.00  0.00     0.188 C 
BRANCH  28  29
ATOM     29  O   UNL A   1      37.618  20.845  25.591  1.00  0.00    -0.376 OA
BRANCH  29  30
ATOM     30  C   UNL A   1      38.533  21.966  25.524  1.00  0.00     0.202 C 
BRANCH  30  31
ATOM     31  C   UNL A   1      39.762  21.851  26.469  1.00  0.00     0.261 C 
BRANCH  31  32
ATOM     32  O   UNL A   1      40.668  22.962  26.247  1.00  0.00    -0.460 OA
BRANCH  32  33
ATOM     33  C   UNL A   1      41.125  23.711  27.303  1.00  0.00     0.338 C 
ATOM     34  O   UNL A   1      41.886  23.320  28.174  1.00  0.00    -0.246 OA
BRANCH  33  35
ATOM     35  C   UNL A   1      40.317  24.989  27.361  1.00  0.00     0.060 A 
ATOM     36  C   UNL A   1      40.675  26.193  26.743  1.00  0.00     0.016 A 
ATOM     37  C   UNL A   1      39.433  25.105  28.386  1.00  0.00     0.016 A 
ATOM     38  C   UNL A   1      40.321  27.484  27.316  1.00  0.00     0.010 A 
ATOM     39  C   UNL A   1      39.407  26.348  29.030  1.00  0.00     0.010 A 
ATOM     40  C   UNL A   1      39.774  27.625  28.601  1.00  0.00    -0.014 A 
BRANCH  40  41
ATOM     41  C   UNL A   1      39.936  28.904  29.569  1.00  0.00     0.031 A 
ATOM     42  C   UNL A   1      39.016  30.130  30.123  1.00  0.00     0.074 A 
ATOM     43  C   UNL A   1      41.154  28.952  30.156  1.00  0.00     0.049 A 
ATOM     44  N   UNL A   1      39.455  31.374  30.282  1.00  0.00    -0.248 NA
ATOM     45  C   UNL A   1      37.572  30.148  30.507  1.00  0.00     0.031 C 
ATOM     46  C   UNL A   1      41.627  29.820  31.228  1.00  0.00     0.029 A 
ATOM     47  N   UNL A   1      42.289  28.258  29.770  1.00  0.00    -0.354 N 
ATOM     48  C   UNL A   1      38.419  32.142  30.840  1.00  0.00     0.074 A 
ATOM     49  C   UNL A   1      37.254  31.426  30.581  1.00  0.00     0.031 C 
ATOM     50  C   UNL A   1      42.969  29.804  31.224  1.00  0.00     0.029 A 
ATOM     51  C   UNL A   1      43.407  29.028  30.077  1.00  0.00     0.049 A 
ATOM     52  H   UNL A   1      42.303  27.368  29.348  1.00  0.00     0.167 HD
ATOM     53  C   UNL A   1      38.538  33.210  31.676  1.00  0.00     0.031 A 
ATOM     54  C   UNL A   1      44.179  29.476  29.043  1.00  0.00     0.031 A 
ATOM     55  C   UNL A   1      39.926  33.577  31.798  1.00  0.00     0.049 A 
ATOM     56  C   UNL A   1      44.089  30.987  28.846  1.00  0.00     0.074 A 
ATOM     57  C   UNL A   1      40.896  33.482  32.776  1.00  0.00     0.029 A 
ATOM     58  N   UNL A   1      40.589  33.826  30.618  1.00  0.00    -0.354 N 
ATOM     59  N   UNL A   1      43.533  31.831  29.677  1.00  0.00    -0.248 NA
ATOM     60  C   UNL A   1      44.548  31.652  27.622  1.00  0.00     0.031 C 
ATOM     61  C   UNL A   1      42.167  33.634  32.132  1.00  0.00     0.029 A 
ATOM     62  C   UNL A   1      41.948  33.883  30.789  1.00  0.00     0.049 A 
ATOM     63  H   UNL A   1      40.140  33.950  29.751  1.00  0.00     0.167 HD
ATOM     64  C   UNL A   1      43.427  33.058  29.074  1.00  0.00     0.074 A 
ATOM     65  C   UNL A   1      44.105  32.906  27.801  1.00  0.00     0.031 C 
ATOM     66  C   UNL A   1      42.729  34.110  29.591  1.00  0.00     0.031 A 
BRANCH  53  67
ATOM     67  C   UNL A   1      37.378  33.792  32.520  1.00  0.00    -0.014 A 
ATOM     68  C   UNL A   1      37.217  33.394  33.858  1.00  0.00     0.009 A 
ATOM     69  C   UNL A   1      36.380  34.694  32.072  1.00  0.00     0.009 A 
ATOM     70  C   UNL A   1      36.122  33.814  34.648  1.00  0.00     0.001 A 
ATOM     71  C   UNL A   1      35.280  35.112  32.842  1.00  0.00     0.001 A 
ATOM     72  C   UNL A   1      35.145  34.660  34.136  1.00  0.00     0.000 A 
ENDBRANCH  53  67
BRANCH  54  73
ATOM     73  C   UNL A   1      44.394  28.439  27.973  1.00  0.00    -0.014 A 
ATOM     74  C   UNL A   1      44.848  27.160  28.381  1.00  0.00     0.009 A 
ATOM     75  C   UNL A   1      43.938  28.564  26.652  1.00  0.00     0.009 A 
ATOM     76  C   UNL A   1      44.765  26.044  27.542  1.00  0.00     0.001 A 
ATOM     77  C   UNL A   1      43.886  27.449  25.798  1.00  0.00     0.001 A 
ATOM     78  C   UNL A   1      44.280  26.188  26.248  1.00  0.00     0.000 A 
ENDBRANCH  54  73
BRANCH  66  79
ATOM     79  C   UNL A   1      42.649  35.456  28.914  1.00  0.00    -0.014 A 
ATOM     80  C   UNL A   1      43.304  36.572  29.448  1.00  0.00     0.009 A 
ATOM     81  C   UNL A   1      41.801  35.682  27.807  1.00  0.00     0.009 A 
ATOM     82  C   UNL A   1      43.154  37.842  28.877  1.00  0.00     0.001 A 
ATOM     83  C   UNL A   1      41.629  36.950  27.251  1.00  0.00     0.001 A 
ATOM     84  C   UNL A   1      42.313  38.031  27.783  1.00  0.00     0.000 A 
ENDBRANCH  66  79
ENDBRANCH  40  41
ENDBRANCH  33  35
ENDBRANCH  32  33
ENDBRANCH  31  32
ENDBRANCH  30  31
ENDBRANCH  29  30
ENDBRANCH  28  29
ENDBRANCH   1  28
TORSDOF 20
ENDMDL
MODEL 3
REMARK VINA RESULT:     -11.7      1.884      3.370
REMARK SMILES Cc1c(CC(=O)OCCOCCOCCOC(=O)c2ccc(-c3c4nc(c(-c5ccccc5)c5ccc([nH]5)c(-c5ccccc5)c5nc(c(-c6ccccc6)c6ccc3[nH]6)C=C5)C=C4)cc2)cc(-c2ccccc2)cc1-c1ccccc1
REMARK SMILES IDX 11 1 10 2 9 3 8 4 7 5 5 6 6 7 4 8 3 9 1 10 2 11 76 12 67 13
REMARK SMILES IDX 75 14 68 15 77 16 78 17 82 18 79 19 81 20 80 21 69 22 70 23
REMARK SMILES IDX 74 24 71 25 73 26 72 27 12 28 13 29 14 30 15 31 16 32 17 33
REMARK SMILES IDX 18 34 19 35 20 36 66 37 21 38 65 39 22 40 23 41 24 42 59 43
REMARK SMILES IDX 25 44 64 45 58 46 60 47 26 48 63 49 57 50 56 51 27 53 49 54
REMARK SMILES IDX 34 55 48 56 35 57 38 58 47 59 61 60 36 61 37 62 46 64 62 65
REMARK SMILES IDX 39 66 28 67 29 68 33 69 30 70 32 71 31 72 50 73 51 74 55 75
REMARK SMILES IDX 52 76 54 77 53 78 40 79 41 80 45 81 42 82 44 83 43 84
REMARK H PARENT 60 52 38 63
REMARK Flexibility Score: inf
ROOT
ATOM      1  C   UNL A   1      35.827  22.729  24.138  1.00  0.00     0.188 C 
ENDROOT
BRANCH   1   2
ATOM      2  O   UNL A   1      34.834  21.703  24.025  1.00  0.00    -0.376 OA
BRANCH   2   3
ATOM      3  C   UNL A   1      33.457  22.001  23.788  1.00  0.00     0.202 C 
BRANCH   3   4
ATOM      4  C   UNL A   1      32.940  22.605  22.335  1.00  0.00     0.261 C 
BRANCH   4   5
ATOM      5  O   UNL A   1      33.176  24.113  21.686  1.00  0.00    -0.463 OA
BRANCH   5   6
ATOM      6  C   UNL A   1      32.775  25.456  21.633  1.00  0.00     0.310 C 
ATOM      7  O   UNL A   1      31.772  25.979  21.154  1.00  0.00    -0.252 OA
BRANCH   6   8
ATOM      8  C   UNL A   1      33.684  26.470  22.247  1.00  0.00     0.158 C 
BRANCH   8   9
ATOM      9  C   UNL A   1      33.216  26.781  23.608  1.00  0.00    -0.033 A 
ATOM     10  C   UNL A   1      33.470  29.276  23.195  1.00  0.00     0.045 C 
ATOM     11  C   UNL A   1      33.222  28.090  24.115  1.00  0.00    -0.039 A 
ATOM     12  C   UNL A   1      32.989  28.248  25.493  1.00  0.00    -0.015 A 
ATOM     13  C   UNL A   1      32.971  25.676  24.404  1.00  0.00     0.013 A 
ATOM     14  C   UNL A   1      32.844  27.098  26.314  1.00  0.00     0.017 A 
ATOM     15  C   UNL A   1      32.833  25.809  25.772  1.00  0.00    -0.017 A 
BRANCH  12  16
ATOM     16  C   UNL A   1      32.896  29.594  26.062  1.00  0.00    -0.018 A 
ATOM     17  C   UNL A   1      31.731  30.358  25.945  1.00  0.00     0.009 A 
ATOM     18  C   UNL A   1      33.956  30.084  26.848  1.00  0.00     0.009 A 
ATOM     19  C   UNL A   1      31.629  31.588  26.597  1.00  0.00     0.001 A 
ATOM     20  C   UNL A   1      33.848  31.302  27.512  1.00  0.00     0.001 A 
ATOM     21  C   UNL A   1      32.686  32.056  27.379  1.00  0.00     0.000 A 
ENDBRANCH  12  16
BRANCH  15  22
ATOM     22  C   UNL A   1      32.750  24.554  26.510  1.00  0.00    -0.018 A 
ATOM     23  C   UNL A   1      33.917  23.925  26.967  1.00  0.00     0.009 A 
ATOM     24  C   UNL A   1      31.545  23.832  26.513  1.00  0.00     0.009 A 
ATOM     25  C   UNL A   1      33.878  22.603  27.414  1.00  0.00     0.001 A 
ATOM     26  C   UNL A   1      31.507  22.512  26.959  1.00  0.00     0.001 A 
ATOM     27  C   UNL A   1      32.674  21.898  27.408  1.00  0.00     0.000 A 
ENDBRANCH  15  22
ENDBRANCH   8   9
ENDBRANCH   6   8
ENDBRANCH   5   6
ENDBRANCH   4   5
ENDBRANCH   3   4
ENDBRANCH   2   3
ENDBRANCH   1   2
BRANCH   1  28
ATOM     28  C   UNL A   1      36.720  22.417  25.326  1.00  0.00     0.188 C 
BRANCH  28  29
ATOM     29  O   UNL A   1      38.123  22.439  25.111  1.00  0.00    -0.376 OA
BRANCH  29  30
ATOM     30  C   UNL A   1      38.721  21.208  25.583  1.00  0.00     0.202 C 
BRANCH  30  31
ATOM     31  C   UNL A   1      39.908  21.404  26.569  1.00  0.00     0.261 C 
BRANCH  31  32
ATOM     32  O   UNL A   1      40.830  22.395  26.050  1.00  0.00    -0.460 OA
BRANCH  32  33
ATOM     33  C   UNL A   1      41.400  23.323  26.887  1.00  0.00     0.338 C 
ATOM     34  O   UNL A   1      42.307  23.107  27.675  1.00  0.00    -0.246 OA
BRANCH  33  35
ATOM     35  C   UNL A   1      40.538  24.567  26.870  1.00  0.00     0.060 A 
ATOM     36  C   UNL A   1      40.952  25.824  26.415  1.00  0.00     0.016 A 
ATOM     37  C   UNL A   1      39.470  24.579  27.709  1.00  0.00     0.016 A 
ATOM     38  C   UNL A   1      40.436  27.057  26.991  1.00  0.00     0.010 A 
ATOM     39  C   UNL A   1      39.263  25.770  28.417  1.00  0.00     0.010 A 
ATOM     40  C   UNL A   1      39.647  27.086  28.153  1.00  0.00    -0.014 A 
BRANCH  40  41
ATOM     41  C   UNL A   1      39.562  28.295  29.216  1.00  0.00     0.031 A 
ATOM     42  C   UNL A   1      38.531  29.496  29.606  1.00  0.00     0.074 A 
ATOM     43  C   UNL A   1      40.595  28.284  30.089  1.00  0.00     0.049 A 
ATOM     44  N   UNL A   1      38.915  30.719  29.954  1.00  0.00    -0.248 NA
ATOM     45  C   UNL A   1      37.037  29.511  29.620  1.00  0.00     0.031 C 
ATOM     46  C   UNL A   1      40.786  29.071  31.301  1.00  0.00     0.029 A 
ATOM     47  N   UNL A   1      41.792  27.599  29.949  1.00  0.00    -0.354 N 
ATOM     48  C   UNL A   1      37.773  31.464  30.289  1.00  0.00     0.074 A 
ATOM     49  C   UNL A   1      36.710  30.786  29.701  1.00  0.00     0.031 C 
ATOM     50  C   UNL A   1      42.086  29.034  31.630  1.00  0.00     0.029 A 
ATOM     51  C   UNL A   1      42.797  28.329  30.577  1.00  0.00     0.049 A 
ATOM     52  H   UNL A   1      41.911  26.739  29.484  1.00  0.00     0.167 HD
ATOM     53  C   UNL A   1      37.678  32.472  31.200  1.00  0.00     0.031 A 
ATOM     54  C   UNL A   1      43.801  28.833  29.800  1.00  0.00     0.031 A 
ATOM     55  C   UNL A   1      38.991  32.808  31.687  1.00  0.00     0.049 A 
ATOM     56  C   UNL A   1      43.762  30.355  29.690  1.00  0.00     0.074 A 
ATOM     57  C   UNL A   1      39.688  32.633  32.866  1.00  0.00     0.029 A 
ATOM     58  N   UNL A   1      39.928  33.125  30.729  1.00  0.00    -0.354 N 
ATOM     59  N   UNL A   1      43.016  31.150  30.413  1.00  0.00    -0.248 NA
ATOM     60  C   UNL A   1      44.510  31.093  28.667  1.00  0.00     0.031 C 
ATOM     61  C   UNL A   1      41.079  32.807  32.570  1.00  0.00     0.029 A 
ATOM     62  C   UNL A   1      41.201  33.148  31.235  1.00  0.00     0.049 A 
ATOM     63  H   UNL A   1      39.707  33.313  29.788  1.00  0.00     0.167 HD
ATOM     64  C   UNL A   1      43.061  32.417  29.888  1.00  0.00     0.074 A 
ATOM     65  C   UNL A   1      44.035  32.339  28.817  1.00  0.00     0.031 C 
ATOM     66  C   UNL A   1      42.255  33.443  30.287  1.00  0.00     0.031 A 
BRANCH  53  67
ATOM     67  C   UNL A   1      36.344  33.015  31.767  1.00  0.00    -0.014 A 
ATOM     68  C   UNL A   1      35.659  34.038  31.089  1.00  0.00     0.009 A 
ATOM     69  C   UNL A   1      35.715  32.612  32.972  1.00  0.00     0.009 A 
ATOM     70  C   UNL A   1      34.490  34.641  31.608  1.00  0.00     0.001 A 
ATOM     71  C   UNL A   1      34.559  33.210  33.506  1.00  0.00     0.001 A 
ATOM     72  C   UNL A   1      33.948  34.239  32.824  1.00  0.00     0.000 A 
ENDBRANCH  53  67
BRANCH  54  73
ATOM     73  C   UNL A   1      44.277  27.867  28.748  1.00  0.00    -0.014 A 
ATOM     74  C   UNL A   1      44.700  26.584  29.179  1.00  0.00     0.009 A 
ATOM     75  C   UNL A   1      44.091  28.048  27.370  1.00  0.00     0.009 A 
ATOM     76  C   UNL A   1      44.842  25.515  28.289  1.00  0.00     0.001 A 
ATOM     77  C   UNL A   1      44.266  26.981  26.471  1.00  0.00     0.001 A 
ATOM     78  C   UNL A   1      44.621  25.713  26.932  1.00  0.00     0.000 A 
ENDBRANCH  54  73
BRANCH  66  79
ATOM     79  C   UNL A   1      42.345  34.832  29.705  1.00  0.00    -0.014 A 
ATOM     80  C   UNL A   1      41.530  35.219  28.634  1.00  0.00     0.009 A 
ATOM     81  C   UNL A   1      43.343  35.745  30.112  1.00  0.00     0.009 A 
ATOM     82  C   UNL A   1      41.677  36.473  28.029  1.00  0.00     0.001 A 
ATOM     83  C   UNL A   1      43.509  36.986  29.494  1.00  0.00     0.001 A 
ATOM     84  C   UNL A   1      42.669  37.353  28.456  1.00  0.00     0.000 A 
ENDBRANCH  66  79
ENDBRANCH  40  41
ENDBRANCH  33  35
ENDBRANCH  32  33
ENDBRANCH  31  32
ENDBRANCH  30  31
ENDBRANCH  29  30
ENDBRANCH  28  29
ENDBRANCH   1  28
TORSDOF 20
ENDMDL
