MODEL 1
REMARK VINA RESULT:     -10.2      0.000      0.000
REMARK SMILES CCc1ccc2c(c1)C=C(C(=O)OCCOCCOCCOC(=O)c1ccc(-c3c4nc(c(-c5ccccc5)c5ccc([nH]5)c(-c5ccccc5)c5nc(c(-c6ccccc6)c6ccc3[nH]6)C=C5)C=C4)cc1)[C@H](C(F)(F)F)O2
REMARK SMILES IDX 18 1 17 2 16 3 15 4 14 5 13 6 11 7 12 8 10 9 3 10 4 11 8 12
REMARK SMILES IDX 5 13 7 14 6 15 9 16 78 17 73 18 2 19 1 20 74 21 75 22 76 23
REMARK SMILES IDX 77 24 19 25 20 26 21 27 22 28 23 29 24 30 25 31 26 32 72 33
REMARK SMILES IDX 27 34 71 35 28 36 29 37 30 38 65 39 31 40 70 41 64 42 66 43
REMARK SMILES IDX 32 44 69 45 63 46 62 47 33 49 55 50 40 51 54 52 41 53 44 54
REMARK SMILES IDX 53 55 67 56 42 57 43 58 52 60 68 61 45 62 34 63 35 64 39 65
REMARK SMILES IDX 36 66 38 67 37 68 56 69 57 70 61 71 58 72 60 73 59 74 46 75
REMARK SMILES IDX 47 76 51 77 48 78 50 79 49 80
REMARK H PARENT 66 48 44 59
REMARK Flexibility Score: inf
ROOT
ATOM      1  C   UNL A   1      42.450  19.571  26.548  1.00  0.00     0.188 C 
ENDROOT
BRANCH   1   2
ATOM      2  C   UNL A   1      41.491  20.644  27.102  1.00  0.00     0.188 C 
BRANCH   2   3
ATOM      3  O   UNL A   1      40.220  20.619  26.475  1.00  0.00    -0.376 OA
BRANCH   3   4
ATOM      4  C   UNL A   1      39.642  21.865  26.125  1.00  0.00     0.202 C 
BRANCH   4   5
ATOM      5  C   UNL A   1      38.153  21.838  25.764  1.00  0.00     0.261 C 
BRANCH   5   6
ATOM      6  O   UNL A   1      37.624  23.074  25.261  1.00  0.00    -0.460 OA
BRANCH   6   7
ATOM      7  C   UNL A   1      36.603  23.013  24.379  1.00  0.00     0.338 C 
ATOM      8  O   UNL A   1      36.649  22.532  23.261  1.00  0.00    -0.246 OA
BRANCH   7   9
ATOM      9  C   UNL A   1      35.375  23.533  25.019  1.00  0.00     0.087 C 
ATOM     10  C   UNL A   1      32.394  27.147  26.235  1.00  0.00    -0.047 A 
ATOM     11  C   UNL A   1      31.398  26.192  26.506  1.00  0.00     0.007 A 
ATOM     12  C   UNL A   1      33.649  26.697  25.791  1.00  0.00     0.015 A 
ATOM     13  C   UNL A   1      31.640  24.829  26.328  1.00  0.00     0.047 A 
ATOM     14  C   UNL A   1      33.891  25.331  25.595  1.00  0.00     0.018 A 
ATOM     15  C   UNL A   1      32.887  24.403  25.884  1.00  0.00     0.128 A 
ATOM     16  C   UNL A   1      35.137  24.855  24.999  1.00  0.00     0.027 C 
ATOM     17  O   UNL A   1      33.051  23.057  25.684  1.00  0.00    -0.475 OA
ATOM     18  C   UNL A   1      34.430  22.598  25.743  1.00  0.00     0.316 C 
BRANCH  10  19
ATOM     19  C   UNL A   1      32.054  28.607  26.442  1.00  0.00     0.032 C 
ATOM     20  C   UNL A   1      32.852  29.615  25.625  1.00  0.00     0.009 C 
ENDBRANCH  10  19
BRANCH  18  21
ATOM     21  C   UNL A   1      34.462  21.109  25.370  1.00  0.00     0.430 C 
ATOM     22  F   UNL A   1      33.421  20.444  25.930  1.00  0.00    -0.167 F 
ATOM     23  F   UNL A   1      34.314  20.957  24.028  1.00  0.00    -0.167 F 
ATOM     24  F   UNL A   1      35.610  20.498  25.718  1.00  0.00    -0.167 F 
ENDBRANCH  18  21
ENDBRANCH   7   9
ENDBRANCH   6   7
ENDBRANCH   5   6
ENDBRANCH   4   5
ENDBRANCH   3   4
ENDBRANCH   2   3
ENDBRANCH   1   2
BRANCH   1  25
ATOM     25  O   UNL A   1      43.230  19.854  25.391  1.00  0.00    -0.376 OA
BRANCH  25  26
ATOM     26  C   UNL A   1      44.072  21.000  25.382  1.00  0.00     0.202 C 
BRANCH  26  27
ATOM     27  C   UNL A   1      43.832  22.050  24.293  1.00  0.00     0.261 C 
BRANCH  27  28
ATOM     28  O   UNL A   1      43.151  23.228  24.758  1.00  0.00    -0.460 OA
BRANCH  28  29
ATOM     29  C   UNL A   1      43.953  24.276  25.066  1.00  0.00     0.338 C 
ATOM     30  O   UNL A   1      45.033  24.557  24.578  1.00  0.00    -0.246 OA
BRANCH  29  31
ATOM     31  C   UNL A   1      43.252  25.177  26.001  1.00  0.00     0.060 A 
ATOM     32  C   UNL A   1      43.746  26.479  26.159  1.00  0.00     0.016 A 
ATOM     33  C   UNL A   1      42.171  24.733  26.765  1.00  0.00     0.016 A 
ATOM     34  C   UNL A   1      43.170  27.339  27.093  1.00  0.00     0.010 A 
ATOM     35  C   UNL A   1      41.611  25.588  27.720  1.00  0.00     0.010 A 
ATOM     36  C   UNL A   1      42.123  26.885  27.904  1.00  0.00    -0.014 A 
BRANCH  36  37
ATOM     37  C   UNL A   1      41.657  27.712  29.042  1.00  0.00     0.031 A 
ATOM     38  C   UNL A   1      42.364  27.598  30.363  1.00  0.00     0.074 A 
ATOM     39  C   UNL A   1      40.620  28.555  28.905  1.00  0.00     0.049 A 
ATOM     40  N   UNL A   1      42.091  28.181  31.503  1.00  0.00    -0.248 NA
ATOM     41  C   UNL A   1      43.538  26.711  30.405  1.00  0.00     0.031 C 
ATOM     42  C   UNL A   1      39.883  28.801  27.667  1.00  0.00     0.029 A 
ATOM     43  N   UNL A   1      40.002  29.357  29.832  1.00  0.00    -0.354 N 
ATOM     44  C   UNL A   1      43.056  27.733  32.395  1.00  0.00     0.074 A 
ATOM     45  C   UNL A   1      43.908  26.813  31.672  1.00  0.00     0.031 C 
ATOM     46  C   UNL A   1      38.898  29.682  27.916  1.00  0.00     0.029 A 
ATOM     47  C   UNL A   1      38.916  30.035  29.335  1.00  0.00     0.049 A 
ATOM     48  H   UNL A   1      40.307  29.438  30.765  1.00  0.00     0.167 HD
ATOM     49  C   UNL A   1      43.220  28.056  33.700  1.00  0.00     0.031 A 
ATOM     50  C   UNL A   1      38.024  30.826  29.961  1.00  0.00     0.031 A 
ATOM     51  C   UNL A   1      42.359  28.945  34.433  1.00  0.00     0.049 A 
ATOM     52  C   UNL A   1      38.165  31.085  31.437  1.00  0.00     0.074 A 
ATOM     53  C   UNL A   1      42.450  29.337  35.757  1.00  0.00     0.029 A 
ATOM     54  N   UNL A   1      41.240  29.568  33.906  1.00  0.00    -0.354 N 
ATOM     55  N   UNL A   1      39.093  30.673  32.266  1.00  0.00    -0.248 NA
ATOM     56  C   UNL A   1      37.127  31.920  32.064  1.00  0.00     0.031 C 
ATOM     57  C   UNL A   1      41.354  30.157  36.046  1.00  0.00     0.029 A 
ATOM     58  C   UNL A   1      40.612  30.316  34.887  1.00  0.00     0.049 A 
ATOM     59  H   UNL A   1      40.937  29.491  32.972  1.00  0.00     0.167 HD
ATOM     60  C   UNL A   1      38.768  31.217  33.503  1.00  0.00     0.074 A 
ATOM     61  C   UNL A   1      37.563  31.998  33.314  1.00  0.00     0.031 C 
ATOM     62  C   UNL A   1      39.411  31.084  34.689  1.00  0.00     0.031 A 
BRANCH  49  63
ATOM     63  C   UNL A   1      44.359  27.404  34.430  1.00  0.00    -0.014 A 
ATOM     64  C   UNL A   1      44.179  26.204  35.134  1.00  0.00     0.009 A 
ATOM     65  C   UNL A   1      45.635  27.988  34.391  1.00  0.00     0.009 A 
ATOM     66  C   UNL A   1      45.250  25.617  35.811  1.00  0.00     0.001 A 
ATOM     67  C   UNL A   1      46.708  27.387  35.049  1.00  0.00     0.001 A 
ATOM     68  C   UNL A   1      46.513  26.207  35.765  1.00  0.00     0.000 A 
ENDBRANCH  49  63
BRANCH  50  69
ATOM     69  C   UNL A   1      36.886  31.409  29.204  1.00  0.00    -0.014 A 
ATOM     70  C   UNL A   1      36.960  32.713  28.693  1.00  0.00     0.009 A 
ATOM     71  C   UNL A   1      35.706  30.672  29.019  1.00  0.00     0.009 A 
ATOM     72  C   UNL A   1      35.866  33.276  28.032  1.00  0.00     0.001 A 
ATOM     73  C   UNL A   1      34.623  31.228  28.335  1.00  0.00     0.001 A 
ATOM     74  C   UNL A   1      34.701  32.532  27.850  1.00  0.00     0.000 A 
ENDBRANCH  50  69
BRANCH  62  75
ATOM     75  C   UNL A   1      38.841  31.817  35.869  1.00  0.00    -0.014 A 
ATOM     76  C   UNL A   1      37.945  31.193  36.750  1.00  0.00     0.009 A 
ATOM     77  C   UNL A   1      39.240  33.139  36.126  1.00  0.00     0.009 A 
ATOM     78  C   UNL A   1      37.440  31.889  37.851  1.00  0.00     0.001 A 
ATOM     79  C   UNL A   1      38.754  33.822  37.241  1.00  0.00     0.001 A 
ATOM     80  C   UNL A   1      37.848  33.199  38.098  1.00  0.00     0.000 A 
ENDBRANCH  62  75
ENDBRANCH  36  37
ENDBRANCH  29  31
ENDBRANCH  28  29
ENDBRANCH  27  28
ENDBRANCH  26  27
ENDBRANCH  25  26
ENDBRANCH   1  25
TORSDOF 19
ENDMDL
MODEL 2
REMARK VINA RESULT:     -10.0      4.561      9.860
REMARK SMILES CCc1ccc2c(c1)C=C(C(=O)OCCOCCOCCOC(=O)c1ccc(-c3c4nc(c(-c5ccccc5)c5ccc([nH]5)c(-c5ccccc5)c5nc(c(-c6ccccc6)c6ccc3[nH]6)C=C5)C=C4)cc1)[C@H](C(F)(F)F)O2
REMARK SMILES IDX 18 1 17 2 16 3 15 4 14 5 13 6 11 7 12 8 10 9 3 10 4 11 8 12
REMARK SMILES IDX 5 13 7 14 6 15 9 16 78 17 73 18 2 19 1 20 74 21 75 22 76 23
REMARK SMILES IDX 77 24 19 25 20 26 21 27 22 28 23 29 24 30 25 31 26 32 72 33
REMARK SMILES IDX 27 34 71 35 28 36 29 37 30 38 65 39 31 40 70 41 64 42 66 43
REMARK SMILES IDX 32 44 69 45 63 46 62 47 33 49 55 50 40 51 54 52 41 53 44 54
REMARK SMILES IDX 53 55 67 56 42 57 43 58 52 60 68 61 45 62 34 63 35 64 39 65
REMARK SMILES IDX 36 66 38 67 37 68 56 69 57 70 61 71 58 72 60 73 59 74 46 75
REMARK SMILES IDX 47 76 51 77 48 78 50 79 49 80
REMARK H PARENT 66 48 44 59
REMARK Flexibility Score: inf
ROOT
ATOM      1  C   UNL A   1      34.101  32.597  28.078  1.00  0.00     0.188 C 
ENDROOT
BRANCH   1   2
ATOM      2  C   UNL A   1      34.687  31.244  27.626  1.00  0.00     0.188 C 
BRANCH   2   3
ATOM      3  O   UNL A   1      33.710  30.219  27.558  1.00  0.00    -0.376 OA
BRANCH   3   4
ATOM      4  C   UNL A   1      32.496  30.520  26.891  1.00  0.00     0.202 C 
BRANCH   4   5
ATOM      5  C   UNL A   1      32.229  29.741  25.598  1.00  0.00     0.261 C 
BRANCH   5   6
ATOM      6  O   UNL A   1      33.113  28.635  25.358  1.00  0.00    -0.460 OA
BRANCH   6   7
ATOM      7  C   UNL A   1      32.791  27.772  24.370  1.00  0.00     0.338 C 
ATOM      8  O   UNL A   1      32.504  28.068  23.224  1.00  0.00    -0.246 OA
BRANCH   7   9
ATOM      9  C   UNL A   1      32.940  26.387  24.867  1.00  0.00     0.087 C 
ATOM     10  C   UNL A   1      35.594  22.455  25.826  1.00  0.00    -0.047 A 
ATOM     11  C   UNL A   1      34.546  21.983  26.636  1.00  0.00     0.007 A 
ATOM     12  C   UNL A   1      35.436  23.692  25.180  1.00  0.00     0.015 A 
ATOM     13  C   UNL A   1      33.378  22.728  26.808  1.00  0.00     0.047 A 
ATOM     14  C   UNL A   1      34.272  24.451  25.362  1.00  0.00     0.018 A 
ATOM     15  C   UNL A   1      33.241  23.952  26.163  1.00  0.00     0.128 A 
ATOM     16  C   UNL A   1      34.148  25.800  24.816  1.00  0.00     0.027 C 
ATOM     17  O   UNL A   1      32.092  24.659  26.405  1.00  0.00    -0.475 OA
ATOM     18  C   UNL A   1      31.738  25.616  25.369  1.00  0.00     0.316 C 
BRANCH  10  19
ATOM     19  C   UNL A   1      36.833  21.596  25.697  1.00  0.00     0.032 C 
ATOM     20  C   UNL A   1      36.685  20.298  24.913  1.00  0.00     0.009 C 
ENDBRANCH  10  19
BRANCH  18  21
ATOM     21  C   UNL A   1      30.516  26.415  25.844  1.00  0.00     0.430 C 
ATOM     22  F   UNL A   1      30.010  27.175  24.841  1.00  0.00    -0.167 F 
ATOM     23  F   UNL A   1      29.513  25.572  26.206  1.00  0.00    -0.167 F 
ATOM     24  F   UNL A   1      30.776  27.205  26.903  1.00  0.00    -0.167 F 
ENDBRANCH  18  21
ENDBRANCH   7   9
ENDBRANCH   6   7
ENDBRANCH   5   6
ENDBRANCH   4   5
ENDBRANCH   3   4
ENDBRANCH   2   3
ENDBRANCH   1   2
BRANCH   1  25
ATOM     25  O   UNL A   1      33.963  32.876  29.467  1.00  0.00    -0.376 OA
BRANCH  25  26
ATOM     26  C   UNL A   1      34.139  34.209  29.930  1.00  0.00     0.202 C 
BRANCH  26  27
ATOM     27  C   UNL A   1      34.554  34.404  31.392  1.00  0.00     0.261 C 
BRANCH  27  28
ATOM     28  O   UNL A   1      35.932  34.090  31.654  1.00  0.00    -0.460 OA
BRANCH  28  29
ATOM     29  C   UNL A   1      36.143  32.948  32.353  1.00  0.00     0.338 C 
ATOM     30  O   UNL A   1      35.514  32.534  33.311  1.00  0.00    -0.246 OA
BRANCH  29  31
ATOM     31  C   UNL A   1      37.179  32.140  31.681  1.00  0.00     0.060 A 
ATOM     32  C   UNL A   1      38.123  31.480  32.481  1.00  0.00     0.016 A 
ATOM     33  C   UNL A   1      37.269  32.086  30.289  1.00  0.00     0.016 A 
ATOM     34  C   UNL A   1      39.171  30.776  31.889  1.00  0.00     0.010 A 
ATOM     35  C   UNL A   1      38.336  31.401  29.699  1.00  0.00     0.010 A 
ATOM     36  C   UNL A   1      39.303  30.763  30.495  1.00  0.00    -0.014 A 
BRANCH  36  37
ATOM     37  C   UNL A   1      40.528  30.208  29.874  1.00  0.00     0.031 A 
ATOM     38  C   UNL A   1      41.712  31.109  29.665  1.00  0.00     0.074 A 
ATOM     39  C   UNL A   1      40.590  28.918  29.500  1.00  0.00     0.049 A 
ATOM     40  N   UNL A   1      42.860  30.851  29.090  1.00  0.00    -0.248 NA
ATOM     41  C   UNL A   1      41.587  32.484  30.174  1.00  0.00     0.031 C 
ATOM     42  C   UNL A   1      39.535  27.926  29.695  1.00  0.00     0.029 A 
ATOM     43  N   UNL A   1      41.592  28.228  28.865  1.00  0.00    -0.354 N 
ATOM     44  C   UNL A   1      43.592  32.028  29.169  1.00  0.00     0.074 A 
ATOM     45  C   UNL A   1      42.753  33.007  29.826  1.00  0.00     0.031 C 
ATOM     46  C   UNL A   1      39.940  26.754  29.172  1.00  0.00     0.029 A 
ATOM     47  C   UNL A   1      41.265  26.925  28.579  1.00  0.00     0.049 A 
ATOM     48  H   UNL A   1      42.462  28.628  28.636  1.00  0.00     0.167 HD
ATOM     49  C   UNL A   1      44.850  32.274  28.733  1.00  0.00     0.031 A 
ATOM     50  C   UNL A   1      41.946  25.988  27.892  1.00  0.00     0.031 A 
ATOM     51  C   UNL A   1      45.678  31.316  28.052  1.00  0.00     0.049 A 
ATOM     52  C   UNL A   1      43.300  26.319  27.323  1.00  0.00     0.074 A 
ATOM     53  C   UNL A   1      46.969  31.472  27.579  1.00  0.00     0.029 A 
ATOM     54  N   UNL A   1      45.289  30.024  27.735  1.00  0.00    -0.354 N 
ATOM     55  N   UNL A   1      43.992  27.428  27.422  1.00  0.00    -0.248 NA
ATOM     56  C   UNL A   1      43.967  25.263  26.544  1.00  0.00     0.031 C 
ATOM     57  C   UNL A   1      47.342  30.292  26.928  1.00  0.00     0.029 A 
ATOM     58  C   UNL A   1      46.302  29.384  27.042  1.00  0.00     0.049 A 
ATOM     59  H   UNL A   1      44.421  29.623  27.968  1.00  0.00     0.167 HD
ATOM     60  C   UNL A   1      45.181  27.197  26.741  1.00  0.00     0.074 A 
ATOM     61  C   UNL A   1      45.124  25.838  26.244  1.00  0.00     0.031 C 
ATOM     62  C   UNL A   1      46.230  28.034  26.548  1.00  0.00     0.031 A 
BRANCH  49  63
ATOM     63  C   UNL A   1      45.391  33.658  28.947  1.00  0.00    -0.014 A 
ATOM     64  C   UNL A   1      46.099  33.989  30.113  1.00  0.00     0.009 A 
ATOM     65  C   UNL A   1      45.211  34.637  27.957  1.00  0.00     0.009 A 
ATOM     66  C   UNL A   1      46.589  35.284  30.296  1.00  0.00     0.001 A 
ATOM     67  C   UNL A   1      45.722  35.924  28.133  1.00  0.00     0.001 A 
ATOM     68  C   UNL A   1      46.403  36.247  29.305  1.00  0.00     0.000 A 
ENDBRANCH  49  63
BRANCH  50  69
ATOM     69  C   UNL A   1      41.347  24.647  27.665  1.00  0.00    -0.014 A 
ATOM     70  C   UNL A   1      40.263  24.488  26.790  1.00  0.00     0.009 A 
ATOM     71  C   UNL A   1      41.840  23.526  28.351  1.00  0.00     0.009 A 
ATOM     72  C   UNL A   1      39.669  23.234  26.623  1.00  0.00     0.001 A 
ATOM     73  C   UNL A   1      41.260  22.270  28.162  1.00  0.00     0.001 A 
ATOM     74  C   UNL A   1      40.169  22.127  27.306  1.00  0.00     0.000 A 
ENDBRANCH  50  69
BRANCH  62  75
ATOM     75  C   UNL A   1      47.410  27.498  25.789  1.00  0.00    -0.014 A 
ATOM     76  C   UNL A   1      47.495  27.623  24.393  1.00  0.00     0.009 A 
ATOM     77  C   UNL A   1      48.471  26.898  26.486  1.00  0.00     0.009 A 
ATOM     78  C   UNL A   1      48.609  27.133  23.709  1.00  0.00     0.001 A 
ATOM     79  C   UNL A   1      49.595  26.433  25.800  1.00  0.00     0.001 A 
ATOM     80  C   UNL A   1      49.659  26.543  24.413  1.00  0.00     0.000 A 
ENDBRANCH  62  75
ENDBRANCH  36  37
ENDBRANCH  29  31
ENDBRANCH  28  29
ENDBRANCH  27  28
ENDBRANCH  26  27
ENDBRANCH  25  26
ENDBRANCH   1  25
TORSDOF 19
ENDMDL
MODEL 3
REMARK VINA RESULT:      -9.8      3.891      9.192
REMARK SMILES CCc1ccc2c(c1)C=C(C(=O)OCCOCCOCCOC(=O)c1ccc(-c3c4nc(c(-c5ccccc5)c5ccc([nH]5)c(-c5ccccc5)c5nc(c(-c6ccccc6)c6ccc3[nH]6)C=C5)C=C4)cc1)[C@H](C(F)(F)F)O2
REMARK SMILES IDX 18 1 17 2 16 3 15 4 14 5 13 6 11 7 12 8 10 9 3 10 4 11 8 12
REMARK SMILES IDX 5 13 7 14 6 15 9 16 78 17 73 18 2 19 1 20 74 21 75 22 76 23
REMARK SMILES IDX 77 24 19 25 20 26 21 27 22 28 23 29 24 30 25 31 26 32 72 33
REMARK SMILES IDX 27 34 71 35 28 36 29 37 30 38 65 39 31 40 70 41 64 42 66 43
REMARK SMILES IDX 32 44 69 45 63 46 62 47 33 49 55 50 40 51 54 52 41 53 44 54
REMARK SMILES IDX 53 55 67 56 42 57 43 58 52 60 68 61 45 62 34 63 35 64 39 65
REMARK SMILES IDX 36 66 38 67 37 68 56 69 57 70 61 71 58 72 60 73 59 74 46 75
REMARK SMILES IDX 47 76 51 77 48 78 50 79 49 80
REMARK H PARENT 66 48 44 59
REMARK Flexibility Score: inf
ROOT
ATOM      1  C   UNL A   1      34.844  33.089  28.979  1.00  0.00     0.188 C 
ENDROOT
BRANCH   1   2
ATOM      2  C   UNL A   1      34.658  31.674  28.394  1.00  0.00     0.188 C 
BRANCH   2   3
ATOM      3  O   UNL A   1      33.734  31.643  27.320  1.00  0.00    -0.376 OA
BRANCH   3   4
ATOM      4  C   UNL A   1      32.916  30.492  27.198  1.00  0.00     0.202 C 
BRANCH   4   5
ATOM      5  C   UNL A   1      33.550  29.287  26.496  1.00  0.00     0.261 C 
BRANCH   5   6
ATOM      6  O   UNL A   1      32.815  28.778  25.373  1.00  0.00    -0.460 OA
BRANCH   6   7
ATOM      7  C   UNL A   1      32.212  27.576  25.504  1.00  0.00     0.338 C 
ATOM      8  O   UNL A   1      31.121  27.371  26.005  1.00  0.00    -0.246 OA
BRANCH   7   9
ATOM      9  C   UNL A   1      33.043  26.542  24.849  1.00  0.00     0.087 C 
ATOM     10  C   UNL A   1      36.402  23.059  24.958  1.00  0.00    -0.047 A 
ATOM     11  C   UNL A   1      35.961  22.637  23.692  1.00  0.00     0.007 A 
ATOM     12  C   UNL A   1      35.764  24.158  25.557  1.00  0.00     0.015 A 
ATOM     13  C   UNL A   1      34.905  23.282  23.046  1.00  0.00     0.047 A 
ATOM     14  C   UNL A   1      34.693  24.799  24.920  1.00  0.00     0.018 A 
ATOM     15  C   UNL A   1      34.283  24.365  23.656  1.00  0.00     0.128 A 
ATOM     16  C   UNL A   1      33.925  25.847  25.587  1.00  0.00     0.027 C 
ATOM     17  O   UNL A   1      33.223  24.929  22.995  1.00  0.00    -0.475 OA
ATOM     18  C   UNL A   1      32.948  26.311  23.356  1.00  0.00     0.316 C 
BRANCH  10  19
ATOM     19  C   UNL A   1      37.545  22.304  25.600  1.00  0.00     0.032 C 
ATOM     20  C   UNL A   1      37.876  20.938  25.013  1.00  0.00     0.009 C 
ENDBRANCH  10  19
BRANCH  18  21
ATOM     21  C   UNL A   1      31.664  26.753  22.638  1.00  0.00     0.430 C 
ATOM     22  F   UNL A   1      30.564  26.263  23.260  1.00  0.00    -0.167 F 
ATOM     23  F   UNL A   1      31.540  28.106  22.687  1.00  0.00    -0.167 F 
ATOM     24  F   UNL A   1      31.630  26.395  21.340  1.00  0.00    -0.167 F 
ENDBRANCH  18  21
ENDBRANCH   7   9
ENDBRANCH   6   7
ENDBRANCH   5   6
ENDBRANCH   4   5
ENDBRANCH   3   4
ENDBRANCH   2   3
ENDBRANCH   1   2
BRANCH   1  25
ATOM     25  O   UNL A   1      33.701  33.858  29.338  1.00  0.00    -0.376 OA
BRANCH  25  26
ATOM     26  C   UNL A   1      33.711  35.264  29.120  1.00  0.00     0.202 C 
BRANCH  26  27
ATOM     27  C   UNL A   1      32.679  36.108  29.874  1.00  0.00     0.261 C 
BRANCH  27  28
ATOM     28  O   UNL A   1      33.103  36.510  31.187  1.00  0.00    -0.460 OA
BRANCH  28  29
ATOM     29  C   UNL A   1      32.724  35.688  32.195  1.00  0.00     0.338 C 
ATOM     30  O   UNL A   1      31.591  35.435  32.565  1.00  0.00    -0.246 OA
BRANCH  29  31
ATOM     31  C   UNL A   1      33.903  34.969  32.717  1.00  0.00     0.060 A 
ATOM     32  C   UNL A   1      35.163  35.562  32.557  1.00  0.00     0.016 A 
ATOM     33  C   UNL A   1      33.784  33.701  33.291  1.00  0.00     0.016 A 
ATOM     34  C   UNL A   1      36.313  34.882  32.956  1.00  0.00     0.010 A 
ATOM     35  C   UNL A   1      34.942  33.010  33.667  1.00  0.00     0.010 A 
ATOM     36  C   UNL A   1      36.210  33.588  33.480  1.00  0.00    -0.014 A 
BRANCH  36  37
ATOM     37  C   UNL A   1      37.433  32.780  33.698  1.00  0.00     0.031 A 
ATOM     38  C   UNL A   1      38.241  33.003  34.945  1.00  0.00     0.074 A 
ATOM     39  C   UNL A   1      37.821  31.857  32.800  1.00  0.00     0.049 A 
ATOM     40  N   UNL A   1      39.371  32.451  35.310  1.00  0.00    -0.248 NA
ATOM     41  C   UNL A   1      37.703  33.974  35.910  1.00  0.00     0.031 C 
ATOM     42  C   UNL A   1      37.100  31.505  31.579  1.00  0.00     0.029 A 
ATOM     43  N   UNL A   1      38.934  31.054  32.781  1.00  0.00    -0.354 N 
ATOM     44  C   UNL A   1      39.678  33.007  36.545  1.00  0.00     0.074 A 
ATOM     45  C   UNL A   1      38.629  33.955  36.856  1.00  0.00     0.031 C 
ATOM     46  C   UNL A   1      37.800  30.566  30.918  1.00  0.00     0.029 A 
ATOM     47  C   UNL A   1      39.031  30.278  31.653  1.00  0.00     0.049 A 
ATOM     48  H   UNL A   1      39.599  31.036  33.507  1.00  0.00     0.167 HD
ATOM     49  C   UNL A   1      40.738  32.755  37.348  1.00  0.00     0.031 A 
ATOM     50  C   UNL A   1      40.014  29.451  31.248  1.00  0.00     0.031 A 
ATOM     51  C   UNL A   1      41.800  31.838  37.032  1.00  0.00     0.049 A 
ATOM     52  C   UNL A   1      41.235  29.268  32.109  1.00  0.00     0.074 A 
ATOM     53  C   UNL A   1      42.912  31.512  37.787  1.00  0.00     0.029 A 
ATOM     54  N   UNL A   1      41.887  31.112  35.855  1.00  0.00    -0.354 N 
ATOM     55  N   UNL A   1      41.505  29.782  33.285  1.00  0.00    -0.248 NA
ATOM     56  C   UNL A   1      42.291  28.387  31.583  1.00  0.00     0.031 C 
ATOM     57  C   UNL A   1      43.701  30.627  37.044  1.00  0.00     0.029 A 
ATOM     58  C   UNL A   1      43.052  30.364  35.849  1.00  0.00     0.049 A 
ATOM     59  H   UNL A   1      41.220  31.126  35.131  1.00  0.00     0.167 HD
ATOM     60  C   UNL A   1      42.745  29.271  33.649  1.00  0.00     0.074 A 
ATOM     61  C   UNL A   1      43.170  28.396  32.576  1.00  0.00     0.031 C 
ATOM     62  C   UNL A   1      43.466  29.502  34.773  1.00  0.00     0.031 A 
BRANCH  49  63
ATOM     63  C   UNL A   1      40.818  33.519  38.638  1.00  0.00    -0.014 A 
ATOM     64  C   UNL A   1      40.273  33.003  39.824  1.00  0.00     0.009 A 
ATOM     65  C   UNL A   1      41.469  34.762  38.671  1.00  0.00     0.009 A 
ATOM     66  C   UNL A   1      40.353  33.732  41.012  1.00  0.00     0.001 A 
ATOM     67  C   UNL A   1      41.567  35.478  39.865  1.00  0.00     0.001 A 
ATOM     68  C   UNL A   1      41.002  34.966  41.032  1.00  0.00     0.000 A 
ENDBRANCH  49  63
BRANCH  50  69
ATOM     69  C   UNL A   1      39.911  28.754  29.940  1.00  0.00    -0.014 A 
ATOM     70  C   UNL A   1      39.448  27.431  29.870  1.00  0.00     0.009 A 
ATOM     71  C   UNL A   1      40.306  29.400  28.759  1.00  0.00     0.009 A 
ATOM     72  C   UNL A   1      39.406  26.763  28.644  1.00  0.00     0.001 A 
ATOM     73  C   UNL A   1      40.238  28.737  27.532  1.00  0.00     0.001 A 
ATOM     74  C   UNL A   1      39.797  27.417  27.477  1.00  0.00     0.000 A 
ENDBRANCH  50  69
BRANCH  62  75
ATOM     75  C   UNL A   1      44.776  28.781  34.913  1.00  0.00    -0.014 A 
ATOM     76  C   UNL A   1      44.835  27.471  35.413  1.00  0.00     0.009 A 
ATOM     77  C   UNL A   1      45.963  29.407  34.498  1.00  0.00     0.009 A 
ATOM     78  C   UNL A   1      46.062  26.812  35.519  1.00  0.00     0.001 A 
ATOM     79  C   UNL A   1      47.184  28.735  34.582  1.00  0.00     0.001 A 
ATOM     80  C   UNL A   1      47.233  27.442  35.099  1.00  0.00     0.000 A 
ENDBRANCH  62  75
ENDBRANCH  36  37
ENDBRANCH  29  31
ENDBRANCH  28  29
ENDBRANCH  27  28
ENDBRANCH  26  27
ENDBRANCH  25  26
ENDBRANCH   1  25
TORSDOF 19
ENDMDL
