MODEL 1
REMARK VINA RESULT:      -8.9      0.000      0.000
REMARK SMILES C[C@@H]1CC[C@@H](C(=O)OCCOCCOCCOC(=O)c2ccc(-c3c4nc(c(-c5ccccc5)c5ccc([nH]5)c(-c5ccccc5)c5nc(c(-c6ccccc6)c6ccc3[nH]6)C=C5)C=C4)cc2)[C@H](SCC[NH+](C)C)C1
REMARK SMILES IDX 12 1 11 2 10 3 9 4 8 5 6 6 7 7 5 8 1 9 2 10 3 11 75 12 4 13
REMARK SMILES IDX 68 14 69 15 70 16 71 17 72 18 73 19 74 20 13 22 14 23 15 24
REMARK SMILES IDX 16 25 17 26 18 27 19 28 20 29 21 30 67 31 22 32 66 33 23 34
REMARK SMILES IDX 24 35 25 36 60 37 26 38 65 39 59 40 61 41 27 42 64 43 58 44
REMARK SMILES IDX 57 45 28 47 50 48 35 49 49 50 36 51 39 52 48 53 62 54 37 55
REMARK SMILES IDX 38 56 47 58 63 59 40 60 29 61 30 62 34 63 31 64 33 65 32 66
REMARK SMILES IDX 51 67 52 68 56 69 53 70 55 71 54 72 41 73 42 74 46 75 43 76
REMARK SMILES IDX 45 77 44 78
REMARK H PARENT 72 21 61 46 39 57
REMARK Flexibility Score: inf
ROOT
ATOM      1  C   UNL A   1      33.041  28.271  25.841  1.00  0.00     0.188 C 
ENDROOT
BRANCH   1   2
ATOM      2  O   UNL A   1      33.955  27.648  24.969  1.00  0.00    -0.376 OA
BRANCH   2   3
ATOM      3  C   UNL A   1      33.631  27.793  23.581  1.00  0.00     0.202 C 
BRANCH   3   4
ATOM      4  C   UNL A   1      32.669  26.758  22.916  1.00  0.00     0.261 C 
BRANCH   4   5
ATOM      5  O   UNL A   1      32.452  25.533  23.682  1.00  0.00    -0.463 OA
BRANCH   5   6
ATOM      6  C   UNL A   1      33.123  24.392  23.276  1.00  0.00     0.310 C 
ATOM      7  O   UNL A   1      33.567  24.248  22.145  1.00  0.00    -0.252 OA
BRANCH   6   8
ATOM      8  C   UNL A   1      33.286  23.343  24.441  1.00  0.00     0.112 C 
ATOM      9  C   UNL A   1      37.484  23.050  25.549  1.00  0.00     0.007 C 
ATOM     10  C   UNL A   1      36.292  23.627  24.768  1.00  0.00    -0.013 C 
ATOM     11  C   UNL A   1      35.316  24.472  25.601  1.00  0.00     0.004 C 
ATOM     12  C   UNL A   1      35.668  22.603  23.818  1.00  0.00     0.018 C 
ATOM     13  C   UNL A   1      33.815  24.130  25.617  1.00  0.00     0.017 C 
ATOM     14  C   UNL A   1      34.222  22.140  24.110  1.00  0.00     0.061 C 
BRANCH  14  15
ATOM     15  S   UNL A   1      34.343  20.351  24.872  1.00  0.00    -0.152 SA
BRANCH  15  16
ATOM     16  C   UNL A   1      32.814  19.258  24.855  1.00  0.00     0.131 C 
BRANCH  16  17
ATOM     17  C   UNL A   1      32.814  17.852  25.619  1.00  0.00     0.272 C 
BRANCH  17  18
ATOM     18  N   UNL A   1      33.377  16.683  24.906  1.00  0.00    -0.339 N 
ATOM     19  C   UNL A   1      32.756  15.396  25.211  1.00  0.00     0.332 C 
ATOM     20  C   UNL A   1      33.274  16.929  23.507  1.00  0.00     0.332 C 
ATOM     21  H   UNL A   1      34.341  16.594  25.228  1.00  0.00     0.347 HD
ENDBRANCH  17  18
ENDBRANCH  16  17
ENDBRANCH  15  16
ENDBRANCH  14  15
ENDBRANCH   6   8
ENDBRANCH   5   6
ENDBRANCH   4   5
ENDBRANCH   3   4
ENDBRANCH   2   3
ENDBRANCH   1   2
BRANCH   1  22
ATOM     22  C   UNL A   1      33.070  29.791  25.898  1.00  0.00     0.188 C 
BRANCH  22  23
ATOM     23  O   UNL A   1      32.470  30.458  26.984  1.00  0.00    -0.376 OA
BRANCH  23  24
ATOM     24  C   UNL A   1      31.707  31.632  26.708  1.00  0.00     0.202 C 
BRANCH  24  25
ATOM     25  C   UNL A   1      32.237  33.082  26.927  1.00  0.00     0.261 C 
BRANCH  25  26
ATOM     26  O   UNL A   1      32.099  33.702  28.221  1.00  0.00    -0.460 OA
BRANCH  26  27
ATOM     27  C   UNL A   1      33.025  34.627  28.558  1.00  0.00     0.338 C 
ATOM     28  O   UNL A   1      32.806  35.817  28.750  1.00  0.00    -0.246 OA
BRANCH  27  29
ATOM     29  C   UNL A   1      34.326  33.961  28.891  1.00  0.00     0.060 A 
ATOM     30  C   UNL A   1      34.319  33.006  29.918  1.00  0.00     0.016 A 
ATOM     31  C   UNL A   1      35.526  34.212  28.214  1.00  0.00     0.016 A 
ATOM     32  C   UNL A   1      35.498  32.347  30.301  1.00  0.00     0.010 A 
ATOM     33  C   UNL A   1      36.715  33.563  28.615  1.00  0.00     0.010 A 
ATOM     34  C   UNL A   1      36.718  32.645  29.682  1.00  0.00    -0.014 A 
BRANCH  34  35
ATOM     35  C   UNL A   1      38.002  32.166  30.285  1.00  0.00     0.031 A 
ATOM     36  C   UNL A   1      38.641  30.922  29.716  1.00  0.00     0.074 A 
ATOM     37  C   UNL A   1      38.634  32.808  31.287  1.00  0.00     0.049 A 
ATOM     38  N   UNL A   1      39.721  30.287  30.102  1.00  0.00    -0.248 NA
ATOM     39  C   UNL A   1      37.971  30.321  28.554  1.00  0.00     0.031 C 
ATOM     40  C   UNL A   1      38.205  34.059  31.902  1.00  0.00     0.029 A 
ATOM     41  N   UNL A   1      39.791  32.482  31.963  1.00  0.00    -0.354 N 
ATOM     42  C   UNL A   1      39.853  29.207  29.237  1.00  0.00     0.074 A 
ATOM     43  C   UNL A   1      38.737  29.268  28.317  1.00  0.00     0.031 C 
ATOM     44  C   UNL A   1      39.087  34.398  32.863  1.00  0.00     0.029 A 
ATOM     45  C   UNL A   1      40.121  33.368  32.965  1.00  0.00     0.049 A 
ATOM     46  H   UNL A   1      40.332  31.689  31.750  1.00  0.00     0.167 HD
ATOM     47  C   UNL A   1      40.806  28.242  29.206  1.00  0.00     0.031 A 
ATOM     48  C   UNL A   1      41.120  33.342  33.873  1.00  0.00     0.031 A 
ATOM     49  C   UNL A   1      41.904  28.135  30.130  1.00  0.00     0.049 A 
ATOM     50  C   UNL A   1      42.101  32.191  33.897  1.00  0.00     0.074 A 
ATOM     51  C   UNL A   1      42.894  27.167  30.178  1.00  0.00     0.029 A 
ATOM     52  N   UNL A   1      42.152  29.012  31.172  1.00  0.00    -0.354 N 
ATOM     53  N   UNL A   1      42.207  31.173  33.079  1.00  0.00    -0.248 NA
ATOM     54  C   UNL A   1      43.097  32.186  34.982  1.00  0.00     0.031 C 
ATOM     55  C   UNL A   1      43.703  27.421  31.291  1.00  0.00     0.029 A 
ATOM     56  C   UNL A   1      43.262  28.591  31.888  1.00  0.00     0.049 A 
ATOM     57  H   UNL A   1      41.620  29.814  31.374  1.00  0.00     0.167 HD
ATOM     58  C   UNL A   1      43.295  30.430  33.532  1.00  0.00     0.074 A 
ATOM     59  C   UNL A   1      43.829  31.121  34.684  1.00  0.00     0.031 C 
ATOM     60  C   UNL A   1      43.803  29.276  33.033  1.00  0.00     0.031 A 
BRANCH  47  61
ATOM     61  C   UNL A   1      40.660  27.173  28.157  1.00  0.00    -0.014 A 
ATOM     62  C   UNL A   1      39.887  26.023  28.385  1.00  0.00     0.009 A 
ATOM     63  C   UNL A   1      41.290  27.334  26.913  1.00  0.00     0.009 A 
ATOM     64  C   UNL A   1      39.783  25.038  27.401  1.00  0.00     0.001 A 
ATOM     65  C   UNL A   1      41.158  26.363  25.920  1.00  0.00     0.001 A 
ATOM     66  C   UNL A   1      40.414  25.211  26.170  1.00  0.00     0.000 A 
ENDBRANCH  47  61
BRANCH  48  67
ATOM     67  C   UNL A   1      41.247  34.424  34.893  1.00  0.00    -0.014 A 
ATOM     68  C   UNL A   1      40.537  34.356  36.104  1.00  0.00     0.009 A 
ATOM     69  C   UNL A   1      42.017  35.568  34.630  1.00  0.00     0.009 A 
ATOM     70  C   UNL A   1      40.571  35.421  37.010  1.00  0.00     0.001 A 
ATOM     71  C   UNL A   1      42.078  36.615  35.553  1.00  0.00     0.001 A 
ATOM     72  C   UNL A   1      41.346  36.547  36.736  1.00  0.00     0.000 A 
ENDBRANCH  48  67
BRANCH  60  73
ATOM     73  C   UNL A   1      45.030  28.698  33.691  1.00  0.00    -0.014 A 
ATOM     74  C   UNL A   1      44.937  27.758  34.730  1.00  0.00     0.009 A 
ATOM     75  C   UNL A   1      46.304  29.060  33.223  1.00  0.00     0.009 A 
ATOM     76  C   UNL A   1      46.093  27.221  35.307  1.00  0.00     0.001 A 
ATOM     77  C   UNL A   1      47.456  28.497  33.778  1.00  0.00     0.001 A 
ATOM     78  C   UNL A   1      47.349  27.586  34.825  1.00  0.00     0.000 A 
ENDBRANCH  60  73
ENDBRANCH  34  35
ENDBRANCH  27  29
ENDBRANCH  26  27
ENDBRANCH  25  26
ENDBRANCH  24  25
ENDBRANCH  23  24
ENDBRANCH  22  23
ENDBRANCH   1  22
TORSDOF 21
ENDMDL
MODEL 2
REMARK VINA RESULT:      -8.8      4.177      9.375
REMARK SMILES C[C@@H]1CC[C@@H](C(=O)OCCOCCOCCOC(=O)c2ccc(-c3c4nc(c(-c5ccccc5)c5ccc([nH]5)c(-c5ccccc5)c5nc(c(-c6ccccc6)c6ccc3[nH]6)C=C5)C=C4)cc2)[C@H](SCC[NH+](C)C)C1
REMARK SMILES IDX 12 1 11 2 10 3 9 4 8 5 6 6 7 7 5 8 1 9 2 10 3 11 75 12 4 13
REMARK SMILES IDX 68 14 69 15 70 16 71 17 72 18 73 19 74 20 13 22 14 23 15 24
REMARK SMILES IDX 16 25 17 26 18 27 19 28 20 29 21 30 67 31 22 32 66 33 23 34
REMARK SMILES IDX 24 35 25 36 60 37 26 38 65 39 59 40 61 41 27 42 64 43 58 44
REMARK SMILES IDX 57 45 28 47 50 48 35 49 49 50 36 51 39 52 48 53 62 54 37 55
REMARK SMILES IDX 38 56 47 58 63 59 40 60 29 61 30 62 34 63 31 64 33 65 32 66
REMARK SMILES IDX 51 67 52 68 56 69 53 70 55 71 54 72 41 73 42 74 46 75 43 76
REMARK SMILES IDX 45 77 44 78
REMARK H PARENT 72 21 61 46 39 57
REMARK Flexibility Score: inf
ROOT
ATOM      1  C   UNL A   1      34.722  21.674  25.263  1.00  0.00     0.188 C 
ENDROOT
BRANCH   1   2
ATOM      2  O   UNL A   1      34.001  20.890  24.341  1.00  0.00    -0.376 OA
BRANCH   2   3
ATOM      3  C   UNL A   1      32.737  21.448  23.960  1.00  0.00     0.202 C 
BRANCH   3   4
ATOM      4  C   UNL A   1      32.699  22.543  22.847  1.00  0.00     0.261 C 
BRANCH   4   5
ATOM      5  O   UNL A   1      32.230  23.855  23.284  1.00  0.00    -0.463 OA
BRANCH   5   6
ATOM      6  C   UNL A   1      33.174  24.854  23.452  1.00  0.00     0.310 C 
ATOM      7  O   UNL A   1      34.338  24.626  23.749  1.00  0.00    -0.252 OA
BRANCH   6   8
ATOM      8  C   UNL A   1      32.587  26.289  23.168  1.00  0.00     0.112 C 
ATOM      9  C   UNL A   1      31.719  28.273  26.942  1.00  0.00     0.007 C 
ATOM     10  C   UNL A   1      32.251  27.126  26.067  1.00  0.00    -0.013 C 
ATOM     11  C   UNL A   1      33.538  27.445  25.289  1.00  0.00     0.004 C 
ATOM     12  C   UNL A   1      31.139  26.423  25.288  1.00  0.00     0.018 C 
ATOM     13  C   UNL A   1      33.585  27.255  23.762  1.00  0.00     0.017 C 
ATOM     14  C   UNL A   1      31.160  26.537  23.746  1.00  0.00     0.061 C 
BRANCH  14  15
ATOM     15  S   UNL A   1      29.771  27.811  23.254  1.00  0.00    -0.152 SA
BRANCH  15  16
ATOM     16  C   UNL A   1      30.266  29.582  22.863  1.00  0.00     0.131 C 
BRANCH  16  17
ATOM     17  C   UNL A   1      29.482  30.415  21.745  1.00  0.00     0.272 C 
BRANCH  17  18
ATOM     18  N   UNL A   1      29.151  31.826  22.047  1.00  0.00    -0.339 N 
ATOM     19  C   UNL A   1      28.131  32.434  21.196  1.00  0.00     0.332 C 
ATOM     20  C   UNL A   1      28.728  31.899  23.405  1.00  0.00     0.332 C 
ATOM     21  H   UNL A   1      30.001  32.361  21.863  1.00  0.00     0.347 HD
ENDBRANCH  17  18
ENDBRANCH  16  17
ENDBRANCH  15  16
ENDBRANCH  14  15
ENDBRANCH   6   8
ENDBRANCH   5   6
ENDBRANCH   4   5
ENDBRANCH   3   4
ENDBRANCH   2   3
ENDBRANCH   1   2
BRANCH   1  22
ATOM     22  C   UNL A   1      36.211  21.842  25.006  1.00  0.00     0.188 C 
BRANCH  22  23
ATOM     23  O   UNL A   1      37.044  20.705  24.982  1.00  0.00    -0.376 OA
BRANCH  23  24
ATOM     24  C   UNL A   1      38.408  20.867  25.371  1.00  0.00     0.202 C 
BRANCH  24  25
ATOM     25  C   UNL A   1      39.426  19.692  25.475  1.00  0.00     0.261 C 
BRANCH  25  26
ATOM     26  O   UNL A   1      40.454  19.729  26.484  1.00  0.00    -0.460 OA
BRANCH  26  27
ATOM     27  C   UNL A   1      41.716  19.975  26.064  1.00  0.00     0.338 C 
ATOM     28  O   UNL A   1      42.362  19.269  25.299  1.00  0.00    -0.246 OA
BRANCH  27  29
ATOM     29  C   UNL A   1      42.140  21.351  26.479  1.00  0.00     0.060 A 
ATOM     30  C   UNL A   1      42.162  21.635  27.852  1.00  0.00     0.016 A 
ATOM     31  C   UNL A   1      42.546  22.346  25.580  1.00  0.00     0.016 A 
ATOM     32  C   UNL A   1      42.533  22.905  28.322  1.00  0.00     0.010 A 
ATOM     33  C   UNL A   1      42.899  23.628  26.053  1.00  0.00     0.010 A 
ATOM     34  C   UNL A   1      42.868  23.929  27.428  1.00  0.00    -0.014 A 
BRANCH  34  35
ATOM     35  C   UNL A   1      42.973  25.342  27.912  1.00  0.00     0.031 A 
ATOM     36  C   UNL A   1      44.342  25.891  28.231  1.00  0.00     0.074 A 
ATOM     37  C   UNL A   1      41.910  26.160  28.044  1.00  0.00     0.049 A 
ATOM     38  N   UNL A   1      44.681  27.063  28.713  1.00  0.00    -0.248 NA
ATOM     39  C   UNL A   1      45.479  24.997  27.968  1.00  0.00     0.031 C 
ATOM     40  C   UNL A   1      40.531  25.826  27.707  1.00  0.00     0.029 A 
ATOM     41  N   UNL A   1      41.837  27.460  28.500  1.00  0.00    -0.354 N 
ATOM     42  C   UNL A   1      46.067  27.041  28.818  1.00  0.00     0.074 A 
ATOM     43  C   UNL A   1      46.501  25.737  28.364  1.00  0.00     0.031 C 
ATOM     44  C   UNL A   1      39.747  26.892  27.965  1.00  0.00     0.029 A 
ATOM     45  C   UNL A   1      40.560  27.972  28.527  1.00  0.00     0.049 A 
ATOM     46  H   UNL A   1      42.627  27.975  28.781  1.00  0.00     0.167 HD
ATOM     47  C   UNL A   1      46.910  28.007  29.259  1.00  0.00     0.031 A 
ATOM     48  C   UNL A   1      40.092  29.158  28.973  1.00  0.00     0.031 A 
ATOM     49  C   UNL A   1      46.505  29.297  29.751  1.00  0.00     0.049 A 
ATOM     50  C   UNL A   1      41.038  30.174  29.574  1.00  0.00     0.074 A 
ATOM     51  C   UNL A   1      47.301  30.319  30.241  1.00  0.00     0.029 A 
ATOM     52  N   UNL A   1      45.196  29.741  29.829  1.00  0.00    -0.354 N 
ATOM     53  N   UNL A   1      42.344  30.135  29.675  1.00  0.00    -0.248 NA
ATOM     54  C   UNL A   1      40.436  31.398  30.130  1.00  0.00     0.031 C 
ATOM     55  C   UNL A   1      46.469  31.354  30.679  1.00  0.00     0.029 A 
ATOM     56  C   UNL A   1      45.160  31.008  30.389  1.00  0.00     0.049 A 
ATOM     57  H   UNL A   1      44.408  29.231  29.533  1.00  0.00     0.167 HD
ATOM     58  C   UNL A   1      42.717  31.336  30.275  1.00  0.00     0.074 A 
ATOM     59  C   UNL A   1      41.505  32.092  30.498  1.00  0.00     0.031 C 
ATOM     60  C   UNL A   1      43.958  31.770  30.609  1.00  0.00     0.031 A 
BRANCH  47  61
ATOM     61  C   UNL A   1      48.377  27.672  29.286  1.00  0.00    -0.014 A 
ATOM     62  C   UNL A   1      48.980  27.114  30.424  1.00  0.00     0.009 A 
ATOM     63  C   UNL A   1      49.160  27.899  28.143  1.00  0.00     0.009 A 
ATOM     64  C   UNL A   1      50.347  26.828  30.429  1.00  0.00     0.001 A 
ATOM     65  C   UNL A   1      50.518  27.583  28.139  1.00  0.00     0.001 A 
ATOM     66  C   UNL A   1      51.113  27.059  29.286  1.00  0.00     0.000 A 
ENDBRANCH  47  61
BRANCH  48  67
ATOM     67  C   UNL A   1      38.633  29.468  28.921  1.00  0.00    -0.014 A 
ATOM     68  C   UNL A   1      37.813  29.251  30.042  1.00  0.00     0.009 A 
ATOM     69  C   UNL A   1      38.038  29.907  27.728  1.00  0.00     0.009 A 
ATOM     70  C   UNL A   1      36.429  29.438  29.958  1.00  0.00     0.001 A 
ATOM     71  C   UNL A   1      36.660  30.127  27.658  1.00  0.00     0.001 A 
ATOM     72  C   UNL A   1      35.855  29.880  28.767  1.00  0.00     0.000 A 
ENDBRANCH  48  67
BRANCH  60  73
ATOM     73  C   UNL A   1      44.090  33.145  31.211  1.00  0.00    -0.014 A 
ATOM     74  C   UNL A   1      44.104  33.345  32.601  1.00  0.00     0.009 A 
ATOM     75  C   UNL A   1      44.260  34.257  30.369  1.00  0.00     0.009 A 
ATOM     76  C   UNL A   1      44.252  34.632  33.132  1.00  0.00     0.001 A 
ATOM     77  C   UNL A   1      44.440  35.536  30.902  1.00  0.00     0.001 A 
ATOM     78  C   UNL A   1      44.427  35.723  32.282  1.00  0.00     0.000 A 
ENDBRANCH  60  73
ENDBRANCH  34  35
ENDBRANCH  27  29
ENDBRANCH  26  27
ENDBRANCH  25  26
ENDBRANCH  24  25
ENDBRANCH  23  24
ENDBRANCH  22  23
ENDBRANCH   1  22
TORSDOF 21
ENDMDL
MODEL 3
REMARK VINA RESULT:      -8.8      4.253      9.478
REMARK SMILES C[C@@H]1CC[C@@H](C(=O)OCCOCCOCCOC(=O)c2ccc(-c3c4nc(c(-c5ccccc5)c5ccc([nH]5)c(-c5ccccc5)c5nc(c(-c6ccccc6)c6ccc3[nH]6)C=C5)C=C4)cc2)[C@H](SCC[NH+](C)C)C1
REMARK SMILES IDX 12 1 11 2 10 3 9 4 8 5 6 6 7 7 5 8 1 9 2 10 3 11 75 12 4 13
REMARK SMILES IDX 68 14 69 15 70 16 71 17 72 18 73 19 74 20 13 22 14 23 15 24
REMARK SMILES IDX 16 25 17 26 18 27 19 28 20 29 21 30 67 31 22 32 66 33 23 34
REMARK SMILES IDX 24 35 25 36 60 37 26 38 65 39 59 40 61 41 27 42 64 43 58 44
REMARK SMILES IDX 57 45 28 47 50 48 35 49 49 50 36 51 39 52 48 53 62 54 37 55
REMARK SMILES IDX 38 56 47 58 63 59 40 60 29 61 30 62 34 63 31 64 33 65 32 66
REMARK SMILES IDX 51 67 52 68 56 69 53 70 55 71 54 72 41 73 42 74 46 75 43 76
REMARK SMILES IDX 45 77 44 78
REMARK H PARENT 72 21 61 46 39 57
REMARK Flexibility Score: inf
ROOT
ATOM      1  C   UNL A   1      35.899  22.361  25.914  1.00  0.00     0.188 C 
ENDROOT
BRANCH   1   2
ATOM      2  O   UNL A   1      34.727  21.630  25.638  1.00  0.00    -0.376 OA
BRANCH   2   3
ATOM      3  C   UNL A   1      33.890  21.413  26.780  1.00  0.00     0.202 C 
BRANCH   3   4
ATOM      4  C   UNL A   1      32.802  22.477  27.134  1.00  0.00     0.261 C 
BRANCH   4   5
ATOM      5  O   UNL A   1      32.264  23.216  25.994  1.00  0.00    -0.463 OA
BRANCH   5   6
ATOM      6  C   UNL A   1      32.589  24.557  25.884  1.00  0.00     0.310 C 
ATOM      7  O   UNL A   1      33.664  25.013  26.247  1.00  0.00    -0.252 OA
BRANCH   6   8
ATOM      8  C   UNL A   1      31.446  25.398  25.199  1.00  0.00     0.112 C 
ATOM      9  C   UNL A   1      32.335  25.875  20.966  1.00  0.00     0.007 C 
ATOM     10  C   UNL A   1      32.584  25.337  22.385  1.00  0.00    -0.013 C 
ATOM     11  C   UNL A   1      31.582  24.275  22.863  1.00  0.00     0.004 C 
ATOM     12  C   UNL A   1      32.925  26.449  23.378  1.00  0.00     0.018 C 
ATOM     13  C   UNL A   1      30.818  24.472  24.185  1.00  0.00     0.017 C 
ATOM     14  C   UNL A   1      31.924  26.720  24.524  1.00  0.00     0.061 C 
BRANCH  14  15
ATOM     15  S   UNL A   1      30.968  28.354  24.064  1.00  0.00    -0.152 SA
BRANCH  15  16
ATOM     16  C   UNL A   1      29.819  28.340  22.576  1.00  0.00     0.131 C 
BRANCH  16  17
ATOM     17  C   UNL A   1      29.068  29.676  22.118  1.00  0.00     0.272 C 
BRANCH  17  18
ATOM     18  N   UNL A   1      27.658  29.849  22.534  1.00  0.00    -0.339 N 
ATOM     19  C   UNL A   1      27.049  28.701  23.200  1.00  0.00     0.332 C 
ATOM     20  C   UNL A   1      27.589  30.979  23.397  1.00  0.00     0.332 C 
ATOM     21  H   UNL A   1      27.123  29.969  21.673  1.00  0.00     0.347 HD
ENDBRANCH  17  18
ENDBRANCH  16  17
ENDBRANCH  15  16
ENDBRANCH  14  15
ENDBRANCH   6   8
ENDBRANCH   5   6
ENDBRANCH   4   5
ENDBRANCH   3   4
ENDBRANCH   2   3
ENDBRANCH   1   2
BRANCH   1  22
ATOM     22  C   UNL A   1      37.182  21.879  25.254  1.00  0.00     0.188 C 
BRANCH  22  23
ATOM     23  O   UNL A   1      37.216  20.608  24.647  1.00  0.00    -0.376 OA
BRANCH  23  24
ATOM     24  C   UNL A   1      38.232  19.696  25.062  1.00  0.00     0.202 C 
BRANCH  24  25
ATOM     25  C   UNL A   1      39.572  20.134  25.728  1.00  0.00     0.261 C 
BRANCH  25  26
ATOM     26  O   UNL A   1      40.633  19.173  25.890  1.00  0.00    -0.460 OA
BRANCH  26  27
ATOM     27  C   UNL A   1      41.899  19.634  25.774  1.00  0.00     0.338 C 
ATOM     28  O   UNL A   1      42.777  19.137  25.079  1.00  0.00    -0.246 OA
BRANCH  27  29
ATOM     29  C   UNL A   1      42.024  20.974  26.433  1.00  0.00     0.060 A 
ATOM     30  C   UNL A   1      42.320  22.074  25.614  1.00  0.00     0.016 A 
ATOM     31  C   UNL A   1      41.828  21.190  27.803  1.00  0.00     0.016 A 
ATOM     32  C   UNL A   1      42.468  23.360  26.155  1.00  0.00     0.010 A 
ATOM     33  C   UNL A   1      41.998  22.481  28.349  1.00  0.00     0.010 A 
ATOM     34  C   UNL A   1      42.348  23.575  27.534  1.00  0.00    -0.014 A 
BRANCH  34  35
ATOM     35  C   UNL A   1      42.794  24.872  28.133  1.00  0.00     0.031 A 
ATOM     36  C   UNL A   1      41.756  25.940  28.384  1.00  0.00     0.074 A 
ATOM     37  C   UNL A   1      44.068  25.123  28.491  1.00  0.00     0.049 A 
ATOM     38  N   UNL A   1      41.907  27.159  28.842  1.00  0.00    -0.248 NA
ATOM     39  C   UNL A   1      40.365  25.579  28.077  1.00  0.00     0.031 C 
ATOM     40  C   UNL A   1      45.181  24.185  28.396  1.00  0.00     0.029 A 
ATOM     41  N   UNL A   1      44.637  26.264  29.019  1.00  0.00    -0.354 N 
ATOM     42  C   UNL A   1      40.631  27.712  28.870  1.00  0.00     0.074 A 
ATOM     43  C   UNL A   1      39.725  26.700  28.369  1.00  0.00     0.031 C 
ATOM     44  C   UNL A   1      46.298  24.784  28.852  1.00  0.00     0.029 A 
ATOM     45  C   UNL A   1      45.994  26.165  29.232  1.00  0.00     0.049 A 
ATOM     46  H   UNL A   1      44.120  27.076  29.225  1.00  0.00     0.167 HD
ATOM     47  C   UNL A   1      40.239  28.948  29.265  1.00  0.00     0.031 A 
ATOM     48  C   UNL A   1      46.891  27.081  29.656  1.00  0.00     0.031 A 
ATOM     49  C   UNL A   1      41.121  29.986  29.731  1.00  0.00     0.049 A 
ATOM     50  C   UNL A   1      46.449  28.492  29.975  1.00  0.00     0.074 A 
ATOM     51  C   UNL A   1      40.799  31.275  30.122  1.00  0.00     0.029 A 
ATOM     52  N   UNL A   1      42.494  29.863  29.857  1.00  0.00    -0.354 N 
ATOM     53  N   UNL A   1      45.242  29.001  29.988  1.00  0.00    -0.248 NA
ATOM     54  C   UNL A   1      47.504  29.456  30.333  1.00  0.00     0.031 C 
ATOM     55  C   UNL A   1      41.985  31.953  30.421  1.00  0.00     0.029 A 
ATOM     56  C   UNL A   1      43.037  31.062  30.290  1.00  0.00     0.049 A 
ATOM     57  H   UNL A   1      43.007  29.046  29.666  1.00  0.00     0.167 HD
ATOM     58  C   UNL A   1      45.391  30.328  30.382  1.00  0.00     0.074 A 
ATOM     59  C   UNL A   1      46.801  30.544  30.618  1.00  0.00     0.031 C 
ATOM     60  C   UNL A   1      44.439  31.283  30.533  1.00  0.00     0.031 A 
BRANCH  47  61
ATOM     61  C   UNL A   1      38.774  29.269  29.148  1.00  0.00    -0.014 A 
ATOM     62  C   UNL A   1      37.900  29.114  30.236  1.00  0.00     0.009 A 
ATOM     63  C   UNL A   1      38.267  29.758  27.933  1.00  0.00     0.009 A 
ATOM     64  C   UNL A   1      36.541  29.402  30.096  1.00  0.00     0.001 A 
ATOM     65  C   UNL A   1      36.915  30.076  27.806  1.00  0.00     0.001 A 
ATOM     66  C   UNL A   1      36.052  29.887  28.884  1.00  0.00     0.000 A 
ENDBRANCH  47  61
BRANCH  48  67
ATOM     67  C   UNL A   1      48.337  26.729  29.775  1.00  0.00    -0.014 A 
ATOM     68  C   UNL A   1      49.208  26.895  28.685  1.00  0.00     0.009 A 
ATOM     69  C   UNL A   1      48.837  26.153  30.954  1.00  0.00     0.009 A 
ATOM     70  C   UNL A   1      50.537  26.464  28.764  1.00  0.00     0.001 A 
ATOM     71  C   UNL A   1      50.174  25.756  31.042  1.00  0.00     0.001 A 
ATOM     72  C   UNL A   1      51.019  25.899  29.944  1.00  0.00     0.000 A 
ENDBRANCH  48  67
BRANCH  60  73
ATOM     73  C   UNL A   1      44.869  32.642  31.022  1.00  0.00    -0.014 A 
ATOM     74  C   UNL A   1      45.223  33.669  30.132  1.00  0.00     0.009 A 
ATOM     75  C   UNL A   1      44.865  32.917  32.400  1.00  0.00     0.009 A 
ATOM     76  C   UNL A   1      45.595  34.929  30.614  1.00  0.00     0.001 A 
ATOM     77  C   UNL A   1      45.205  34.186  32.877  1.00  0.00     0.001 A 
ATOM     78  C   UNL A   1      45.579  35.187  31.984  1.00  0.00     0.000 A 
ENDBRANCH  60  73
ENDBRANCH  34  35
ENDBRANCH  27  29
ENDBRANCH  26  27
ENDBRANCH  25  26
ENDBRANCH  24  25
ENDBRANCH  23  24
ENDBRANCH  22  23
ENDBRANCH   1  22
TORSDOF 21
ENDMDL
