MODEL 1
REMARK VINA RESULT:      -9.9      0.000      0.000
REMARK SMILES C#CCN(CC(=O)OCCOCCOCCOC(=O)c1ccc(-c2c3nc(c(-c4ccccc4)c4ccc([nH]4)c(-c4ccccc4)c4nc(c(-c5ccccc5)c5ccc2[nH]5)C=C4)C=C3)cc1)c1nnc(C)c2ccccc12
REMARK SMILES IDX 12 1 11 2 10 3 9 4 8 5 6 6 7 7 5 8 4 9 3 10 2 11 1 12 68 13
REMARK SMILES IDX 69 14 78 15 70 16 73 17 77 18 71 19 74 20 76 21 72 22 75 23
REMARK SMILES IDX 13 24 14 25 15 26 16 27 17 28 18 29 19 30 20 31 21 32 67 33
REMARK SMILES IDX 22 34 66 35 23 36 24 37 25 38 60 39 26 40 65 41 59 42 61 43
REMARK SMILES IDX 27 44 64 45 58 46 57 47 28 49 50 50 35 51 49 52 36 53 39 54
REMARK SMILES IDX 48 55 62 56 37 57 38 58 47 60 63 61 40 62 29 63 30 64 34 65
REMARK SMILES IDX 31 66 33 67 32 68 51 69 52 70 56 71 53 72 55 73 54 74 41 75
REMARK SMILES IDX 42 76 46 77 43 78 45 79 44 80
REMARK H PARENT 61 48 39 59
REMARK Flexibility Score: inf
ROOT
ATOM      1  C   UNL A   1      34.336  33.624  27.960  1.00  0.00     0.188 C 
ENDROOT
BRANCH   1   2
ATOM      2  O   UNL A   1      33.991  32.313  28.394  1.00  0.00    -0.376 OA
BRANCH   2   3
ATOM      3  C   UNL A   1      34.726  31.255  27.798  1.00  0.00     0.202 C 
BRANCH   3   4
ATOM      4  C   UNL A   1      33.902  30.022  27.386  1.00  0.00     0.261 C 
BRANCH   4   5
ATOM      5  O   UNL A   1      33.449  30.082  26.015  1.00  0.00    -0.462 OA
BRANCH   5   6
ATOM      6  C   UNL A   1      32.620  29.075  25.627  1.00  0.00     0.325 C 
ATOM      7  O   UNL A   1      31.443  28.996  25.972  1.00  0.00    -0.250 OA
BRANCH   6   8
ATOM      8  C   UNL A   1      33.205  28.133  24.569  1.00  0.00     0.241 C 
BRANCH   8   9
ATOM      9  N   UNL A   1      32.319  27.049  23.987  1.00  0.00    -0.332 N 
BRANCH   9  10
ATOM     10  C   UNL A   1      31.972  27.421  22.420  1.00  0.00     0.208 C 
BRANCH  10  11
ATOM     11  C   UNL A   1      30.631  28.128  22.536  1.00  0.00    -0.085 C 
ATOM     12  C   UNL A   1      29.481  28.734  22.635  1.00  0.00     0.006 C 
ENDBRANCH  10  11
ENDBRANCH   9  10
BRANCH   9  13
ATOM     13  C   UNL A   1      32.742  25.771  24.585  1.00  0.00     0.160 A 
ATOM     14  N   UNL A   1      31.834  24.878  24.932  1.00  0.00    -0.132 NA
ATOM     15  C   UNL A   1      33.891  24.986  24.354  1.00  0.00     0.028 A 
ATOM     16  N   UNL A   1      31.895  23.432  24.499  1.00  0.00    -0.153 NA
ATOM     17  C   UNL A   1      33.918  23.755  23.543  1.00  0.00     0.009 A 
ATOM     18  C   UNL A   1      34.694  24.765  25.503  1.00  0.00     0.013 A 
ATOM     19  C   UNL A   1      32.675  22.788  23.513  1.00  0.00     0.068 A 
ATOM     20  C   UNL A   1      35.269  23.433  23.292  1.00  0.00     0.011 A 
ATOM     21  C   UNL A   1      35.646  23.726  25.580  1.00  0.00     0.001 A 
ATOM     22  C   UNL A   1      31.990  21.169  22.348  1.00  0.00     0.069 C 
ATOM     23  C   UNL A   1      36.021  23.121  24.405  1.00  0.00     0.001 A 
ENDBRANCH   9  13
ENDBRANCH   8   9
ENDBRANCH   6   8
ENDBRANCH   5   6
ENDBRANCH   4   5
ENDBRANCH   3   4
ENDBRANCH   2   3
ENDBRANCH   1   2
BRANCH   1  24
ATOM     24  C   UNL A   1      33.644  34.834  28.560  1.00  0.00     0.188 C 
BRANCH  24  25
ATOM     25  O   UNL A   1      33.094  34.577  29.851  1.00  0.00    -0.376 OA
BRANCH  25  26
ATOM     26  C   UNL A   1      33.170  35.672  30.764  1.00  0.00     0.202 C 
BRANCH  26  27
ATOM     27  C   UNL A   1      33.512  35.258  32.209  1.00  0.00     0.261 C 
BRANCH  27  28
ATOM     28  O   UNL A   1      34.826  34.665  32.349  1.00  0.00    -0.460 OA
BRANCH  28  29
ATOM     29  C   UNL A   1      34.834  33.321  32.390  1.00  0.00     0.338 C 
ATOM     30  O   UNL A   1      33.830  32.635  32.540  1.00  0.00    -0.246 OA
BRANCH  29  31
ATOM     31  C   UNL A   1      36.150  32.656  32.106  1.00  0.00     0.060 A 
ATOM     32  C   UNL A   1      36.994  31.259  32.921  1.00  0.00     0.016 A 
ATOM     33  C   UNL A   1      36.912  33.386  30.615  1.00  0.00     0.016 A 
ATOM     34  C   UNL A   1      38.554  30.572  32.193  1.00  0.00     0.010 A 
ATOM     35  C   UNL A   1      38.476  32.787  29.977  1.00  0.00     0.010 A 
ATOM     36  C   UNL A   1      39.331  31.359  30.703  1.00  0.00    -0.014 A 
BRANCH  36  37
ATOM     37  C   UNL A   1      40.511  30.759  29.863  1.00  0.00     0.031 A 
ATOM     38  C   UNL A   1      40.487  29.377  29.134  1.00  0.00     0.074 A 
ATOM     39  C   UNL A   1      41.710  31.385  29.802  1.00  0.00     0.049 A 
ATOM     40  N   UNL A   1      41.501  28.664  28.661  1.00  0.00    -0.248 NA
ATOM     41  C   UNL A   1      39.212  28.664  28.976  1.00  0.00     0.031 C 
ATOM     42  C   UNL A   1      42.074  32.590  30.522  1.00  0.00     0.029 A 
ATOM     43  N   UNL A   1      42.855  31.107  29.077  1.00  0.00    -0.354 N 
ATOM     44  C   UNL A   1      40.994  27.412  28.284  1.00  0.00     0.074 A 
ATOM     45  C   UNL A   1      39.592  27.437  28.632  1.00  0.00     0.031 C 
ATOM     46  C   UNL A   1      43.223  33.079  30.053  1.00  0.00     0.029 A 
ATOM     47  C   UNL A   1      43.811  32.098  29.158  1.00  0.00     0.049 A 
ATOM     48  H   UNL A   1      42.976  30.281  28.554  1.00  0.00     0.167 HD
ATOM     49  C   UNL A   1      41.593  26.353  27.668  1.00  0.00     0.031 A 
ATOM     50  C   UNL A   1      45.055  32.218  28.657  1.00  0.00     0.031 A 
ATOM     51  C   UNL A   1      42.941  26.352  27.139  1.00  0.00     0.049 A 
ATOM     52  C   UNL A   1      45.671  31.084  27.903  1.00  0.00     0.074 A 
ATOM     53  C   UNL A   1      43.583  25.360  26.406  1.00  0.00     0.029 A 
ATOM     54  N   UNL A   1      43.834  27.403  27.233  1.00  0.00    -0.354 N 
ATOM     55  N   UNL A   1      45.163  29.915  27.613  1.00  0.00    -0.248 NA
ATOM     56  C   UNL A   1      47.053  31.278  27.441  1.00  0.00     0.031 C 
ATOM     57  C   UNL A   1      44.876  25.795  26.096  1.00  0.00     0.029 A 
ATOM     58  C   UNL A   1      45.019  27.082  26.581  1.00  0.00     0.049 A 
ATOM     59  H   UNL A   1      43.657  28.255  27.693  1.00  0.00     0.167 HD
ATOM     60  C   UNL A   1      46.162  29.234  26.933  1.00  0.00     0.074 A 
ATOM     61  C   UNL A   1      47.289  30.135  26.817  1.00  0.00     0.031 C 
ATOM     62  C   UNL A   1      46.146  27.964  26.465  1.00  0.00     0.031 A 
BRANCH  49  63
ATOM     63  C   UNL A   1      40.803  25.068  27.459  1.00  0.00    -0.014 A 
ATOM     64  C   UNL A   1      39.741  24.989  26.543  1.00  0.00     0.009 A 
ATOM     65  C   UNL A   1      41.224  23.878  28.087  1.00  0.00     0.009 A 
ATOM     66  C   UNL A   1      39.099  23.769  26.293  1.00  0.00     0.001 A 
ATOM     67  C   UNL A   1      40.606  22.653  27.807  1.00  0.00     0.001 A 
ATOM     68  C   UNL A   1      39.536  22.602  26.917  1.00  0.00     0.000 A 
ENDBRANCH  49  63
BRANCH  50  69
ATOM     69  C   UNL A   1      45.834  33.465  28.908  1.00  0.00    -0.014 A 
ATOM     70  C   UNL A   1      46.739  33.531  29.978  1.00  0.00     0.009 A 
ATOM     71  C   UNL A   1      45.703  34.578  28.061  1.00  0.00     0.009 A 
ATOM     72  C   UNL A   1      47.492  34.687  30.195  1.00  0.00     0.001 A 
ATOM     73  C   UNL A   1      46.497  35.709  28.247  1.00  0.00     0.001 A 
ATOM     74  C   UNL A   1      47.383  35.767  29.320  1.00  0.00     0.000 A 
ENDBRANCH  50  69
BRANCH  62  75
ATOM     75  C   UNL A   1      47.377  27.499  25.738  1.00  0.00    -0.014 A 
ATOM     76  C   UNL A   1      47.489  27.618  24.344  1.00  0.00     0.009 A 
ATOM     77  C   UNL A   1      48.418  26.889  26.455  1.00  0.00     0.009 A 
ATOM     78  C   UNL A   1      48.593  27.082  23.676  1.00  0.00     0.001 A 
ATOM     79  C   UNL A   1      49.534  26.384  25.788  1.00  0.00     0.001 A 
ATOM     80  C   UNL A   1      49.612  26.465  24.398  1.00  0.00     0.000 A 
ENDBRANCH  62  75
ENDBRANCH  36  37
ENDBRANCH  29  31
ENDBRANCH  28  29
ENDBRANCH  27  28
ENDBRANCH  26  27
ENDBRANCH  25  26
ENDBRANCH  24  25
ENDBRANCH   1  24
TORSDOF 21
ENDMDL
MODEL 2
REMARK VINA RESULT:      -9.9      0.353      5.785
REMARK SMILES C#CCN(CC(=O)OCCOCCOCCOC(=O)c1ccc(-c2c3nc(c(-c4ccccc4)c4ccc([nH]4)c(-c4ccccc4)c4nc(c(-c5ccccc5)c5ccc2[nH]5)C=C4)C=C3)cc1)c1nnc(C)c2ccccc12
REMARK SMILES IDX 12 1 11 2 10 3 9 4 8 5 6 6 7 7 5 8 4 9 3 10 2 11 1 12 68 13
REMARK SMILES IDX 69 14 78 15 70 16 73 17 77 18 71 19 74 20 76 21 72 22 75 23
REMARK SMILES IDX 13 24 14 25 15 26 16 27 17 28 18 29 19 30 20 31 21 32 67 33
REMARK SMILES IDX 22 34 66 35 23 36 24 37 25 38 60 39 26 40 65 41 59 42 61 43
REMARK SMILES IDX 27 44 64 45 58 46 57 47 28 49 50 50 35 51 49 52 36 53 39 54
REMARK SMILES IDX 48 55 62 56 37 57 38 58 47 60 63 61 40 62 29 63 30 64 34 65
REMARK SMILES IDX 31 66 33 67 32 68 51 69 52 70 56 71 53 72 55 73 54 74 41 75
REMARK SMILES IDX 42 76 46 77 43 78 45 79 44 80
REMARK H PARENT 61 48 39 59
REMARK Flexibility Score: inf
ROOT
ATOM      1  C   UNL A   1      34.410  33.539  28.031  1.00  0.00     0.188 C 
ENDROOT
BRANCH   1   2
ATOM      2  O   UNL A   1      34.038  32.269  28.555  1.00  0.00    -0.376 OA
BRANCH   2   3
ATOM      3  C   UNL A   1      34.769  31.159  28.056  1.00  0.00     0.202 C 
BRANCH   3   4
ATOM      4  C   UNL A   1      33.923  29.969  27.570  1.00  0.00     0.261 C 
BRANCH   4   5
ATOM      5  O   UNL A   1      33.616  30.037  26.160  1.00  0.00    -0.462 OA
BRANCH   5   6
ATOM      6  C   UNL A   1      32.711  29.124  25.713  1.00  0.00     0.325 C 
ATOM      7  O   UNL A   1      31.528  29.123  26.046  1.00  0.00    -0.250 OA
BRANCH   6   8
ATOM      8  C   UNL A   1      33.228  28.196  24.608  1.00  0.00     0.241 C 
BRANCH   8   9
ATOM      9  N   UNL A   1      32.303  27.124  24.062  1.00  0.00    -0.332 N 
BRANCH   9  10
ATOM     10  C   UNL A   1      31.912  27.493  22.505  1.00  0.00     0.208 C 
BRANCH  10  11
ATOM     11  C   UNL A   1      30.693  28.386  22.672  1.00  0.00    -0.085 C 
ATOM     12  C   UNL A   1      29.647  29.152  22.814  1.00  0.00     0.006 C 
ENDBRANCH  10  11
ENDBRANCH   9  10
BRANCH   9  13
ATOM     13  C   UNL A   1      32.722  25.843  24.656  1.00  0.00     0.160 A 
ATOM     14  N   UNL A   1      31.812  24.941  24.975  1.00  0.00    -0.132 NA
ATOM     15  C   UNL A   1      33.880  25.067  24.439  1.00  0.00     0.028 A 
ATOM     16  N   UNL A   1      31.890  23.500  24.528  1.00  0.00    -0.153 NA
ATOM     17  C   UNL A   1      33.930  23.845  23.616  1.00  0.00     0.009 A 
ATOM     18  C   UNL A   1      34.661  24.838  25.601  1.00  0.00     0.013 A 
ATOM     19  C   UNL A   1      32.694  22.871  23.551  1.00  0.00     0.068 A 
ATOM     20  C   UNL A   1      35.288  23.533  23.388  1.00  0.00     0.011 A 
ATOM     21  C   UNL A   1      35.618  23.804  25.686  1.00  0.00     0.001 A 
ATOM     22  C   UNL A   1      32.041  21.261  22.355  1.00  0.00     0.069 C 
ATOM     23  C   UNL A   1      36.019  23.214  24.513  1.00  0.00     0.001 A 
ENDBRANCH   9  13
ENDBRANCH   8   9
ENDBRANCH   6   8
ENDBRANCH   5   6
ENDBRANCH   4   5
ENDBRANCH   3   4
ENDBRANCH   2   3
ENDBRANCH   1   2
BRANCH   1  24
ATOM     24  C   UNL A   1      33.635  34.783  28.422  1.00  0.00     0.188 C 
BRANCH  24  25
ATOM     25  O   UNL A   1      32.847  34.601  29.597  1.00  0.00    -0.376 OA
BRANCH  25  26
ATOM     26  C   UNL A   1      32.913  35.676  30.535  1.00  0.00     0.202 C 
BRANCH  26  27
ATOM     27  C   UNL A   1      33.425  35.258  31.928  1.00  0.00     0.261 C 
BRANCH  27  28
ATOM     28  O   UNL A   1      34.764  34.706  31.915  1.00  0.00    -0.460 OA
BRANCH  28  29
ATOM     29  C   UNL A   1      34.822  33.370  32.052  1.00  0.00     0.338 C 
ATOM     30  O   UNL A   1      33.838  32.652  32.185  1.00  0.00    -0.246 OA
BRANCH  29  31
ATOM     31  C   UNL A   1      36.179  32.745  31.902  1.00  0.00     0.060 A 
ATOM     32  C   UNL A   1      37.016  31.437  32.860  1.00  0.00     0.016 A 
ATOM     33  C   UNL A   1      37.017  33.416  30.424  1.00  0.00     0.016 A 
ATOM     34  C   UNL A   1      38.649  30.774  32.285  1.00  0.00     0.010 A 
ATOM     35  C   UNL A   1      38.644  32.846  29.933  1.00  0.00     0.010 A 
ATOM     36  C   UNL A   1      39.500  31.502  30.806  1.00  0.00    -0.014 A 
BRANCH  36  37
ATOM     37  C   UNL A   1      40.759  30.904  30.088  1.00  0.00     0.031 A 
ATOM     38  C   UNL A   1      42.145  31.614  29.959  1.00  0.00     0.074 A 
ATOM     39  C   UNL A   1      40.686  29.729  29.420  1.00  0.00     0.049 A 
ATOM     40  N   UNL A   1      43.154  31.336  29.144  1.00  0.00    -0.248 NA
ATOM     41  C   UNL A   1      42.423  32.811  30.766  1.00  0.00     0.031 C 
ATOM     42  C   UNL A   1      39.485  28.940  29.222  1.00  0.00     0.029 A 
ATOM     43  N   UNL A   1      41.656  28.969  28.792  1.00  0.00    -0.354 N 
ATOM     44  C   UNL A   1      44.087  32.376  29.262  1.00  0.00     0.074 A 
ATOM     45  C   UNL A   1      43.505  33.322  30.187  1.00  0.00     0.031 C 
ATOM     46  C   UNL A   1      39.799  27.734  28.748  1.00  0.00     0.029 A 
ATOM     47  C   UNL A   1      41.203  27.734  28.376  1.00  0.00     0.049 A 
ATOM     48  H   UNL A   1      42.580  29.279  28.653  1.00  0.00     0.167 HD
ATOM     49  C   UNL A   1      45.326  32.533  28.712  1.00  0.00     0.031 A 
ATOM     50  C   UNL A   1      41.783  26.720  27.707  1.00  0.00     0.031 A 
ATOM     51  C   UNL A   1      46.022  31.533  27.930  1.00  0.00     0.049 A 
ATOM     52  C   UNL A   1      43.175  26.866  27.185  1.00  0.00     0.074 A 
ATOM     53  C   UNL A   1      47.318  31.572  27.431  1.00  0.00     0.029 A 
ATOM     54  N   UNL A   1      45.509  30.297  27.580  1.00  0.00    -0.354 N 
ATOM     55  N   UNL A   1      43.992  27.882  27.291  1.00  0.00    -0.248 NA
ATOM     56  C   UNL A   1      43.710  25.734  26.415  1.00  0.00     0.031 C 
ATOM     57  C   UNL A   1      47.572  30.380  26.743  1.00  0.00     0.029 A 
ATOM     58  C   UNL A   1      46.457  29.573  26.867  1.00  0.00     0.049 A 
ATOM     59  H   UNL A   1      44.605  29.978  27.803  1.00  0.00     0.167 HD
ATOM     60  C   UNL A   1      45.138  27.510  26.603  1.00  0.00     0.074 A 
ATOM     61  C   UNL A   1      44.927  26.162  26.120  1.00  0.00     0.031 C 
ATOM     62  C   UNL A   1      46.258  28.237  26.378  1.00  0.00     0.031 A 
BRANCH  49  63
ATOM     63  C   UNL A   1      46.089  33.829  28.953  1.00  0.00    -0.014 A 
ATOM     64  C   UNL A   1      47.114  33.921  29.909  1.00  0.00     0.009 A 
ATOM     65  C   UNL A   1      45.874  34.935  28.107  1.00  0.00     0.009 A 
ATOM     66  C   UNL A   1      47.872  35.092  30.037  1.00  0.00     0.001 A 
ATOM     67  C   UNL A   1      46.657  36.091  28.212  1.00  0.00     0.001 A 
ATOM     68  C   UNL A   1      47.649  36.172  29.185  1.00  0.00     0.000 A 
ENDBRANCH  49  63
BRANCH  50  69
ATOM     69  C   UNL A   1      41.007  25.474  27.438  1.00  0.00    -0.014 A 
ATOM     70  C   UNL A   1      41.265  24.307  28.173  1.00  0.00     0.009 A 
ATOM     71  C   UNL A   1      39.986  25.457  26.474  1.00  0.00     0.009 A 
ATOM     72  C   UNL A   1      40.518  23.149  27.944  1.00  0.00     0.001 A 
ATOM     73  C   UNL A   1      39.205  24.316  26.287  1.00  0.00     0.001 A 
ATOM     74  C   UNL A   1      39.479  23.160  27.015  1.00  0.00     0.000 A 
ENDBRANCH  50  69
BRANCH  62  75
ATOM     75  C   UNL A   1      47.359  27.558  25.614  1.00  0.00    -0.014 A 
ATOM     76  C   UNL A   1      48.362  26.829  26.273  1.00  0.00     0.009 A 
ATOM     77  C   UNL A   1      47.421  27.690  24.219  1.00  0.00     0.009 A 
ATOM     78  C   UNL A   1      49.436  26.296  25.556  1.00  0.00     0.001 A 
ATOM     79  C   UNL A   1      48.478  27.130  23.501  1.00  0.00     0.001 A 
ATOM     80  C   UNL A   1      49.493  26.449  24.172  1.00  0.00     0.000 A 
ENDBRANCH  62  75
ENDBRANCH  36  37
ENDBRANCH  29  31
ENDBRANCH  28  29
ENDBRANCH  27  28
ENDBRANCH  26  27
ENDBRANCH  25  26
ENDBRANCH  24  25
ENDBRANCH   1  24
TORSDOF 21
ENDMDL
MODEL 3
REMARK VINA RESULT:      -9.8      4.760      9.939
REMARK SMILES C#CCN(CC(=O)OCCOCCOCCOC(=O)c1ccc(-c2c3nc(c(-c4ccccc4)c4ccc([nH]4)c(-c4ccccc4)c4nc(c(-c5ccccc5)c5ccc2[nH]5)C=C4)C=C3)cc1)c1nnc(C)c2ccccc12
REMARK SMILES IDX 12 1 11 2 10 3 9 4 8 5 6 6 7 7 5 8 4 9 3 10 2 11 1 12 68 13
REMARK SMILES IDX 69 14 78 15 70 16 73 17 77 18 71 19 74 20 76 21 72 22 75 23
REMARK SMILES IDX 13 24 14 25 15 26 16 27 17 28 18 29 19 30 20 31 21 32 67 33
REMARK SMILES IDX 22 34 66 35 23 36 24 37 25 38 60 39 26 40 65 41 59 42 61 43
REMARK SMILES IDX 27 44 64 45 58 46 57 47 28 49 50 50 35 51 49 52 36 53 39 54
REMARK SMILES IDX 48 55 62 56 37 57 38 58 47 60 63 61 40 62 29 63 30 64 34 65
REMARK SMILES IDX 31 66 33 67 32 68 51 69 52 70 56 71 53 72 55 73 54 74 41 75
REMARK SMILES IDX 42 76 46 77 43 78 45 79 44 80
REMARK H PARENT 61 48 39 59
REMARK Flexibility Score: inf
ROOT
ATOM      1  C   UNL A   1      40.500  21.170  26.551  1.00  0.00     0.188 C 
ENDROOT
BRANCH   1   2
ATOM      2  O   UNL A   1      39.589  21.959  25.793  1.00  0.00    -0.376 OA
BRANCH   2   3
ATOM      3  C   UNL A   1      38.977  23.033  26.491  1.00  0.00     0.202 C 
BRANCH   3   4
ATOM      4  C   UNL A   1      37.617  23.497  25.940  1.00  0.00     0.261 C 
BRANCH   4   5
ATOM      5  O   UNL A   1      37.233  22.800  24.734  1.00  0.00    -0.462 OA
BRANCH   5   6
ATOM      6  C   UNL A   1      36.163  23.319  24.072  1.00  0.00     0.325 C 
ATOM      7  O   UNL A   1      35.905  23.064  22.898  1.00  0.00    -0.250 OA
BRANCH   6   8
ATOM      8  C   UNL A   1      35.186  24.109  24.950  1.00  0.00     0.241 C 
BRANCH   8   9
ATOM      9  N   UNL A   1      33.811  24.435  24.400  1.00  0.00    -0.332 N 
BRANCH   9  10
ATOM     10  C   UNL A   1      32.768  23.227  24.807  1.00  0.00     0.208 C 
BRANCH  10  11
ATOM     11  C   UNL A   1      32.607  22.472  23.498  1.00  0.00    -0.085 C 
ATOM     12  C   UNL A   1      32.469  21.824  22.375  1.00  0.00     0.006 C 
ENDBRANCH  10  11
ENDBRANCH   9  10
BRANCH   9  13
ATOM     13  C   UNL A   1      33.645  25.897  24.479  1.00  0.00     0.160 A 
ATOM     14  N   UNL A   1      33.404  26.589  23.380  1.00  0.00    -0.132 NA
ATOM     15  C   UNL A   1      33.087  26.703  25.494  1.00  0.00     0.028 A 
ATOM     16  N   UNL A   1      32.263  27.570  23.259  1.00  0.00    -0.153 NA
ATOM     17  C   UNL A   1      31.742  27.304  25.444  1.00  0.00     0.009 A 
ATOM     18  C   UNL A   1      33.974  27.671  26.031  1.00  0.00     0.013 A 
ATOM     19  C   UNL A   1      31.128  27.782  24.074  1.00  0.00     0.068 A 
ATOM     20  C   UNL A   1      31.428  27.768  26.739  1.00  0.00     0.011 A 
ATOM     21  C   UNL A   1      33.527  28.796  26.756  1.00  0.00     0.001 A 
ATOM     22  C   UNL A   1      29.237  28.346  23.328  1.00  0.00     0.069 C 
ATOM     23  C   UNL A   1      32.234  28.780  27.217  1.00  0.00     0.001 A 
ENDBRANCH   9  13
ENDBRANCH   8   9
ENDBRANCH   6   8
ENDBRANCH   5   6
ENDBRANCH   4   5
ENDBRANCH   3   4
ENDBRANCH   2   3
ENDBRANCH   1   2
BRANCH   1  24
ATOM     24  C   UNL A   1      40.853  19.765  26.099  1.00  0.00     0.188 C 
BRANCH  24  25
ATOM     25  O   UNL A   1      42.079  19.708  25.371  1.00  0.00    -0.376 OA
BRANCH  25  26
ATOM     26  C   UNL A   1      43.148  20.466  25.939  1.00  0.00     0.202 C 
BRANCH  26  27
ATOM     27  C   UNL A   1      43.973  21.254  24.902  1.00  0.00     0.261 C 
BRANCH  27  28
ATOM     28  O   UNL A   1      43.301  22.435  24.399  1.00  0.00    -0.460 OA
BRANCH  28  29
ATOM     29  C   UNL A   1      43.819  23.600  24.826  1.00  0.00     0.338 C 
ATOM     30  O   UNL A   1      44.753  24.174  24.280  1.00  0.00    -0.246 OA
BRANCH  29  31
ATOM     31  C   UNL A   1      43.103  24.268  25.965  1.00  0.00     0.060 A 
ATOM     32  C   UNL A   1      42.380  23.589  27.497  1.00  0.00     0.016 A 
ATOM     33  C   UNL A   1      43.087  26.078  25.719  1.00  0.00     0.016 A 
ATOM     34  C   UNL A   1      41.712  24.739  28.788  1.00  0.00     0.010 A 
ATOM     35  C   UNL A   1      42.344  27.177  26.924  1.00  0.00     0.010 A 
ATOM     36  C   UNL A   1      41.668  26.570  28.497  1.00  0.00    -0.014 A 
BRANCH  36  37
ATOM     37  C   UNL A   1      41.339  27.660  29.574  1.00  0.00     0.031 A 
ATOM     38  C   UNL A   1      40.100  28.613  29.542  1.00  0.00     0.074 A 
ATOM     39  C   UNL A   1      42.199  27.922  30.585  1.00  0.00     0.049 A 
ATOM     40  N   UNL A   1      39.890  29.734  30.220  1.00  0.00    -0.248 NA
ATOM     41  C   UNL A   1      39.001  28.342  28.604  1.00  0.00     0.031 C 
ATOM     42  C   UNL A   1      43.506  27.318  30.763  1.00  0.00     0.029 A 
ATOM     43  N   UNL A   1      42.100  28.758  31.682  1.00  0.00    -0.354 N 
ATOM     44  C   UNL A   1      38.733  30.330  29.698  1.00  0.00     0.074 A 
ATOM     45  C   UNL A   1      38.311  29.478  28.610  1.00  0.00     0.031 C 
ATOM     46  C   UNL A   1      43.984  27.600  31.975  1.00  0.00     0.029 A 
ATOM     47  C   UNL A   1      43.132  28.605  32.585  1.00  0.00     0.049 A 
ATOM     48  H   UNL A   1      41.364  29.401  31.807  1.00  0.00     0.167 HD
ATOM     49  C   UNL A   1      38.043  31.439  30.091  1.00  0.00     0.031 A 
ATOM     50  C   UNL A   1      43.443  29.226  33.738  1.00  0.00     0.031 A 
ATOM     51  C   UNL A   1      38.323  32.215  31.281  1.00  0.00     0.049 A 
ATOM     52  C   UNL A   1      42.627  30.386  34.209  1.00  0.00     0.074 A 
ATOM     53  C   UNL A   1      37.607  33.284  31.807  1.00  0.00     0.029 A 
ATOM     54  N   UNL A   1      39.365  31.978  32.160  1.00  0.00    -0.354 N 
ATOM     55  N   UNL A   1      41.573  30.929  33.657  1.00  0.00    -0.248 NA
ATOM     56  C   UNL A   1      43.071  31.042  35.447  1.00  0.00     0.031 C 
ATOM     57  C   UNL A   1      38.240  33.719  32.976  1.00  0.00     0.029 A 
ATOM     58  C   UNL A   1      39.314  32.882  33.214  1.00  0.00     0.049 A 
ATOM     59  H   UNL A   1      40.043  31.272  32.054  1.00  0.00     0.167 HD
ATOM     60  C   UNL A   1      41.226  31.989  34.482  1.00  0.00     0.074 A 
ATOM     61  C   UNL A   1      42.156  31.988  35.592  1.00  0.00     0.031 C 
ATOM     62  C   UNL A   1      40.234  32.895  34.317  1.00  0.00     0.031 A 
BRANCH  49  63
ATOM     63  C   UNL A   1      36.850  31.905  29.267  1.00  0.00    -0.014 A 
ATOM     64  C   UNL A   1      35.609  31.249  29.319  1.00  0.00     0.009 A 
ATOM     65  C   UNL A   1      36.931  33.108  28.537  1.00  0.00     0.009 A 
ATOM     66  C   UNL A   1      34.499  31.759  28.634  1.00  0.00     0.001 A 
ATOM     67  C   UNL A   1      35.811  33.636  27.884  1.00  0.00     0.001 A 
ATOM     68  C   UNL A   1      34.597  32.954  27.925  1.00  0.00     0.000 A 
ENDBRANCH  49  63
BRANCH  50  69
ATOM     69  C   UNL A   1      44.642  28.789  34.511  1.00  0.00    -0.014 A 
ATOM     70  C   UNL A   1      45.850  29.493  34.405  1.00  0.00     0.009 A 
ATOM     71  C   UNL A   1      44.573  27.689  35.383  1.00  0.00     0.009 A 
ATOM     72  C   UNL A   1      46.963  29.103  35.152  1.00  0.00     0.001 A 
ATOM     73  C   UNL A   1      45.670  27.336  36.169  1.00  0.00     0.001 A 
ATOM     74  C   UNL A   1      46.866  28.037  36.046  1.00  0.00     0.000 A 
ENDBRANCH  50  69
BRANCH  62  75
ATOM     75  C   UNL A   1      40.079  33.928  35.397  1.00  0.00    -0.014 A 
ATOM     76  C   UNL A   1      39.415  33.633  36.599  1.00  0.00     0.009 A 
ATOM     77  C   UNL A   1      40.561  35.229  35.188  1.00  0.00     0.009 A 
ATOM     78  C   UNL A   1      39.187  34.635  37.544  1.00  0.00     0.001 A 
ATOM     79  C   UNL A   1      40.359  36.220  36.149  1.00  0.00     0.001 A 
ATOM     80  C   UNL A   1      39.657  35.928  37.317  1.00  0.00     0.000 A 
ENDBRANCH  62  75
ENDBRANCH  36  37
ENDBRANCH  29  31
ENDBRANCH  28  29
ENDBRANCH  27  28
ENDBRANCH  26  27
ENDBRANCH  25  26
ENDBRANCH  24  25
ENDBRANCH   1  24
TORSDOF 21
ENDMDL
