MODEL 1
REMARK VINA RESULT:     -10.9      0.000      0.000
REMARK SMILES Cc1cc(F)cc(N[C@H](C(=O)OCCOCCOCCOC(=O)c2ccc(-c3c4nc(c(-c5ccccc5)c5ccc([nH]5)c(-c5ccccc5)c5nc(c(-c6ccccc6)c6ccc3[nH]6)C=C5)C=C4)cc2)c2cc(C)cc(C)c2)c1
REMARK SMILES IDX 16 1 15 2 14 3 13 4 12 5 10 6 11 7 9 8 8 9 7 11 1 12 2 13
REMARK SMILES IDX 3 14 80 15 4 16 5 17 6 18 72 19 73 20 79 21 74 22 77 23
REMARK SMILES IDX 75 24 76 25 78 26 17 27 18 28 19 29 20 30 21 31 22 32 23 33
REMARK SMILES IDX 24 34 25 35 71 36 26 37 70 38 27 39 28 40 29 41 64 42 30 43
REMARK SMILES IDX 69 44 63 45 65 46 31 47 68 48 62 49 61 50 32 52 54 53 39 54
REMARK SMILES IDX 53 55 40 56 43 57 52 58 66 59 41 60 42 61 51 63 67 64 44 65
REMARK SMILES IDX 33 66 34 67 38 68 35 69 37 70 36 71 55 72 56 73 60 74 57 75
REMARK SMILES IDX 59 76 58 77 45 78 46 79 50 80 47 81 49 82 48 83
REMARK H PARENT 8 10 65 51 43 62
REMARK Flexibility Score: inf
ROOT
ATOM      1  C   UNL A   1      39.855  21.376  26.480  1.00  0.00     0.188 C 
ENDROOT
BRANCH   1   2
ATOM      2  O   UNL A   1      38.643  21.675  25.811  1.00  0.00    -0.376 OA
BRANCH   2   3
ATOM      3  C   UNL A   1      38.115  22.983  26.000  1.00  0.00     0.202 C 
BRANCH   3   4
ATOM      4  C   UNL A   1      36.987  23.408  25.046  1.00  0.00     0.261 C 
BRANCH   4   5
ATOM      5  O   UNL A   1      35.847  22.535  25.013  1.00  0.00    -0.461 OA
BRANCH   5   6
ATOM      6  C   UNL A   1      34.959  22.734  23.993  1.00  0.00     0.333 C 
ATOM      7  O   UNL A   1      35.277  23.246  22.927  1.00  0.00    -0.249 OA
BRANCH   6   8
ATOM      8  C   UNL A   1      33.593  22.079  24.330  1.00  0.00     0.221 C 
BRANCH   8   9
ATOM      9  N   UNL A   1      33.752  20.779  25.030  1.00  0.00    -0.369 N 
ATOM     10  H   UNL A   1      34.002  20.822  25.980  1.00  0.00     0.161 HD
BRANCH   9  11
ATOM     11  C   UNL A   1      33.586  19.513  24.491  1.00  0.00     0.038 A 
ATOM     12  C   UNL A   1      35.001  15.979  25.012  1.00  0.00     0.044 C 
ATOM     13  C   UNL A   1      34.221  17.132  24.459  1.00  0.00    -0.046 A 
ATOM     14  C   UNL A   1      33.394  16.912  23.357  1.00  0.00     0.042 A 
ATOM     15  C   UNL A   1      34.329  18.433  24.999  1.00  0.00     0.029 A 
ATOM     16  C   UNL A   1      32.672  17.966  22.842  1.00  0.00     0.125 A 
ATOM     17  F   UNL A   1      31.876  17.778  21.781  1.00  0.00    -0.207 F 
ATOM     18  C   UNL A   1      32.754  19.229  23.411  1.00  0.00     0.065 A 
ENDBRANCH   9  11
ENDBRANCH   8   9
BRANCH   8  19
ATOM     19  C   UNL A   1      32.566  22.988  25.000  1.00  0.00    -0.014 A 
ATOM     20  C   UNL A   1      32.736  24.377  25.004  1.00  0.00     0.010 A 
ATOM     21  C   UNL A   1      31.470  22.466  25.708  1.00  0.00     0.010 A 
ATOM     22  C   UNL A   1      32.022  25.206  25.861  1.00  0.00    -0.051 A 
ATOM     23  C   UNL A   1      30.623  23.314  26.443  1.00  0.00    -0.051 A 
ATOM     24  C   UNL A   1      32.560  26.581  26.117  1.00  0.00     0.044 C 
ATOM     25  C   UNL A   1      30.949  24.673  26.568  1.00  0.00     0.006 A 
ATOM     26  C   UNL A   1      29.410  22.788  27.151  1.00  0.00     0.044 C 
ENDBRANCH   8  19
ENDBRANCH   6   8
ENDBRANCH   5   6
ENDBRANCH   4   5
ENDBRANCH   3   4
ENDBRANCH   2   3
ENDBRANCH   1   2
BRANCH   1  27
ATOM     27  C   UNL A   1      40.448  19.989  26.148  1.00  0.00     0.188 C 
BRANCH  27  28
ATOM     28  O   UNL A   1      41.768  19.864  25.646  1.00  0.00    -0.376 OA
BRANCH  28  29
ATOM     29  C   UNL A   1      42.791  20.712  26.149  1.00  0.00     0.202 C 
BRANCH  29  30
ATOM     30  C   UNL A   1      43.546  21.666  25.203  1.00  0.00     0.261 C 
BRANCH  30  31
ATOM     31  O   UNL A   1      42.890  22.908  24.888  1.00  0.00    -0.460 OA
BRANCH  31  32
ATOM     32  C   UNL A   1      43.624  24.028  25.066  1.00  0.00     0.338 C 
ATOM     33  O   UNL A   1      44.662  24.335  24.487  1.00  0.00    -0.246 OA
BRANCH  32  34
ATOM     34  C   UNL A   1      42.914  24.970  25.955  1.00  0.00     0.060 A 
ATOM     35  C   UNL A   1      43.402  26.280  26.067  1.00  0.00     0.016 A 
ATOM     36  C   UNL A   1      41.828  24.557  26.728  1.00  0.00     0.016 A 
ATOM     37  C   UNL A   1      42.826  27.174  26.969  1.00  0.00     0.010 A 
ATOM     38  C   UNL A   1      41.267  25.448  27.654  1.00  0.00     0.010 A 
ATOM     39  C   UNL A   1      41.784  26.748  27.802  1.00  0.00    -0.014 A 
BRANCH  39  40
ATOM     40  C   UNL A   1      41.372  27.597  28.949  1.00  0.00     0.031 A 
ATOM     41  C   UNL A   1      42.141  27.492  30.239  1.00  0.00     0.074 A 
ATOM     42  C   UNL A   1      40.357  28.473  28.845  1.00  0.00     0.049 A 
ATOM     43  N   UNL A   1      41.946  28.110  31.377  1.00  0.00    -0.248 NA
ATOM     44  C   UNL A   1      43.282  26.561  30.246  1.00  0.00     0.031 C 
ATOM     45  C   UNL A   1      39.566  28.717  27.640  1.00  0.00     0.029 A 
ATOM     46  N   UNL A   1      39.817  29.322  29.781  1.00  0.00    -0.354 N 
ATOM     47  C   UNL A   1      42.931  27.637  32.235  1.00  0.00     0.074 A 
ATOM     48  C   UNL A   1      43.703  26.660  31.498  1.00  0.00     0.031 C 
ATOM     49  C   UNL A   1      38.633  29.648  27.914  1.00  0.00     0.029 A 
ATOM     50  C   UNL A   1      38.741  30.039  29.318  1.00  0.00     0.049 A 
ATOM     51  H   UNL A   1      40.168  29.407  30.697  1.00  0.00     0.167 HD
ATOM     52  C   UNL A   1      43.178  27.986  33.520  1.00  0.00     0.031 A 
ATOM     53  C   UNL A   1      37.923  30.897  29.961  1.00  0.00     0.031 A 
ATOM     54  C   UNL A   1      42.403  28.943  34.264  1.00  0.00     0.049 A 
ATOM     55  C   UNL A   1      38.164  31.204  31.417  1.00  0.00     0.074 A 
ATOM     56  C   UNL A   1      42.581  29.370  35.568  1.00  0.00     0.029 A 
ATOM     57  N   UNL A   1      41.295  29.615  33.771  1.00  0.00    -0.354 N 
ATOM     58  N   UNL A   1      39.112  30.768  32.211  1.00  0.00    -0.248 NA
ATOM     59  C   UNL A   1      37.222  32.131  32.062  1.00  0.00     0.031 C 
ATOM     60  C   UNL A   1      41.544  30.253  35.884  1.00  0.00     0.029 A 
ATOM     61  C   UNL A   1      40.763  30.432  34.754  1.00  0.00     0.049 A 
ATOM     62  H   UNL A   1      40.939  29.525  32.857  1.00  0.00     0.167 HD
ATOM     63  C   UNL A   1      38.905  31.398  33.433  1.00  0.00     0.074 A 
ATOM     64  C   UNL A   1      37.747  32.253  33.273  1.00  0.00     0.031 C 
ATOM     65  C   UNL A   1      39.614  31.283  34.583  1.00  0.00     0.031 A 
BRANCH  52  66
ATOM     66  C   UNL A   1      44.314  27.292  34.219  1.00  0.00    -0.014 A 
ATOM     67  C   UNL A   1      45.622  27.801  34.178  1.00  0.00     0.009 A 
ATOM     68  C   UNL A   1      44.065  26.123  34.957  1.00  0.00     0.009 A 
ATOM     69  C   UNL A   1      46.662  27.135  34.829  1.00  0.00     0.001 A 
ATOM     70  C   UNL A   1      45.101  25.476  35.633  1.00  0.00     0.001 A 
ATOM     71  C   UNL A   1      46.399  25.976  35.560  1.00  0.00     0.000 A 
ENDBRANCH  52  66
BRANCH  53  72
ATOM     72  C   UNL A   1      36.780  31.521  29.241  1.00  0.00    -0.014 A 
ATOM     73  C   UNL A   1      35.582  30.816  29.048  1.00  0.00     0.009 A 
ATOM     74  C   UNL A   1      36.894  32.818  28.715  1.00  0.00     0.009 A 
ATOM     75  C   UNL A   1      34.535  31.384  28.319  1.00  0.00     0.001 A 
ATOM     76  C   UNL A   1      35.833  33.396  28.015  1.00  0.00     0.001 A 
ATOM     77  C   UNL A   1      34.659  32.675  27.807  1.00  0.00     0.000 A 
ENDBRANCH  53  72
BRANCH  65  78
ATOM     78  C   UNL A   1      39.197  32.143  35.747  1.00  0.00    -0.014 A 
ATOM     79  C   UNL A   1      38.288  31.685  36.713  1.00  0.00     0.009 A 
ATOM     80  C   UNL A   1      39.763  33.419  35.898  1.00  0.00     0.009 A 
ATOM     81  C   UNL A   1      37.926  32.505  37.786  1.00  0.00     0.001 A 
ATOM     82  C   UNL A   1      39.425  34.222  36.989  1.00  0.00     0.001 A 
ATOM     83  C   UNL A   1      38.498  33.768  37.926  1.00  0.00     0.000 A 
ENDBRANCH  65  78
ENDBRANCH  39  40
ENDBRANCH  32  34
ENDBRANCH  31  32
ENDBRANCH  30  31
ENDBRANCH  29  30
ENDBRANCH  28  29
ENDBRANCH  27  28
ENDBRANCH   1  27
TORSDOF 20
ENDMDL
MODEL 2
REMARK VINA RESULT:     -10.4      4.312      8.425
REMARK SMILES Cc1cc(F)cc(N[C@H](C(=O)OCCOCCOCCOC(=O)c2ccc(-c3c4nc(c(-c5ccccc5)c5ccc([nH]5)c(-c5ccccc5)c5nc(c(-c6ccccc6)c6ccc3[nH]6)C=C5)C=C4)cc2)c2cc(C)cc(C)c2)c1
REMARK SMILES IDX 16 1 15 2 14 3 13 4 12 5 10 6 11 7 9 8 8 9 7 11 1 12 2 13
REMARK SMILES IDX 3 14 80 15 4 16 5 17 6 18 72 19 73 20 79 21 74 22 77 23
REMARK SMILES IDX 75 24 76 25 78 26 17 27 18 28 19 29 20 30 21 31 22 32 23 33
REMARK SMILES IDX 24 34 25 35 71 36 26 37 70 38 27 39 28 40 29 41 64 42 30 43
REMARK SMILES IDX 69 44 63 45 65 46 31 47 68 48 62 49 61 50 32 52 54 53 39 54
REMARK SMILES IDX 53 55 40 56 43 57 52 58 66 59 41 60 42 61 51 63 67 64 44 65
REMARK SMILES IDX 33 66 34 67 38 68 35 69 37 70 36 71 55 72 56 73 60 74 57 75
REMARK SMILES IDX 59 76 58 77 45 78 46 79 50 80 47 81 49 82 48 83
REMARK H PARENT 8 10 65 51 43 62
REMARK Flexibility Score: inf
ROOT
ATOM      1  C   UNL A   1      32.214  21.084  25.143  1.00  0.00     0.188 C 
ENDROOT
BRANCH   1   2
ATOM      2  O   UNL A   1      32.152  22.265  24.365  1.00  0.00    -0.376 OA
BRANCH   2   3
ATOM      3  C   UNL A   1      32.681  23.447  24.956  1.00  0.00     0.202 C 
BRANCH   3   4
ATOM      4  C   UNL A   1      31.946  24.758  24.635  1.00  0.00     0.261 C 
BRANCH   4   5
ATOM      5  O   UNL A   1      31.447  24.872  23.293  1.00  0.00    -0.461 OA
BRANCH   5   6
ATOM      6  C   UNL A   1      31.713  26.046  22.644  1.00  0.00     0.333 C 
ATOM      7  O   UNL A   1      32.112  26.089  21.487  1.00  0.00    -0.249 OA
BRANCH   6   8
ATOM      8  C   UNL A   1      31.279  27.255  23.515  1.00  0.00     0.221 C 
BRANCH   8   9
ATOM      9  N   UNL A   1      32.381  28.232  23.706  1.00  0.00    -0.369 N 
ATOM     10  H   UNL A   1      32.997  28.351  22.948  1.00  0.00     0.161 HD
BRANCH   9  11
ATOM     11  C   UNL A   1      32.637  28.995  24.835  1.00  0.00     0.038 A 
ATOM     12  C   UNL A   1      35.352  29.273  27.539  1.00  0.00     0.044 C 
ATOM     13  C   UNL A   1      34.095  29.499  26.756  1.00  0.00    -0.046 A 
ATOM     14  C   UNL A   1      33.171  30.430  27.231  1.00  0.00     0.042 A 
ATOM     15  C   UNL A   1      33.809  28.773  25.579  1.00  0.00     0.029 A 
ATOM     16  C   UNL A   1      32.013  30.647  26.517  1.00  0.00     0.125 A 
ATOM     17  F   UNL A   1      31.109  31.532  26.957  1.00  0.00    -0.207 F 
ATOM     18  C   UNL A   1      31.765  29.957  25.338  1.00  0.00     0.065 A 
ENDBRANCH   9  11
ENDBRANCH   8   9
BRANCH   8  19
ATOM     19  C   UNL A   1      29.963  27.921  23.122  1.00  0.00    -0.014 A 
ATOM     20  C   UNL A   1      29.954  29.058  22.305  1.00  0.00     0.010 A 
ATOM     21  C   UNL A   1      28.731  27.478  23.632  1.00  0.00     0.010 A 
ATOM     22  C   UNL A   1      28.835  29.874  22.189  1.00  0.00    -0.051 A 
ATOM     23  C   UNL A   1      27.550  28.197  23.377  1.00  0.00    -0.051 A 
ATOM     24  C   UNL A   1      29.034  31.267  21.672  1.00  0.00     0.044 C 
ATOM     25  C   UNL A   1      27.625  29.431  22.712  1.00  0.00     0.006 A 
ATOM     26  C   UNL A   1      26.215  27.707  23.854  1.00  0.00     0.044 C 
ENDBRANCH   8  19
ENDBRANCH   6   8
ENDBRANCH   5   6
ENDBRANCH   4   5
ENDBRANCH   3   4
ENDBRANCH   2   3
ENDBRANCH   1   2
BRANCH   1  27
ATOM     27  C   UNL A   1      32.826  19.865  24.416  1.00  0.00     0.188 C 
BRANCH  27  28
ATOM     28  O   UNL A   1      34.175  19.488  24.639  1.00  0.00    -0.376 OA
BRANCH  28  29
ATOM     29  C   UNL A   1      35.112  20.464  25.072  1.00  0.00     0.202 C 
BRANCH  29  30
ATOM     30  C   UNL A   1      36.624  20.214  24.916  1.00  0.00     0.261 C 
BRANCH  30  31
ATOM     31  O   UNL A   1      37.491  21.330  25.190  1.00  0.00    -0.460 OA
BRANCH  31  32
ATOM     32  C   UNL A   1      38.670  21.033  25.778  1.00  0.00     0.338 C 
ATOM     33  O   UNL A   1      39.281  19.970  25.721  1.00  0.00    -0.246 OA
BRANCH  32  34
ATOM     34  C   UNL A   1      39.258  22.243  26.387  1.00  0.00     0.060 A 
ATOM     35  C   UNL A   1      38.654  23.482  26.130  1.00  0.00     0.016 A 
ATOM     36  C   UNL A   1      40.431  22.177  27.142  1.00  0.00     0.016 A 
ATOM     37  C   UNL A   1      39.231  24.661  26.601  1.00  0.00     0.010 A 
ATOM     38  C   UNL A   1      41.025  23.364  27.592  1.00  0.00     0.010 A 
ATOM     39  C   UNL A   1      40.446  24.613  27.295  1.00  0.00    -0.014 A 
BRANCH  39  40
ATOM     40  C   UNL A   1      41.200  25.870  27.539  1.00  0.00     0.031 A 
ATOM     41  C   UNL A   1      40.577  26.927  28.412  1.00  0.00     0.074 A 
ATOM     42  C   UNL A   1      42.429  26.062  27.028  1.00  0.00     0.049 A 
ATOM     43  N   UNL A   1      41.034  28.109  28.740  1.00  0.00    -0.248 NA
ATOM     44  C   UNL A   1      39.262  26.607  28.989  1.00  0.00     0.031 C 
ATOM     45  C   UNL A   1      43.170  25.100  26.215  1.00  0.00     0.029 A 
ATOM     46  N   UNL A   1      43.269  27.145  27.120  1.00  0.00    -0.354 N 
ATOM     47  C   UNL A   1      40.059  28.676  29.552  1.00  0.00     0.074 A 
ATOM     48  C   UNL A   1      38.975  27.723  29.643  1.00  0.00     0.031 C 
ATOM     49  C   UNL A   1      44.354  25.641  25.873  1.00  0.00     0.029 A 
ATOM     50  C   UNL A   1      44.438  26.996  26.414  1.00  0.00     0.049 A 
ATOM     51  H   UNL A   1      43.053  27.952  27.641  1.00  0.00     0.167 HD
ATOM     52  C   UNL A   1      40.065  29.881  30.172  1.00  0.00     0.031 A 
ATOM     53  C   UNL A   1      45.450  27.864  26.211  1.00  0.00     0.031 A 
ATOM     54  C   UNL A   1      41.132  30.840  30.071  1.00  0.00     0.049 A 
ATOM     55  C   UNL A   1      45.394  29.232  26.840  1.00  0.00     0.074 A 
ATOM     56  C   UNL A   1      41.233  32.083  30.670  1.00  0.00     0.029 A 
ATOM     57  N   UNL A   1      42.279  30.667  29.312  1.00  0.00    -0.354 N 
ATOM     58  N   UNL A   1      44.479  29.748  27.626  1.00  0.00    -0.248 NA
ATOM     59  C   UNL A   1      46.521  30.136  26.561  1.00  0.00     0.031 C 
ATOM     60  C   UNL A   1      42.411  32.689  30.224  1.00  0.00     0.029 A 
ATOM     61  C   UNL A   1      43.080  31.793  29.406  1.00  0.00     0.049 A 
ATOM     62  H   UNL A   1      42.493  29.864  28.785  1.00  0.00     0.167 HD
ATOM     63  C   UNL A   1      44.938  31.016  27.964  1.00  0.00     0.074 A 
ATOM     64  C   UNL A   1      46.216  31.188  27.308  1.00  0.00     0.031 C 
ATOM     65  C   UNL A   1      44.354  31.952  28.753  1.00  0.00     0.031 A 
BRANCH  52  66
ATOM     66  C   UNL A   1      38.854  30.244  30.986  1.00  0.00    -0.014 A 
ATOM     67  C   UNL A   1      38.751  29.899  32.344  1.00  0.00     0.009 A 
ATOM     68  C   UNL A   1      37.810  30.971  30.391  1.00  0.00     0.009 A 
ATOM     69  C   UNL A   1      37.613  30.243  33.077  1.00  0.00     0.001 A 
ATOM     70  C   UNL A   1      36.688  31.340  31.135  1.00  0.00     0.001 A 
ATOM     71  C   UNL A   1      36.585  30.967  32.473  1.00  0.00     0.000 A 
ENDBRANCH  52  66
BRANCH  53  72
ATOM     72  C   UNL A   1      46.605  27.478  25.356  1.00  0.00    -0.014 A 
ATOM     73  C   UNL A   1      47.649  26.694  25.871  1.00  0.00     0.009 A 
ATOM     74  C   UNL A   1      46.684  27.920  24.026  1.00  0.00     0.009 A 
ATOM     75  C   UNL A   1      48.759  26.386  25.082  1.00  0.00     0.001 A 
ATOM     76  C   UNL A   1      47.781  27.583  23.230  1.00  0.00     0.001 A 
ATOM     77  C   UNL A   1      48.822  26.827  23.761  1.00  0.00     0.000 A 
ENDBRANCH  53  72
BRANCH  65  78
ATOM     78  C   UNL A   1      45.117  33.226  29.001  1.00  0.00    -0.014 A 
ATOM     79  C   UNL A   1      44.975  34.345  28.165  1.00  0.00     0.009 A 
ATOM     80  C   UNL A   1      45.957  33.320  30.122  1.00  0.00     0.009 A 
ATOM     81  C   UNL A   1      45.691  35.516  28.425  1.00  0.00     0.001 A 
ATOM     82  C   UNL A   1      46.644  34.503  30.399  1.00  0.00     0.001 A 
ATOM     83  C   UNL A   1      46.520  35.596  29.544  1.00  0.00     0.000 A 
ENDBRANCH  65  78
ENDBRANCH  39  40
ENDBRANCH  32  34
ENDBRANCH  31  32
ENDBRANCH  30  31
ENDBRANCH  29  30
ENDBRANCH  28  29
ENDBRANCH  27  28
ENDBRANCH   1  27
TORSDOF 20
ENDMDL
MODEL 3
REMARK VINA RESULT:     -10.3      0.584      5.732
REMARK SMILES Cc1cc(F)cc(N[C@H](C(=O)OCCOCCOCCOC(=O)c2ccc(-c3c4nc(c(-c5ccccc5)c5ccc([nH]5)c(-c5ccccc5)c5nc(c(-c6ccccc6)c6ccc3[nH]6)C=C5)C=C4)cc2)c2cc(C)cc(C)c2)c1
REMARK SMILES IDX 16 1 15 2 14 3 13 4 12 5 10 6 11 7 9 8 8 9 7 11 1 12 2 13
REMARK SMILES IDX 3 14 80 15 4 16 5 17 6 18 72 19 73 20 79 21 74 22 77 23
REMARK SMILES IDX 75 24 76 25 78 26 17 27 18 28 19 29 20 30 21 31 22 32 23 33
REMARK SMILES IDX 24 34 25 35 71 36 26 37 70 38 27 39 28 40 29 41 64 42 30 43
REMARK SMILES IDX 69 44 63 45 65 46 31 47 68 48 62 49 61 50 32 52 54 53 39 54
REMARK SMILES IDX 53 55 40 56 43 57 52 58 66 59 41 60 42 61 51 63 67 64 44 65
REMARK SMILES IDX 33 66 34 67 38 68 35 69 37 70 36 71 55 72 56 73 60 74 57 75
REMARK SMILES IDX 59 76 58 77 45 78 46 79 50 80 47 81 49 82 48 83
REMARK H PARENT 8 10 65 51 43 62
REMARK Flexibility Score: inf
ROOT
ATOM      1  C   UNL A   1      40.035  21.652  26.431  1.00  0.00     0.188 C 
ENDROOT
BRANCH   1   2
ATOM      2  O   UNL A   1      38.795  21.813  25.766  1.00  0.00    -0.376 OA
BRANCH   2   3
ATOM      3  C   UNL A   1      38.005  22.933  26.150  1.00  0.00     0.202 C 
BRANCH   3   4
ATOM      4  C   UNL A   1      36.969  23.421  25.125  1.00  0.00     0.261 C 
BRANCH   4   5
ATOM      5  O   UNL A   1      35.814  22.580  24.970  1.00  0.00    -0.461 OA
BRANCH   5   6
ATOM      6  C   UNL A   1      35.085  22.756  23.827  1.00  0.00     0.333 C 
ATOM      7  O   UNL A   1      35.602  22.947  22.732  1.00  0.00    -0.249 OA
BRANCH   6   8
ATOM      8  C   UNL A   1      33.578  22.512  24.103  1.00  0.00     0.221 C 
BRANCH   8   9
ATOM      9  N   UNL A   1      33.342  21.246  24.844  1.00  0.00    -0.369 N 
ATOM     10  H   UNL A   1      33.195  21.326  25.813  1.00  0.00     0.161 HD
BRANCH   9  11
ATOM     11  C   UNL A   1      33.305  19.963  24.318  1.00  0.00     0.038 A 
ATOM     12  C   UNL A   1      35.113  16.612  24.832  1.00  0.00     0.044 C 
ATOM     13  C   UNL A   1      34.199  17.667  24.289  1.00  0.00    -0.046 A 
ATOM     14  C   UNL A   1      33.377  17.347  23.207  1.00  0.00     0.042 A 
ATOM     15  C   UNL A   1      34.174  18.977  24.817  1.00  0.00     0.029 A 
ATOM     16  C   UNL A   1      32.532  18.309  22.701  1.00  0.00     0.125 A 
ATOM     17  F   UNL A   1      31.739  18.025  21.660  1.00  0.00    -0.207 F 
ATOM     18  C   UNL A   1      32.486  19.580  23.259  1.00  0.00     0.065 A 
ENDBRANCH   9  11
ENDBRANCH   8   9
BRANCH   8  19
ATOM     19  C   UNL A   1      32.809  23.691  24.693  1.00  0.00    -0.014 A 
ATOM     20  C   UNL A   1      33.364  24.976  24.694  1.00  0.00     0.010 A 
ATOM     21  C   UNL A   1      31.569  23.519  25.331  1.00  0.00     0.010 A 
ATOM     22  C   UNL A   1      32.860  25.997  25.492  1.00  0.00    -0.051 A 
ATOM     23  C   UNL A   1      30.952  24.592  25.998  1.00  0.00    -0.051 A 
ATOM     24  C   UNL A   1      33.748  27.172  25.769  1.00  0.00     0.044 C 
ATOM     25  C   UNL A   1      31.640  25.807  26.130  1.00  0.00     0.006 A 
ATOM     26  C   UNL A   1      29.598  24.449  26.628  1.00  0.00     0.044 C 
ENDBRANCH   8  19
ENDBRANCH   6   8
ENDBRANCH   5   6
ENDBRANCH   4   5
ENDBRANCH   3   4
ENDBRANCH   2   3
ENDBRANCH   1   2
BRANCH   1  27
ATOM     27  C   UNL A   1      40.745  20.308  26.153  1.00  0.00     0.188 C 
BRANCH  27  28
ATOM     28  O   UNL A   1      42.110  20.272  25.772  1.00  0.00    -0.376 OA
BRANCH  28  29
ATOM     29  C   UNL A   1      42.966  21.346  26.135  1.00  0.00     0.202 C 
BRANCH  29  30
ATOM     30  C   UNL A   1      43.654  22.194  25.048  1.00  0.00     0.261 C 
BRANCH  30  31
ATOM     31  O   UNL A   1      43.082  23.488  24.785  1.00  0.00    -0.460 OA
BRANCH  31  32
ATOM     32  C   UNL A   1      43.845  24.552  25.119  1.00  0.00     0.338 C 
ATOM     33  O   UNL A   1      44.913  24.887  24.615  1.00  0.00    -0.246 OA
BRANCH  32  34
ATOM     34  C   UNL A   1      43.135  25.407  26.092  1.00  0.00     0.060 A 
ATOM     35  C   UNL A   1      43.611  26.708  26.311  1.00  0.00     0.016 A 
ATOM     36  C   UNL A   1      42.060  24.918  26.836  1.00  0.00     0.016 A 
ATOM     37  C   UNL A   1      43.034  27.515  27.291  1.00  0.00     0.010 A 
ATOM     38  C   UNL A   1      41.499  25.720  27.839  1.00  0.00     0.010 A 
ATOM     39  C   UNL A   1      42.005  27.008  28.094  1.00  0.00    -0.014 A 
BRANCH  39  40
ATOM     40  C   UNL A   1      41.594  27.752  29.313  1.00  0.00     0.031 A 
ATOM     41  C   UNL A   1      40.372  28.628  29.247  1.00  0.00     0.074 A 
ATOM     42  C   UNL A   1      42.269  27.630  30.470  1.00  0.00     0.049 A 
ATOM     43  N   UNL A   1      39.843  29.389  30.172  1.00  0.00    -0.248 NA
ATOM     44  C   UNL A   1      39.650  28.648  27.964  1.00  0.00     0.031 C 
ATOM     45  C   UNL A   1      43.435  26.776  30.687  1.00  0.00     0.029 A 
ATOM     46  N   UNL A   1      42.065  28.239  31.685  1.00  0.00    -0.354 N 
ATOM     47  C   UNL A   1      38.736  29.985  29.581  1.00  0.00     0.074 A 
ATOM     48  C   UNL A   1      38.685  29.521  28.211  1.00  0.00     0.031 C 
ATOM     49  C   UNL A   1      43.849  26.922  31.959  1.00  0.00     0.029 A 
ATOM     50  C   UNL A   1      43.001  27.903  32.632  1.00  0.00     0.049 A 
ATOM     51  H   UNL A   1      41.319  28.858  31.859  1.00  0.00     0.167 HD
ATOM     52  C   UNL A   1      37.836  30.838  30.127  1.00  0.00     0.031 A 
ATOM     53  C   UNL A   1      43.165  28.353  33.893  1.00  0.00     0.031 A 
ATOM     54  C   UNL A   1      37.892  31.316  31.482  1.00  0.00     0.049 A 
ATOM     55  C   UNL A   1      42.203  29.370  34.451  1.00  0.00     0.074 A 
ATOM     56  C   UNL A   1      37.021  32.175  32.130  1.00  0.00     0.029 A 
ATOM     57  N   UNL A   1      38.880  30.984  32.396  1.00  0.00    -0.354 N 
ATOM     58  N   UNL A   1      41.146  29.907  33.890  1.00  0.00    -0.248 NA
ATOM     59  C   UNL A   1      42.453  29.833  35.824  1.00  0.00     0.031 C 
ATOM     60  C   UNL A   1      37.516  32.412  33.415  1.00  0.00     0.029 A 
ATOM     61  C   UNL A   1      38.655  31.643  33.593  1.00  0.00     0.049 A 
ATOM     62  H   UNL A   1      39.630  30.371  32.221  1.00  0.00     0.167 HD
ATOM     63  C   UNL A   1      40.586  30.739  34.853  1.00  0.00     0.074 A 
ATOM     64  C   UNL A   1      41.412  30.627  36.036  1.00  0.00     0.031 C 
ATOM     65  C   UNL A   1      39.481  31.521  34.767  1.00  0.00     0.031 A 
BRANCH  52  66
ATOM     66  C   UNL A   1      36.734  31.342  29.237  1.00  0.00    -0.014 A 
ATOM     67  C   UNL A   1      36.730  32.658  28.746  1.00  0.00     0.009 A 
ATOM     68  C   UNL A   1      35.696  30.476  28.859  1.00  0.00     0.009 A 
ATOM     69  C   UNL A   1      35.692  33.104  27.926  1.00  0.00     0.001 A 
ATOM     70  C   UNL A   1      34.675  30.916  28.014  1.00  0.00     0.001 A 
ATOM     71  C   UNL A   1      34.668  32.231  27.557  1.00  0.00     0.000 A 
ENDBRANCH  52  66
BRANCH  53  72
ATOM     72  C   UNL A   1      44.301  27.863  34.719  1.00  0.00    -0.014 A 
ATOM     73  C   UNL A   1      45.486  28.607  34.824  1.00  0.00     0.009 A 
ATOM     74  C   UNL A   1      44.217  26.628  35.382  1.00  0.00     0.009 A 
ATOM     75  C   UNL A   1      46.572  28.113  35.551  1.00  0.00     0.001 A 
ATOM     76  C   UNL A   1      45.293  26.152  36.135  1.00  0.00     0.001 A 
ATOM     77  C   UNL A   1      46.472  26.888  36.210  1.00  0.00     0.000 A 
ENDBRANCH  53  72
BRANCH  65  78
ATOM     78  C   UNL A   1      39.064  32.275  36.001  1.00  0.00    -0.014 A 
ATOM     79  C   UNL A   1      38.194  31.714  36.950  1.00  0.00     0.009 A 
ATOM     80  C   UNL A   1      39.591  33.555  36.238  1.00  0.00     0.009 A 
ATOM     81  C   UNL A   1      37.831  32.437  38.089  1.00  0.00     0.001 A 
ATOM     82  C   UNL A   1      39.253  34.260  37.394  1.00  0.00     0.001 A 
ATOM     83  C   UNL A   1      38.365  33.705  38.313  1.00  0.00     0.000 A 
ENDBRANCH  65  78
ENDBRANCH  39  40
ENDBRANCH  32  34
ENDBRANCH  31  32
ENDBRANCH  30  31
ENDBRANCH  29  30
ENDBRANCH  28  29
ENDBRANCH  27  28
ENDBRANCH   1  27
TORSDOF 20
ENDMDL
