MODEL 1
REMARK VINA RESULT:      -8.2      0.000      0.000
REMARK SMILES CC[C@@H](C(=O)OCCOCCOCCOC(=O)c1ccc(-c2c3nc(c(-c4ccccc4)c4ccc([nH]4)c(-c4ccccc4)c4nc(c(-c5ccccc5)c5ccc2[nH]5)C=C4)C=C3)cc1)N(C)C(=O)N(C)C[C@@H]1CCC[N@H+]1C
REMARK SMILES IDX 9 1 8 2 7 3 6 4 4 5 5 6 3 7 2 8 1 9 66 10 67 11 68 12 69 13
REMARK SMILES IDX 70 14 71 15 72 16 73 17 74 18 77 19 75 20 76 21 78 22 10 24
REMARK SMILES IDX 11 25 12 26 13 27 14 28 15 29 16 30 17 31 18 32 19 33 65 34
REMARK SMILES IDX 20 35 64 36 21 37 22 38 23 39 58 40 24 41 63 42 57 43 59 44
REMARK SMILES IDX 25 45 62 46 56 47 55 48 26 50 48 51 33 52 47 53 34 54 37 55
REMARK SMILES IDX 46 56 60 57 35 58 36 59 45 61 61 62 38 63 27 64 28 65 32 66
REMARK SMILES IDX 29 67 31 68 30 69 49 70 50 71 54 72 51 73 53 74 52 75 39 76
REMARK SMILES IDX 40 77 44 78 41 79 43 80 42 81
REMARK H PARENT 77 23 59 49 37 60
REMARK Flexibility Score: inf
ROOT
ATOM      1  O   UNL A   1      34.796  22.859  26.954  1.00  0.00    -0.376 OA
ENDROOT
BRANCH   1   2
ATOM      2  C   UNL A   1      33.633  22.336  27.627  1.00  0.00     0.202 C 
BRANCH   2   3
ATOM      3  C   UNL A   1      32.247  22.896  27.224  1.00  0.00     0.261 C 
BRANCH   3   4
ATOM      4  O   UNL A   1      32.265  24.030  26.323  1.00  0.00    -0.462 OA
BRANCH   4   5
ATOM      5  C   UNL A   1      31.329  24.074  25.344  1.00  0.00     0.328 C 
ATOM      6  O   UNL A   1      30.679  23.089  25.005  1.00  0.00    -0.250 OA
BRANCH   5   7
ATOM      7  C   UNL A   1      31.226  25.478  24.663  1.00  0.00     0.196 C 
BRANCH   7   8
ATOM      8  C   UNL A   1      29.913  25.987  24.005  1.00  0.00     0.034 C 
ATOM      9  C   UNL A   1      29.816  27.453  23.611  1.00  0.00     0.007 C 
ENDBRANCH   7   8
BRANCH   7  10
ATOM     10  N   UNL A   1      32.405  25.555  23.726  1.00  0.00    -0.314 N 
ATOM     11  C   UNL A   1      32.152  25.035  22.395  1.00  0.00     0.149 C 
BRANCH  10  12
ATOM     12  C   UNL A   1      33.497  26.289  24.161  1.00  0.00     0.320 C 
ATOM     13  O   UNL A   1      34.502  25.681  24.534  1.00  0.00    -0.248 OA
BRANCH  12  14
ATOM     14  N   UNL A   1      33.494  27.668  24.285  1.00  0.00    -0.322 N 
ATOM     15  C   UNL A   1      33.578  28.566  23.143  1.00  0.00     0.149 C 
BRANCH  14  16
ATOM     16  C   UNL A   1      34.031  28.192  25.597  1.00  0.00     0.185 C 
BRANCH  16  17
ATOM     17  C   UNL A   1      33.183  29.075  26.599  1.00  0.00     0.203 C 
ATOM     18  C   UNL A   1      31.795  29.548  26.117  1.00  0.00     0.073 C 
ATOM     19  N   UNL A   1      33.832  30.401  26.755  1.00  0.00    -0.333 N 
ATOM     20  C   UNL A   1      31.604  31.013  26.506  1.00  0.00     0.068 C 
ATOM     21  C   UNL A   1      32.868  31.380  27.233  1.00  0.00     0.262 C 
ATOM     22  C   UNL A   1      34.985  30.341  27.624  1.00  0.00     0.333 C 
ATOM     23  H   UNL A   1      34.168  30.691  25.837  1.00  0.00     0.348 HD
ENDBRANCH  16  17
ENDBRANCH  14  16
ENDBRANCH  12  14
ENDBRANCH  10  12
ENDBRANCH   7  10
ENDBRANCH   5   7
ENDBRANCH   4   5
ENDBRANCH   3   4
ENDBRANCH   2   3
ENDBRANCH   1   2
BRANCH   1  24
ATOM     24  C   UNL A   1      35.406  21.907  26.084  1.00  0.00     0.188 C 
BRANCH  24  25
ATOM     25  C   UNL A   1      35.934  22.386  24.741  1.00  0.00     0.188 C 
BRANCH  25  26
ATOM     26  O   UNL A   1      37.345  22.517  24.702  1.00  0.00    -0.376 OA
BRANCH  26  27
ATOM     27  C   UNL A   1      37.956  22.025  25.882  1.00  0.00     0.202 C 
BRANCH  27  28
ATOM     28  C   UNL A   1      39.376  22.566  26.141  1.00  0.00     0.261 C 
BRANCH  28  29
ATOM     29  O   UNL A   1      39.517  24.007  26.256  1.00  0.00    -0.460 OA
BRANCH  29  30
ATOM     30  C   UNL A   1      40.757  24.492  26.593  1.00  0.00     0.338 C 
ATOM     31  O   UNL A   1      41.808  24.167  26.093  1.00  0.00    -0.246 OA
BRANCH  30  32
ATOM     32  C   UNL A   1      40.653  25.556  27.658  1.00  0.00     0.060 A 
ATOM     33  C   UNL A   1      41.695  26.483  27.854  1.00  0.00     0.016 A 
ATOM     34  C   UNL A   1      39.560  25.623  28.515  1.00  0.00     0.016 A 
ATOM     35  C   UNL A   1      41.623  27.491  28.864  1.00  0.00     0.010 A 
ATOM     36  C   UNL A   1      39.489  26.627  29.509  1.00  0.00     0.010 A 
ATOM     37  C   UNL A   1      40.498  27.608  29.697  1.00  0.00    -0.014 A 
BRANCH  37  38
ATOM     38  C   UNL A   1      40.376  28.535  30.907  1.00  0.00     0.031 A 
ATOM     39  C   UNL A   1      39.476  29.714  30.714  1.00  0.00     0.074 A 
ATOM     40  C   UNL A   1      41.068  28.524  32.083  1.00  0.00     0.049 A 
ATOM     41  N   UNL A   1      39.286  30.736  31.504  1.00  0.00    -0.248 NA
ATOM     42  C   UNL A   1      38.674  29.729  29.480  1.00  0.00     0.031 C 
ATOM     43  C   UNL A   1      41.887  27.452  32.591  1.00  0.00     0.029 A 
ATOM     44  N   UNL A   1      41.283  29.495  33.053  1.00  0.00    -0.354 N 
ATOM     45  C   UNL A   1      38.298  31.480  30.894  1.00  0.00     0.074 A 
ATOM     46  C   UNL A   1      38.030  30.875  29.608  1.00  0.00     0.031 C 
ATOM     47  C   UNL A   1      42.691  27.847  33.584  1.00  0.00     0.029 A 
ATOM     48  C   UNL A   1      42.334  29.205  33.917  1.00  0.00     0.049 A 
ATOM     49  H   UNL A   1      40.741  30.313  33.123  1.00  0.00     0.167 HD
ATOM     50  C   UNL A   1      37.611  32.529  31.396  1.00  0.00     0.031 A 
ATOM     51  C   UNL A   1      42.944  29.892  34.904  1.00  0.00     0.031 A 
ATOM     52  C   UNL A   1      37.889  33.165  32.650  1.00  0.00     0.049 A 
ATOM     53  C   UNL A   1      42.308  31.161  35.356  1.00  0.00     0.074 A 
ATOM     54  C   UNL A   1      37.206  34.205  33.251  1.00  0.00     0.029 A 
ATOM     55  N   UNL A   1      38.953  32.848  33.482  1.00  0.00    -0.354 N 
ATOM     56  N   UNL A   1      41.279  31.774  34.832  1.00  0.00    -0.248 NA
ATOM     57  C   UNL A   1      42.827  31.775  36.585  1.00  0.00     0.031 C 
ATOM     58  C   UNL A   1      37.893  34.561  34.417  1.00  0.00     0.029 A 
ATOM     59  C   UNL A   1      38.970  33.704  34.572  1.00  0.00     0.049 A 
ATOM     60  H   UNL A   1      39.600  32.124  33.322  1.00  0.00     0.167 HD
ATOM     61  C   UNL A   1      40.969  32.795  35.709  1.00  0.00     0.074 A 
ATOM     62  C   UNL A   1      41.938  32.737  36.787  1.00  0.00     0.031 C 
ATOM     63  C   UNL A   1      39.941  33.669  35.635  1.00  0.00     0.031 A 
BRANCH  50  64
ATOM     64  C   UNL A   1      36.477  33.011  30.550  1.00  0.00    -0.014 A 
ATOM     65  C   UNL A   1      36.712  33.887  29.474  1.00  0.00     0.009 A 
ATOM     66  C   UNL A   1      35.164  32.651  30.870  1.00  0.00     0.009 A 
ATOM     67  C   UNL A   1      35.643  34.440  28.770  1.00  0.00     0.001 A 
ATOM     68  C   UNL A   1      34.099  33.179  30.141  1.00  0.00     0.001 A 
ATOM     69  C   UNL A   1      34.338  34.083  29.105  1.00  0.00     0.000 A 
ENDBRANCH  50  64
BRANCH  51  70
ATOM     70  C   UNL A   1      44.140  29.345  35.617  1.00  0.00    -0.014 A 
ATOM     71  C   UNL A   1      44.004  28.616  36.810  1.00  0.00     0.009 A 
ATOM     72  C   UNL A   1      45.433  29.567  35.114  1.00  0.00     0.009 A 
ATOM     73  C   UNL A   1      45.130  28.151  37.498  1.00  0.00     0.001 A 
ATOM     74  C   UNL A   1      46.558  29.085  35.796  1.00  0.00     0.001 A 
ATOM     75  C   UNL A   1      46.407  28.385  36.990  1.00  0.00     0.000 A 
ENDBRANCH  51  70
BRANCH  63  76
ATOM     76  C   UNL A   1      39.784  34.624  36.777  1.00  0.00    -0.014 A 
ATOM     77  C   UNL A   1      39.035  34.288  37.913  1.00  0.00     0.009 A 
ATOM     78  C   UNL A   1      40.421  35.874  36.720  1.00  0.00     0.009 A 
ATOM     79  C   UNL A   1      38.903  35.198  38.961  1.00  0.00     0.001 A 
ATOM     80  C   UNL A   1      40.317  36.766  37.784  1.00  0.00     0.001 A 
ATOM     81  C   UNL A   1      39.552  36.432  38.900  1.00  0.00     0.000 A 
ENDBRANCH  63  76
ENDBRANCH  37  38
ENDBRANCH  30  32
ENDBRANCH  29  30
ENDBRANCH  28  29
ENDBRANCH  27  28
ENDBRANCH  26  27
ENDBRANCH  25  26
ENDBRANCH  24  25
ENDBRANCH   1  24
TORSDOF 23
ENDMDL
MODEL 2
REMARK VINA RESULT:      -8.1      1.706      3.487
REMARK SMILES CC[C@@H](C(=O)OCCOCCOCCOC(=O)c1ccc(-c2c3nc(c(-c4ccccc4)c4ccc([nH]4)c(-c4ccccc4)c4nc(c(-c5ccccc5)c5ccc2[nH]5)C=C4)C=C3)cc1)N(C)C(=O)N(C)C[C@@H]1CCC[N@H+]1C
REMARK SMILES IDX 9 1 8 2 7 3 6 4 4 5 5 6 3 7 2 8 1 9 66 10 67 11 68 12 69 13
REMARK SMILES IDX 70 14 71 15 72 16 73 17 74 18 77 19 75 20 76 21 78 22 10 24
REMARK SMILES IDX 11 25 12 26 13 27 14 28 15 29 16 30 17 31 18 32 19 33 65 34
REMARK SMILES IDX 20 35 64 36 21 37 22 38 23 39 58 40 24 41 63 42 57 43 59 44
REMARK SMILES IDX 25 45 62 46 56 47 55 48 26 50 48 51 33 52 47 53 34 54 37 55
REMARK SMILES IDX 46 56 60 57 35 58 36 59 45 61 61 62 38 63 27 64 28 65 32 66
REMARK SMILES IDX 29 67 31 68 30 69 49 70 50 71 54 72 51 73 53 74 52 75 39 76
REMARK SMILES IDX 40 77 44 78 41 79 43 80 42 81
REMARK H PARENT 77 23 59 49 37 60
REMARK Flexibility Score: inf
ROOT
ATOM      1  O   UNL A   1      39.085  22.163  26.015  1.00  0.00    -0.376 OA
ENDROOT
BRANCH   1   2
ATOM      2  C   UNL A   1      38.250  21.096  25.524  1.00  0.00     0.202 C 
BRANCH   2   3
ATOM      3  C   UNL A   1      36.931  21.476  24.807  1.00  0.00     0.261 C 
BRANCH   3   4
ATOM      4  O   UNL A   1      35.791  20.632  25.100  1.00  0.00    -0.462 OA
BRANCH   4   5
ATOM      5  C   UNL A   1      34.775  21.169  25.820  1.00  0.00     0.328 C 
ATOM      6  O   UNL A   1      34.965  21.932  26.763  1.00  0.00    -0.250 OA
BRANCH   5   7
ATOM      7  C   UNL A   1      33.369  20.658  25.365  1.00  0.00     0.196 C 
BRANCH   7   8
ATOM      8  C   UNL A   1      33.183  19.331  24.576  1.00  0.00     0.034 C 
ATOM      9  C   UNL A   1      32.861  18.063  25.351  1.00  0.00     0.007 C 
ENDBRANCH   7   8
BRANCH   7  10
ATOM     10  N   UNL A   1      32.722  21.832  24.675  1.00  0.00    -0.314 N 
ATOM     11  C   UNL A   1      33.112  22.005  23.287  1.00  0.00     0.149 C 
BRANCH  10  12
ATOM     12  C   UNL A   1      31.695  22.464  25.356  1.00  0.00     0.320 C 
ATOM     13  O   UNL A   1      30.757  21.781  25.771  1.00  0.00    -0.248 OA
BRANCH  12  14
ATOM     14  N   UNL A   1      31.615  23.837  25.523  1.00  0.00    -0.322 N 
ATOM     15  C   UNL A   1      31.712  24.484  26.822  1.00  0.00     0.149 C 
BRANCH  14  16
ATOM     16  C   UNL A   1      30.818  24.564  24.464  1.00  0.00     0.185 C 
BRANCH  16  17
ATOM     17  C   UNL A   1      30.660  26.137  24.413  1.00  0.00     0.203 C 
ATOM     18  C   UNL A   1      29.331  26.692  23.858  1.00  0.00     0.073 C 
ATOM     19  N   UNL A   1      31.581  26.689  23.388  1.00  0.00    -0.333 N 
ATOM     20  C   UNL A   1      29.631  27.865  22.926  1.00  0.00     0.068 C 
ATOM     21  C   UNL A   1      31.127  28.003  22.960  1.00  0.00     0.262 C 
ATOM     22  C   UNL A   1      32.947  26.740  23.857  1.00  0.00     0.333 C 
ATOM     23  H   UNL A   1      31.567  26.058  22.586  1.00  0.00     0.348 HD
ENDBRANCH  16  17
ENDBRANCH  14  16
ENDBRANCH  12  14
ENDBRANCH  10  12
ENDBRANCH   7  10
ENDBRANCH   5   7
ENDBRANCH   4   5
ENDBRANCH   3   4
ENDBRANCH   2   3
ENDBRANCH   1   2
BRANCH   1  24
ATOM     24  C   UNL A   1      40.136  21.697  26.859  1.00  0.00     0.188 C 
BRANCH  24  25
ATOM     25  C   UNL A   1      41.477  21.357  26.227  1.00  0.00     0.188 C 
BRANCH  25  26
ATOM     26  O   UNL A   1      42.021  22.412  25.451  1.00  0.00    -0.376 OA
BRANCH  26  27
ATOM     27  C   UNL A   1      42.255  23.574  26.227  1.00  0.00     0.202 C 
BRANCH  27  28
ATOM     28  C   UNL A   1      42.771  24.784  25.426  1.00  0.00     0.261 C 
BRANCH  28  29
ATOM     29  O   UNL A   1      41.813  25.837  25.137  1.00  0.00    -0.460 OA
BRANCH  29  30
ATOM     30  C   UNL A   1      42.218  27.132  25.347  1.00  0.00     0.338 C 
ATOM     31  O   UNL A   1      42.703  27.868  24.520  1.00  0.00    -0.246 OA
BRANCH  30  32
ATOM     32  C   UNL A   1      41.931  27.569  26.762  1.00  0.00     0.060 A 
ATOM     33  C   UNL A   1      40.859  27.011  27.485  1.00  0.00     0.016 A 
ATOM     34  C   UNL A   1      42.672  28.572  27.378  1.00  0.00     0.016 A 
ATOM     35  C   UNL A   1      40.561  27.419  28.822  1.00  0.00     0.010 A 
ATOM     36  C   UNL A   1      42.379  28.967  28.705  1.00  0.00     0.010 A 
ATOM     37  C   UNL A   1      41.339  28.387  29.477  1.00  0.00    -0.014 A 
BRANCH  37  38
ATOM     38  C   UNL A   1      41.024  29.014  30.837  1.00  0.00     0.031 A 
ATOM     39  C   UNL A   1      39.938  30.043  30.824  1.00  0.00     0.074 A 
ATOM     40  C   UNL A   1      41.674  28.876  32.028  1.00  0.00     0.049 A 
ATOM     41  N   UNL A   1      39.551  30.836  31.787  1.00  0.00    -0.248 NA
ATOM     42  C   UNL A   1      39.181  30.179  29.570  1.00  0.00     0.031 C 
ATOM     43  C   UNL A   1      42.652  27.872  32.365  1.00  0.00     0.029 A 
ATOM     44  N   UNL A   1      41.690  29.649  33.183  1.00  0.00    -0.354 N 
ATOM     45  C   UNL A   1      38.467  31.516  31.275  1.00  0.00     0.074 A 
ATOM     46  C   UNL A   1      38.344  31.152  29.880  1.00  0.00     0.031 C 
ATOM     47  C   UNL A   1      43.347  28.182  33.465  1.00  0.00     0.029 A 
ATOM     48  C   UNL A   1      42.750  29.365  34.036  1.00  0.00     0.049 A 
ATOM     49  H   UNL A   1      41.012  30.335  33.378  1.00  0.00     0.167 HD
ATOM     50  C   UNL A   1      37.595  32.312  31.929  1.00  0.00     0.031 A 
ATOM     51  C   UNL A   1      43.204  29.926  35.175  1.00  0.00     0.031 A 
ATOM     52  C   UNL A   1      37.723  32.715  33.299  1.00  0.00     0.049 A 
ATOM     53  C   UNL A   1      42.344  30.953  35.828  1.00  0.00     0.074 A 
ATOM     54  C   UNL A   1      36.853  33.482  34.050  1.00  0.00     0.029 A 
ATOM     55  N   UNL A   1      38.802  32.413  34.118  1.00  0.00    -0.354 N 
ATOM     56  N   UNL A   1      41.240  31.482  35.372  1.00  0.00    -0.248 NA
ATOM     57  C   UNL A   1      42.714  31.378  37.184  1.00  0.00     0.031 C 
ATOM     58  C   UNL A   1      37.435  33.700  35.304  1.00  0.00     0.029 A 
ATOM     59  C   UNL A   1      38.639  33.018  35.353  1.00  0.00     0.049 A 
ATOM     60  H   UNL A   1      39.569  31.853  33.859  1.00  0.00     0.167 HD
ATOM     61  C   UNL A   1      40.733  32.237  36.412  1.00  0.00     0.074 A 
ATOM     62  C   UNL A   1      41.666  32.118  37.516  1.00  0.00     0.031 C 
ATOM     63  C   UNL A   1      39.571  32.926  36.447  1.00  0.00     0.031 A 
BRANCH  50  64
ATOM     64  C   UNL A   1      36.418  32.765  31.126  1.00  0.00    -0.014 A 
ATOM     65  C   UNL A   1      35.495  31.829  30.623  1.00  0.00     0.009 A 
ATOM     66  C   UNL A   1      36.268  34.118  30.808  1.00  0.00     0.009 A 
ATOM     67  C   UNL A   1      34.476  32.237  29.765  1.00  0.00     0.001 A 
ATOM     68  C   UNL A   1      35.225  34.527  29.977  1.00  0.00     0.001 A 
ATOM     69  C   UNL A   1      34.342  33.586  29.445  1.00  0.00     0.000 A 
ENDBRANCH  50  64
BRANCH  51  70
ATOM     70  C   UNL A   1      44.456  29.448  35.840  1.00  0.00    -0.014 A 
ATOM     71  C   UNL A   1      45.719  29.894  35.417  1.00  0.00     0.009 A 
ATOM     72  C   UNL A   1      44.394  28.522  36.896  1.00  0.00     0.009 A 
ATOM     73  C   UNL A   1      46.888  29.403  36.011  1.00  0.00     0.001 A 
ATOM     74  C   UNL A   1      45.565  28.046  37.500  1.00  0.00     0.001 A 
ATOM     75  C   UNL A   1      46.810  28.480  37.052  1.00  0.00     0.000 A 
ENDBRANCH  51  70
BRANCH  63  76
ATOM     76  C   UNL A   1      39.219  33.588  37.743  1.00  0.00    -0.014 A 
ATOM     77  C   UNL A   1      39.598  34.909  38.015  1.00  0.00     0.009 A 
ATOM     78  C   UNL A   1      38.470  32.878  38.696  1.00  0.00     0.009 A 
ATOM     79  C   UNL A   1      39.259  35.500  39.232  1.00  0.00     0.001 A 
ATOM     80  C   UNL A   1      38.102  33.483  39.895  1.00  0.00     0.001 A 
ATOM     81  C   UNL A   1      38.503  34.790  40.166  1.00  0.00     0.000 A 
ENDBRANCH  63  76
ENDBRANCH  37  38
ENDBRANCH  30  32
ENDBRANCH  29  30
ENDBRANCH  28  29
ENDBRANCH  27  28
ENDBRANCH  26  27
ENDBRANCH  25  26
ENDBRANCH  24  25
ENDBRANCH   1  24
TORSDOF 23
ENDMDL
MODEL 3
REMARK VINA RESULT:      -8.1      4.183      7.722
REMARK SMILES CC[C@@H](C(=O)OCCOCCOCCOC(=O)c1ccc(-c2c3nc(c(-c4ccccc4)c4ccc([nH]4)c(-c4ccccc4)c4nc(c(-c5ccccc5)c5ccc2[nH]5)C=C4)C=C3)cc1)N(C)C(=O)N(C)C[C@@H]1CCC[N@H+]1C
REMARK SMILES IDX 9 1 8 2 7 3 6 4 4 5 5 6 3 7 2 8 1 9 66 10 67 11 68 12 69 13
REMARK SMILES IDX 70 14 71 15 72 16 73 17 74 18 77 19 75 20 76 21 78 22 10 24
REMARK SMILES IDX 11 25 12 26 13 27 14 28 15 29 16 30 17 31 18 32 19 33 65 34
REMARK SMILES IDX 20 35 64 36 21 37 22 38 23 39 58 40 24 41 63 42 57 43 59 44
REMARK SMILES IDX 25 45 62 46 56 47 55 48 26 50 48 51 33 52 47 53 34 54 37 55
REMARK SMILES IDX 46 56 60 57 35 58 36 59 45 61 61 62 38 63 27 64 28 65 32 66
REMARK SMILES IDX 29 67 31 68 30 69 49 70 50 71 54 72 51 73 53 74 52 75 39 76
REMARK SMILES IDX 40 77 44 78 41 79 43 80 42 81
REMARK H PARENT 77 23 59 49 37 60
REMARK Flexibility Score: inf
ROOT
ATOM      1  O   UNL A   1      38.010  21.207  25.053  1.00  0.00    -0.376 OA
ENDROOT
BRANCH   1   2
ATOM      2  C   UNL A   1      37.195  22.212  24.419  1.00  0.00     0.202 C 
BRANCH   2   3
ATOM      3  C   UNL A   1      36.373  23.160  25.326  1.00  0.00     0.261 C 
BRANCH   3   4
ATOM      4  O   UNL A   1      35.649  24.212  24.643  1.00  0.00    -0.462 OA
BRANCH   4   5
ATOM      5  C   UNL A   1      34.683  23.847  23.765  1.00  0.00     0.328 C 
ATOM      6  O   UNL A   1      34.792  24.017  22.553  1.00  0.00    -0.250 OA
BRANCH   5   7
ATOM      7  C   UNL A   1      33.412  23.264  24.465  1.00  0.00     0.196 C 
BRANCH   7   8
ATOM      8  C   UNL A   1      32.967  21.786  24.281  1.00  0.00     0.034 C 
ATOM      9  C   UNL A   1      32.926  20.880  25.501  1.00  0.00     0.007 C 
ENDBRANCH   7   8
BRANCH   7  10
ATOM     10  N   UNL A   1      32.304  24.240  24.160  1.00  0.00    -0.314 N 
ATOM     11  C   UNL A   1      31.249  23.709  23.317  1.00  0.00     0.149 C 
BRANCH  10  12
ATOM     12  C   UNL A   1      32.308  25.428  24.873  1.00  0.00     0.320 C 
ATOM     13  O   UNL A   1      32.039  25.392  26.075  1.00  0.00    -0.248 OA
BRANCH  12  14
ATOM     14  N   UNL A   1      32.511  26.670  24.295  1.00  0.00    -0.322 N 
ATOM     15  C   UNL A   1      33.820  27.297  24.203  1.00  0.00     0.149 C 
BRANCH  14  16
ATOM     16  C   UNL A   1      31.319  27.599  24.344  1.00  0.00     0.185 C 
BRANCH  16  17
ATOM     17  C   UNL A   1      30.380  27.884  23.102  1.00  0.00     0.203 C 
ATOM     18  C   UNL A   1      30.506  29.269  22.431  1.00  0.00     0.073 C 
ATOM     19  N   UNL A   1      28.973  27.983  23.564  1.00  0.00    -0.333 N 
ATOM     20  C   UNL A   1      29.107  29.802  22.125  1.00  0.00     0.068 C 
ATOM     21  C   UNL A   1      28.177  28.720  22.594  1.00  0.00     0.262 C 
ATOM     22  C   UNL A   1      28.397  26.685  23.829  1.00  0.00     0.333 C 
ATOM     23  H   UNL A   1      28.972  28.493  24.447  1.00  0.00     0.348 HD
ENDBRANCH  16  17
ENDBRANCH  14  16
ENDBRANCH  12  14
ENDBRANCH  10  12
ENDBRANCH   7  10
ENDBRANCH   5   7
ENDBRANCH   4   5
ENDBRANCH   3   4
ENDBRANCH   2   3
ENDBRANCH   1   2
BRANCH   1  24
ATOM     24  C   UNL A   1      38.852  21.742  26.073  1.00  0.00     0.188 C 
BRANCH  24  25
ATOM     25  C   UNL A   1      40.359  21.627  25.903  1.00  0.00     0.188 C 
BRANCH  25  26
ATOM     26  O   UNL A   1      40.977  20.799  26.874  1.00  0.00    -0.376 OA
BRANCH  26  27
ATOM     27  C   UNL A   1      41.238  19.499  26.373  1.00  0.00     0.202 C 
BRANCH  27  28
ATOM     28  C   UNL A   1      42.565  19.366  25.602  1.00  0.00     0.261 C 
BRANCH  28  29
ATOM     29  O   UNL A   1      43.659  20.224  26.025  1.00  0.00    -0.460 OA
BRANCH  29  30
ATOM     30  C   UNL A   1      44.158  21.108  25.101  1.00  0.00     0.338 C 
ATOM     31  O   UNL A   1      44.670  20.819  24.044  1.00  0.00    -0.246 OA
BRANCH  30  32
ATOM     32  C   UNL A   1      43.941  22.535  25.541  1.00  0.00     0.060 A 
ATOM     33  C   UNL A   1      43.984  23.590  24.610  1.00  0.00     0.016 A 
ATOM     34  C   UNL A   1      43.749  22.862  26.879  1.00  0.00     0.016 A 
ATOM     35  C   UNL A   1      43.794  24.950  25.006  1.00  0.00     0.010 A 
ATOM     36  C   UNL A   1      43.553  24.208  27.266  1.00  0.00     0.010 A 
ATOM     37  C   UNL A   1      43.539  25.288  26.345  1.00  0.00    -0.014 A 
BRANCH  37  38
ATOM     38  C   UNL A   1      43.477  26.709  26.911  1.00  0.00     0.031 A 
ATOM     39  C   UNL A   1      44.787  27.263  27.375  1.00  0.00     0.074 A 
ATOM     40  C   UNL A   1      42.391  27.490  27.180  1.00  0.00     0.049 A 
ATOM     41  N   UNL A   1      45.022  28.374  28.020  1.00  0.00    -0.248 NA
ATOM     42  C   UNL A   1      45.984  26.471  27.052  1.00  0.00     0.031 C 
ATOM     43  C   UNL A   1      41.041  27.275  26.724  1.00  0.00     0.029 A 
ATOM     44  N   UNL A   1      42.215  28.600  27.996  1.00  0.00    -0.354 N 
ATOM     45  C   UNL A   1      46.395  28.444  28.122  1.00  0.00     0.074 A 
ATOM     46  C   UNL A   1      46.933  27.205  27.605  1.00  0.00     0.031 C 
ATOM     47  C   UNL A   1      40.148  28.000  27.406  1.00  0.00     0.029 A 
ATOM     48  C   UNL A   1      40.883  28.888  28.275  1.00  0.00     0.049 A 
ATOM     49  H   UNL A   1      42.964  29.133  28.346  1.00  0.00     0.167 HD
ATOM     50  C   UNL A   1      47.151  29.484  28.534  1.00  0.00     0.031 A 
ATOM     51  C   UNL A   1      40.273  29.776  29.085  1.00  0.00     0.031 A 
ATOM     52  C   UNL A   1      46.636  30.703  29.086  1.00  0.00     0.049 A 
ATOM     53  C   UNL A   1      41.117  30.833  29.709  1.00  0.00     0.074 A 
ATOM     54  C   UNL A   1      47.336  31.826  29.482  1.00  0.00     0.029 A 
ATOM     55  N   UNL A   1      45.296  30.949  29.352  1.00  0.00    -0.354 N 
ATOM     56  N   UNL A   1      42.418  30.946  29.673  1.00  0.00    -0.248 NA
ATOM     57  C   UNL A   1      40.424  31.938  30.383  1.00  0.00     0.031 C 
ATOM     58  C   UNL A   1      46.430  32.728  30.049  1.00  0.00     0.029 A 
ATOM     59  C   UNL A   1      45.157  32.191  29.950  1.00  0.00     0.049 A 
ATOM     60  H   UNL A   1      44.556  30.333  29.148  1.00  0.00     0.167 HD
ATOM     61  C   UNL A   1      42.700  32.174  30.240  1.00  0.00     0.074 A 
ATOM     62  C   UNL A   1      41.434  32.758  30.638  1.00  0.00     0.031 C 
ATOM     63  C   UNL A   1      43.907  32.769  30.371  1.00  0.00     0.031 A 
BRANCH  50  64
ATOM     64  C   UNL A   1      48.626  29.308  28.363  1.00  0.00    -0.014 A 
ATOM     65  C   UNL A   1      49.401  28.744  29.393  1.00  0.00     0.009 A 
ATOM     66  C   UNL A   1      49.255  29.771  27.203  1.00  0.00     0.009 A 
ATOM     67  C   UNL A   1      50.790  28.702  29.286  1.00  0.00     0.001 A 
ATOM     68  C   UNL A   1      50.642  29.695  27.085  1.00  0.00     0.001 A 
ATOM     69  C   UNL A   1      51.408  29.177  28.130  1.00  0.00     0.000 A 
ENDBRANCH  50  64
BRANCH  51  70
ATOM     70  C   UNL A   1      38.786  29.793  29.251  1.00  0.00    -0.014 A 
ATOM     71  C   UNL A   1      37.952  30.356  28.271  1.00  0.00     0.009 A 
ATOM     72  C   UNL A   1      38.192  29.259  30.407  1.00  0.00     0.009 A 
ATOM     73  C   UNL A   1      36.566  30.414  28.458  1.00  0.00     0.001 A 
ATOM     74  C   UNL A   1      36.803  29.303  30.583  1.00  0.00     0.001 A 
ATOM     75  C   UNL A   1      35.992  29.887  29.613  1.00  0.00     0.000 A 
ENDBRANCH  51  70
BRANCH  63  76
ATOM     76  C   UNL A   1      43.917  34.152  30.945  1.00  0.00    -0.014 A 
ATOM     77  C   UNL A   1      44.056  34.370  32.323  1.00  0.00     0.009 A 
ATOM     78  C   UNL A   1      43.810  35.255  30.083  1.00  0.00     0.009 A 
ATOM     79  C   UNL A   1      44.059  35.668  32.831  1.00  0.00     0.001 A 
ATOM     80  C   UNL A   1      43.850  36.552  30.590  1.00  0.00     0.001 A 
ATOM     81  C   UNL A   1      43.966  36.757  31.964  1.00  0.00     0.000 A 
ENDBRANCH  63  76
ENDBRANCH  37  38
ENDBRANCH  30  32
ENDBRANCH  29  30
ENDBRANCH  28  29
ENDBRANCH  27  28
ENDBRANCH  26  27
ENDBRANCH  25  26
ENDBRANCH  24  25
ENDBRANCH   1  24
TORSDOF 23
ENDMDL
