MODEL 1
REMARK VINA RESULT:     -10.7      0.000      0.000
REMARK SMILES O=C(OCCOCCOCCOC(=O)[C@H]1C[C@H]2CCCC[C@@H]2[N@@H+]1CC[C@@H]1CCCO1)c1ccc(-c2c3nc(c(-c4ccccc4)c4ccc([nH]4)c(-c4ccccc4)c4nc(c(-c5ccccc5)c5ccc2[nH]5)C=C4)C=C3)cc1
REMARK SMILES IDX 8 1 7 2 6 3 5 4 4 5 3 6 2 7 1 8 31 9 32 10 78 11 33 12 77 13
REMARK SMILES IDX 34 14 35 15 36 16 71 17 37 18 76 19 70 20 72 21 38 22 75 23
REMARK SMILES IDX 69 24 68 25 39 27 61 28 46 29 60 30 47 31 50 32 59 33 73 34
REMARK SMILES IDX 48 35 49 36 58 38 74 39 51 40 40 41 41 42 45 43 42 44 44 45
REMARK SMILES IDX 43 46 62 47 63 48 67 49 64 50 66 51 65 52 52 53 53 54 57 55
REMARK SMILES IDX 54 56 56 57 55 58 9 59 10 60 11 61 12 62 13 63 14 64 15 65
REMARK SMILES IDX 16 66 23 67 17 68 22 69 18 71 21 72 19 73 20 74 24 75 25 76
REMARK SMILES IDX 26 77 27 78 30 79 28 80 29 81
REMARK H PARENT 72 26 50 37 23 70
REMARK Flexibility Score: inf
ROOT
ATOM      1  C   UNL A   1      33.696  32.877  27.992  1.00  0.00     0.188 C 
ENDROOT
BRANCH   1   2
ATOM      2  C   UNL A   1      34.319  33.749  29.079  1.00  0.00     0.188 C 
BRANCH   2   3
ATOM      3  O   UNL A   1      34.901  34.949  28.580  1.00  0.00    -0.376 OA
BRANCH   3   4
ATOM      4  C   UNL A   1      34.106  36.139  28.546  1.00  0.00     0.202 C 
BRANCH   4   5
ATOM      5  C   UNL A   1      32.834  36.223  29.412  1.00  0.00     0.261 C 
BRANCH   5   6
ATOM      6  O   UNL A   1      32.941  36.956  30.651  1.00  0.00    -0.460 OA
BRANCH   6   7
ATOM      7  C   UNL A   1      32.914  36.499  31.927  1.00  0.00     0.338 C 
ATOM      8  O   UNL A   1      32.128  36.978  32.739  1.00  0.00    -0.246 OA
BRANCH   7   9
ATOM      9  C   UNL A   1      33.819  35.410  32.356  1.00  0.00     0.060 A 
ATOM     10  C   UNL A   1      35.206  35.522  32.326  1.00  0.00     0.016 A 
ATOM     11  C   UNL A   1      33.280  34.273  32.931  1.00  0.00     0.016 A 
ATOM     12  C   UNL A   1      36.076  34.480  32.540  1.00  0.00     0.010 A 
ATOM     13  C   UNL A   1      34.154  33.277  33.366  1.00  0.00     0.010 A 
ATOM     14  C   UNL A   1      35.562  33.361  33.131  1.00  0.00    -0.014 A 
BRANCH  14  15
ATOM     15  C   UNL A   1      36.491  32.325  33.631  1.00  0.00     0.031 A 
ATOM     16  C   UNL A   1      37.394  32.771  34.698  1.00  0.00     0.074 A 
ATOM     17  C   UNL A   1      36.814  31.261  32.843  1.00  0.00     0.049 A 
ATOM     18  N   UNL A   1      38.625  32.419  34.910  1.00  0.00    -0.248 NA
ATOM     19  C   UNL A   1      36.890  33.899  35.510  1.00  0.00     0.031 C 
ATOM     20  C   UNL A   1      36.071  31.134  31.083  1.00  0.00     0.029 A 
ATOM     21  N   UNL A   1      38.400  30.474  32.715  1.00  0.00    -0.354 N 
ATOM     22  C   UNL A   1      39.012  33.249  35.931  1.00  0.00     0.074 A 
ATOM     23  C   UNL A   1      38.023  34.296  36.059  1.00  0.00     0.031 C 
ATOM     24  C   UNL A   1      37.343  30.488  29.968  1.00  0.00     0.029 A 
ATOM     25  C   UNL A   1      38.868  30.011  31.056  1.00  0.00     0.049 A 
ATOM     26  H   UNL A   1      38.975  30.307  33.496  1.00  0.00     0.167 HD
ATOM     27  C   UNL A   1      39.998  33.039  36.817  1.00  0.00     0.031 A 
ATOM     28  C   UNL A   1      39.949  29.270  30.715  1.00  0.00     0.031 A 
ATOM     29  C   UNL A   1      41.015  32.054  36.650  1.00  0.00     0.049 A 
ATOM     30  C   UNL A   1      41.024  29.114  31.752  1.00  0.00     0.074 A 
ATOM     31  C   UNL A   1      42.019  31.727  37.532  1.00  0.00     0.029 A 
ATOM     32  N   UNL A   1      41.198  31.285  35.504  1.00  0.00    -0.354 N 
ATOM     33  N   UNL A   1      41.168  29.770  32.878  1.00  0.00    -0.248 NA
ATOM     34  C   UNL A   1      42.096  28.146  31.474  1.00  0.00     0.031 C 
ATOM     35  C   UNL A   1      42.878  30.844  36.878  1.00  0.00     0.029 A 
ATOM     36  C   UNL A   1      42.342  30.520  35.637  1.00  0.00     0.049 A 
ATOM     37  H   UNL A   1      40.605  31.287  34.718  1.00  0.00     0.167 HD
ATOM     38  C   UNL A   1      42.310  29.260  33.475  1.00  0.00     0.074 A 
ATOM     39  C   UNL A   1      42.845  28.264  32.563  1.00  0.00     0.031 C 
ATOM     40  C   UNL A   1      42.852  29.567  34.678  1.00  0.00     0.031 A 
BRANCH  27  41
ATOM     41  C   UNL A   1      39.906  33.908  38.030  1.00  0.00    -0.014 A 
ATOM     42  C   UNL A   1      39.073  33.531  39.109  1.00  0.00     0.009 A 
ATOM     43  C   UNL A   1      40.475  35.180  38.011  1.00  0.00     0.009 A 
ATOM     44  C   UNL A   1      38.721  34.460  40.081  1.00  0.00     0.001 A 
ATOM     45  C   UNL A   1      40.164  36.089  39.020  1.00  0.00     0.001 A 
ATOM     46  C   UNL A   1      39.267  35.740  40.034  1.00  0.00     0.000 A 
ENDBRANCH  27  41
BRANCH  28  47
ATOM     47  C   UNL A   1      39.983  28.495  29.448  1.00  0.00    -0.014 A 
ATOM     48  C   UNL A   1      40.500  29.061  28.265  1.00  0.00     0.009 A 
ATOM     49  C   UNL A   1      39.469  27.204  29.375  1.00  0.00     0.009 A 
ATOM     50  C   UNL A   1      40.531  28.336  27.065  1.00  0.00     0.001 A 
ATOM     51  C   UNL A   1      39.533  26.461  28.188  1.00  0.00     0.001 A 
ATOM     52  C   UNL A   1      40.071  27.023  27.034  1.00  0.00     0.000 A 
ENDBRANCH  28  47
BRANCH  40  53
ATOM     53  C   UNL A   1      44.063  28.789  35.101  1.00  0.00    -0.014 A 
ATOM     54  C   UNL A   1      45.363  29.242  34.840  1.00  0.00     0.009 A 
ATOM     55  C   UNL A   1      43.879  27.640  35.890  1.00  0.00     0.009 A 
ATOM     56  C   UNL A   1      46.459  28.550  35.357  1.00  0.00     0.001 A 
ATOM     57  C   UNL A   1      44.972  26.979  36.440  1.00  0.00     0.001 A 
ATOM     58  C   UNL A   1      46.262  27.432  36.168  1.00  0.00     0.000 A 
ENDBRANCH  40  53
ENDBRANCH  14  15
ENDBRANCH   7   9
ENDBRANCH   6   7
ENDBRANCH   5   6
ENDBRANCH   4   5
ENDBRANCH   3   4
ENDBRANCH   2   3
ENDBRANCH   1   2
BRANCH   1  59
ATOM     59  O   UNL A   1      32.427  33.279  27.491  1.00  0.00    -0.376 OA
BRANCH  59  60
ATOM     60  C   UNL A   1      31.617  32.269  26.903  1.00  0.00     0.202 C 
BRANCH  60  61
ATOM     61  C   UNL A   1      32.185  30.838  26.796  1.00  0.00     0.261 C 
BRANCH  61  62
ATOM     62  O   UNL A   1      31.294  29.767  27.151  1.00  0.00    -0.459 OA
BRANCH  62  63
ATOM     63  C   UNL A   1      31.827  28.509  27.180  1.00  0.00     0.365 C 
ATOM     64  O   UNL A   1      31.738  27.745  28.136  1.00  0.00    -0.245 OA
BRANCH  63  65
ATOM     65  C   UNL A   1      32.563  28.140  25.868  1.00  0.00     0.295 C 
ATOM     66  C   UNL A   1      33.608  26.949  26.030  1.00  0.00     0.087 C 
ATOM     67  N   UNL A   1      31.525  27.746  24.813  1.00  0.00    -0.320 N 
ATOM     68  C   UNL A   1      33.326  26.203  24.742  1.00  0.00     0.054 C 
ATOM     69  C   UNL A   1      31.608  26.276  24.786  1.00  0.00     0.188 C 
ATOM     70  H   UNL A   1      30.575  28.033  25.051  1.00  0.00     0.349 HD
ATOM     71  C   UNL A   1      34.315  24.884  24.119  1.00  0.00     0.010 C 
ATOM     72  C   UNL A   1      30.413  25.060  24.072  1.00  0.00     0.065 C 
ATOM     73  C   UNL A   1      33.421  23.538  23.059  1.00  0.00     0.001 C 
ATOM     74  C   UNL A   1      31.181  23.380  23.375  1.00  0.00     0.006 C 
BRANCH  67  75
ATOM     75  C   UNL A   1      31.536  28.521  23.531  1.00  0.00     0.265 C 
BRANCH  75  76
ATOM     76  C   UNL A   1      30.491  28.676  22.311  1.00  0.00     0.093 C 
BRANCH  76  77
ATOM     77  C   UNL A   1      29.756  30.031  22.084  1.00  0.00     0.123 C 
ATOM     78  C   UNL A   1      29.046  30.471  23.308  1.00  0.00     0.034 C 
ATOM     79  O   UNL A   1      28.666  30.124  21.145  1.00  0.00    -0.378 OA
ATOM     80  C   UNL A   1      28.078  31.541  22.991  1.00  0.00     0.031 C 
ATOM     81  C   UNL A   1      27.848  31.278  21.537  1.00  0.00     0.160 C 
ENDBRANCH  76  77
ENDBRANCH  75  76
ENDBRANCH  67  75
ENDBRANCH  63  65
ENDBRANCH  62  63
ENDBRANCH  61  62
ENDBRANCH  60  61
ENDBRANCH  59  60
ENDBRANCH   1  59
TORSDOF 20
ENDMDL
MODEL 2
REMARK VINA RESULT:     -10.5      7.186     12.739
REMARK SMILES O=C(OCCOCCOCCOC(=O)[C@H]1C[C@H]2CCCC[C@@H]2[N@@H+]1CC[C@@H]1CCCO1)c1ccc(-c2c3nc(c(-c4ccccc4)c4ccc([nH]4)c(-c4ccccc4)c4nc(c(-c5ccccc5)c5ccc2[nH]5)C=C4)C=C3)cc1
REMARK SMILES IDX 8 1 7 2 6 3 5 4 4 5 3 6 2 7 1 8 31 9 32 10 78 11 33 12 77 13
REMARK SMILES IDX 34 14 35 15 36 16 71 17 37 18 76 19 70 20 72 21 38 22 75 23
REMARK SMILES IDX 69 24 68 25 39 27 61 28 46 29 60 30 47 31 50 32 59 33 73 34
REMARK SMILES IDX 48 35 49 36 58 38 74 39 51 40 40 41 41 42 45 43 42 44 44 45
REMARK SMILES IDX 43 46 62 47 63 48 67 49 64 50 66 51 65 52 52 53 53 54 57 55
REMARK SMILES IDX 54 56 56 57 55 58 9 59 10 60 11 61 12 62 13 63 14 64 15 65
REMARK SMILES IDX 16 66 23 67 17 68 22 69 18 71 21 72 19 73 20 74 24 75 25 76
REMARK SMILES IDX 26 77 27 78 30 79 28 80 29 81
REMARK H PARENT 72 26 50 37 23 70
REMARK Flexibility Score: inf
ROOT
ATOM      1  C   UNL A   1      40.454  22.045  27.552  1.00  0.00     0.188 C 
ENDROOT
BRANCH   1   2
ATOM      2  C   UNL A   1      41.856  21.568  27.182  1.00  0.00     0.188 C 
BRANCH   2   3
ATOM      3  O   UNL A   1      42.085  20.194  27.479  1.00  0.00    -0.376 OA
BRANCH   3   4
ATOM      4  C   UNL A   1      41.975  19.233  26.423  1.00  0.00     0.202 C 
BRANCH   4   5
ATOM      5  C   UNL A   1      43.166  18.306  26.117  1.00  0.00     0.261 C 
BRANCH   5   6
ATOM      6  O   UNL A   1      43.909  18.582  24.910  1.00  0.00    -0.460 OA
BRANCH   6   7
ATOM      7  C   UNL A   1      45.043  19.306  24.743  1.00  0.00     0.338 C 
ATOM      8  O   UNL A   1      46.108  18.742  24.511  1.00  0.00    -0.246 OA
BRANCH   7   9
ATOM      9  C   UNL A   1      45.012  20.782  24.825  1.00  0.00     0.060 A 
ATOM     10  C   UNL A   1      45.409  21.487  25.957  1.00  0.00     0.016 A 
ATOM     11  C   UNL A   1      44.698  21.514  23.692  1.00  0.00     0.016 A 
ATOM     12  C   UNL A   1      45.226  22.837  26.139  1.00  0.00     0.010 A 
ATOM     13  C   UNL A   1      44.716  22.905  23.781  1.00  0.00     0.010 A 
ATOM     14  C   UNL A   1      44.940  23.574  25.025  1.00  0.00    -0.014 A 
BRANCH  14  15
ATOM     15  C   UNL A   1      45.002  25.049  25.107  1.00  0.00     0.031 A 
ATOM     16  C   UNL A   1      46.332  25.594  25.400  1.00  0.00     0.074 A 
ATOM     17  C   UNL A   1      43.876  25.763  25.392  1.00  0.00     0.049 A 
ATOM     18  N   UNL A   1      46.636  26.636  26.111  1.00  0.00    -0.248 NA
ATOM     19  C   UNL A   1      47.462  24.736  24.986  1.00  0.00     0.031 C 
ATOM     20  C   UNL A   1      42.228  24.839  25.702  1.00  0.00     0.029 A 
ATOM     21  N   UNL A   1      43.767  27.219  26.401  1.00  0.00    -0.354 N 
ATOM     22  C   UNL A   1      48.004  26.583  26.168  1.00  0.00     0.074 A 
ATOM     23  C   UNL A   1      48.423  25.276  25.711  1.00  0.00     0.031 C 
ATOM     24  C   UNL A   1      41.343  25.678  27.040  1.00  0.00     0.029 A 
ATOM     25  C   UNL A   1      42.339  27.276  27.472  1.00  0.00     0.049 A 
ATOM     26  H   UNL A   1      44.440  27.937  26.373  1.00  0.00     0.167 HD
ATOM     27  C   UNL A   1      48.847  27.604  26.386  1.00  0.00     0.031 A 
ATOM     28  C   UNL A   1      41.952  28.336  28.221  1.00  0.00     0.031 A 
ATOM     29  C   UNL A   1      48.441  28.868  26.906  1.00  0.00     0.049 A 
ATOM     30  C   UNL A   1      42.967  29.419  28.447  1.00  0.00     0.074 A 
ATOM     31  C   UNL A   1      49.219  29.986  27.099  1.00  0.00     0.029 A 
ATOM     32  N   UNL A   1      47.164  29.161  27.378  1.00  0.00    -0.354 N 
ATOM     33  N   UNL A   1      44.255  29.391  28.199  1.00  0.00    -0.248 NA
ATOM     34  C   UNL A   1      42.499  30.664  29.074  1.00  0.00     0.031 C 
ATOM     35  C   UNL A   1      48.447  30.919  27.791  1.00  0.00     0.029 A 
ATOM     36  C   UNL A   1      47.150  30.434  27.916  1.00  0.00     0.049 A 
ATOM     37  H   UNL A   1      46.390  28.555  27.335  1.00  0.00     0.167 HD
ATOM     38  C   UNL A   1      44.745  30.630  28.582  1.00  0.00     0.074 A 
ATOM     39  C   UNL A   1      43.620  31.373  29.120  1.00  0.00     0.031 C 
ATOM     40  C   UNL A   1      46.005  31.116  28.475  1.00  0.00     0.031 A 
BRANCH  27  41
ATOM     41  C   UNL A   1      50.257  27.311  25.985  1.00  0.00    -0.014 A 
ATOM     42  C   UNL A   1      50.674  27.528  24.652  1.00  0.00     0.009 A 
ATOM     43  C   UNL A   1      51.098  26.636  26.868  1.00  0.00     0.009 A 
ATOM     44  C   UNL A   1      51.856  26.965  24.186  1.00  0.00     0.001 A 
ATOM     45  C   UNL A   1      52.309  26.123  26.410  1.00  0.00     0.001 A 
ATOM     46  C   UNL A   1      52.672  26.261  25.067  1.00  0.00     0.000 A 
ENDBRANCH  27  41
BRANCH  28  47
ATOM     47  C   UNL A   1      40.537  28.508  28.639  1.00  0.00    -0.014 A 
ATOM     48  C   UNL A   1      40.090  28.042  29.892  1.00  0.00     0.009 A 
ATOM     49  C   UNL A   1      39.599  29.093  27.793  1.00  0.00     0.009 A 
ATOM     50  C   UNL A   1      38.754  28.198  30.290  1.00  0.00     0.001 A 
ATOM     51  C   UNL A   1      38.271  29.285  28.202  1.00  0.00     0.001 A 
ATOM     52  C   UNL A   1      37.849  28.845  29.454  1.00  0.00     0.000 A 
ENDBRANCH  28  47
BRANCH  40  53
ATOM     53  C   UNL A   1      46.229  32.536  28.908  1.00  0.00    -0.014 A 
ATOM     54  C   UNL A   1      46.677  32.855  30.197  1.00  0.00     0.009 A 
ATOM     55  C   UNL A   1      46.103  33.556  27.950  1.00  0.00     0.009 A 
ATOM     56  C   UNL A   1      46.988  34.176  30.519  1.00  0.00     0.001 A 
ATOM     57  C   UNL A   1      46.457  34.864  28.261  1.00  0.00     0.001 A 
ATOM     58  C   UNL A   1      46.893  35.174  29.547  1.00  0.00     0.000 A 
ENDBRANCH  40  53
ENDBRANCH  14  15
ENDBRANCH   7   9
ENDBRANCH   6   7
ENDBRANCH   5   6
ENDBRANCH   4   5
ENDBRANCH   3   4
ENDBRANCH   2   3
ENDBRANCH   1   2
BRANCH   1  59
ATOM     59  O   UNL A   1      39.569  22.339  26.478  1.00  0.00    -0.376 OA
BRANCH  59  60
ATOM     60  C   UNL A   1      38.949  21.234  25.834  1.00  0.00     0.202 C 
BRANCH  60  61
ATOM     61  C   UNL A   1      37.604  21.461  25.111  1.00  0.00     0.261 C 
BRANCH  61  62
ATOM     62  O   UNL A   1      37.434  22.733  24.460  1.00  0.00    -0.459 OA
BRANCH  62  63
ATOM     63  C   UNL A   1      36.228  22.958  23.858  1.00  0.00     0.365 C 
ATOM     64  O   UNL A   1      36.094  23.249  22.674  1.00  0.00    -0.245 OA
BRANCH  63  65
ATOM     65  C   UNL A   1      35.034  22.808  24.833  1.00  0.00     0.295 C 
ATOM     66  C   UNL A   1      34.722  24.122  25.675  1.00  0.00     0.087 C 
ATOM     67  N   UNL A   1      33.787  22.426  24.032  1.00  0.00    -0.320 N 
ATOM     68  C   UNL A   1      33.209  24.091  25.619  1.00  0.00     0.054 C 
ATOM     69  C   UNL A   1      33.031  23.688  23.957  1.00  0.00     0.188 C 
ATOM     70  H   UNL A   1      33.995  22.093  23.089  1.00  0.00     0.349 HD
ATOM     71  C   UNL A   1      32.156  25.133  26.575  1.00  0.00     0.010 C 
ATOM     72  C   UNL A   1      31.633  24.138  22.834  1.00  0.00     0.065 C 
ATOM     73  C   UNL A   1      30.442  25.593  25.809  1.00  0.00     0.001 C 
ATOM     74  C   UNL A   1      30.303  25.406  23.553  1.00  0.00     0.006 C 
BRANCH  67  75
ATOM     75  C   UNL A   1      33.091  21.158  24.425  1.00  0.00     0.265 C 
BRANCH  75  76
ATOM     76  C   UNL A   1      32.365  19.979  23.595  1.00  0.00     0.093 C 
BRANCH  76  77
ATOM     77  C   UNL A   1      32.790  18.497  23.818  1.00  0.00     0.123 C 
ATOM     78  C   UNL A   1      34.126  18.408  24.450  1.00  0.00     0.034 C 
ATOM     79  O   UNL A   1      33.014  17.623  22.693  1.00  0.00    -0.378 OA
ATOM     80  C   UNL A   1      34.669  17.039  24.330  1.00  0.00     0.031 C 
ATOM     81  C   UNL A   1      33.900  16.545  23.146  1.00  0.00     0.160 C 
ENDBRANCH  76  77
ENDBRANCH  75  76
ENDBRANCH  67  75
ENDBRANCH  63  65
ENDBRANCH  62  63
ENDBRANCH  61  62
ENDBRANCH  60  61
ENDBRANCH  59  60
ENDBRANCH   1  59
TORSDOF 20
ENDMDL
MODEL 3
REMARK VINA RESULT:     -10.3      6.732     12.109
REMARK SMILES O=C(OCCOCCOCCOC(=O)[C@H]1C[C@H]2CCCC[C@@H]2[N@@H+]1CC[C@@H]1CCCO1)c1ccc(-c2c3nc(c(-c4ccccc4)c4ccc([nH]4)c(-c4ccccc4)c4nc(c(-c5ccccc5)c5ccc2[nH]5)C=C4)C=C3)cc1
REMARK SMILES IDX 8 1 7 2 6 3 5 4 4 5 3 6 2 7 1 8 31 9 32 10 78 11 33 12 77 13
REMARK SMILES IDX 34 14 35 15 36 16 71 17 37 18 76 19 70 20 72 21 38 22 75 23
REMARK SMILES IDX 69 24 68 25 39 27 61 28 46 29 60 30 47 31 50 32 59 33 73 34
REMARK SMILES IDX 48 35 49 36 58 38 74 39 51 40 40 41 41 42 45 43 42 44 44 45
REMARK SMILES IDX 43 46 62 47 63 48 67 49 64 50 66 51 65 52 52 53 53 54 57 55
REMARK SMILES IDX 54 56 56 57 55 58 9 59 10 60 11 61 12 62 13 63 14 64 15 65
REMARK SMILES IDX 16 66 23 67 17 68 22 69 18 71 21 72 19 73 20 74 24 75 25 76
REMARK SMILES IDX 26 77 27 78 30 79 28 80 29 81
REMARK H PARENT 72 26 50 37 23 70
REMARK Flexibility Score: inf
ROOT
ATOM      1  C   UNL A   1      40.335  21.806  26.390  1.00  0.00     0.188 C 
ENDROOT
BRANCH   1   2
ATOM      2  C   UNL A   1      41.025  21.418  27.696  1.00  0.00     0.188 C 
BRANCH   2   3
ATOM      3  O   UNL A   1      41.613  20.121  27.664  1.00  0.00    -0.376 OA
BRANCH   3   4
ATOM      4  C   UNL A   1      41.672  19.422  26.416  1.00  0.00     0.202 C 
BRANCH   4   5
ATOM      5  C   UNL A   1      42.785  18.382  26.184  1.00  0.00     0.261 C 
BRANCH   5   6
ATOM      6  O   UNL A   1      43.559  18.520  24.974  1.00  0.00    -0.460 OA
BRANCH   6   7
ATOM      7  C   UNL A   1      44.710  19.204  24.761  1.00  0.00     0.338 C 
ATOM      8  O   UNL A   1      45.748  18.602  24.501  1.00  0.00    -0.246 OA
BRANCH   7   9
ATOM      9  C   UNL A   1      44.730  20.681  24.824  1.00  0.00     0.060 A 
ATOM     10  C   UNL A   1      44.899  21.386  26.012  1.00  0.00     0.016 A 
ATOM     11  C   UNL A   1      44.706  21.408  23.646  1.00  0.00     0.016 A 
ATOM     12  C   UNL A   1      44.742  22.745  26.141  1.00  0.00     0.010 A 
ATOM     13  C   UNL A   1      44.768  22.798  23.728  1.00  0.00     0.010 A 
ATOM     14  C   UNL A   1      44.744  23.476  24.987  1.00  0.00    -0.014 A 
BRANCH  14  15
ATOM     15  C   UNL A   1      44.853  24.948  25.072  1.00  0.00     0.031 A 
ATOM     16  C   UNL A   1      46.191  25.448  25.408  1.00  0.00     0.074 A 
ATOM     17  C   UNL A   1      43.744  25.701  25.320  1.00  0.00     0.049 A 
ATOM     18  N   UNL A   1      46.507  26.479  26.129  1.00  0.00    -0.248 NA
ATOM     19  C   UNL A   1      47.304  24.551  25.030  1.00  0.00     0.031 C 
ATOM     20  C   UNL A   1      42.056  24.834  25.576  1.00  0.00     0.029 A 
ATOM     21  N   UNL A   1      43.653  27.161  26.327  1.00  0.00    -0.354 N 
ATOM     22  C   UNL A   1      47.871  26.379  26.229  1.00  0.00     0.074 A 
ATOM     23  C   UNL A   1      48.259  25.058  25.786  1.00  0.00     0.031 C 
ATOM     24  C   UNL A   1      41.157  25.704  26.886  1.00  0.00     0.029 A 
ATOM     25  C   UNL A   1      42.194  27.267  27.351  1.00  0.00     0.049 A 
ATOM     26  H   UNL A   1      44.350  27.855  26.320  1.00  0.00     0.167 HD
ATOM     27  C   UNL A   1      48.741  27.371  26.475  1.00  0.00     0.031 A 
ATOM     28  C   UNL A   1      41.820  28.340  28.087  1.00  0.00     0.031 A 
ATOM     29  C   UNL A   1      48.362  28.648  26.982  1.00  0.00     0.049 A 
ATOM     30  C   UNL A   1      42.864  29.388  28.346  1.00  0.00     0.074 A 
ATOM     31  C   UNL A   1      49.172  29.739  27.201  1.00  0.00     0.029 A 
ATOM     32  N   UNL A   1      47.081  28.985  27.412  1.00  0.00    -0.354 N 
ATOM     33  N   UNL A   1      44.157  29.316  28.140  1.00  0.00    -0.248 NA
ATOM     34  C   UNL A   1      42.419  30.649  28.959  1.00  0.00     0.031 C 
ATOM     35  C   UNL A   1      48.410  30.698  27.868  1.00  0.00     0.029 A 
ATOM     36  C   UNL A   1      47.094  30.259  27.951  1.00  0.00     0.049 A 
ATOM     37  H   UNL A   1      46.289  28.406  27.345  1.00  0.00     0.167 HD
ATOM     38  C   UNL A   1      44.677  30.537  28.540  1.00  0.00     0.074 A 
ATOM     39  C   UNL A   1      43.561  31.319  29.041  1.00  0.00     0.031 C 
ATOM     40  C   UNL A   1      45.956  30.980  28.473  1.00  0.00     0.031 A 
BRANCH  27  41
ATOM     41  C   UNL A   1      50.153  27.029  26.119  1.00  0.00    -0.014 A 
ATOM     42  C   UNL A   1      50.614  27.216  24.796  1.00  0.00     0.009 A 
ATOM     43  C   UNL A   1      50.946  26.339  27.035  1.00  0.00     0.009 A 
ATOM     44  C   UNL A   1      51.792  26.611  24.372  1.00  0.00     0.001 A 
ATOM     45  C   UNL A   1      52.153  25.783  26.619  1.00  0.00     0.001 A 
ATOM     46  C   UNL A   1      52.559  25.893  25.285  1.00  0.00     0.000 A 
ENDBRANCH  27  41
BRANCH  28  47
ATOM     47  C   UNL A   1      40.399  28.561  28.459  1.00  0.00    -0.014 A 
ATOM     48  C   UNL A   1      39.507  29.196  27.572  1.00  0.00     0.009 A 
ATOM     49  C   UNL A   1      39.912  28.188  29.709  1.00  0.00     0.009 A 
ATOM     50  C   UNL A   1      38.165  29.411  27.920  1.00  0.00     0.001 A 
ATOM     51  C   UNL A   1      38.563  28.366  30.047  1.00  0.00     0.001 A 
ATOM     52  C   UNL A   1      37.686  28.970  29.150  1.00  0.00     0.000 A 
ENDBRANCH  28  47
BRANCH  40  53
ATOM     53  C   UNL A   1      46.214  32.391  28.913  1.00  0.00    -0.014 A 
ATOM     54  C   UNL A   1      46.060  33.478  28.043  1.00  0.00     0.009 A 
ATOM     55  C   UNL A   1      46.494  32.628  30.270  1.00  0.00     0.009 A 
ATOM     56  C   UNL A   1      46.192  34.781  28.526  1.00  0.00     0.001 A 
ATOM     57  C   UNL A   1      46.580  33.929  30.756  1.00  0.00     0.001 A 
ATOM     58  C   UNL A   1      46.435  35.004  29.882  1.00  0.00     0.000 A 
ENDBRANCH  40  53
ENDBRANCH  14  15
ENDBRANCH   7   9
ENDBRANCH   6   7
ENDBRANCH   5   6
ENDBRANCH   4   5
ENDBRANCH   3   4
ENDBRANCH   2   3
ENDBRANCH   1   2
BRANCH   1  59
ATOM     59  O   UNL A   1      39.036  22.375  26.491  1.00  0.00    -0.376 OA
BRANCH  59  60
ATOM     60  C   UNL A   1      38.132  22.112  25.426  1.00  0.00     0.202 C 
BRANCH  60  61
ATOM     61  C   UNL A   1      36.703  22.689  25.511  1.00  0.00     0.261 C 
BRANCH  61  62
ATOM     62  O   UNL A   1      35.750  22.184  24.560  1.00  0.00    -0.459 OA
BRANCH  62  63
ATOM     63  C   UNL A   1      35.604  22.894  23.401  1.00  0.00     0.365 C 
ATOM     64  O   UNL A   1      36.521  23.146  22.627  1.00  0.00    -0.245 OA
BRANCH  63  65
ATOM     65  C   UNL A   1      34.144  23.353  23.161  1.00  0.00     0.295 C 
ATOM     66  C   UNL A   1      33.097  22.732  24.188  1.00  0.00     0.087 C 
ATOM     67  N   UNL A   1      34.084  24.880  23.257  1.00  0.00    -0.320 N 
ATOM     68  C   UNL A   1      32.239  23.957  24.428  1.00  0.00     0.054 C 
ATOM     69  C   UNL A   1      33.501  25.115  24.588  1.00  0.00     0.188 C 
ATOM     70  H   UNL A   1      35.000  25.328  23.198  1.00  0.00     0.349 HD
ATOM     71  C   UNL A   1      30.700  23.942  25.288  1.00  0.00     0.010 C 
ATOM     72  C   UNL A   1      33.479  26.670  25.587  1.00  0.00     0.065 C 
ATOM     73  C   UNL A   1      30.207  25.550  26.240  1.00  0.00     0.001 C 
ATOM     74  C   UNL A   1      31.926  26.928  26.778  1.00  0.00     0.006 C 
BRANCH  67  75
ATOM     75  C   UNL A   1      33.548  25.613  22.064  1.00  0.00     0.265 C 
BRANCH  75  76
ATOM     76  C   UNL A   1      32.063  25.865  21.483  1.00  0.00     0.093 C 
BRANCH  76  77
ATOM     77  C   UNL A   1      31.211  27.053  22.019  1.00  0.00     0.123 C 
ATOM     78  C   UNL A   1      32.060  28.072  22.679  1.00  0.00     0.034 C 
ATOM     79  O   UNL A   1      30.248  26.846  23.073  1.00  0.00    -0.378 OA
ATOM     80  C   UNL A   1      31.234  28.995  23.485  1.00  0.00     0.031 C 
ATOM     81  C   UNL A   1      30.030  28.141  23.728  1.00  0.00     0.160 C 
ENDBRANCH  76  77
ENDBRANCH  75  76
ENDBRANCH  67  75
ENDBRANCH  63  65
ENDBRANCH  62  63
ENDBRANCH  61  62
ENDBRANCH  60  61
ENDBRANCH  59  60
ENDBRANCH   1  59
TORSDOF 20
ENDMDL
