MODEL 1
REMARK VINA RESULT:      -9.9      0.000      0.000
REMARK SMILES C#Cc1ccc2c(c1)C=C(C(=O)OCCOCCOCCOC(=O)c1ccc(-c3c4nc(c(-c5ccccc5)c5ccc([nH]5)c(-c5ccccc5)c5nc(c(-c6ccccc6)c6ccc3[nH]6)C=C5)C=C4)cc1)[C@@H](C(F)(F)F)O2
REMARK SMILES IDX 18 1 17 2 16 3 15 4 14 5 13 6 11 7 12 8 10 9 3 10 4 11 8 12
REMARK SMILES IDX 5 13 7 14 6 15 9 16 78 17 73 18 2 19 1 20 74 21 75 22 76 23
REMARK SMILES IDX 77 24 19 25 20 26 21 27 22 28 23 29 24 30 25 31 26 32 72 33
REMARK SMILES IDX 27 34 71 35 28 36 29 37 30 38 65 39 31 40 70 41 64 42 66 43
REMARK SMILES IDX 32 44 69 45 63 46 62 47 33 49 55 50 40 51 54 52 41 53 44 54
REMARK SMILES IDX 53 55 67 56 42 57 43 58 52 60 68 61 45 62 34 63 35 64 39 65
REMARK SMILES IDX 36 66 38 67 37 68 56 69 57 70 61 71 58 72 60 73 59 74 46 75
REMARK SMILES IDX 47 76 51 77 48 78 50 79 49 80
REMARK H PARENT 66 48 44 59
REMARK Flexibility Score: inf
ROOT
ATOM      1  C   UNL A   1      33.790  28.939  26.513  1.00  0.00     0.188 C 
ENDROOT
BRANCH   1   2
ATOM      2  C   UNL A   1      32.749  28.397  25.512  1.00  0.00     0.188 C 
BRANCH   2   3
ATOM      3  O   UNL A   1      31.459  28.097  25.989  1.00  0.00    -0.376 OA
BRANCH   3   4
ATOM      4  C   UNL A   1      30.951  26.774  25.938  1.00  0.00     0.202 C 
BRANCH   4   5
ATOM      5  C   UNL A   1      31.765  25.488  26.187  1.00  0.00     0.261 C 
BRANCH   5   6
ATOM      6  O   UNL A   1      31.967  24.601  25.082  1.00  0.00    -0.460 OA
BRANCH   6   7
ATOM      7  C   UNL A   1      33.001  23.735  25.204  1.00  0.00     0.338 C 
ATOM      8  O   UNL A   1      33.975  23.859  25.927  1.00  0.00    -0.246 OA
BRANCH   7   9
ATOM      9  C   UNL A   1      32.693  22.496  24.455  1.00  0.00     0.087 C 
ATOM     10  C   UNL A   1      32.694  17.690  24.267  1.00  0.00     0.025 A 
ATOM     11  C   UNL A   1      32.422  17.750  22.899  1.00  0.00     0.021 A 
ATOM     12  C   UNL A   1      32.755  18.866  25.018  1.00  0.00     0.029 A 
ATOM     13  C   UNL A   1      32.184  18.984  22.289  1.00  0.00     0.048 A 
ATOM     14  C   UNL A   1      32.570  20.107  24.396  1.00  0.00     0.018 A 
ATOM     15  C   UNL A   1      32.259  20.161  23.036  1.00  0.00     0.128 A 
ATOM     16  C   UNL A   1      32.785  21.343  25.131  1.00  0.00     0.027 C 
ATOM     17  O   UNL A   1      32.026  21.319  22.354  1.00  0.00    -0.475 OA
ATOM     18  C   UNL A   1      32.283  22.592  23.009  1.00  0.00     0.316 C 
BRANCH  10  19
ATOM     19  C   UNL A   1      32.960  16.426  24.887  1.00  0.00    -0.070 C 
ATOM     20  C   UNL A   1      33.194  15.362  25.384  1.00  0.00     0.010 C 
ENDBRANCH  10  19
BRANCH  18  21
ATOM     21  C   UNL A   1      33.307  23.368  22.174  1.00  0.00     0.430 C 
ATOM     22  F   UNL A   1      33.081  24.703  22.230  1.00  0.00    -0.167 F 
ATOM     23  F   UNL A   1      34.570  23.169  22.619  1.00  0.00    -0.167 F 
ATOM     24  F   UNL A   1      33.274  23.004  20.872  1.00  0.00    -0.167 F 
ENDBRANCH  18  21
ENDBRANCH   7   9
ENDBRANCH   6   7
ENDBRANCH   5   6
ENDBRANCH   4   5
ENDBRANCH   3   4
ENDBRANCH   2   3
ENDBRANCH   1   2
BRANCH   1  25
ATOM     25  O   UNL A   1      33.372  29.867  27.485  1.00  0.00    -0.376 OA
BRANCH  25  26
ATOM     26  C   UNL A   1      33.608  31.251  27.282  1.00  0.00     0.202 C 
BRANCH  26  27
ATOM     27  C   UNL A   1      32.607  32.388  27.597  1.00  0.00     0.261 C 
BRANCH  27  28
ATOM     28  O   UNL A   1      33.089  33.737  27.624  1.00  0.00    -0.460 OA
BRANCH  28  29
ATOM     29  C   UNL A   1      33.313  34.274  28.853  1.00  0.00     0.338 C 
ATOM     30  O   UNL A   1      32.527  34.908  29.534  1.00  0.00    -0.246 OA
BRANCH  29  31
ATOM     31  C   UNL A   1      34.617  33.776  29.343  1.00  0.00     0.060 A 
ATOM     32  C   UNL A   1      34.684  33.041  30.524  1.00  0.00     0.016 A 
ATOM     33  C   UNL A   1      35.789  34.081  28.632  1.00  0.00     0.016 A 
ATOM     34  C   UNL A   1      35.927  32.604  30.990  1.00  0.00     0.010 A 
ATOM     35  C   UNL A   1      37.034  33.661  29.112  1.00  0.00     0.010 A 
ATOM     36  C   UNL A   1      37.112  32.899  30.285  1.00  0.00    -0.014 A 
BRANCH  36  37
ATOM     37  C   UNL A   1      38.390  32.263  30.698  1.00  0.00     0.031 A 
ATOM     38  C   UNL A   1      39.253  32.825  31.789  1.00  0.00     0.074 A 
ATOM     39  C   UNL A   1      38.760  31.131  30.068  1.00  0.00     0.049 A 
ATOM     40  N   UNL A   1      40.332  32.307  32.323  1.00  0.00    -0.248 NA
ATOM     41  C   UNL A   1      38.868  34.126  32.353  1.00  0.00     0.031 C 
ATOM     42  C   UNL A   1      38.012  30.504  28.978  1.00  0.00     0.029 A 
ATOM     43  N   UNL A   1      39.831  30.295  30.263  1.00  0.00    -0.354 N 
ATOM     44  C   UNL A   1      40.745  33.204  33.299  1.00  0.00     0.074 A 
ATOM     45  C   UNL A   1      39.830  34.325  33.250  1.00  0.00     0.031 C 
ATOM     46  C   UNL A   1      38.617  29.359  28.635  1.00  0.00     0.029 A 
ATOM     47  C   UNL A   1      39.821  29.190  29.444  1.00  0.00     0.049 A 
ATOM     48  H   UNL A   1      40.538  30.468  30.926  1.00  0.00     0.167 HD
ATOM     49  C   UNL A   1      41.779  33.085  34.167  1.00  0.00     0.031 A 
ATOM     50  C   UNL A   1      40.674  28.151  29.350  1.00  0.00     0.031 A 
ATOM     51  C   UNL A   1      42.693  31.968  34.197  1.00  0.00     0.049 A 
ATOM     52  C   UNL A   1      41.844  28.073  30.291  1.00  0.00     0.074 A 
ATOM     53  C   UNL A   1      43.743  31.747  35.074  1.00  0.00     0.029 A 
ATOM     54  N   UNL A   1      42.681  30.896  33.317  1.00  0.00    -0.354 N 
ATOM     55  N   UNL A   1      42.167  28.884  31.270  1.00  0.00    -0.248 NA
ATOM     56  C   UNL A   1      42.757  26.931  30.133  1.00  0.00     0.031 C 
ATOM     57  C   UNL A   1      44.422  30.599  34.666  1.00  0.00     0.029 A 
ATOM     58  C   UNL A   1      43.734  30.039  33.603  1.00  0.00     0.049 A 
ATOM     59  H   UNL A   1      42.023  30.765  32.596  1.00  0.00     0.167 HD
ATOM     60  C   UNL A   1      43.301  28.337  31.860  1.00  0.00     0.074 A 
ATOM     61  C   UNL A   1      43.597  27.113  31.145  1.00  0.00     0.031 C 
ATOM     62  C   UNL A   1      44.028  28.815  32.899  1.00  0.00     0.031 A 
BRANCH  49  63
ATOM     63  C   UNL A   1      41.999  34.175  35.188  1.00  0.00    -0.014 A 
ATOM     64  C   UNL A   1      42.930  35.196  34.934  1.00  0.00     0.009 A 
ATOM     65  C   UNL A   1      41.415  34.098  36.462  1.00  0.00     0.009 A 
ATOM     66  C   UNL A   1      43.297  36.094  35.939  1.00  0.00     0.001 A 
ATOM     67  C   UNL A   1      41.757  35.020  37.455  1.00  0.00     0.001 A 
ATOM     68  C   UNL A   1      42.709  36.005  37.199  1.00  0.00     0.000 A 
ENDBRANCH  49  63
BRANCH  50  69
ATOM     69  C   UNL A   1      40.415  27.085  28.342  1.00  0.00    -0.014 A 
ATOM     70  C   UNL A   1      39.643  25.959  28.676  1.00  0.00     0.009 A 
ATOM     71  C   UNL A   1      40.983  27.155  27.061  1.00  0.00     0.009 A 
ATOM     72  C   UNL A   1      39.479  24.910  27.768  1.00  0.00     0.001 A 
ATOM     73  C   UNL A   1      40.780  26.124  26.139  1.00  0.00     0.001 A 
ATOM     74  C   UNL A   1      40.043  24.997  26.498  1.00  0.00     0.000 A 
ENDBRANCH  50  69
BRANCH  62  75
ATOM     75  C   UNL A   1      45.223  28.022  33.366  1.00  0.00    -0.014 A 
ATOM     76  C   UNL A   1      45.075  27.081  34.399  1.00  0.00     0.009 A 
ATOM     77  C   UNL A   1      46.514  28.298  32.887  1.00  0.00     0.009 A 
ATOM     78  C   UNL A   1      46.190  26.461  34.967  1.00  0.00     0.001 A 
ATOM     79  C   UNL A   1      47.625  27.645  33.428  1.00  0.00     0.001 A 
ATOM     80  C   UNL A   1      47.464  26.742  34.478  1.00  0.00     0.000 A 
ENDBRANCH  62  75
ENDBRANCH  36  37
ENDBRANCH  29  31
ENDBRANCH  28  29
ENDBRANCH  27  28
ENDBRANCH  26  27
ENDBRANCH  25  26
ENDBRANCH   1  25
TORSDOF 19
ENDMDL
MODEL 2
REMARK VINA RESULT:      -9.9      4.102      7.908
REMARK SMILES C#Cc1ccc2c(c1)C=C(C(=O)OCCOCCOCCOC(=O)c1ccc(-c3c4nc(c(-c5ccccc5)c5ccc([nH]5)c(-c5ccccc5)c5nc(c(-c6ccccc6)c6ccc3[nH]6)C=C5)C=C4)cc1)[C@@H](C(F)(F)F)O2
REMARK SMILES IDX 18 1 17 2 16 3 15 4 14 5 13 6 11 7 12 8 10 9 3 10 4 11 8 12
REMARK SMILES IDX 5 13 7 14 6 15 9 16 78 17 73 18 2 19 1 20 74 21 75 22 76 23
REMARK SMILES IDX 77 24 19 25 20 26 21 27 22 28 23 29 24 30 25 31 26 32 72 33
REMARK SMILES IDX 27 34 71 35 28 36 29 37 30 38 65 39 31 40 70 41 64 42 66 43
REMARK SMILES IDX 32 44 69 45 63 46 62 47 33 49 55 50 40 51 54 52 41 53 44 54
REMARK SMILES IDX 53 55 67 56 42 57 43 58 52 60 68 61 45 62 34 63 35 64 39 65
REMARK SMILES IDX 36 66 38 67 37 68 56 69 57 70 61 71 58 72 60 73 59 74 46 75
REMARK SMILES IDX 47 76 51 77 48 78 50 79 49 80
REMARK H PARENT 66 48 44 59
REMARK Flexibility Score: inf
ROOT
ATOM      1  C   UNL A   1      34.003  34.039  28.797  1.00  0.00     0.188 C 
ENDROOT
BRANCH   1   2
ATOM      2  C   UNL A   1      35.280  33.714  27.995  1.00  0.00     0.188 C 
BRANCH   2   3
ATOM      3  O   UNL A   1      35.536  32.369  27.668  1.00  0.00    -0.376 OA
BRANCH   3   4
ATOM      4  C   UNL A   1      34.555  31.367  27.880  1.00  0.00     0.202 C 
BRANCH   4   5
ATOM      5  C   UNL A   1      34.649  29.902  27.407  1.00  0.00     0.261 C 
BRANCH   5   6
ATOM      6  O   UNL A   1      33.875  29.518  26.265  1.00  0.00    -0.460 OA
BRANCH   6   7
ATOM      7  C   UNL A   1      32.780  28.763  26.523  1.00  0.00     0.338 C 
ATOM      8  O   UNL A   1      31.863  29.043  27.276  1.00  0.00    -0.246 OA
BRANCH   7   9
ATOM      9  C   UNL A   1      32.758  27.604  25.604  1.00  0.00     0.087 C 
ATOM     10  C   UNL A   1      34.905  23.645  23.913  1.00  0.00     0.025 A 
ATOM     11  C   UNL A   1      33.990  23.608  22.859  1.00  0.00     0.021 A 
ATOM     12  C   UNL A   1      34.777  24.614  24.912  1.00  0.00     0.029 A 
ATOM     13  C   UNL A   1      32.936  24.523  22.817  1.00  0.00     0.048 A 
ATOM     14  C   UNL A   1      33.752  25.565  24.842  1.00  0.00     0.018 A 
ATOM     15  C   UNL A   1      32.817  25.501  23.806  1.00  0.00     0.128 A 
ATOM     16  C   UNL A   1      33.701  26.670  25.785  1.00  0.00     0.027 C 
ATOM     17  O   UNL A   1      31.764  26.359  23.677  1.00  0.00    -0.475 OA
ATOM     18  C   UNL A   1      31.688  27.522  24.547  1.00  0.00     0.316 C 
BRANCH  10  19
ATOM     19  C   UNL A   1      35.998  22.721  23.943  1.00  0.00    -0.070 C 
ATOM     20  C   UNL A   1      36.924  21.961  23.986  1.00  0.00     0.010 C 
ENDBRANCH  10  19
BRANCH  18  21
ATOM     21  C   UNL A   1      31.652  28.780  23.671  1.00  0.00     0.430 C 
ATOM     22  F   UNL A   1      32.900  29.228  23.396  1.00  0.00    -0.167 F 
ATOM     23  F   UNL A   1      31.052  28.544  22.481  1.00  0.00    -0.167 F 
ATOM     24  F   UNL A   1      30.979  29.789  24.269  1.00  0.00    -0.167 F 
ENDBRANCH  18  21
ENDBRANCH   7   9
ENDBRANCH   6   7
ENDBRANCH   5   6
ENDBRANCH   4   5
ENDBRANCH   3   4
ENDBRANCH   2   3
ENDBRANCH   1   2
BRANCH   1  25
ATOM     25  O   UNL A   1      34.127  34.751  30.005  1.00  0.00    -0.376 OA
BRANCH  25  26
ATOM     26  C   UNL A   1      34.094  34.052  31.239  1.00  0.00     0.202 C 
BRANCH  26  27
ATOM     27  C   UNL A   1      34.407  32.548  31.426  1.00  0.00     0.261 C 
BRANCH  27  28
ATOM     28  O   UNL A   1      35.337  32.165  32.447  1.00  0.00    -0.460 OA
BRANCH  28  29
ATOM     29  C   UNL A   1      36.374  33.015  32.670  1.00  0.00     0.338 C 
ATOM     30  O   UNL A   1      36.401  33.959  33.439  1.00  0.00    -0.246 OA
BRANCH  29  31
ATOM     31  C   UNL A   1      37.567  32.478  31.981  1.00  0.00     0.060 A 
ATOM     32  C   UNL A   1      38.450  31.643  32.661  1.00  0.00     0.016 A 
ATOM     33  C   UNL A   1      37.825  32.846  30.649  1.00  0.00     0.016 A 
ATOM     34  C   UNL A   1      39.588  31.168  32.004  1.00  0.00     0.010 A 
ATOM     35  C   UNL A   1      38.977  32.388  30.001  1.00  0.00     0.010 A 
ATOM     36  C   UNL A   1      39.859  31.526  30.667  1.00  0.00    -0.014 A 
BRANCH  36  37
ATOM     37  C   UNL A   1      40.968  30.858  29.938  1.00  0.00     0.031 A 
ATOM     38  C   UNL A   1      40.845  29.471  29.379  1.00  0.00     0.074 A 
ATOM     39  C   UNL A   1      42.113  31.549  29.768  1.00  0.00     0.049 A 
ATOM     40  N   UNL A   1      41.696  28.818  28.626  1.00  0.00    -0.248 NA
ATOM     41  C   UNL A   1      39.626  28.719  29.703  1.00  0.00     0.031 C 
ATOM     42  C   UNL A   1      42.355  32.896  30.286  1.00  0.00     0.029 A 
ATOM     43  N   UNL A   1      43.270  31.235  29.099  1.00  0.00    -0.354 N 
ATOM     44  C   UNL A   1      41.108  27.587  28.365  1.00  0.00     0.074 A 
ATOM     45  C   UNL A   1      39.851  27.564  29.084  1.00  0.00     0.031 C 
ATOM     46  C   UNL A   1      43.560  33.313  29.874  1.00  0.00     0.029 A 
ATOM     47  C   UNL A   1      44.199  32.249  29.103  1.00  0.00     0.049 A 
ATOM     48  H   UNL A   1      43.420  30.368  28.657  1.00  0.00     0.167 HD
ATOM     49  C   UNL A   1      41.572  26.584  27.580  1.00  0.00     0.031 A 
ATOM     50  C   UNL A   1      45.425  32.327  28.549  1.00  0.00     0.031 A 
ATOM     51  C   UNL A   1      42.834  26.615  26.878  1.00  0.00     0.049 A 
ATOM     52  C   UNL A   1      45.935  31.176  27.727  1.00  0.00     0.074 A 
ATOM     53  C   UNL A   1      43.360  25.658  26.026  1.00  0.00     0.029 A 
ATOM     54  N   UNL A   1      43.769  27.636  26.953  1.00  0.00    -0.354 N 
ATOM     55  N   UNL A   1      45.328  30.056  27.415  1.00  0.00    -0.248 NA
ATOM     56  C   UNL A   1      47.288  31.302  27.164  1.00  0.00     0.031 C 
ATOM     57  C   UNL A   1      44.646  26.053  25.663  1.00  0.00     0.029 A 
ATOM     58  C   UNL A   1      44.885  27.308  26.198  1.00  0.00     0.049 A 
ATOM     59  H   UNL A   1      43.656  28.469  27.465  1.00  0.00     0.167 HD
ATOM     60  C   UNL A   1      46.211  29.358  26.598  1.00  0.00     0.074 A 
ATOM     61  C   UNL A   1      47.385  30.191  26.444  1.00  0.00     0.031 C 
ATOM     62  C   UNL A   1      46.055  28.136  26.034  1.00  0.00     0.031 A 
BRANCH  49  63
ATOM     63  C   UNL A   1      40.720  25.351  27.400  1.00  0.00    -0.014 A 
ATOM     64  C   UNL A   1      41.083  24.151  28.036  1.00  0.00     0.009 A 
ATOM     65  C   UNL A   1      39.665  25.330  26.475  1.00  0.00     0.009 A 
ATOM     66  C   UNL A   1      40.432  22.954  27.725  1.00  0.00     0.001 A 
ATOM     67  C   UNL A   1      38.992  24.139  26.193  1.00  0.00     0.001 A 
ATOM     68  C   UNL A   1      39.387  22.950  26.804  1.00  0.00     0.000 A 
ENDBRANCH  49  63
BRANCH  50  69
ATOM     69  C   UNL A   1      46.229  33.567  28.733  1.00  0.00    -0.014 A 
ATOM     70  C   UNL A   1      46.145  34.617  27.802  1.00  0.00     0.009 A 
ATOM     71  C   UNL A   1      47.128  33.689  29.804  1.00  0.00     0.009 A 
ATOM     72  C   UNL A   1      46.969  35.739  27.915  1.00  0.00     0.001 A 
ATOM     73  C   UNL A   1      47.919  34.834  29.939  1.00  0.00     0.001 A 
ATOM     74  C   UNL A   1      47.851  35.849  28.987  1.00  0.00     0.000 A 
ENDBRANCH  50  69
BRANCH  62  75
ATOM     75  C   UNL A   1      47.166  27.596  25.169  1.00  0.00    -0.014 A 
ATOM     76  C   UNL A   1      47.158  27.846  23.786  1.00  0.00     0.009 A 
ATOM     77  C   UNL A   1      48.142  26.731  25.691  1.00  0.00     0.009 A 
ATOM     78  C   UNL A   1      48.074  27.217  22.941  1.00  0.00     0.001 A 
ATOM     79  C   UNL A   1      49.084  26.135  24.848  1.00  0.00     0.001 A 
ATOM     80  C   UNL A   1      49.039  26.364  23.474  1.00  0.00     0.000 A 
ENDBRANCH  62  75
ENDBRANCH  36  37
ENDBRANCH  29  31
ENDBRANCH  28  29
ENDBRANCH  27  28
ENDBRANCH  26  27
ENDBRANCH  25  26
ENDBRANCH   1  25
TORSDOF 19
ENDMDL
MODEL 3
REMARK VINA RESULT:      -9.8      1.656      2.494
REMARK SMILES C#Cc1ccc2c(c1)C=C(C(=O)OCCOCCOCCOC(=O)c1ccc(-c3c4nc(c(-c5ccccc5)c5ccc([nH]5)c(-c5ccccc5)c5nc(c(-c6ccccc6)c6ccc3[nH]6)C=C5)C=C4)cc1)[C@@H](C(F)(F)F)O2
REMARK SMILES IDX 18 1 17 2 16 3 15 4 14 5 13 6 11 7 12 8 10 9 3 10 4 11 8 12
REMARK SMILES IDX 5 13 7 14 6 15 9 16 78 17 73 18 2 19 1 20 74 21 75 22 76 23
REMARK SMILES IDX 77 24 19 25 20 26 21 27 22 28 23 29 24 30 25 31 26 32 72 33
REMARK SMILES IDX 27 34 71 35 28 36 29 37 30 38 65 39 31 40 70 41 64 42 66 43
REMARK SMILES IDX 32 44 69 45 63 46 62 47 33 49 55 50 40 51 54 52 41 53 44 54
REMARK SMILES IDX 53 55 67 56 42 57 43 58 52 60 68 61 45 62 34 63 35 64 39 65
REMARK SMILES IDX 36 66 38 67 37 68 56 69 57 70 61 71 58 72 60 73 59 74 46 75
REMARK SMILES IDX 47 76 51 77 48 78 50 79 49 80
REMARK H PARENT 66 48 44 59
REMARK Flexibility Score: inf
ROOT
ATOM      1  C   UNL A   1      34.343  29.250  26.836  1.00  0.00     0.188 C 
ENDROOT
BRANCH   1   2
ATOM      2  C   UNL A   1      32.867  28.976  26.484  1.00  0.00     0.188 C 
BRANCH   2   3
ATOM      3  O   UNL A   1      32.105  28.195  27.374  1.00  0.00    -0.376 OA
BRANCH   3   4
ATOM      4  C   UNL A   1      31.351  27.087  26.911  1.00  0.00     0.202 C 
BRANCH   4   5
ATOM      5  C   UNL A   1      31.925  25.836  26.215  1.00  0.00     0.261 C 
BRANCH   5   6
ATOM      6  O   UNL A   1      32.068  25.869  24.791  1.00  0.00    -0.460 OA
BRANCH   6   7
ATOM      7  C   UNL A   1      33.340  25.867  24.327  1.00  0.00     0.338 C 
ATOM      8  O   UNL A   1      33.969  26.829  23.919  1.00  0.00    -0.246 OA
BRANCH   7   9
ATOM      9  C   UNL A   1      33.943  24.536  24.559  1.00  0.00     0.087 C 
ATOM     10  C   UNL A   1      37.799  21.908  25.729  1.00  0.00     0.025 A 
ATOM     11  C   UNL A   1      37.136  20.757  25.299  1.00  0.00     0.021 A 
ATOM     12  C   UNL A   1      37.135  23.138  25.724  1.00  0.00     0.029 A 
ATOM     13  C   UNL A   1      35.803  20.832  24.887  1.00  0.00     0.048 A 
ATOM     14  C   UNL A   1      35.816  23.222  25.261  1.00  0.00     0.018 A 
ATOM     15  C   UNL A   1      35.144  22.062  24.867  1.00  0.00     0.128 A 
ATOM     16  C   UNL A   1      35.167  24.513  25.102  1.00  0.00     0.027 C 
ATOM     17  O   UNL A   1      33.849  22.041  24.439  1.00  0.00    -0.475 OA
ATOM     18  C   UNL A   1      33.162  23.300  24.198  1.00  0.00     0.316 C 
BRANCH  10  19
ATOM     19  C   UNL A   1      39.172  21.834  26.128  1.00  0.00    -0.070 C 
ATOM     20  C   UNL A   1      40.323  21.797  26.460  1.00  0.00     0.010 C 
ENDBRANCH  10  19
BRANCH  18  21
ATOM     21  C   UNL A   1      32.694  23.325  22.739  1.00  0.00     0.430 C 
ATOM     22  F   UNL A   1      32.704  22.084  22.194  1.00  0.00    -0.167 F 
ATOM     23  F   UNL A   1      31.427  23.788  22.627  1.00  0.00    -0.167 F 
ATOM     24  F   UNL A   1      33.482  24.113  21.972  1.00  0.00    -0.167 F 
ENDBRANCH  18  21
ENDBRANCH   7   9
ENDBRANCH   6   7
ENDBRANCH   5   6
ENDBRANCH   4   5
ENDBRANCH   3   4
ENDBRANCH   2   3
ENDBRANCH   1   2
BRANCH   1  25
ATOM     25  O   UNL A   1      34.640  30.276  27.753  1.00  0.00    -0.376 OA
BRANCH  25  26
ATOM     26  C   UNL A   1      34.346  31.623  27.420  1.00  0.00     0.202 C 
BRANCH  26  27
ATOM     27  C   UNL A   1      33.056  32.383  27.812  1.00  0.00     0.261 C 
BRANCH  27  28
ATOM     28  O   UNL A   1      33.093  33.814  27.860  1.00  0.00    -0.460 OA
BRANCH  28  29
ATOM     29  C   UNL A   1      33.295  34.373  29.082  1.00  0.00     0.338 C 
ATOM     30  O   UNL A   1      32.504  35.032  29.733  1.00  0.00    -0.246 OA
BRANCH  29  31
ATOM     31  C   UNL A   1      34.580  33.867  29.614  1.00  0.00     0.060 A 
ATOM     32  C   UNL A   1      34.595  33.046  30.738  1.00  0.00     0.016 A 
ATOM     33  C   UNL A   1      35.785  34.250  29.001  1.00  0.00     0.016 A 
ATOM     34  C   UNL A   1      35.819  32.600  31.245  1.00  0.00     0.010 A 
ATOM     35  C   UNL A   1      37.009  33.821  29.523  1.00  0.00     0.010 A 
ATOM     36  C   UNL A   1      37.036  32.974  30.638  1.00  0.00    -0.014 A 
BRANCH  36  37
ATOM     37  C   UNL A   1      38.303  32.335  31.080  1.00  0.00     0.031 A 
ATOM     38  C   UNL A   1      39.108  32.856  32.235  1.00  0.00     0.074 A 
ATOM     39  C   UNL A   1      38.719  31.238  30.417  1.00  0.00     0.049 A 
ATOM     40  N   UNL A   1      40.169  32.327  32.793  1.00  0.00    -0.248 NA
ATOM     41  C   UNL A   1      38.679  34.125  32.839  1.00  0.00     0.031 C 
ATOM     42  C   UNL A   1      38.030  30.654  29.265  1.00  0.00     0.029 A 
ATOM     43  N   UNL A   1      39.792  30.407  30.622  1.00  0.00    -0.354 N 
ATOM     44  C   UNL A   1      40.524  33.183  33.828  1.00  0.00     0.074 A 
ATOM     45  C   UNL A   1      39.595  34.294  33.788  1.00  0.00     0.031 C 
ATOM     46  C   UNL A   1      38.667  29.533  28.898  1.00  0.00     0.029 A 
ATOM     47  C   UNL A   1      39.835  29.342  29.753  1.00  0.00     0.049 A 
ATOM     48  H   UNL A   1      40.465  30.558  31.324  1.00  0.00     0.167 HD
ATOM     49  C   UNL A   1      41.519  33.037  34.736  1.00  0.00     0.031 A 
ATOM     50  C   UNL A   1      40.707  28.319  29.652  1.00  0.00     0.031 A 
ATOM     51  C   UNL A   1      42.447  31.930  34.757  1.00  0.00     0.049 A 
ATOM     52  C   UNL A   1      41.833  28.212  30.641  1.00  0.00     0.074 A 
ATOM     53  C   UNL A   1      43.459  31.682  35.670  1.00  0.00     0.029 A 
ATOM     54  N   UNL A   1      42.491  30.901  33.828  1.00  0.00    -0.354 N 
ATOM     55  N   UNL A   1      42.100  28.980  31.670  1.00  0.00    -0.248 NA
ATOM     56  C   UNL A   1      42.769  27.090  30.473  1.00  0.00     0.031 C 
ATOM     57  C   UNL A   1      44.172  30.564  35.241  1.00  0.00     0.029 A 
ATOM     58  C   UNL A   1      43.541  30.045  34.123  1.00  0.00     0.049 A 
ATOM     59  H   UNL A   1      41.868  30.795  33.073  1.00  0.00     0.167 HD
ATOM     60  C   UNL A   1      43.214  28.421  32.286  1.00  0.00     0.074 A 
ATOM     61  C   UNL A   1      43.559  27.235  31.530  1.00  0.00     0.031 C 
ATOM     62  C   UNL A   1      43.885  28.859  33.378  1.00  0.00     0.031 A 
BRANCH  49  63
ATOM     63  C   UNL A   1      41.676  34.080  35.815  1.00  0.00    -0.014 A 
ATOM     64  C   UNL A   1      40.910  33.992  36.990  1.00  0.00     0.009 A 
ATOM     65  C   UNL A   1      42.448  35.232  35.600  1.00  0.00     0.009 A 
ATOM     66  C   UNL A   1      40.887  35.047  37.907  1.00  0.00     0.001 A 
ATOM     67  C   UNL A   1      42.452  36.269  36.536  1.00  0.00     0.001 A 
ATOM     68  C   UNL A   1      41.659  36.183  37.679  1.00  0.00     0.000 A 
ENDBRANCH  49  63
BRANCH  50  69
ATOM     69  C   UNL A   1      40.509  27.298  28.585  1.00  0.00    -0.014 A 
ATOM     70  C   UNL A   1      41.118  27.453  27.327  1.00  0.00     0.009 A 
ATOM     71  C   UNL A   1      39.667  26.195  28.792  1.00  0.00     0.009 A 
ATOM     72  C   UNL A   1      40.857  26.553  26.292  1.00  0.00     0.001 A 
ATOM     73  C   UNL A   1      39.443  25.271  27.767  1.00  0.00     0.001 A 
ATOM     74  C   UNL A   1      40.025  25.459  26.515  1.00  0.00     0.000 A 
ENDBRANCH  50  69
BRANCH  62  75
ATOM     75  C   UNL A   1      45.069  28.060  33.863  1.00  0.00    -0.014 A 
ATOM     76  C   UNL A   1      44.888  27.068  34.842  1.00  0.00     0.009 A 
ATOM     77  C   UNL A   1      46.377  28.375  33.459  1.00  0.00     0.009 A 
ATOM     78  C   UNL A   1      45.985  26.437  35.432  1.00  0.00     0.001 A 
ATOM     79  C   UNL A   1      47.471  27.711  34.020  1.00  0.00     0.001 A 
ATOM     80  C   UNL A   1      47.276  26.757  35.017  1.00  0.00     0.000 A 
ENDBRANCH  62  75
ENDBRANCH  36  37
ENDBRANCH  29  31
ENDBRANCH  28  29
ENDBRANCH  27  28
ENDBRANCH  26  27
ENDBRANCH  25  26
ENDBRANCH   1  25
TORSDOF 19
ENDMDL
