MODEL 1
REMARK VINA RESULT:     -12.3      0.000      0.000
REMARK SMILES O=C(OCCOCCOCCOC(=O)c1ccc(-c2c3nc(c(-c4ccccc4)c4ccc([nH]4)c(-c4ccccc4)c4nc(c(-c5ccccc5)c5ccc2[nH]5)C=C4)C=C3)cc1)C1=Cc2cc(Cl)cc(-c3ccc(CO)cc3)c2O[C@@H]1C(F)(F)F
REMARK SMILES IDX 7 1 6 2 5 3 4 4 3 5 2 6 1 7 63 8 64 9 81 10 65 11 80 12
REMARK SMILES IDX 66 13 79 14 67 15 70 16 68 17 69 18 82 19 83 20 84 21 85 22
REMARK SMILES IDX 71 23 72 24 78 25 73 26 77 27 74 28 75 29 76 30 8 32 9 33
REMARK SMILES IDX 10 34 11 35 12 36 13 37 14 38 15 39 16 40 62 41 17 42 61 43
REMARK SMILES IDX 18 44 19 45 20 46 55 47 21 48 60 49 54 50 56 51 22 52 59 53
REMARK SMILES IDX 53 54 52 55 23 57 45 58 30 59 44 60 31 61 34 62 43 63 57 64
REMARK SMILES IDX 32 65 33 66 42 68 58 69 35 70 24 71 25 72 29 73 26 74 28 75
REMARK SMILES IDX 27 76 46 77 47 78 51 79 48 80 50 81 49 82 36 83 37 84 41 85
REMARK SMILES IDX 38 86 40 87 39 88
REMARK H PARENT 76 31 56 56 34 67
REMARK Flexibility Score: inf
ROOT
ATOM      1  C   UNL A   1      29.920  29.476  23.683  1.00  0.00     0.188 C 
ENDROOT
BRANCH   1   2
ATOM      2  O   UNL A   1      31.198  29.102  22.935  1.00  0.00    -0.376 OA
BRANCH   2   3
ATOM      3  C   UNL A   1      32.761  28.661  23.660  1.00  0.00     0.202 C 
BRANCH   3   4
ATOM      4  C   UNL A   1      32.922  28.085  25.753  1.00  0.00     0.261 C 
BRANCH   4   5
ATOM      5  O   UNL A   1      33.364  26.714  26.277  1.00  0.00    -0.460 OA
BRANCH   5   6
ATOM      6  C   UNL A   1      32.413  25.780  26.121  1.00  0.00     0.338 C 
ATOM      7  O   UNL A   1      31.705  25.279  26.960  1.00  0.00    -0.246 OA
BRANCH   6   8
ATOM      8  C   UNL A   1      32.913  25.257  24.862  1.00  0.00     0.087 C 
ATOM      9  C   UNL A   1      34.331  24.991  24.786  1.00  0.00     0.027 C 
ATOM     10  C   UNL A   1      31.539  23.935  24.728  1.00  0.00     0.316 C 
ATOM     11  C   UNL A   1      35.044  23.359  24.877  1.00  0.00     0.019 A 
ATOM     12  O   UNL A   1      32.290  22.131  24.999  1.00  0.00    -0.475 OA
ATOM     13  C   UNL A   1      36.409  23.294  24.982  1.00  0.00     0.032 A 
ATOM     14  C   UNL A   1      34.108  21.912  25.046  1.00  0.00     0.135 A 
ATOM     15  C   UNL A   1      36.934  22.013  25.159  1.00  0.00     0.042 A 
ATOM     16  C   UNL A   1      34.726  20.673  25.155  1.00  0.00     0.026 A 
ATOM     17  Cl  UNL A   1      38.653  21.875  25.320  1.00  0.00    -0.084 Cl
ATOM     18  C   UNL A   1      36.154  20.800  25.218  1.00  0.00     0.033 A 
BRANCH  10  19
ATOM     19  C   UNL A   1      30.898  24.738  23.326  1.00  0.00     0.430 C 
ATOM     20  F   UNL A   1      31.691  25.146  22.323  1.00  0.00    -0.167 F 
ATOM     21  F   UNL A   1      29.936  23.953  22.776  1.00  0.00    -0.167 F 
ATOM     22  F   UNL A   1      30.243  25.894  23.669  1.00  0.00    -0.167 F 
ENDBRANCH  10  19
BRANCH  16  23
ATOM     23  C   UNL A   1      34.217  19.304  25.120  1.00  0.00    -0.015 A 
ATOM     24  C   UNL A   1      35.005  18.231  24.695  1.00  0.00     0.009 A 
ATOM     25  C   UNL A   1      32.838  19.063  25.298  1.00  0.00     0.009 A 
ATOM     26  C   UNL A   1      34.471  16.936  24.617  1.00  0.00     0.007 A 
ATOM     27  C   UNL A   1      32.305  17.767  25.237  1.00  0.00     0.007 A 
ATOM     28  C   UNL A   1      33.140  16.681  24.973  1.00  0.00    -0.023 A 
BRANCH  28  29
ATOM     29  C   UNL A   1      32.642  15.267  25.118  1.00  0.00     0.191 C 
BRANCH  29  30
ATOM     30  O   UNL A   1      33.696  14.364  25.403  1.00  0.00    -0.392 OA
ATOM     31  H   UNL A   1      34.327  14.785  26.008  1.00  0.00     0.211 HD
ENDBRANCH  29  30
ENDBRANCH  28  29
ENDBRANCH  16  23
ENDBRANCH   6   8
ENDBRANCH   5   6
ENDBRANCH   4   5
ENDBRANCH   3   4
ENDBRANCH   2   3
ENDBRANCH   1   2
BRANCH   1  32
ATOM     32  C   UNL A   1      29.360  30.904  23.758  1.00  0.00     0.188 C 
BRANCH  32  33
ATOM     33  O   UNL A   1      29.922  31.800  24.673  1.00  0.00    -0.376 OA
BRANCH  33  34
ATOM     34  C   UNL A   1      30.916  31.232  25.497  1.00  0.00     0.202 C 
BRANCH  34  35
ATOM     35  C   UNL A   1      31.253  31.879  26.845  1.00  0.00     0.261 C 
BRANCH  35  36
ATOM     36  O   UNL A   1      32.650  32.135  27.059  1.00  0.00    -0.460 OA
BRANCH  36  37
ATOM     37  C   UNL A   1      32.956  33.292  27.694  1.00  0.00     0.338 C 
ATOM     38  O   UNL A   1      32.265  34.288  27.806  1.00  0.00    -0.246 OA
BRANCH  37  39
ATOM     39  C   UNL A   1      34.225  33.099  28.417  1.00  0.00     0.060 A 
ATOM     40  C   UNL A   1      35.427  33.570  27.863  1.00  0.00     0.016 A 
ATOM     41  C   UNL A   1      34.223  32.406  29.624  1.00  0.00     0.016 A 
ATOM     42  C   UNL A   1      36.630  33.375  28.533  1.00  0.00     0.010 A 
ATOM     43  C   UNL A   1      35.435  32.163  30.270  1.00  0.00     0.010 A 
ATOM     44  C   UNL A   1      36.641  32.634  29.719  1.00  0.00    -0.014 A 
BRANCH  44  45
ATOM     45  C   UNL A   1      37.928  32.159  30.266  1.00  0.00     0.031 A 
ATOM     46  C   UNL A   1      38.504  30.894  29.700  1.00  0.00     0.074 A 
ATOM     47  C   UNL A   1      38.565  32.834  31.237  1.00  0.00     0.049 A 
ATOM     48  N   UNL A   1      39.576  30.241  30.058  1.00  0.00    -0.248 NA
ATOM     49  C   UNL A   1      37.764  30.279  28.583  1.00  0.00     0.031 C 
ATOM     50  C   UNL A   1      38.122  34.099  31.820  1.00  0.00     0.029 A 
ATOM     51  N   UNL A   1      39.722  32.538  31.911  1.00  0.00    -0.354 N 
ATOM     52  C   UNL A   1      39.634  29.133  29.221  1.00  0.00     0.074 A 
ATOM     53  C   UNL A   1      38.481  29.190  28.351  1.00  0.00     0.031 C 
ATOM     54  C   UNL A   1      38.995  34.467  32.775  1.00  0.00     0.029 A 
ATOM     55  C   UNL A   1      40.029  33.442  32.898  1.00  0.00     0.049 A 
ATOM     56  H   UNL A   1      40.280  31.753  31.705  1.00  0.00     0.167 HD
ATOM     57  C   UNL A   1      40.565  28.153  29.189  1.00  0.00     0.031 A 
ATOM     58  C   UNL A   1      41.018  33.419  33.814  1.00  0.00     0.031 A 
ATOM     59  C   UNL A   1      41.691  28.089  30.079  1.00  0.00     0.049 A 
ATOM     60  C   UNL A   1      41.988  32.264  33.812  1.00  0.00     0.074 A 
ATOM     61  C   UNL A   1      42.699  27.142  30.122  1.00  0.00     0.029 A 
ATOM     62  N   UNL A   1      41.948  28.999  31.093  1.00  0.00    -0.354 N 
ATOM     63  N   UNL A   1      42.057  31.240  32.994  1.00  0.00    -0.248 NA
ATOM     64  C   UNL A   1      43.020  32.262  34.859  1.00  0.00     0.031 C 
ATOM     65  C   UNL A   1      43.521  27.436  31.213  1.00  0.00     0.029 A 
ATOM     66  C   UNL A   1      43.077  28.613  31.795  1.00  0.00     0.049 A 
ATOM     67  H   UNL A   1      41.407  29.799  31.286  1.00  0.00     0.167 HD
ATOM     68  C   UNL A   1      43.154  30.493  33.410  1.00  0.00     0.074 A 
ATOM     69  C   UNL A   1      43.735  31.197  34.534  1.00  0.00     0.031 C 
ATOM     70  C   UNL A   1      43.639  29.328  32.911  1.00  0.00     0.031 A 
BRANCH  57  71
ATOM     71  C   UNL A   1      40.376  27.044  28.193  1.00  0.00    -0.014 A 
ATOM     72  C   UNL A   1      40.938  27.107  26.908  1.00  0.00     0.009 A 
ATOM     73  C   UNL A   1      39.665  25.893  28.568  1.00  0.00     0.009 A 
ATOM     74  C   UNL A   1      40.771  26.048  26.012  1.00  0.00     0.001 A 
ATOM     75  C   UNL A   1      39.528  24.823  27.683  1.00  0.00     0.001 A 
ATOM     76  C   UNL A   1      40.074  24.905  26.404  1.00  0.00     0.000 A 
ENDBRANCH  57  71
BRANCH  58  77
ATOM     77  C   UNL A   1      41.123  34.489  34.846  1.00  0.00    -0.014 A 
ATOM     78  C   UNL A   1      40.367  34.430  36.028  1.00  0.00     0.009 A 
ATOM     79  C   UNL A   1      41.936  35.613  34.626  1.00  0.00     0.009 A 
ATOM     80  C   UNL A   1      40.388  35.489  36.939  1.00  0.00     0.001 A 
ATOM     81  C   UNL A   1      41.986  36.651  35.557  1.00  0.00     0.001 A 
ATOM     82  C   UNL A   1      41.199  36.597  36.705  1.00  0.00     0.000 A 
ENDBRANCH  58  77
BRANCH  70  83
ATOM     83  C   UNL A   1      44.882  28.766  33.547  1.00  0.00    -0.014 A 
ATOM     84  C   UNL A   1      44.815  27.837  34.597  1.00  0.00     0.009 A 
ATOM     85  C   UNL A   1      46.142  29.143  33.053  1.00  0.00     0.009 A 
ATOM     86  C   UNL A   1      45.986  27.332  35.167  1.00  0.00     0.001 A 
ATOM     87  C   UNL A   1      47.308  28.605  33.597  1.00  0.00     0.001 A 
ATOM     88  C   UNL A   1      47.230  27.711  34.663  1.00  0.00     0.000 A 
ENDBRANCH  70  83
ENDBRANCH  44  45
ENDBRANCH  37  39
ENDBRANCH  36  37
ENDBRANCH  35  36
ENDBRANCH  34  35
ENDBRANCH  33  34
ENDBRANCH  32  33
ENDBRANCH   1  32
TORSDOF 21
ENDMDL
MODEL 2
REMARK VINA RESULT:     -11.9      2.600      6.406
REMARK SMILES O=C(OCCOCCOCCOC(=O)c1ccc(-c2c3nc(c(-c4ccccc4)c4ccc([nH]4)c(-c4ccccc4)c4nc(c(-c5ccccc5)c5ccc2[nH]5)C=C4)C=C3)cc1)C1=Cc2cc(Cl)cc(-c3ccc(CO)cc3)c2O[C@@H]1C(F)(F)F
REMARK SMILES IDX 7 1 6 2 5 3 4 4 3 5 2 6 1 7 63 8 64 9 81 10 65 11 80 12
REMARK SMILES IDX 66 13 79 14 67 15 70 16 68 17 69 18 82 19 83 20 84 21 85 22
REMARK SMILES IDX 71 23 72 24 78 25 73 26 77 27 74 28 75 29 76 30 8 32 9 33
REMARK SMILES IDX 10 34 11 35 12 36 13 37 14 38 15 39 16 40 62 41 17 42 61 43
REMARK SMILES IDX 18 44 19 45 20 46 55 47 21 48 60 49 54 50 56 51 22 52 59 53
REMARK SMILES IDX 53 54 52 55 23 57 45 58 30 59 44 60 31 61 34 62 43 63 57 64
REMARK SMILES IDX 32 65 33 66 42 68 58 69 35 70 24 71 25 72 29 73 26 74 28 75
REMARK SMILES IDX 27 76 46 77 47 78 51 79 48 80 50 81 49 82 36 83 37 84 41 85
REMARK SMILES IDX 38 86 40 87 39 88
REMARK H PARENT 76 31 56 56 34 67
REMARK Flexibility Score: inf
ROOT
ATOM      1  C   UNL A   1      27.952  30.588  23.242  1.00  0.00     0.188 C 
ENDROOT
BRANCH   1   2
ATOM      2  O   UNL A   1      27.799  29.095  22.958  1.00  0.00    -0.376 OA
BRANCH   2   3
ATOM      3  C   UNL A   1      28.909  27.800  23.461  1.00  0.00     0.202 C 
BRANCH   3   4
ATOM      4  C   UNL A   1      30.742  27.384  22.362  1.00  0.00     0.261 C 
BRANCH   4   5
ATOM      5  O   UNL A   1      31.297  25.992  22.033  1.00  0.00    -0.460 OA
BRANCH   5   6
ATOM      6  C   UNL A   1      32.605  25.889  22.314  1.00  0.00     0.338 C 
ATOM      7  O   UNL A   1      33.535  25.812  21.548  1.00  0.00    -0.246 OA
BRANCH   6   8
ATOM      8  C   UNL A   1      32.437  25.374  23.660  1.00  0.00     0.087 C 
ATOM      9  C   UNL A   1      31.945  24.021  23.782  1.00  0.00     0.027 C 
ATOM     10  C   UNL A   1      34.160  25.971  24.233  1.00  0.00     0.316 C 
ATOM     11  C   UNL A   1      32.971  22.621  24.188  1.00  0.00     0.019 A 
ATOM     12  O   UNL A   1      35.361  24.434  24.522  1.00  0.00    -0.475 OA
ATOM     13  C   UNL A   1      32.390  21.384  24.077  1.00  0.00     0.032 A 
ATOM     14  C   UNL A   1      34.670  22.737  24.502  1.00  0.00     0.135 A 
ATOM     15  C   UNL A   1      33.243  20.302  24.297  1.00  0.00     0.042 A 
ATOM     16  C   UNL A   1      35.424  21.602  24.772  1.00  0.00     0.026 A 
ATOM     17  Cl  UNL A   1      32.566  18.714  24.146  1.00  0.00    -0.084 Cl
ATOM     18  C   UNL A   1      34.642  20.407  24.637  1.00  0.00     0.033 A 
BRANCH  10  19
ATOM     19  C   UNL A   1      33.410  27.094  25.329  1.00  0.00     0.430 C 
ATOM     20  F   UNL A   1      32.408  26.723  26.141  1.00  0.00    -0.167 F 
ATOM     21  F   UNL A   1      34.372  27.645  26.113  1.00  0.00    -0.167 F 
ATOM     22  F   UNL A   1      32.863  28.158  24.657  1.00  0.00    -0.167 F 
ENDBRANCH  10  19
BRANCH  16  23
ATOM     23  C   UNL A   1      36.793  21.409  25.245  1.00  0.00    -0.015 A 
ATOM     24  C   UNL A   1      37.546  22.456  25.783  1.00  0.00     0.009 A 
ATOM     25  C   UNL A   1      37.471  20.206  24.958  1.00  0.00     0.009 A 
ATOM     26  C   UNL A   1      38.877  22.254  26.175  1.00  0.00     0.007 A 
ATOM     27  C   UNL A   1      38.797  19.995  25.364  1.00  0.00     0.007 A 
ATOM     28  C   UNL A   1      39.484  20.998  26.050  1.00  0.00    -0.023 A 
BRANCH  28  29
ATOM     29  C   UNL A   1      40.821  20.725  26.687  1.00  0.00     0.191 C 
BRANCH  29  30
ATOM     30  O   UNL A   1      40.773  20.872  28.095  1.00  0.00    -0.392 OA
ATOM     31  H   UNL A   1      40.580  20.013  28.503  1.00  0.00     0.211 HD
ENDBRANCH  29  30
ENDBRANCH  28  29
ENDBRANCH  16  23
ENDBRANCH   6   8
ENDBRANCH   5   6
ENDBRANCH   4   5
ENDBRANCH   3   4
ENDBRANCH   2   3
ENDBRANCH   1   2
BRANCH   1  32
ATOM     32  C   UNL A   1      29.307  31.300  23.368  1.00  0.00     0.188 C 
BRANCH  32  33
ATOM     33  O   UNL A   1      29.769  31.646  24.642  1.00  0.00    -0.376 OA
BRANCH  33  34
ATOM     34  C   UNL A   1      30.813  30.825  25.117  1.00  0.00     0.202 C 
BRANCH  34  35
ATOM     35  C   UNL A   1      31.409  31.074  26.507  1.00  0.00     0.261 C 
BRANCH  35  36
ATOM     36  O   UNL A   1      32.833  30.905  26.593  1.00  0.00    -0.460 OA
BRANCH  36  37
ATOM     37  C   UNL A   1      33.507  31.848  27.294  1.00  0.00     0.338 C 
ATOM     38  O   UNL A   1      33.114  32.949  27.635  1.00  0.00    -0.246 OA
BRANCH  37  39
ATOM     39  C   UNL A   1      34.772  31.257  27.764  1.00  0.00     0.060 A 
ATOM     40  C   UNL A   1      34.850  29.877  28.016  1.00  0.00     0.016 A 
ATOM     41  C   UNL A   1      35.865  32.086  27.999  1.00  0.00     0.016 A 
ATOM     42  C   UNL A   1      36.038  29.317  28.476  1.00  0.00     0.010 A 
ATOM     43  C   UNL A   1      37.039  31.533  28.511  1.00  0.00     0.010 A 
ATOM     44  C   UNL A   1      37.122  30.152  28.764  1.00  0.00    -0.014 A 
BRANCH  44  45
ATOM     45  C   UNL A   1      38.262  29.619  29.537  1.00  0.00     0.031 A 
ATOM     46  C   UNL A   1      38.415  30.071  30.960  1.00  0.00     0.074 A 
ATOM     47  C   UNL A   1      39.135  28.757  28.989  1.00  0.00     0.049 A 
ATOM     48  N   UNL A   1      39.364  29.803  31.816  1.00  0.00    -0.248 NA
ATOM     49  C   UNL A   1      37.357  30.952  31.485  1.00  0.00     0.031 C 
ATOM     50  C   UNL A   1      39.050  28.213  27.635  1.00  0.00     0.029 A 
ATOM     51  N   UNL A   1      40.274  28.198  29.508  1.00  0.00    -0.354 N 
ATOM     52  C   UNL A   1      39.025  30.491  32.975  1.00  0.00     0.074 A 
ATOM     53  C   UNL A   1      37.796  31.204  32.708  1.00  0.00     0.031 C 
ATOM     54  C   UNL A   1      40.103  27.402  27.427  1.00  0.00     0.029 A 
ATOM     55  C   UNL A   1      40.955  27.407  28.614  1.00  0.00     0.049 A 
ATOM     56  H   UNL A   1      40.575  28.347  30.434  1.00  0.00     0.167 HD
ATOM     57  C   UNL A   1      39.687  30.527  34.153  1.00  0.00     0.031 A 
ATOM     58  C   UNL A   1      42.146  26.789  28.739  1.00  0.00     0.031 A 
ATOM     59  C   UNL A   1      40.925  29.840  34.397  1.00  0.00     0.049 A 
ATOM     60  C   UNL A   1      42.906  26.924  30.036  1.00  0.00     0.074 A 
ATOM     61  C   UNL A   1      41.672  29.804  35.561  1.00  0.00     0.029 A 
ATOM     62  N   UNL A   1      41.606  29.083  33.456  1.00  0.00    -0.354 N 
ATOM     63  N   UNL A   1      42.561  27.546  31.139  1.00  0.00    -0.248 NA
ATOM     64  C   UNL A   1      44.220  26.269  30.105  1.00  0.00     0.031 C 
ATOM     65  C   UNL A   1      42.845  29.091  35.300  1.00  0.00     0.029 A 
ATOM     66  C   UNL A   1      42.786  28.608  34.002  1.00  0.00     0.049 A 
ATOM     67  H   UNL A   1      41.297  28.909  32.538  1.00  0.00     0.167 HD
ATOM     68  C   UNL A   1      43.599  27.331  32.038  1.00  0.00     0.074 A 
ATOM     69  C   UNL A   1      44.571  26.498  31.361  1.00  0.00     0.031 C 
ATOM     70  C   UNL A   1      43.741  27.781  33.310  1.00  0.00     0.031 A 
BRANCH  57  71
ATOM     71  C   UNL A   1      39.113  31.379  35.250  1.00  0.00    -0.014 A 
ATOM     72  C   UNL A   1      38.250  30.845  36.220  1.00  0.00     0.009 A 
ATOM     73  C   UNL A   1      39.485  32.730  35.341  1.00  0.00     0.009 A 
ATOM     74  C   UNL A   1      37.754  31.653  37.245  1.00  0.00     0.001 A 
ATOM     75  C   UNL A   1      39.014  33.527  36.385  1.00  0.00     0.001 A 
ATOM     76  C   UNL A   1      38.144  32.990  37.332  1.00  0.00     0.000 A 
ENDBRANCH  57  71
BRANCH  58  77
ATOM     77  C   UNL A   1      42.730  26.026  27.600  1.00  0.00    -0.014 A 
ATOM     78  C   UNL A   1      43.640  26.630  26.718  1.00  0.00     0.009 A 
ATOM     79  C   UNL A   1      42.330  24.703  27.349  1.00  0.00     0.009 A 
ATOM     80  C   UNL A   1      44.099  25.944  25.590  1.00  0.00     0.001 A 
ATOM     81  C   UNL A   1      42.821  24.007  26.244  1.00  0.00     0.001 A 
ATOM     82  C   UNL A   1      43.692  24.633  25.355  1.00  0.00     0.000 A 
ENDBRANCH  58  77
BRANCH  70  83
ATOM     83  C   UNL A   1      44.967  27.347  34.067  1.00  0.00    -0.014 A 
ATOM     84  C   UNL A   1      45.145  26.016  34.476  1.00  0.00     0.009 A 
ATOM     85  C   UNL A   1      45.981  28.281  34.335  1.00  0.00     0.009 A 
ATOM     86  C   UNL A   1      46.295  25.641  35.177  1.00  0.00     0.001 A 
ATOM     87  C   UNL A   1      47.146  27.895  34.997  1.00  0.00     0.001 A 
ATOM     88  C   UNL A   1      47.296  26.579  35.430  1.00  0.00     0.000 A 
ENDBRANCH  70  83
ENDBRANCH  44  45
ENDBRANCH  37  39
ENDBRANCH  36  37
ENDBRANCH  35  36
ENDBRANCH  34  35
ENDBRANCH  33  34
ENDBRANCH  32  33
ENDBRANCH   1  32
TORSDOF 21
ENDMDL
MODEL 3
REMARK VINA RESULT:     -11.8      4.713      8.426
REMARK SMILES O=C(OCCOCCOCCOC(=O)c1ccc(-c2c3nc(c(-c4ccccc4)c4ccc([nH]4)c(-c4ccccc4)c4nc(c(-c5ccccc5)c5ccc2[nH]5)C=C4)C=C3)cc1)C1=Cc2cc(Cl)cc(-c3ccc(CO)cc3)c2O[C@@H]1C(F)(F)F
REMARK SMILES IDX 7 1 6 2 5 3 4 4 3 5 2 6 1 7 63 8 64 9 81 10 65 11 80 12
REMARK SMILES IDX 66 13 79 14 67 15 70 16 68 17 69 18 82 19 83 20 84 21 85 22
REMARK SMILES IDX 71 23 72 24 78 25 73 26 77 27 74 28 75 29 76 30 8 32 9 33
REMARK SMILES IDX 10 34 11 35 12 36 13 37 14 38 15 39 16 40 62 41 17 42 61 43
REMARK SMILES IDX 18 44 19 45 20 46 55 47 21 48 60 49 54 50 56 51 22 52 59 53
REMARK SMILES IDX 53 54 52 55 23 57 45 58 30 59 44 60 31 61 34 62 43 63 57 64
REMARK SMILES IDX 32 65 33 66 42 68 58 69 35 70 24 71 25 72 29 73 26 74 28 75
REMARK SMILES IDX 27 76 46 77 47 78 51 79 48 80 50 81 49 82 36 83 37 84 41 85
REMARK SMILES IDX 38 86 40 87 39 88
REMARK H PARENT 76 31 56 56 34 67
REMARK Flexibility Score: inf
ROOT
ATOM      1  C   UNL A   1      31.552  29.868  25.343  1.00  0.00     0.188 C 
ENDROOT
BRANCH   1   2
ATOM      2  O   UNL A   1      30.500  29.754  24.242  1.00  0.00    -0.376 OA
BRANCH   2   3
ATOM      3  C   UNL A   1      29.977  28.264  23.424  1.00  0.00     0.202 C 
BRANCH   3   4
ATOM      4  C   UNL A   1      31.367  27.061  22.256  1.00  0.00     0.261 C 
BRANCH   4   5
ATOM      5  O   UNL A   1      31.346  25.532  22.131  1.00  0.00    -0.460 OA
BRANCH   5   6
ATOM      6  C   UNL A   1      32.576  25.001  22.204  1.00  0.00     0.338 C 
ATOM      7  O   UNL A   1      33.288  24.626  21.305  1.00  0.00    -0.246 OA
BRANCH   6   8
ATOM      8  C   UNL A   1      32.475  24.562  23.584  1.00  0.00     0.087 C 
ATOM      9  C   UNL A   1      32.057  23.197  23.803  1.00  0.00     0.027 C 
ATOM     10  C   UNL A   1      34.182  25.278  24.062  1.00  0.00     0.316 C 
ATOM     11  C   UNL A   1      33.165  21.876  24.258  1.00  0.00     0.019 A 
ATOM     12  O   UNL A   1      35.468  23.822  24.402  1.00  0.00    -0.475 OA
ATOM     13  C   UNL A   1      32.645  20.608  24.241  1.00  0.00     0.032 A 
ATOM     14  C   UNL A   1      34.865  22.095  24.507  1.00  0.00     0.135 A 
ATOM     15  C   UNL A   1      33.558  19.585  24.496  1.00  0.00     0.042 A 
ATOM     16  C   UNL A   1      35.683  21.017  24.819  1.00  0.00     0.026 A 
ATOM     17  Cl  UNL A   1      32.959  17.960  24.464  1.00  0.00    -0.084 Cl
ATOM     18  C   UNL A   1      34.959  19.779  24.783  1.00  0.00     0.033 A 
BRANCH  10  19
ATOM     19  C   UNL A   1      33.410  26.427  25.113  1.00  0.00     0.430 C 
ATOM     20  F   UNL A   1      32.078  26.449  25.276  1.00  0.00    -0.167 F 
ATOM     21  F   UNL A   1      33.958  26.322  26.351  1.00  0.00    -0.167 F 
ATOM     22  F   UNL A   1      33.678  27.716  24.727  1.00  0.00    -0.167 F 
ENDBRANCH  10  19
BRANCH  16  23
ATOM     23  C   UNL A   1      37.074  20.921  25.257  1.00  0.00    -0.015 A 
ATOM     24  C   UNL A   1      37.785  22.032  25.716  1.00  0.00     0.009 A 
ATOM     25  C   UNL A   1      37.808  19.741  25.010  1.00  0.00     0.009 A 
ATOM     26  C   UNL A   1      39.137  21.921  26.075  1.00  0.00     0.007 A 
ATOM     27  C   UNL A   1      39.154  19.621  25.383  1.00  0.00     0.007 A 
ATOM     28  C   UNL A   1      39.806  20.693  25.994  1.00  0.00    -0.023 A 
BRANCH  28  29
ATOM     29  C   UNL A   1      41.174  20.525  26.601  1.00  0.00     0.191 C 
BRANCH  29  30
ATOM     30  O   UNL A   1      42.110  21.436  26.051  1.00  0.00    -0.392 OA
ATOM     31  H   UNL A   1      42.933  21.401  26.563  1.00  0.00     0.211 HD
ENDBRANCH  29  30
ENDBRANCH  28  29
ENDBRANCH  16  23
ENDBRANCH   6   8
ENDBRANCH   5   6
ENDBRANCH   4   5
ENDBRANCH   3   4
ENDBRANCH   2   3
ENDBRANCH   1   2
BRANCH   1  32
ATOM     32  C   UNL A   1      31.647  31.052  26.317  1.00  0.00     0.188 C 
BRANCH  32  33
ATOM     33  O   UNL A   1      32.658  31.048  27.283  1.00  0.00    -0.376 OA
BRANCH  33  34
ATOM     34  C   UNL A   1      33.848  30.414  26.868  1.00  0.00     0.202 C 
BRANCH  34  35
ATOM     35  C   UNL A   1      34.534  29.399  27.789  1.00  0.00     0.261 C 
BRANCH  35  36
ATOM     36  O   UNL A   1      35.959  29.307  27.629  1.00  0.00    -0.460 OA
BRANCH  36  37
ATOM     37  C   UNL A   1      36.701  29.510  28.745  1.00  0.00     0.338 C 
ATOM     38  O   UNL A   1      36.315  29.860  29.846  1.00  0.00    -0.246 OA
BRANCH  37  39
ATOM     39  C   UNL A   1      38.075  29.051  28.475  1.00  0.00     0.060 A 
ATOM     40  C   UNL A   1      38.816  28.422  29.489  1.00  0.00     0.016 A 
ATOM     41  C   UNL A   1      38.639  29.290  27.225  1.00  0.00     0.016 A 
ATOM     42  C   UNL A   1      40.120  28.002  29.244  1.00  0.00     0.010 A 
ATOM     43  C   UNL A   1      39.964  28.918  26.997  1.00  0.00     0.010 A 
ATOM     44  C   UNL A   1      40.710  28.288  28.009  1.00  0.00    -0.014 A 
BRANCH  44  45
ATOM     45  C   UNL A   1      42.170  28.131  27.850  1.00  0.00     0.031 A 
ATOM     46  C   UNL A   1      43.044  29.286  28.242  1.00  0.00     0.074 A 
ATOM     47  C   UNL A   1      42.701  26.994  27.370  1.00  0.00     0.049 A 
ATOM     48  N   UNL A   1      44.339  29.419  28.132  1.00  0.00    -0.248 NA
ATOM     49  C   UNL A   1      42.364  30.452  28.832  1.00  0.00     0.031 C 
ATOM     50  C   UNL A   1      41.949  25.794  27.009  1.00  0.00     0.029 A 
ATOM     51  N   UNL A   1      44.006  26.671  27.096  1.00  0.00    -0.354 N 
ATOM     52  C   UNL A   1      44.626  30.685  28.626  1.00  0.00     0.074 A 
ATOM     53  C   UNL A   1      43.373  31.289  29.018  1.00  0.00     0.031 C 
ATOM     54  C   UNL A   1      42.807  24.866  26.549  1.00  0.00     0.029 A 
ATOM     55  C   UNL A   1      44.157  25.423  26.543  1.00  0.00     0.049 A 
ATOM     56  H   UNL A   1      44.761  27.276  27.279  1.00  0.00     0.167 HD
ATOM     57  C   UNL A   1      45.831  31.289  28.736  1.00  0.00     0.031 A 
ATOM     58  C   UNL A   1      45.262  24.820  26.060  1.00  0.00     0.031 A 
ATOM     59  C   UNL A   1      47.068  30.692  28.314  1.00  0.00     0.049 A 
ATOM     60  C   UNL A   1      46.577  25.557  26.112  1.00  0.00     0.074 A 
ATOM     61  C   UNL A   1      48.345  31.217  28.390  1.00  0.00     0.029 A 
ATOM     62  N   UNL A   1      47.179  29.443  27.721  1.00  0.00    -0.354 N 
ATOM     63  N   UNL A   1      46.847  26.740  26.613  1.00  0.00    -0.248 NA
ATOM     64  C   UNL A   1      47.743  24.875  25.531  1.00  0.00     0.031 C 
ATOM     65  C   UNL A   1      49.219  30.320  27.771  1.00  0.00     0.029 A 
ATOM     66  C   UNL A   1      48.500  29.198  27.389  1.00  0.00     0.049 A 
ATOM     67  H   UNL A   1      46.431  28.825  27.559  1.00  0.00     0.167 HD
ATOM     68  C   UNL A   1      48.214  26.926  26.437  1.00  0.00     0.074 A 
ATOM     69  C   UNL A   1      48.720  25.725  25.807  1.00  0.00     0.031 C 
ATOM     70  C   UNL A   1      48.983  27.995  26.762  1.00  0.00     0.031 A 
BRANCH  57  71
ATOM     71  C   UNL A   1      45.862  32.687  29.285  1.00  0.00    -0.014 A 
ATOM     72  C   UNL A   1      45.917  33.808  28.442  1.00  0.00     0.009 A 
ATOM     73  C   UNL A   1      45.783  32.885  30.673  1.00  0.00     0.009 A 
ATOM     74  C   UNL A   1      45.916  35.097  28.979  1.00  0.00     0.001 A 
ATOM     75  C   UNL A   1      45.749  34.174  31.206  1.00  0.00     0.001 A 
ATOM     76  C   UNL A   1      45.822  35.278  30.359  1.00  0.00     0.000 A 
ENDBRANCH  57  71
BRANCH  58  77
ATOM     77  C   UNL A   1      45.180  23.468  25.439  1.00  0.00    -0.014 A 
ATOM     78  C   UNL A   1      45.658  22.333  26.113  1.00  0.00     0.009 A 
ATOM     79  C   UNL A   1      44.681  23.313  24.135  1.00  0.00     0.009 A 
ATOM     80  C   UNL A   1      45.678  21.086  25.482  1.00  0.00     0.001 A 
ATOM     81  C   UNL A   1      44.665  22.059  23.521  1.00  0.00     0.001 A 
ATOM     82  C   UNL A   1      45.180  20.950  24.188  1.00  0.00     0.000 A 
ENDBRANCH  58  77
BRANCH  70  83
ATOM     83  C   UNL A   1      50.460  27.896  26.485  1.00  0.00    -0.014 A 
ATOM     84  C   UNL A   1      51.383  27.629  27.508  1.00  0.00     0.009 A 
ATOM     85  C   UNL A   1      50.926  28.029  25.167  1.00  0.00     0.009 A 
ATOM     86  C   UNL A   1      52.748  27.542  27.221  1.00  0.00     0.001 A 
ATOM     87  C   UNL A   1      52.284  27.900  24.877  1.00  0.00     0.001 A 
ATOM     88  C   UNL A   1      53.196  27.670  25.906  1.00  0.00     0.000 A 
ENDBRANCH  70  83
ENDBRANCH  44  45
ENDBRANCH  37  39
ENDBRANCH  36  37
ENDBRANCH  35  36
ENDBRANCH  34  35
ENDBRANCH  33  34
ENDBRANCH  32  33
ENDBRANCH   1  32
TORSDOF 21
ENDMDL
