MODEL 1
REMARK VINA RESULT:     -11.2      0.000      0.000
REMARK SMILES Cc1nn(C(C)C)c(C)c1S(=O)(=O)Nc1cccc(C(=O)OCCOCCOCCOC(=O)c2ccc(-c3c4nc(c(-c5ccccc5)c5ccc([nH]5)c(-c5ccccc5)c5nc(c(-c6ccccc6)c6ccc3[nH]6)C=C5)C=C4)cc2)c1C
REMARK SMILES IDX 26 1 25 2 24 3 23 4 22 5 20 6 21 7 19 8 15 9 16 10 82 11
REMARK SMILES IDX 17 12 83 13 18 14 14 15 11 17 12 18 13 19 10 20 1 21 2 22
REMARK SMILES IDX 3 23 4 24 8 25 9 26 5 27 6 28 7 29 27 30 28 31 29 32 30 33
REMARK SMILES IDX 31 34 32 35 33 36 34 37 35 38 81 39 36 40 80 41 37 42 38 43
REMARK SMILES IDX 39 44 74 45 40 46 79 47 73 48 75 49 41 50 78 51 72 52 71 53
REMARK SMILES IDX 42 55 64 56 49 57 63 58 50 59 53 60 62 61 76 62 51 63 52 64
REMARK SMILES IDX 61 66 77 67 54 68 43 69 44 70 48 71 45 72 47 73 46 74 65 75
REMARK SMILES IDX 66 76 70 77 67 78 69 79 68 80 55 81 56 82 60 83 57 84 59 85
REMARK SMILES IDX 58 86
REMARK H PARENT 14 16 75 54 53 65
REMARK Flexibility Score: inf
ROOT
ATOM      1  C   UNL A   1      33.964  28.277  25.979  1.00  0.00     0.188 C 
ENDROOT
BRANCH   1   2
ATOM      2  O   UNL A   1      32.761  27.918  26.611  1.00  0.00    -0.376 OA
BRANCH   2   3
ATOM      3  C   UNL A   1      31.611  28.681  26.267  1.00  0.00     0.202 C 
BRANCH   3   4
ATOM      4  C   UNL A   1      31.505  29.567  24.968  1.00  0.00     0.261 C 
BRANCH   4   5
ATOM      5  O   UNL A   1      31.837  29.237  23.535  1.00  0.00    -0.460 OA
BRANCH   5   6
ATOM      6  C   UNL A   1      31.155  28.327  22.738  1.00  0.00     0.338 C 
ATOM      7  O   UNL A   1      30.245  28.618  21.979  1.00  0.00    -0.246 OA
BRANCH   6   8
ATOM      8  C   UNL A   1      31.463  26.870  22.799  1.00  0.00     0.065 A 
ATOM      9  C   UNL A   1      31.101  24.571  23.361  1.00  0.00     0.053 A 
ATOM     10  C   UNL A   1      32.148  24.178  22.522  1.00  0.00     0.027 A 
ATOM     11  C   UNL A   1      30.717  25.925  23.500  1.00  0.00    -0.012 A 
ATOM     12  C   UNL A   1      32.994  25.136  22.011  1.00  0.00     0.003 A 
ATOM     13  C   UNL A   1      29.619  26.380  24.412  1.00  0.00     0.047 C 
ATOM     14  C   UNL A   1      32.718  26.466  22.298  1.00  0.00     0.016 A 
BRANCH   9  15
ATOM     15  N   UNL A   1      30.546  23.521  24.133  1.00  0.00    -0.279 N 
ATOM     16  H   UNL A   1      29.688  23.111  23.876  1.00  0.00     0.180 HD
BRANCH  15  17
ATOM     17  S   UNL A   1      31.383  22.978  25.511  1.00  0.00     0.265 S 
ATOM     18  O   UNL A   1      30.570  21.852  25.942  1.00  0.00    -0.201 OA
ATOM     19  O   UNL A   1      31.597  24.096  26.394  1.00  0.00    -0.201 OA
BRANCH  17  20
ATOM     20  C   UNL A   1      32.975  22.312  25.289  1.00  0.00     0.131 A 
ATOM     21  C   UNL A   1      32.563  19.950  24.120  1.00  0.00     0.070 C 
ATOM     22  C   UNL A   1      33.333  21.043  24.753  1.00  0.00     0.080 A 
ATOM     23  N   UNL A   1      34.660  20.874  24.750  1.00  0.00    -0.176 NA
ATOM     24  N   UNL A   1      35.152  22.101  24.951  1.00  0.00    -0.266 N 
ATOM     25  C   UNL A   1      34.182  23.018  25.279  1.00  0.00     0.056 A 
ATOM     26  C   UNL A   1      34.495  24.466  25.420  1.00  0.00     0.068 C 
BRANCH  24  27
ATOM     27  C   UNL A   1      36.563  22.330  24.634  1.00  0.00     0.101 C 
ATOM     28  C   UNL A   1      37.407  21.090  24.923  1.00  0.00     0.033 C 
ATOM     29  C   UNL A   1      36.735  22.786  23.180  1.00  0.00     0.033 C 
ENDBRANCH  24  27
ENDBRANCH  17  20
ENDBRANCH  15  17
ENDBRANCH   9  15
ENDBRANCH   6   8
ENDBRANCH   5   6
ENDBRANCH   4   5
ENDBRANCH   3   4
ENDBRANCH   2   3
ENDBRANCH   1   2
BRANCH   1  30
ATOM     30  C   UNL A   1      34.928  29.056  26.880  1.00  0.00     0.188 C 
BRANCH  30  31
ATOM     31  O   UNL A   1      34.247  29.952  27.760  1.00  0.00    -0.376 OA
BRANCH  31  32
ATOM     32  C   UNL A   1      34.407  31.333  27.444  1.00  0.00     0.202 C 
BRANCH  32  33
ATOM     33  C   UNL A   1      33.208  32.165  27.921  1.00  0.00     0.261 C 
BRANCH  33  34
ATOM     34  O   UNL A   1      33.554  33.561  27.850  1.00  0.00    -0.460 OA
BRANCH  34  35
ATOM     35  C   UNL A   1      33.499  34.198  29.045  1.00  0.00     0.338 C 
ATOM     36  O   UNL A   1      32.614  34.961  29.402  1.00  0.00    -0.246 OA
BRANCH  35  37
ATOM     37  C   UNL A   1      34.822  34.075  29.719  1.00  0.00     0.060 A 
ATOM     38  C   UNL A   1      35.932  34.371  28.961  1.00  0.00     0.016 A 
ATOM     39  C   UNL A   1      35.011  33.397  30.932  1.00  0.00     0.016 A 
ATOM     40  C   UNL A   1      37.156  33.807  29.333  1.00  0.00     0.010 A 
ATOM     41  C   UNL A   1      36.259  32.824  31.265  1.00  0.00     0.010 A 
ATOM     42  C   UNL A   1      37.357  32.923  30.411  1.00  0.00    -0.014 A 
BRANCH  42  43
ATOM     43  C   UNL A   1      38.602  32.087  30.716  1.00  0.00     0.031 A 
ATOM     44  C   UNL A   1      38.584  30.689  30.189  1.00  0.00     0.074 A 
ATOM     45  C   UNL A   1      39.756  32.342  31.436  1.00  0.00     0.049 A 
ATOM     46  N   UNL A   1      39.271  29.703  30.681  1.00  0.00    -0.248 NA
ATOM     47  C   UNL A   1      37.648  30.270  29.146  1.00  0.00     0.031 C 
ATOM     48  C   UNL A   1      41.085  31.781  31.156  1.00  0.00     0.029 A 
ATOM     49  N   UNL A   1      40.027  33.047  32.619  1.00  0.00    -0.354 N 
ATOM     50  C   UNL A   1      39.217  28.709  29.737  1.00  0.00     0.074 A 
ATOM     51  C   UNL A   1      38.024  29.000  28.976  1.00  0.00     0.031 C 
ATOM     52  C   UNL A   1      41.950  32.078  32.145  1.00  0.00     0.029 A 
ATOM     53  C   UNL A   1      41.259  32.763  33.227  1.00  0.00     0.049 A 
ATOM     54  H   UNL A   1      39.391  33.697  32.999  1.00  0.00     0.167 HD
ATOM     55  C   UNL A   1      40.319  27.940  29.489  1.00  0.00     0.031 A 
ATOM     56  C   UNL A   1      41.492  32.718  34.590  1.00  0.00     0.031 A 
ATOM     57  C   UNL A   1      41.427  28.163  30.434  1.00  0.00     0.049 A 
ATOM     58  C   UNL A   1      41.951  31.330  34.988  1.00  0.00     0.074 A 
ATOM     59  C   UNL A   1      42.694  28.717  30.312  1.00  0.00     0.029 A 
ATOM     60  N   UNL A   1      41.233  27.999  31.802  1.00  0.00    -0.354 N 
ATOM     61  N   UNL A   1      42.340  30.441  34.127  1.00  0.00    -0.248 NA
ATOM     62  C   UNL A   1      41.847  30.772  36.342  1.00  0.00     0.031 C 
ATOM     63  C   UNL A   1      43.294  28.786  31.597  1.00  0.00     0.029 A 
ATOM     64  C   UNL A   1      42.391  28.285  32.511  1.00  0.00     0.049 A 
ATOM     65  H   UNL A   1      40.384  27.716  32.212  1.00  0.00     0.167 HD
ATOM     66  C   UNL A   1      42.313  29.208  34.710  1.00  0.00     0.074 A 
ATOM     67  C   UNL A   1      42.058  29.464  36.114  1.00  0.00     0.031 C 
ATOM     68  C   UNL A   1      42.420  28.081  33.956  1.00  0.00     0.031 A 
BRANCH  55  69
ATOM     69  C   UNL A   1      40.509  27.276  28.130  1.00  0.00    -0.014 A 
ATOM     70  C   UNL A   1      40.196  25.917  27.960  1.00  0.00     0.009 A 
ATOM     71  C   UNL A   1      41.075  27.904  27.007  1.00  0.00     0.009 A 
ATOM     72  C   UNL A   1      40.563  25.200  26.812  1.00  0.00     0.001 A 
ATOM     73  C   UNL A   1      41.487  27.191  25.872  1.00  0.00     0.001 A 
ATOM     74  C   UNL A   1      41.247  25.830  25.783  1.00  0.00     0.000 A 
ENDBRANCH  55  69
BRANCH  56  75
ATOM     75  C   UNL A   1      40.758  33.620  35.570  1.00  0.00    -0.014 A 
ATOM     76  C   UNL A   1      39.419  33.349  35.906  1.00  0.00     0.009 A 
ATOM     77  C   UNL A   1      41.378  34.643  36.309  1.00  0.00     0.009 A 
ATOM     78  C   UNL A   1      38.824  33.892  37.066  1.00  0.00     0.001 A 
ATOM     79  C   UNL A   1      40.788  35.192  37.464  1.00  0.00     0.001 A 
ATOM     80  C   UNL A   1      39.532  34.771  37.876  1.00  0.00     0.000 A 
ENDBRANCH  56  75
BRANCH  68  81
ATOM     81  C   UNL A   1      42.557  26.686  34.496  1.00  0.00    -0.014 A 
ATOM     82  C   UNL A   1      43.585  25.808  34.125  1.00  0.00     0.009 A 
ATOM     83  C   UNL A   1      41.524  26.153  35.294  1.00  0.00     0.009 A 
ATOM     84  C   UNL A   1      43.609  24.484  34.582  1.00  0.00     0.001 A 
ATOM     85  C   UNL A   1      41.529  24.829  35.730  1.00  0.00     0.001 A 
ATOM     86  C   UNL A   1      42.580  23.996  35.383  1.00  0.00     0.000 A 
ENDBRANCH  68  81
ENDBRANCH  42  43
ENDBRANCH  35  37
ENDBRANCH  34  35
ENDBRANCH  33  34
ENDBRANCH  32  33
ENDBRANCH  31  32
ENDBRANCH  30  31
ENDBRANCH   1  30
TORSDOF 21
ENDMDL
MODEL 2
REMARK VINA RESULT:      -9.7      2.939      7.797
REMARK SMILES Cc1nn(C(C)C)c(C)c1S(=O)(=O)Nc1cccc(C(=O)OCCOCCOCCOC(=O)c2ccc(-c3c4nc(c(-c5ccccc5)c5ccc([nH]5)c(-c5ccccc5)c5nc(c(-c6ccccc6)c6ccc3[nH]6)C=C5)C=C4)cc2)c1C
REMARK SMILES IDX 26 1 25 2 24 3 23 4 22 5 20 6 21 7 19 8 15 9 16 10 82 11
REMARK SMILES IDX 17 12 83 13 18 14 14 15 11 17 12 18 13 19 10 20 1 21 2 22
REMARK SMILES IDX 3 23 4 24 8 25 9 26 5 27 6 28 7 29 27 30 28 31 29 32 30 33
REMARK SMILES IDX 31 34 32 35 33 36 34 37 35 38 81 39 36 40 80 41 37 42 38 43
REMARK SMILES IDX 39 44 74 45 40 46 79 47 73 48 75 49 41 50 78 51 72 52 71 53
REMARK SMILES IDX 42 55 64 56 49 57 63 58 50 59 53 60 62 61 76 62 51 63 52 64
REMARK SMILES IDX 61 66 77 67 54 68 43 69 44 70 48 71 45 72 47 73 46 74 65 75
REMARK SMILES IDX 66 76 70 77 67 78 69 79 68 80 55 81 56 82 60 83 57 84 59 85
REMARK SMILES IDX 58 86
REMARK H PARENT 14 16 75 54 53 65
REMARK Flexibility Score: inf
ROOT
ATOM      1  C   UNL A   1      40.752  21.704  26.743  1.00  0.00     0.188 C 
ENDROOT
BRANCH   1   2
ATOM      2  O   UNL A   1      40.103  22.771  26.099  1.00  0.00    -0.376 OA
BRANCH   2   3
ATOM      3  C   UNL A   1      38.856  23.180  26.647  1.00  0.00     0.202 C 
BRANCH   3   4
ATOM      4  C   UNL A   1      37.549  23.387  25.791  1.00  0.00     0.261 C 
BRANCH   4   5
ATOM      5  O   UNL A   1      36.139  23.698  26.225  1.00  0.00    -0.460 OA
BRANCH   5   6
ATOM      6  C   UNL A   1      35.040  22.868  26.047  1.00  0.00     0.338 C 
ATOM      7  O   UNL A   1      35.025  21.675  26.304  1.00  0.00    -0.246 OA
BRANCH   6   8
ATOM      8  C   UNL A   1      33.772  23.386  25.459  1.00  0.00     0.065 A 
ATOM      9  C   UNL A   1      32.262  24.028  23.716  1.00  0.00     0.053 A 
ATOM     10  C   UNL A   1      31.210  24.122  24.631  1.00  0.00     0.027 A 
ATOM     11  C   UNL A   1      33.564  23.633  24.104  1.00  0.00    -0.012 A 
ATOM     12  C   UNL A   1      31.488  24.080  25.978  1.00  0.00     0.003 A 
ATOM     13  C   UNL A   1      34.717  23.550  23.152  1.00  0.00     0.047 C 
ATOM     14  C   UNL A   1      32.804  23.869  26.364  1.00  0.00     0.016 A 
BRANCH   9  15
ATOM     15  N   UNL A   1      31.940  24.467  22.408  1.00  0.00    -0.279 N 
ATOM     16  H   UNL A   1      31.575  23.837  21.744  1.00  0.00     0.180 HD
BRANCH  15  17
ATOM     17  S   UNL A   1      32.192  26.099  22.000  1.00  0.00     0.265 S 
ATOM     18  O   UNL A   1      31.164  26.328  20.997  1.00  0.00    -0.201 OA
ATOM     19  O   UNL A   1      33.582  26.284  21.667  1.00  0.00    -0.201 OA
BRANCH  17  20
ATOM     20  C   UNL A   1      31.893  27.301  23.220  1.00  0.00     0.131 A 
ATOM     21  C   UNL A   1      29.261  27.723  23.124  1.00  0.00     0.070 C 
ATOM     22  C   UNL A   1      30.660  27.927  23.559  1.00  0.00     0.080 A 
ATOM     23  N   UNL A   1      30.821  28.815  24.546  1.00  0.00    -0.176 NA
ATOM     24  N   UNL A   1      32.024  28.531  25.057  1.00  0.00    -0.266 N 
ATOM     25  C   UNL A   1      32.723  27.619  24.300  1.00  0.00     0.056 A 
ATOM     26  C   UNL A   1      34.028  27.069  24.755  1.00  0.00     0.068 C 
BRANCH  24  27
ATOM     27  C   UNL A   1      32.346  29.066  26.381  1.00  0.00     0.101 C 
ATOM     28  C   UNL A   1      31.937  30.532  26.504  1.00  0.00     0.033 C 
ATOM     29  C   UNL A   1      31.706  28.221  27.488  1.00  0.00     0.033 C 
ENDBRANCH  24  27
ENDBRANCH  17  20
ENDBRANCH  15  17
ENDBRANCH   9  15
ENDBRANCH   6   8
ENDBRANCH   5   6
ENDBRANCH   4   5
ENDBRANCH   3   4
ENDBRANCH   2   3
ENDBRANCH   1   2
BRANCH   1  30
ATOM     30  C   UNL A   1      42.234  21.963  27.031  1.00  0.00     0.188 C 
BRANCH  30  31
ATOM     31  O   UNL A   1      42.451  22.477  28.347  1.00  0.00    -0.376 OA
BRANCH  31  32
ATOM     32  C   UNL A   1      42.798  23.859  28.396  1.00  0.00     0.202 C 
BRANCH  32  33
ATOM     33  C   UNL A   1      43.186  24.394  27.010  1.00  0.00     0.261 C 
BRANCH  33  34
ATOM     34  O   UNL A   1      42.796  25.777  26.920  1.00  0.00    -0.460 OA
BRANCH  34  35
ATOM     35  C   UNL A   1      41.687  25.983  26.169  1.00  0.00     0.338 C 
ATOM     36  O   UNL A   1      41.550  25.654  25.001  1.00  0.00    -0.246 OA
BRANCH  35  37
ATOM     37  C   UNL A   1      40.793  26.940  26.881  1.00  0.00     0.060 A 
ATOM     38  C   UNL A   1      41.262  28.225  27.036  1.00  0.00     0.016 A 
ATOM     39  C   UNL A   1      39.688  26.542  27.647  1.00  0.00     0.016 A 
ATOM     40  C   UNL A   1      40.749  28.993  28.086  1.00  0.00     0.010 A 
ATOM     41  C   UNL A   1      39.210  27.337  28.713  1.00  0.00     0.010 A 
ATOM     42  C   UNL A   1      39.806  28.556  29.035  1.00  0.00    -0.014 A 
BRANCH  42  43
ATOM     43  C   UNL A   1      39.397  29.251  30.337  1.00  0.00     0.031 A 
ATOM     44  C   UNL A   1      38.814  30.618  30.181  1.00  0.00     0.074 A 
ATOM     45  C   UNL A   1      39.496  28.892  31.670  1.00  0.00     0.049 A 
ATOM     46  N   UNL A   1      38.821  31.536  31.100  1.00  0.00    -0.248 NA
ATOM     47  C   UNL A   1      38.313  31.101  28.895  1.00  0.00     0.031 C 
ATOM     48  C   UNL A   1      38.562  29.279  32.736  1.00  0.00     0.029 A 
ATOM     49  N   UNL A   1      40.465  28.210  32.422  1.00  0.00    -0.354 N 
ATOM     50  C   UNL A   1      37.930  32.489  30.676  1.00  0.00     0.074 A 
ATOM     51  C   UNL A   1      37.865  32.309  29.244  1.00  0.00     0.031 C 
ATOM     52  C   UNL A   1      39.038  28.923  33.945  1.00  0.00     0.029 A 
ATOM     53  C   UNL A   1      40.378  28.371  33.813  1.00  0.00     0.049 A 
ATOM     54  H   UNL A   1      41.162  27.656  32.000  1.00  0.00     0.167 HD
ATOM     55  C   UNL A   1      37.113  33.111  31.578  1.00  0.00     0.031 A 
ATOM     56  C   UNL A   1      41.451  28.445  34.683  1.00  0.00     0.031 A 
ATOM     57  C   UNL A   1      37.428  32.798  32.983  1.00  0.00     0.049 A 
ATOM     58  C   UNL A   1      41.448  29.785  35.391  1.00  0.00     0.074 A 
ATOM     59  C   UNL A   1      36.766  32.093  33.979  1.00  0.00     0.029 A 
ATOM     60  N   UNL A   1      38.698  33.041  33.493  1.00  0.00    -0.354 N 
ATOM     61  N   UNL A   1      40.427  30.585  35.384  1.00  0.00    -0.248 NA
ATOM     62  C   UNL A   1      42.627  30.408  36.006  1.00  0.00     0.031 C 
ATOM     63  C   UNL A   1      37.606  32.007  35.120  1.00  0.00     0.029 A 
ATOM     64  C   UNL A   1      38.790  32.649  34.822  1.00  0.00     0.049 A 
ATOM     65  H   UNL A   1      39.437  33.439  32.978  1.00  0.00     0.167 HD
ATOM     66  C   UNL A   1      40.833  31.835  35.748  1.00  0.00     0.074 A 
ATOM     67  C   UNL A   1      42.204  31.671  36.187  1.00  0.00     0.031 C 
ATOM     68  C   UNL A   1      40.017  32.910  35.567  1.00  0.00     0.031 A 
BRANCH  55  69
ATOM     69  C   UNL A   1      35.773  33.689  31.137  1.00  0.00    -0.014 A 
ATOM     70  C   UNL A   1      35.273  33.410  29.853  1.00  0.00     0.009 A 
ATOM     71  C   UNL A   1      35.000  34.584  31.897  1.00  0.00     0.009 A 
ATOM     72  C   UNL A   1      34.175  34.091  29.311  1.00  0.00     0.001 A 
ATOM     73  C   UNL A   1      33.927  35.305  31.353  1.00  0.00     0.001 A 
ATOM     74  C   UNL A   1      33.525  35.070  30.048  1.00  0.00     0.000 A 
ENDBRANCH  55  69
BRANCH  56  75
ATOM     75  C   UNL A   1      42.743  27.679  34.447  1.00  0.00    -0.014 A 
ATOM     76  C   UNL A   1      42.927  26.414  35.036  1.00  0.00     0.009 A 
ATOM     77  C   UNL A   1      43.735  28.077  33.533  1.00  0.00     0.009 A 
ATOM     78  C   UNL A   1      43.900  25.510  34.555  1.00  0.00     0.001 A 
ATOM     79  C   UNL A   1      44.712  27.182  33.055  1.00  0.00     0.001 A 
ATOM     80  C   UNL A   1      44.755  25.877  33.524  1.00  0.00     0.000 A 
ENDBRANCH  56  75
BRANCH  68  81
ATOM     81  C   UNL A   1      40.291  34.300  36.065  1.00  0.00    -0.014 A 
ATOM     82  C   UNL A   1      41.452  35.020  35.757  1.00  0.00     0.009 A 
ATOM     83  C   UNL A   1      39.426  34.870  37.022  1.00  0.00     0.009 A 
ATOM     84  C   UNL A   1      41.704  36.273  36.329  1.00  0.00     0.001 A 
ATOM     85  C   UNL A   1      39.684  36.104  37.615  1.00  0.00     0.001 A 
ATOM     86  C   UNL A   1      40.819  36.813  37.259  1.00  0.00     0.000 A 
ENDBRANCH  68  81
ENDBRANCH  42  43
ENDBRANCH  35  37
ENDBRANCH  34  35
ENDBRANCH  33  34
ENDBRANCH  32  33
ENDBRANCH  31  32
ENDBRANCH  30  31
ENDBRANCH   1  30
TORSDOF 21
ENDMDL
MODEL 3
REMARK VINA RESULT:      -9.5      5.751     10.907
REMARK SMILES Cc1nn(C(C)C)c(C)c1S(=O)(=O)Nc1cccc(C(=O)OCCOCCOCCOC(=O)c2ccc(-c3c4nc(c(-c5ccccc5)c5ccc([nH]5)c(-c5ccccc5)c5nc(c(-c6ccccc6)c6ccc3[nH]6)C=C5)C=C4)cc2)c1C
REMARK SMILES IDX 26 1 25 2 24 3 23 4 22 5 20 6 21 7 19 8 15 9 16 10 82 11
REMARK SMILES IDX 17 12 83 13 18 14 14 15 11 17 12 18 13 19 10 20 1 21 2 22
REMARK SMILES IDX 3 23 4 24 8 25 9 26 5 27 6 28 7 29 27 30 28 31 29 32 30 33
REMARK SMILES IDX 31 34 32 35 33 36 34 37 35 38 81 39 36 40 80 41 37 42 38 43
REMARK SMILES IDX 39 44 74 45 40 46 79 47 73 48 75 49 41 50 78 51 72 52 71 53
REMARK SMILES IDX 42 55 64 56 49 57 63 58 50 59 53 60 62 61 76 62 51 63 52 64
REMARK SMILES IDX 61 66 77 67 54 68 43 69 44 70 48 71 45 72 47 73 46 74 65 75
REMARK SMILES IDX 66 76 70 77 67 78 69 79 68 80 55 81 56 82 60 83 57 84 59 85
REMARK SMILES IDX 58 86
REMARK H PARENT 14 16 75 54 53 65
REMARK Flexibility Score: inf
ROOT
ATOM      1  C   UNL A   1      42.582  19.075  25.781  1.00  0.00     0.188 C 
ENDROOT
BRANCH   1   2
ATOM      2  O   UNL A   1      43.354  19.743  24.816  1.00  0.00    -0.376 OA
BRANCH   2   3
ATOM      3  C   UNL A   1      44.763  19.743  25.018  1.00  0.00     0.202 C 
BRANCH   3   4
ATOM      4  C   UNL A   1      45.686  20.990  24.741  1.00  0.00     0.261 C 
BRANCH   4   5
ATOM      5  O   UNL A   1      45.357  22.461  24.727  1.00  0.00    -0.460 OA
BRANCH   5   6
ATOM      6  C   UNL A   1      45.752  23.385  25.686  1.00  0.00     0.338 C 
ATOM      7  O   UNL A   1      46.399  23.112  26.684  1.00  0.00    -0.246 OA
BRANCH   6   8
ATOM      8  C   UNL A   1      45.354  24.817  25.584  1.00  0.00     0.065 A 
ATOM      9  C   UNL A   1      45.587  27.123  24.985  1.00  0.00     0.053 A 
ATOM     10  C   UNL A   1      44.243  27.361  25.285  1.00  0.00     0.027 A 
ATOM     11  C   UNL A   1      46.168  25.839  25.103  1.00  0.00    -0.012 A 
ATOM     12  C   UNL A   1      43.524  26.394  25.950  1.00  0.00     0.003 A 
ATOM     13  C   UNL A   1      47.612  25.561  24.817  1.00  0.00     0.047 C 
ATOM     14  C   UNL A   1      44.156  25.190  26.227  1.00  0.00     0.016 A 
BRANCH   9  15
ATOM     15  N   UNL A   1      46.329  28.288  24.668  1.00  0.00    -0.279 N 
ATOM     16  H   UNL A   1      46.627  28.455  23.744  1.00  0.00     0.180 HD
BRANCH  15  17
ATOM     17  S   UNL A   1      46.698  29.394  25.906  1.00  0.00     0.265 S 
ATOM     18  O   UNL A   1      46.030  30.603  25.448  1.00  0.00    -0.201 OA
ATOM     19  O   UNL A   1      48.122  29.392  26.121  1.00  0.00    -0.201 OA
BRANCH  17  20
ATOM     20  C   UNL A   1      46.037  29.099  27.488  1.00  0.00     0.131 A 
ATOM     21  C   UNL A   1      43.672  30.332  27.474  1.00  0.00     0.070 C 
ATOM     22  C   UNL A   1      44.811  29.574  28.035  1.00  0.00     0.080 A 
ATOM     23  N   UNL A   1      44.643  29.149  29.292  1.00  0.00    -0.176 NA
ATOM     24  N   UNL A   1      45.541  28.168  29.434  1.00  0.00    -0.266 N 
ATOM     25  C   UNL A   1      46.414  28.085  28.374  1.00  0.00     0.056 A 
ATOM     26  C   UNL A   1      47.411  26.986  28.271  1.00  0.00     0.068 C 
BRANCH  24  27
ATOM     27  C   UNL A   1      45.372  27.246  30.559  1.00  0.00     0.101 C 
ATOM     28  C   UNL A   1      44.771  25.918  30.104  1.00  0.00     0.033 C 
ATOM     29  C   UNL A   1      46.697  27.027  31.297  1.00  0.00     0.033 C 
ENDBRANCH  24  27
ENDBRANCH  17  20
ENDBRANCH  15  17
ENDBRANCH   9  15
ENDBRANCH   6   8
ENDBRANCH   5   6
ENDBRANCH   4   5
ENDBRANCH   3   4
ENDBRANCH   2   3
ENDBRANCH   1   2
BRANCH   1  30
ATOM     30  C   UNL A   1      41.640  19.994  26.566  1.00  0.00     0.188 C 
BRANCH  30  31
ATOM     31  O   UNL A   1      41.806  21.369  26.215  1.00  0.00    -0.376 OA
BRANCH  31  32
ATOM     32  C   UNL A   1      42.495  22.152  27.188  1.00  0.00     0.202 C 
BRANCH  32  33
ATOM     33  C   UNL A   1      41.529  22.752  28.219  1.00  0.00     0.261 C 
BRANCH  33  34
ATOM     34  O   UNL A   1      41.275  24.126  27.873  1.00  0.00    -0.460 OA
BRANCH  34  35
ATOM     35  C   UNL A   1      39.979  24.381  27.566  1.00  0.00     0.338 C 
ATOM     36  O   UNL A   1      39.265  23.681  26.864  1.00  0.00    -0.246 OA
BRANCH  35  37
ATOM     37  C   UNL A   1      39.659  25.785  27.950  1.00  0.00     0.060 A 
ATOM     38  C   UNL A   1      40.362  26.777  27.304  1.00  0.00     0.016 A 
ATOM     39  C   UNL A   1      38.944  26.126  29.107  1.00  0.00     0.016 A 
ATOM     40  C   UNL A   1      40.493  28.015  27.941  1.00  0.00     0.010 A 
ATOM     41  C   UNL A   1      39.118  27.381  29.733  1.00  0.00     0.010 A 
ATOM     42  C   UNL A   1      39.993  28.336  29.217  1.00  0.00    -0.014 A 
BRANCH  42  43
ATOM     43  C   UNL A   1      40.312  29.571  30.064  1.00  0.00     0.031 A 
ATOM     44  C   UNL A   1      41.123  29.318  31.292  1.00  0.00     0.074 A 
ATOM     45  C   UNL A   1      39.961  30.906  29.955  1.00  0.00     0.049 A 
ATOM     46  N   UNL A   1      41.128  30.076  32.346  1.00  0.00    -0.248 NA
ATOM     47  C   UNL A   1      41.880  28.080  31.475  1.00  0.00     0.031 C 
ATOM     48  C   UNL A   1      40.776  32.048  30.390  1.00  0.00     0.029 A 
ATOM     49  N   UNL A   1      38.793  31.573  29.549  1.00  0.00    -0.354 N 
ATOM     50  C   UNL A   1      42.214  29.677  33.083  1.00  0.00     0.074 A 
ATOM     51  C   UNL A   1      42.460  28.320  32.653  1.00  0.00     0.031 C 
ATOM     52  C   UNL A   1      40.076  33.196  30.314  1.00  0.00     0.029 A 
ATOM     53  C   UNL A   1      38.699  32.919  29.934  1.00  0.00     0.049 A 
ATOM     54  H   UNL A   1      38.087  31.124  29.031  1.00  0.00     0.167 HD
ATOM     55  C   UNL A   1      42.978  30.604  33.735  1.00  0.00     0.031 A 
ATOM     56  C   UNL A   1      37.535  33.571  30.300  1.00  0.00     0.031 A 
ATOM     57  C   UNL A   1      42.413  31.964  33.713  1.00  0.00     0.049 A 
ATOM     58  C   UNL A   1      37.648  34.064  31.729  1.00  0.00     0.074 A 
ATOM     59  C   UNL A   1      42.798  33.152  33.107  1.00  0.00     0.029 A 
ATOM     60  N   UNL A   1      41.137  32.207  34.210  1.00  0.00    -0.354 N 
ATOM     61  N   UNL A   1      38.775  34.114  32.371  1.00  0.00    -0.248 NA
ATOM     62  C   UNL A   1      36.507  34.368  32.601  1.00  0.00     0.031 C 
ATOM     63  C   UNL A   1      41.795  34.132  33.333  1.00  0.00     0.029 A 
ATOM     64  C   UNL A   1      40.788  33.543  34.068  1.00  0.00     0.049 A 
ATOM     65  H   UNL A   1      40.556  31.520  34.609  1.00  0.00     0.167 HD
ATOM     66  C   UNL A   1      38.527  34.214  33.708  1.00  0.00     0.074 A 
ATOM     67  C   UNL A   1      37.097  34.430  33.807  1.00  0.00     0.031 C 
ATOM     68  C   UNL A   1      39.522  34.019  34.615  1.00  0.00     0.031 A 
BRANCH  55  69
ATOM     69  C   UNL A   1      44.444  30.319  34.043  1.00  0.00    -0.014 A 
ATOM     70  C   UNL A   1      45.439  30.665  33.112  1.00  0.00     0.009 A 
ATOM     71  C   UNL A   1      44.902  29.635  35.182  1.00  0.00     0.009 A 
ATOM     72  C   UNL A   1      46.764  30.225  33.234  1.00  0.00     0.001 A 
ATOM     73  C   UNL A   1      46.213  29.151  35.294  1.00  0.00     0.001 A 
ATOM     74  C   UNL A   1      47.143  29.432  34.306  1.00  0.00     0.000 A 
ENDBRANCH  55  69
BRANCH  56  75
ATOM     75  C   UNL A   1      36.186  33.232  29.686  1.00  0.00    -0.014 A 
ATOM     76  C   UNL A   1      35.508  34.189  28.908  1.00  0.00     0.009 A 
ATOM     77  C   UNL A   1      35.616  31.946  29.706  1.00  0.00     0.009 A 
ATOM     78  C   UNL A   1      34.478  33.820  28.015  1.00  0.00     0.001 A 
ATOM     79  C   UNL A   1      34.585  31.574  28.822  1.00  0.00     0.001 A 
ATOM     80  C   UNL A   1      34.056  32.498  27.933  1.00  0.00     0.000 A 
ENDBRANCH  56  75
BRANCH  68  81
ATOM     81  C   UNL A   1      39.405  34.252  36.094  1.00  0.00    -0.014 A 
ATOM     82  C   UNL A   1      38.786  33.355  36.975  1.00  0.00     0.009 A 
ATOM     83  C   UNL A   1      39.786  35.502  36.625  1.00  0.00     0.009 A 
ATOM     84  C   UNL A   1      38.615  33.668  38.329  1.00  0.00     0.001 A 
ATOM     85  C   UNL A   1      39.595  35.829  37.967  1.00  0.00     0.001 A 
ATOM     86  C   UNL A   1      39.018  34.905  38.823  1.00  0.00     0.000 A 
ENDBRANCH  68  81
ENDBRANCH  42  43
ENDBRANCH  35  37
ENDBRANCH  34  35
ENDBRANCH  33  34
ENDBRANCH  32  33
ENDBRANCH  31  32
ENDBRANCH  30  31
ENDBRANCH   1  30
TORSDOF 21
ENDMDL
