MODEL 1
REMARK VINA RESULT:     -10.3      0.000      0.000
REMARK SMILES C[C@H]1[C@H](C(=O)OCCOCCOCCOC(=O)c2ccc(-c3c4nc(c(-c5ccccc5)c5ccc([nH]5)c(-c5ccccc5)c5nc(c(-c6ccccc6)c6ccc3[nH]6)C=C5)C=C4)cc2)CCN1C(=O)NCc1ccncc1
REMARK SMILES IDX 10 1 9 2 8 3 7 4 6 5 4 6 5 7 3 8 1 9 2 10 68 11 66 12 67 13
REMARK SMILES IDX 69 14 70 15 71 16 72 18 73 19 74 20 78 21 75 22 77 23 76 24
REMARK SMILES IDX 11 25 12 26 13 27 14 28 15 29 16 30 17 31 18 32 19 33 65 34
REMARK SMILES IDX 20 35 64 36 21 37 22 38 23 39 58 40 24 41 63 42 57 43 59 44
REMARK SMILES IDX 25 45 62 46 56 47 55 48 26 50 48 51 33 52 47 53 34 54 37 55
REMARK SMILES IDX 46 56 60 57 35 58 36 59 45 61 61 62 38 63 27 64 28 65 32 66
REMARK SMILES IDX 29 67 31 68 30 69 49 70 50 71 54 72 51 73 53 74 52 75 39 76
REMARK SMILES IDX 40 77 44 78 41 79 43 80 42 81
REMARK H PARENT 71 17 59 49 37 60
REMARK Flexibility Score: inf
ROOT
ATOM      1  C   UNL A   1      31.317  28.074  24.191  1.00  0.00     0.188 C 
ENDROOT
BRANCH   1   2
ATOM      2  O   UNL A   1      31.619  27.857  22.832  1.00  0.00    -0.376 OA
BRANCH   2   3
ATOM      3  C   UNL A   1      31.335  26.611  22.221  1.00  0.00     0.202 C 
BRANCH   3   4
ATOM      4  C   UNL A   1      32.400  25.823  21.445  1.00  0.00     0.261 C 
BRANCH   4   5
ATOM      5  O   UNL A   1      33.654  25.581  22.119  1.00  0.00    -0.463 OA
BRANCH   5   6
ATOM      6  C   UNL A   1      33.858  24.307  22.532  1.00  0.00     0.311 C 
ATOM      7  O   UNL A   1      33.626  23.320  21.837  1.00  0.00    -0.252 OA
BRANCH   6   8
ATOM      8  C   UNL A   1      34.357  24.136  23.959  1.00  0.00     0.123 C 
ATOM      9  C   UNL A   1      33.178  24.643  26.117  1.00  0.00     0.032 C 
ATOM     10  C   UNL A   1      33.471  23.538  25.083  1.00  0.00     0.098 C 
ATOM     11  N   UNL A   1      34.267  22.489  25.713  1.00  0.00    -0.321 N 
ATOM     12  C   UNL A   1      35.606  23.262  23.936  1.00  0.00     0.039 C 
ATOM     13  C   UNL A   1      35.654  22.621  25.306  1.00  0.00     0.122 C 
BRANCH  11  14
ATOM     14  C   UNL A   1      33.924  21.482  26.560  1.00  0.00     0.317 C 
ATOM     15  O   UNL A   1      34.153  21.568  27.772  1.00  0.00    -0.249 OA
ATOM     16  N   UNL A   1      33.321  20.343  26.186  1.00  0.00    -0.334 N 
ATOM     17  H   UNL A   1      33.292  19.701  26.931  1.00  0.00     0.165 HD
BRANCH  16  18
ATOM     18  C   UNL A   1      32.701  19.786  24.998  1.00  0.00     0.153 C 
BRANCH  18  19
ATOM     19  C   UNL A   1      32.997  18.321  24.785  1.00  0.00    -0.026 A 
ATOM     20  C   UNL A   1      33.650  17.826  23.653  1.00  0.00     0.025 A 
ATOM     21  C   UNL A   1      32.675  17.410  25.795  1.00  0.00     0.025 A 
ATOM     22  C   UNL A   1      33.891  16.462  23.562  1.00  0.00     0.111 A 
ATOM     23  C   UNL A   1      32.956  16.066  25.613  1.00  0.00     0.111 A 
ATOM     24  N   UNL A   1      33.552  15.567  24.513  1.00  0.00    -0.265 NA
ENDBRANCH  18  19
ENDBRANCH  16  18
ENDBRANCH  11  14
ENDBRANCH   6   8
ENDBRANCH   5   6
ENDBRANCH   4   5
ENDBRANCH   3   4
ENDBRANCH   2   3
ENDBRANCH   1   2
BRANCH   1  25
ATOM     25  C   UNL A   1      31.900  29.274  24.944  1.00  0.00     0.188 C 
BRANCH  25  26
ATOM     26  O   UNL A   1      31.967  29.336  26.349  1.00  0.00    -0.376 OA
BRANCH  26  27
ATOM     27  C   UNL A   1      33.200  29.671  26.966  1.00  0.00     0.202 C 
BRANCH  27  28
ATOM     28  C   UNL A   1      33.331  30.998  27.722  1.00  0.00     0.261 C 
BRANCH  28  29
ATOM     29  O   UNL A   1      34.654  31.552  27.701  1.00  0.00    -0.460 OA
BRANCH  29  30
ATOM     30  C   UNL A   1      35.238  31.713  28.913  1.00  0.00     0.338 C 
ATOM     31  O   UNL A   1      34.764  32.260  29.902  1.00  0.00    -0.246 OA
BRANCH  30  32
ATOM     32  C   UNL A   1      36.461  30.895  28.958  1.00  0.00     0.060 A 
ATOM     33  C   UNL A   1      36.923  30.427  30.200  1.00  0.00     0.016 A 
ATOM     34  C   UNL A   1      37.146  30.595  27.785  1.00  0.00     0.016 A 
ATOM     35  C   UNL A   1      38.075  29.648  30.272  1.00  0.00     0.010 A 
ATOM     36  C   UNL A   1      38.319  29.848  27.862  1.00  0.00     0.010 A 
ATOM     37  C   UNL A   1      38.795  29.386  29.104  1.00  0.00    -0.014 A 
BRANCH  37  38
ATOM     38  C   UNL A   1      40.146  28.790  29.158  1.00  0.00     0.031 A 
ATOM     39  C   UNL A   1      41.307  29.706  29.408  1.00  0.00     0.074 A 
ATOM     40  C   UNL A   1      40.344  27.484  28.911  1.00  0.00     0.049 A 
ATOM     41  N   UNL A   1      42.585  29.488  29.251  1.00  0.00    -0.248 NA
ATOM     42  C   UNL A   1      40.975  31.060  29.884  1.00  0.00     0.031 C 
ATOM     43  C   UNL A   1      39.295  26.484  28.730  1.00  0.00     0.029 A 
ATOM     44  N   UNL A   1      41.513  26.788  28.732  1.00  0.00    -0.354 N 
ATOM     45  C   UNL A   1      43.208  30.687  29.573  1.00  0.00     0.074 A 
ATOM     46  C   UNL A   1      42.169  31.629  29.926  1.00  0.00     0.031 C 
ATOM     47  C   UNL A   1      39.868  25.304  28.432  1.00  0.00     0.029 A 
ATOM     48  C   UNL A   1      41.316  25.486  28.341  1.00  0.00     0.049 A 
ATOM     49  H   UNL A   1      42.405  27.182  28.870  1.00  0.00     0.167 HD
ATOM     50  C   UNL A   1      44.529  30.977  29.558  1.00  0.00     0.031 A 
ATOM     51  C   UNL A   1      42.201  24.567  27.907  1.00  0.00     0.031 A 
ATOM     52  C   UNL A   1      45.550  30.036  29.186  1.00  0.00     0.049 A 
ATOM     53  C   UNL A   1      43.659  24.941  27.803  1.00  0.00     0.074 A 
ATOM     54  C   UNL A   1      46.919  30.223  29.142  1.00  0.00     0.029 A 
ATOM     55  N   UNL A   1      45.308  28.731  28.785  1.00  0.00    -0.354 N 
ATOM     56  N   UNL A   1      44.245  26.076  28.101  1.00  0.00    -0.248 NA
ATOM     57  C   UNL A   1      44.575  23.908  27.297  1.00  0.00     0.031 C 
ATOM     58  C   UNL A   1      47.501  29.051  28.655  1.00  0.00     0.029 A 
ATOM     59  C   UNL A   1      46.501  28.108  28.468  1.00  0.00     0.049 A 
ATOM     60  H   UNL A   1      44.419  28.310  28.734  1.00  0.00     0.167 HD
ATOM     61  C   UNL A   1      45.600  25.878  27.863  1.00  0.00     0.074 A 
ATOM     62  C   UNL A   1      45.749  24.517  27.394  1.00  0.00     0.031 C 
ATOM     63  C   UNL A   1      46.630  26.744  28.025  1.00  0.00     0.031 A 
BRANCH  50  64
ATOM     64  C   UNL A   1      44.936  32.382  29.902  1.00  0.00    -0.014 A 
ATOM     65  C   UNL A   1      45.249  32.755  31.217  1.00  0.00     0.009 A 
ATOM     66  C   UNL A   1      45.028  33.342  28.882  1.00  0.00     0.009 A 
ATOM     67  C   UNL A   1      45.614  34.071  31.510  1.00  0.00     0.001 A 
ATOM     68  C   UNL A   1      45.426  34.648  29.172  1.00  0.00     0.001 A 
ATOM     69  C   UNL A   1      45.708  35.014  30.486  1.00  0.00     0.000 A 
ENDBRANCH  50  64
BRANCH  51  70
ATOM     70  C   UNL A   1      41.735  23.216  27.495  1.00  0.00    -0.014 A 
ATOM     71  C   UNL A   1      41.316  22.978  26.177  1.00  0.00     0.009 A 
ATOM     72  C   UNL A   1      41.687  22.162  28.421  1.00  0.00     0.009 A 
ATOM     73  C   UNL A   1      40.835  21.720  25.803  1.00  0.00     0.001 A 
ATOM     74  C   UNL A   1      41.236  20.897  28.036  1.00  0.00     0.001 A 
ATOM     75  C   UNL A   1      40.801  20.680  26.730  1.00  0.00     0.000 A 
ENDBRANCH  51  70
BRANCH  63  76
ATOM     76  C   UNL A   1      48.023  26.237  27.772  1.00  0.00    -0.014 A 
ATOM     77  C   UNL A   1      48.721  25.491  28.732  1.00  0.00     0.009 A 
ATOM     78  C   UNL A   1      48.601  26.432  26.507  1.00  0.00     0.009 A 
ATOM     79  C   UNL A   1      49.979  24.961  28.433  1.00  0.00     0.001 A 
ATOM     80  C   UNL A   1      49.843  25.876  26.201  1.00  0.00     0.001 A 
ATOM     81  C   UNL A   1      50.534  25.145  27.166  1.00  0.00     0.000 A 
ENDBRANCH  63  76
ENDBRANCH  37  38
ENDBRANCH  30  32
ENDBRANCH  29  30
ENDBRANCH  28  29
ENDBRANCH  27  28
ENDBRANCH  26  27
ENDBRANCH  25  26
ENDBRANCH   1  25
TORSDOF 20
ENDMDL
MODEL 2
REMARK VINA RESULT:     -10.3      3.208      8.835
REMARK SMILES C[C@H]1[C@H](C(=O)OCCOCCOCCOC(=O)c2ccc(-c3c4nc(c(-c5ccccc5)c5ccc([nH]5)c(-c5ccccc5)c5nc(c(-c6ccccc6)c6ccc3[nH]6)C=C5)C=C4)cc2)CCN1C(=O)NCc1ccncc1
REMARK SMILES IDX 10 1 9 2 8 3 7 4 6 5 4 6 5 7 3 8 1 9 2 10 68 11 66 12 67 13
REMARK SMILES IDX 69 14 70 15 71 16 72 18 73 19 74 20 78 21 75 22 77 23 76 24
REMARK SMILES IDX 11 25 12 26 13 27 14 28 15 29 16 30 17 31 18 32 19 33 65 34
REMARK SMILES IDX 20 35 64 36 21 37 22 38 23 39 58 40 24 41 63 42 57 43 59 44
REMARK SMILES IDX 25 45 62 46 56 47 55 48 26 50 48 51 33 52 47 53 34 54 37 55
REMARK SMILES IDX 46 56 60 57 35 58 36 59 45 61 61 62 38 63 27 64 28 65 32 66
REMARK SMILES IDX 29 67 31 68 30 69 49 70 50 71 54 72 51 73 53 74 52 75 39 76
REMARK SMILES IDX 40 77 44 78 41 79 43 80 42 81
REMARK H PARENT 71 17 59 49 37 60
REMARK Flexibility Score: inf
ROOT
ATOM      1  C   UNL A   1      40.272  22.145  27.077  1.00  0.00     0.188 C 
ENDROOT
BRANCH   1   2
ATOM      2  O   UNL A   1      38.974  22.133  26.527  1.00  0.00    -0.376 OA
BRANCH   2   3
ATOM      3  C   UNL A   1      38.666  21.297  25.427  1.00  0.00     0.202 C 
BRANCH   3   4
ATOM      4  C   UNL A   1      37.268  21.264  24.794  1.00  0.00     0.261 C 
BRANCH   4   5
ATOM      5  O   UNL A   1      36.141  21.357  25.694  1.00  0.00    -0.463 OA
BRANCH   5   6
ATOM      6  C   UNL A   1      34.923  21.204  25.121  1.00  0.00     0.311 C 
ATOM      7  O   UNL A   1      34.489  20.126  24.720  1.00  0.00    -0.252 OA
BRANCH   6   8
ATOM      8  C   UNL A   1      34.103  22.472  24.940  1.00  0.00     0.123 C 
ATOM      9  C   UNL A   1      32.007  22.823  23.601  1.00  0.00     0.032 C 
ATOM     10  C   UNL A   1      32.553  22.474  25.001  1.00  0.00     0.098 C 
ATOM     11  N   UNL A   1      32.184  23.534  25.937  1.00  0.00    -0.321 N 
ATOM     12  C   UNL A   1      34.539  23.487  25.991  1.00  0.00     0.039 C 
ATOM     13  C   UNL A   1      33.335  24.382  26.186  1.00  0.00     0.122 C 
BRANCH  11  14
ATOM     14  C   UNL A   1      31.011  23.816  26.562  1.00  0.00     0.317 C 
ATOM     15  O   UNL A   1      30.654  23.178  27.559  1.00  0.00    -0.249 OA
ATOM     16  N   UNL A   1      30.159  24.781  26.183  1.00  0.00    -0.334 N 
ATOM     17  H   UNL A   1      29.315  24.721  26.686  1.00  0.00     0.165 HD
BRANCH  16  18
ATOM     18  C   UNL A   1      30.123  25.887  25.244  1.00  0.00     0.153 C 
BRANCH  18  19
ATOM     19  C   UNL A   1      30.923  27.089  25.684  1.00  0.00    -0.026 A 
ATOM     20  C   UNL A   1      31.282  27.326  27.014  1.00  0.00     0.025 A 
ATOM     21  C   UNL A   1      31.400  27.978  24.717  1.00  0.00     0.025 A 
ATOM     22  C   UNL A   1      32.037  28.453  27.312  1.00  0.00     0.111 A 
ATOM     23  C   UNL A   1      32.147  29.076  25.112  1.00  0.00     0.111 A 
ATOM     24  N   UNL A   1      32.472  29.339  26.392  1.00  0.00    -0.265 NA
ENDBRANCH  18  19
ENDBRANCH  16  18
ENDBRANCH  11  14
ENDBRANCH   6   8
ENDBRANCH   5   6
ENDBRANCH   4   5
ENDBRANCH   3   4
ENDBRANCH   2   3
ENDBRANCH   1   2
BRANCH   1  25
ATOM     25  C   UNL A   1      41.432  21.444  26.365  1.00  0.00     0.188 C 
BRANCH  25  26
ATOM     26  O   UNL A   1      42.073  20.303  26.886  1.00  0.00    -0.376 OA
BRANCH  26  27
ATOM     27  C   UNL A   1      42.116  19.119  26.107  1.00  0.00     0.202 C 
BRANCH  27  28
ATOM     28  C   UNL A   1      43.471  18.528  25.705  1.00  0.00     0.261 C 
BRANCH  28  29
ATOM     29  O   UNL A   1      43.875  18.854  24.367  1.00  0.00    -0.460 OA
BRANCH  29  30
ATOM     30  C   UNL A   1      45.087  19.450  24.253  1.00  0.00     0.338 C 
ATOM     31  O   UNL A   1      46.094  18.994  23.722  1.00  0.00    -0.246 OA
BRANCH  30  32
ATOM     32  C   UNL A   1      44.956  20.862  24.645  1.00  0.00     0.060 A 
ATOM     33  C   UNL A   1      44.470  21.788  23.706  1.00  0.00     0.016 A 
ATOM     34  C   UNL A   1      45.312  21.268  25.927  1.00  0.00     0.016 A 
ATOM     35  C   UNL A   1      44.332  23.130  24.051  1.00  0.00     0.010 A 
ATOM     36  C   UNL A   1      45.210  22.617  26.258  1.00  0.00     0.010 A 
ATOM     37  C   UNL A   1      44.736  23.553  25.320  1.00  0.00    -0.014 A 
BRANCH  37  38
ATOM     38  C   UNL A   1      44.851  24.990  25.644  1.00  0.00     0.031 A 
ATOM     39  C   UNL A   1      46.213  25.616  25.578  1.00  0.00     0.074 A 
ATOM     40  C   UNL A   1      43.790  25.699  26.064  1.00  0.00     0.049 A 
ATOM     41  N   UNL A   1      46.622  26.763  26.051  1.00  0.00    -0.248 NA
ATOM     42  C   UNL A   1      47.257  24.830  24.901  1.00  0.00     0.031 C 
ATOM     43  C   UNL A   1      42.409  25.224  26.097  1.00  0.00     0.029 A 
ATOM     44  N   UNL A   1      43.726  26.968  26.581  1.00  0.00    -0.354 N 
ATOM     45  C   UNL A   1      47.979  26.820  25.761  1.00  0.00     0.074 A 
ATOM     46  C   UNL A   1      48.324  25.592  25.080  1.00  0.00     0.031 C 
ATOM     47  C   UNL A   1      41.635  26.181  26.641  1.00  0.00     0.029 A 
ATOM     48  C   UNL A   1      42.479  27.303  27.048  1.00  0.00     0.049 A 
ATOM     49  H   UNL A   1      44.498  27.579  26.615  1.00  0.00     0.167 HD
ATOM     50  C   UNL A   1      48.859  27.805  26.053  1.00  0.00     0.031 A 
ATOM     51  C   UNL A   1      42.079  28.369  27.769  1.00  0.00     0.031 A 
ATOM     52  C   UNL A   1      48.506  29.012  26.748  1.00  0.00     0.049 A 
ATOM     53  C   UNL A   1      43.096  29.408  28.171  1.00  0.00     0.074 A 
ATOM     54  C   UNL A   1      49.318  30.078  27.092  1.00  0.00     0.029 A 
ATOM     55  N   UNL A   1      47.234  29.308  27.214  1.00  0.00    -0.354 N 
ATOM     56  N   UNL A   1      44.379  29.458  27.902  1.00  0.00    -0.248 NA
ATOM     57  C   UNL A   1      42.610  30.536  28.980  1.00  0.00     0.031 C 
ATOM     58  C   UNL A   1      48.551  30.990  27.819  1.00  0.00     0.029 A 
ATOM     59  C   UNL A   1      47.244  30.529  27.864  1.00  0.00     0.049 A 
ATOM     60  H   UNL A   1      46.441  28.734  27.100  1.00  0.00     0.167 HD
ATOM     61  C   UNL A   1      44.841  30.640  28.469  1.00  0.00     0.074 A 
ATOM     62  C   UNL A   1      43.703  31.276  29.098  1.00  0.00     0.031 C 
ATOM     63  C   UNL A   1      46.095  31.156  28.463  1.00  0.00     0.031 A 
BRANCH  50  64
ATOM     64  C   UNL A   1      50.296  27.589  25.671  1.00  0.00    -0.014 A 
ATOM     65  C   UNL A   1      50.825  28.106  24.480  1.00  0.00     0.009 A 
ATOM     66  C   UNL A   1      51.139  26.872  26.535  1.00  0.00     0.009 A 
ATOM     67  C   UNL A   1      52.162  27.881  24.144  1.00  0.00     0.001 A 
ATOM     68  C   UNL A   1      52.483  26.676  26.213  1.00  0.00     0.001 A 
ATOM     69  C   UNL A   1      52.991  27.171  25.014  1.00  0.00     0.000 A 
ENDBRANCH  50  64
BRANCH  51  70
ATOM     70  C   UNL A   1      40.661  28.493  28.198  1.00  0.00    -0.014 A 
ATOM     71  C   UNL A   1      39.738  29.202  27.415  1.00  0.00     0.009 A 
ATOM     72  C   UNL A   1      40.225  27.921  29.405  1.00  0.00     0.009 A 
ATOM     73  C   UNL A   1      38.416  29.357  27.842  1.00  0.00     0.001 A 
ATOM     74  C   UNL A   1      38.895  28.050  29.814  1.00  0.00     0.001 A 
ATOM     75  C   UNL A   1      37.995  28.777  29.037  1.00  0.00     0.000 A 
ENDBRANCH  51  70
BRANCH  63  76
ATOM     76  C   UNL A   1      46.302  32.510  29.085  1.00  0.00    -0.014 A 
ATOM     77  C   UNL A   1      46.706  32.653  30.419  1.00  0.00     0.009 A 
ATOM     78  C   UNL A   1      46.184  33.655  28.281  1.00  0.00     0.009 A 
ATOM     79  C   UNL A   1      46.974  33.922  30.941  1.00  0.00     0.001 A 
ATOM     80  C   UNL A   1      46.481  34.917  28.796  1.00  0.00     0.001 A 
ATOM     81  C   UNL A   1      46.872  35.050  30.127  1.00  0.00     0.000 A 
ENDBRANCH  63  76
ENDBRANCH  37  38
ENDBRANCH  30  32
ENDBRANCH  29  30
ENDBRANCH  28  29
ENDBRANCH  27  28
ENDBRANCH  26  27
ENDBRANCH  25  26
ENDBRANCH   1  25
TORSDOF 20
ENDMDL
MODEL 3
REMARK VINA RESULT:     -10.2      4.932      7.401
REMARK SMILES C[C@H]1[C@H](C(=O)OCCOCCOCCOC(=O)c2ccc(-c3c4nc(c(-c5ccccc5)c5ccc([nH]5)c(-c5ccccc5)c5nc(c(-c6ccccc6)c6ccc3[nH]6)C=C5)C=C4)cc2)CCN1C(=O)NCc1ccncc1
REMARK SMILES IDX 10 1 9 2 8 3 7 4 6 5 4 6 5 7 3 8 1 9 2 10 68 11 66 12 67 13
REMARK SMILES IDX 69 14 70 15 71 16 72 18 73 19 74 20 78 21 75 22 77 23 76 24
REMARK SMILES IDX 11 25 12 26 13 27 14 28 15 29 16 30 17 31 18 32 19 33 65 34
REMARK SMILES IDX 20 35 64 36 21 37 22 38 23 39 58 40 24 41 63 42 57 43 59 44
REMARK SMILES IDX 25 45 62 46 56 47 55 48 26 50 48 51 33 52 47 53 34 54 37 55
REMARK SMILES IDX 46 56 60 57 35 58 36 59 45 61 61 62 38 63 27 64 28 65 32 66
REMARK SMILES IDX 29 67 31 68 30 69 49 70 50 71 54 72 51 73 53 74 52 75 39 76
REMARK SMILES IDX 40 77 44 78 41 79 43 80 42 81
REMARK H PARENT 71 17 59 49 37 60
REMARK Flexibility Score: inf
ROOT
ATOM      1  C   UNL A   1      34.422  31.743  28.363  1.00  0.00     0.188 C 
ENDROOT
BRANCH   1   2
ATOM      2  O   UNL A   1      35.064  30.489  28.411  1.00  0.00    -0.376 OA
BRANCH   2   3
ATOM      3  C   UNL A   1      35.106  29.657  27.265  1.00  0.00     0.202 C 
BRANCH   3   4
ATOM      4  C   UNL A   1      34.033  28.594  26.991  1.00  0.00     0.261 C 
BRANCH   4   5
ATOM      5  O   UNL A   1      32.720  29.071  26.622  1.00  0.00    -0.463 OA
BRANCH   5   6
ATOM      6  C   UNL A   1      31.824  28.111  26.290  1.00  0.00     0.311 C 
ATOM      7  O   UNL A   1      31.223  27.426  27.115  1.00  0.00    -0.252 OA
BRANCH   6   8
ATOM      8  C   UNL A   1      31.618  27.871  24.803  1.00  0.00     0.123 C 
ATOM      9  C   UNL A   1      32.895  28.815  22.858  1.00  0.00     0.032 C 
ATOM     10  C   UNL A   1      32.800  27.622  23.830  1.00  0.00     0.098 C 
ATOM     11  N   UNL A   1      32.462  26.416  23.079  1.00  0.00    -0.321 N 
ATOM     12  C   UNL A   1      30.703  26.664  24.627  1.00  0.00     0.039 C 
ATOM     13  C   UNL A   1      31.056  26.108  23.264  1.00  0.00     0.122 C 
BRANCH  11  14
ATOM     14  C   UNL A   1      33.216  25.601  22.293  1.00  0.00     0.317 C 
ATOM     15  O   UNL A   1      33.295  25.792  21.075  1.00  0.00    -0.249 OA
ATOM     16  N   UNL A   1      33.927  24.556  22.741  1.00  0.00    -0.334 N 
ATOM     17  H   UNL A   1      34.282  24.026  21.992  1.00  0.00     0.165 HD
BRANCH  16  18
ATOM     18  C   UNL A   1      34.323  23.979  24.014  1.00  0.00     0.153 C 
BRANCH  18  19
ATOM     19  C   UNL A   1      33.162  23.624  24.910  1.00  0.00    -0.026 A 
ATOM     20  C   UNL A   1      32.253  22.602  24.621  1.00  0.00     0.025 A 
ATOM     21  C   UNL A   1      33.018  24.291  26.131  1.00  0.00     0.025 A 
ATOM     22  C   UNL A   1      31.229  22.342  25.523  1.00  0.00     0.111 A 
ATOM     23  C   UNL A   1      31.963  23.961  26.966  1.00  0.00     0.111 A 
ATOM     24  N   UNL A   1      31.058  23.004  26.686  1.00  0.00    -0.265 NA
ENDBRANCH  18  19
ENDBRANCH  16  18
ENDBRANCH  11  14
ENDBRANCH   6   8
ENDBRANCH   5   6
ENDBRANCH   4   5
ENDBRANCH   3   4
ENDBRANCH   2   3
ENDBRANCH   1   2
BRANCH   1  25
ATOM     25  C   UNL A   1      35.233  33.041  28.390  1.00  0.00     0.188 C 
BRANCH  25  26
ATOM     26  O   UNL A   1      34.811  34.193  29.083  1.00  0.00    -0.376 OA
BRANCH  26  27
ATOM     27  C   UNL A   1      33.552  34.765  28.768  1.00  0.00     0.202 C 
BRANCH  27  28
ATOM     28  C   UNL A   1      32.968  35.852  29.677  1.00  0.00     0.261 C 
BRANCH  28  29
ATOM     29  O   UNL A   1      32.399  35.350  30.895  1.00  0.00    -0.460 OA
BRANCH  29  30
ATOM     30  C   UNL A   1      32.854  35.930  32.033  1.00  0.00     0.338 C 
ATOM     31  O   UNL A   1      32.331  36.842  32.664  1.00  0.00    -0.246 OA
BRANCH  30  32
ATOM     32  C   UNL A   1      33.965  35.123  32.561  1.00  0.00     0.060 A 
ATOM     33  C   UNL A   1      35.276  35.622  32.466  1.00  0.00     0.016 A 
ATOM     34  C   UNL A   1      33.716  33.883  33.141  1.00  0.00     0.016 A 
ATOM     35  C   UNL A   1      36.346  34.882  32.961  1.00  0.00     0.010 A 
ATOM     36  C   UNL A   1      34.791  33.127  33.601  1.00  0.00     0.010 A 
ATOM     37  C   UNL A   1      36.108  33.614  33.499  1.00  0.00    -0.014 A 
BRANCH  37  38
ATOM     38  C   UNL A   1      37.223  32.691  33.798  1.00  0.00     0.031 A 
ATOM     39  C   UNL A   1      37.975  32.894  35.079  1.00  0.00     0.074 A 
ATOM     40  C   UNL A   1      37.606  31.751  32.919  1.00  0.00     0.049 A 
ATOM     41  N   UNL A   1      39.127  32.402  35.451  1.00  0.00    -0.248 NA
ATOM     42  C   UNL A   1      37.348  33.788  36.067  1.00  0.00     0.031 C 
ATOM     43  C   UNL A   1      36.910  31.410  31.680  1.00  0.00     0.029 A 
ATOM     44  N   UNL A   1      38.709  30.936  32.925  1.00  0.00    -0.354 N 
ATOM     45  C   UNL A   1      39.380  32.955  36.700  1.00  0.00     0.074 A 
ATOM     46  C   UNL A   1      38.269  33.825  37.017  1.00  0.00     0.031 C 
ATOM     47  C   UNL A   1      37.623  30.476  31.026  1.00  0.00     0.029 A 
ATOM     48  C   UNL A   1      38.851  30.204  31.771  1.00  0.00     0.049 A 
ATOM     49  H   UNL A   1      39.338  30.881  33.681  1.00  0.00     0.167 HD
ATOM     50  C   UNL A   1      40.454  32.766  37.500  1.00  0.00     0.031 A 
ATOM     51  C   UNL A   1      39.881  29.446  31.345  1.00  0.00     0.031 A 
ATOM     52  C   UNL A   1      41.561  31.914  37.163  1.00  0.00     0.049 A 
ATOM     53  C   UNL A   1      41.113  29.326  32.208  1.00  0.00     0.074 A 
ATOM     54  C   UNL A   1      42.698  31.646  37.903  1.00  0.00     0.029 A 
ATOM     55  N   UNL A   1      41.671  31.199  35.980  1.00  0.00    -0.354 N 
ATOM     56  N   UNL A   1      41.354  29.855  33.384  1.00  0.00    -0.248 NA
ATOM     57  C   UNL A   1      42.216  28.509  31.682  1.00  0.00     0.031 C 
ATOM     58  C   UNL A   1      43.525  30.817  37.142  1.00  0.00     0.029 A 
ATOM     59  C   UNL A   1      42.870  30.509  35.959  1.00  0.00     0.049 A 
ATOM     60  H   UNL A   1      40.997  31.185  35.262  1.00  0.00     0.167 HD
ATOM     61  C   UNL A   1      42.613  29.398  33.755  1.00  0.00     0.074 A 
ATOM     62  C   UNL A   1      43.086  28.552  32.681  1.00  0.00     0.031 C 
ATOM     63  C   UNL A   1      43.312  29.652  34.890  1.00  0.00     0.031 A 
BRANCH  50  64
ATOM     64  C   UNL A   1      40.504  33.537  38.789  1.00  0.00    -0.014 A 
ATOM     65  C   UNL A   1      39.977  33.014  39.978  1.00  0.00     0.009 A 
ATOM     66  C   UNL A   1      41.115  34.801  38.812  1.00  0.00     0.009 A 
ATOM     67  C   UNL A   1      40.029  33.758  41.160  1.00  0.00     0.001 A 
ATOM     68  C   UNL A   1      41.196  35.527  40.001  1.00  0.00     0.001 A 
ATOM     69  C   UNL A   1      40.643  35.010  41.171  1.00  0.00     0.000 A 
ENDBRANCH  50  64
BRANCH  51  70
ATOM     70  C   UNL A   1      39.817  28.773  30.021  1.00  0.00    -0.014 A 
ATOM     71  C   UNL A   1      39.400  27.437  29.919  1.00  0.00     0.009 A 
ATOM     72  C   UNL A   1      40.192  29.455  28.852  1.00  0.00     0.009 A 
ATOM     73  C   UNL A   1      39.385  26.792  28.679  1.00  0.00     0.001 A 
ATOM     74  C   UNL A   1      40.145  28.818  27.610  1.00  0.00     0.001 A 
ATOM     75  C   UNL A   1      39.752  27.484  27.526  1.00  0.00     0.000 A 
ENDBRANCH  51  70
BRANCH  63  76
ATOM     76  C   UNL A   1      44.630  28.952  35.076  1.00  0.00    -0.014 A 
ATOM     77  C   UNL A   1      44.704  27.635  35.553  1.00  0.00     0.009 A 
ATOM     78  C   UNL A   1      45.809  29.597  34.669  1.00  0.00     0.009 A 
ATOM     79  C   UNL A   1      45.938  26.985  35.631  1.00  0.00     0.001 A 
ATOM     80  C   UNL A   1      47.035  28.934  34.720  1.00  0.00     0.001 A 
ATOM     81  C   UNL A   1      47.099  27.630  35.206  1.00  0.00     0.000 A 
ENDBRANCH  63  76
ENDBRANCH  37  38
ENDBRANCH  30  32
ENDBRANCH  29  30
ENDBRANCH  28  29
ENDBRANCH  27  28
ENDBRANCH  26  27
ENDBRANCH  25  26
ENDBRANCH   1  25
TORSDOF 20
ENDMDL
