MODEL 1
REMARK VINA RESULT:      -9.8      0.000      0.000
REMARK SMILES CC[C@]1(C(=O)OCCOCCOCCOC(=O)c2ccc(-c3c4nc(c(-c5ccccc5)c5ccc([nH]5)c(-c5ccccc5)c5nc(c(-c6ccccc6)c6ccc3[nH]6)C=C5)C=C4)cc2)CCC[N@@H+](Cc2cc(OC)ccc2F)C1
REMARK SMILES IDX 10 1 9 2 8 3 7 4 6 5 4 6 5 7 3 8 66 9 80 10 67 11 69 12
REMARK SMILES IDX 68 13 2 15 1 16 70 17 71 18 72 19 78 20 73 21 77 22 79 23
REMARK SMILES IDX 76 24 74 25 75 26 11 27 12 28 13 29 14 30 15 31 16 32 17 33
REMARK SMILES IDX 18 34 19 35 65 36 20 37 64 38 21 39 22 40 23 41 58 42 24 43
REMARK SMILES IDX 63 44 57 45 59 46 25 47 62 48 56 49 55 50 26 52 48 53 33 54
REMARK SMILES IDX 47 55 34 56 37 57 46 58 60 59 35 60 36 61 45 63 61 64 38 65
REMARK SMILES IDX 27 66 28 67 32 68 29 69 31 70 30 71 49 72 50 73 54 74 51 75
REMARK SMILES IDX 53 76 52 77 39 78 40 79 44 80 41 81 43 82 42 83
REMARK H PARENT 69 14 59 51 37 62
REMARK Flexibility Score: inf
ROOT
ATOM      1  C   UNL A   1      33.594  32.023  28.004  1.00  0.00     0.188 C 
ENDROOT
BRANCH   1   2
ATOM      2  O   UNL A   1      33.551  30.661  27.597  1.00  0.00    -0.376 OA
BRANCH   2   3
ATOM      3  C   UNL A   1      32.921  30.303  26.374  1.00  0.00     0.202 C 
BRANCH   3   4
ATOM      4  C   UNL A   1      32.906  28.830  25.923  1.00  0.00     0.261 C 
BRANCH   4   5
ATOM      5  O   UNL A   1      31.724  28.367  25.227  1.00  0.00    -0.463 OA
BRANCH   5   6
ATOM      6  C   UNL A   1      31.145  27.245  25.730  1.00  0.00     0.317 C 
ATOM      7  O   UNL A   1      30.995  27.057  26.936  1.00  0.00    -0.251 OA
BRANCH   6   8
ATOM      8  C   UNL A   1      30.725  26.171  24.677  1.00  0.00     0.117 C 
ATOM      9  C   UNL A   1      31.582  26.018  23.392  1.00  0.00     0.030 C 
ATOM     10  C   UNL A   1      30.938  24.905  25.512  1.00  0.00     0.281 C 
ATOM     11  C   UNL A   1      31.462  24.646  22.709  1.00  0.00     0.063 C 
ATOM     12  N   UNL A   1      30.747  23.610  24.857  1.00  0.00    -0.330 N 
ATOM     13  C   UNL A   1      31.609  23.475  23.676  1.00  0.00     0.262 C 
ATOM     14  H   UNL A   1      29.787  23.545  24.516  1.00  0.00     0.348 HD
BRANCH   8  15
ATOM     15  C   UNL A   1      29.232  26.508  24.379  1.00  0.00     0.021 C 
ATOM     16  C   UNL A   1      28.885  27.603  23.388  1.00  0.00     0.005 C 
ENDBRANCH   8  15
BRANCH  12  17
ATOM     17  C   UNL A   1      30.966  22.515  25.845  1.00  0.00     0.302 C 
BRANCH  17  18
ATOM     18  C   UNL A   1      32.264  21.740  25.698  1.00  0.00     0.046 A 
ATOM     19  C   UNL A   1      32.279  20.516  25.015  1.00  0.00     0.059 A 
ATOM     20  C   UNL A   1      33.489  22.258  26.136  1.00  0.00     0.132 A 
ATOM     21  C   UNL A   1      33.487  19.880  24.716  1.00  0.00     0.119 A 
ATOM     22  C   UNL A   1      34.698  21.685  25.756  1.00  0.00     0.043 A 
ATOM     23  F   UNL A   1      33.531  23.371  26.883  1.00  0.00    -0.206 F 
ATOM     24  C   UNL A   1      34.698  20.502  25.025  1.00  0.00     0.049 A 
BRANCH  21  25
ATOM     25  O   UNL A   1      33.374  18.669  24.092  1.00  0.00    -0.497 OA
ATOM     26  C   UNL A   1      32.520  17.737  24.752  1.00  0.00     0.278 C 
ENDBRANCH  21  25
ENDBRANCH  17  18
ENDBRANCH  12  17
ENDBRANCH   6   8
ENDBRANCH   5   6
ENDBRANCH   4   5
ENDBRANCH   3   4
ENDBRANCH   2   3
ENDBRANCH   1   2
BRANCH   1  27
ATOM     27  C   UNL A   1      34.567  32.444  29.109  1.00  0.00     0.188 C 
BRANCH  27  28
ATOM     28  O   UNL A   1      34.797  33.826  29.203  1.00  0.00    -0.376 OA
BRANCH  28  29
ATOM     29  C   UNL A   1      33.892  34.712  28.577  1.00  0.00     0.202 C 
BRANCH  29  30
ATOM     30  C   UNL A   1      33.027  35.633  29.452  1.00  0.00     0.261 C 
BRANCH  30  31
ATOM     31  O   UNL A   1      32.473  35.060  30.652  1.00  0.00    -0.460 OA
BRANCH  31  32
ATOM     32  C   UNL A   1      32.798  35.644  31.827  1.00  0.00     0.338 C 
ATOM     33  O   UNL A   1      32.131  36.458  32.448  1.00  0.00    -0.246 OA
BRANCH  32  34
ATOM     34  C   UNL A   1      33.980  34.935  32.381  1.00  0.00     0.060 A 
ATOM     35  C   UNL A   1      35.230  35.573  32.342  1.00  0.00     0.016 A 
ATOM     36  C   UNL A   1      33.862  33.668  32.955  1.00  0.00     0.016 A 
ATOM     37  C   UNL A   1      36.368  34.929  32.830  1.00  0.00     0.010 A 
ATOM     38  C   UNL A   1      35.008  33.012  33.424  1.00  0.00     0.010 A 
ATOM     39  C   UNL A   1      36.273  33.622  33.325  1.00  0.00    -0.014 A 
BRANCH  39  40
ATOM     40  C   UNL A   1      37.513  32.829  33.534  1.00  0.00     0.031 A 
ATOM     41  C   UNL A   1      38.298  33.047  34.801  1.00  0.00     0.074 A 
ATOM     42  C   UNL A   1      37.926  31.904  32.649  1.00  0.00     0.049 A 
ATOM     43  N   UNL A   1      39.405  32.477  35.205  1.00  0.00    -0.248 NA
ATOM     44  C   UNL A   1      37.761  34.048  35.736  1.00  0.00     0.031 C 
ATOM     45  C   UNL A   1      37.248  31.558  31.402  1.00  0.00     0.029 A 
ATOM     46  N   UNL A   1      39.030  31.086  32.672  1.00  0.00    -0.354 N 
ATOM     47  C   UNL A   1      39.700  33.056  36.434  1.00  0.00     0.074 A 
ATOM     48  C   UNL A   1      38.677  34.048  36.690  1.00  0.00     0.031 C 
ATOM     49  C   UNL A   1      37.957  30.605  30.772  1.00  0.00     0.029 A 
ATOM     50  C   UNL A   1      39.153  30.294  31.557  1.00  0.00     0.049 A 
ATOM     51  H   UNL A   1      39.673  31.069  33.418  1.00  0.00     0.167 HD
ATOM     52  C   UNL A   1      40.724  32.789  37.280  1.00  0.00     0.031 A 
ATOM     53  C   UNL A   1      40.126  29.433  31.199  1.00  0.00     0.031 A 
ATOM     54  C   UNL A   1      41.757  31.819  37.024  1.00  0.00     0.049 A 
ATOM     55  C   UNL A   1      41.294  29.200  32.122  1.00  0.00     0.074 A 
ATOM     56  C   UNL A   1      42.824  31.464  37.831  1.00  0.00     0.029 A 
ATOM     57  N   UNL A   1      41.863  31.064  35.866  1.00  0.00    -0.354 N 
ATOM     58  N   UNL A   1      41.541  29.725  33.298  1.00  0.00    -0.248 NA
ATOM     59  C   UNL A   1      42.310  28.236  31.671  1.00  0.00     0.031 C 
ATOM     60  C   UNL A   1      43.614  30.545  37.132  1.00  0.00     0.029 A 
ATOM     61  C   UNL A   1      42.996  30.270  35.923  1.00  0.00     0.049 A 
ATOM     62  H   UNL A   1      41.226  31.089  35.116  1.00  0.00     0.167 HD
ATOM     63  C   UNL A   1      42.722  29.135  33.739  1.00  0.00     0.074 A 
ATOM     64  C   UNL A   1      43.129  28.198  32.713  1.00  0.00     0.031 C 
ATOM     65  C   UNL A   1      43.405  29.348  34.892  1.00  0.00     0.031 A 
BRANCH  52  66
ATOM     66  C   UNL A   1      40.800  33.603  38.545  1.00  0.00    -0.014 A 
ATOM     67  C   UNL A   1      41.473  34.835  38.589  1.00  0.00     0.009 A 
ATOM     68  C   UNL A   1      40.180  33.127  39.711  1.00  0.00     0.009 A 
ATOM     69  C   UNL A   1      41.563  35.550  39.786  1.00  0.00     0.001 A 
ATOM     70  C   UNL A   1      40.240  33.860  40.897  1.00  0.00     0.001 A 
ATOM     71  C   UNL A   1      40.943  35.063  40.937  1.00  0.00     0.000 A 
ENDBRANCH  52  66
BRANCH  53  72
ATOM     72  C   UNL A   1      40.054  28.738  29.886  1.00  0.00    -0.014 A 
ATOM     73  C   UNL A   1      40.510  29.358  28.712  1.00  0.00     0.009 A 
ATOM     74  C   UNL A   1      39.506  27.448  29.799  1.00  0.00     0.009 A 
ATOM     75  C   UNL A   1      40.397  28.709  27.478  1.00  0.00     0.001 A 
ATOM     76  C   UNL A   1      39.425  26.789  28.571  1.00  0.00     0.001 A 
ATOM     77  C   UNL A   1      39.862  27.425  27.410  1.00  0.00     0.000 A 
ENDBRANCH  53  72
BRANCH  65  78
ATOM     78  C   UNL A   1      44.644  28.523  35.125  1.00  0.00    -0.014 A 
ATOM     79  C   UNL A   1      44.588  27.263  35.742  1.00  0.00     0.009 A 
ATOM     80  C   UNL A   1      45.891  29.011  34.700  1.00  0.00     0.009 A 
ATOM     81  C   UNL A   1      45.758  26.535  35.974  1.00  0.00     0.001 A 
ATOM     82  C   UNL A   1      47.054  28.265  34.900  1.00  0.00     0.001 A 
ATOM     83  C   UNL A   1      46.989  27.034  35.551  1.00  0.00     0.000 A 
ENDBRANCH  65  78
ENDBRANCH  39  40
ENDBRANCH  32  34
ENDBRANCH  31  32
ENDBRANCH  30  31
ENDBRANCH  29  30
ENDBRANCH  28  29
ENDBRANCH  27  28
ENDBRANCH   1  27
TORSDOF 21
ENDMDL
MODEL 2
REMARK VINA RESULT:      -9.8      4.208      6.453
REMARK SMILES CC[C@]1(C(=O)OCCOCCOCCOC(=O)c2ccc(-c3c4nc(c(-c5ccccc5)c5ccc([nH]5)c(-c5ccccc5)c5nc(c(-c6ccccc6)c6ccc3[nH]6)C=C5)C=C4)cc2)CCC[N@@H+](Cc2cc(OC)ccc2F)C1
REMARK SMILES IDX 10 1 9 2 8 3 7 4 6 5 4 6 5 7 3 8 66 9 80 10 67 11 69 12
REMARK SMILES IDX 68 13 2 15 1 16 70 17 71 18 72 19 78 20 73 21 77 22 79 23
REMARK SMILES IDX 76 24 74 25 75 26 11 27 12 28 13 29 14 30 15 31 16 32 17 33
REMARK SMILES IDX 18 34 19 35 65 36 20 37 64 38 21 39 22 40 23 41 58 42 24 43
REMARK SMILES IDX 63 44 57 45 59 46 25 47 62 48 56 49 55 50 26 52 48 53 33 54
REMARK SMILES IDX 47 55 34 56 37 57 46 58 60 59 35 60 36 61 45 63 61 64 38 65
REMARK SMILES IDX 27 66 28 67 32 68 29 69 31 70 30 71 49 72 50 73 54 74 51 75
REMARK SMILES IDX 53 76 52 77 39 78 40 79 44 80 41 81 43 82 42 83
REMARK H PARENT 69 14 59 51 37 62
REMARK Flexibility Score: inf
ROOT
ATOM      1  C   UNL A   1      33.884  32.754  28.001  1.00  0.00     0.188 C 
ENDROOT
BRANCH   1   2
ATOM      2  O   UNL A   1      33.672  31.359  27.825  1.00  0.00    -0.376 OA
BRANCH   2   3
ATOM      3  C   UNL A   1      32.589  30.899  27.026  1.00  0.00     0.202 C 
BRANCH   3   4
ATOM      4  C   UNL A   1      32.689  29.537  26.313  1.00  0.00     0.261 C 
BRANCH   4   5
ATOM      5  O   UNL A   1      31.449  28.931  25.876  1.00  0.00    -0.463 OA
BRANCH   5   6
ATOM      6  C   UNL A   1      31.384  27.578  25.984  1.00  0.00     0.317 C 
ATOM      7  O   UNL A   1      31.517  26.988  27.055  1.00  0.00    -0.251 OA
BRANCH   6   8
ATOM      8  C   UNL A   1      31.183  26.802  24.643  1.00  0.00     0.117 C 
ATOM      9  C   UNL A   1      31.281  27.590  23.310  1.00  0.00     0.030 C 
ATOM     10  C   UNL A   1      32.399  25.873  24.707  1.00  0.00     0.281 C 
ATOM     11  C   UNL A   1      31.622  26.724  22.085  1.00  0.00     0.063 C 
ATOM     12  N   UNL A   1      32.661  25.005  23.557  1.00  0.00    -0.330 N 
ATOM     13  C   UNL A   1      32.800  25.784  22.321  1.00  0.00     0.262 C 
ATOM     14  H   UNL A   1      31.862  24.387  23.415  1.00  0.00     0.348 HD
BRANCH   8  15
ATOM     15  C   UNL A   1      29.810  26.087  24.832  1.00  0.00     0.021 C 
ATOM     16  C   UNL A   1      28.619  26.498  23.987  1.00  0.00     0.005 C 
ENDBRANCH   8  15
BRANCH  12  17
ATOM     17  C   UNL A   1      33.860  24.162  23.833  1.00  0.00     0.302 C 
BRANCH  17  18
ATOM     18  C   UNL A   1      33.605  22.879  24.605  1.00  0.00     0.046 A 
ATOM     19  C   UNL A   1      33.322  21.690  23.919  1.00  0.00     0.059 A 
ATOM     20  C   UNL A   1      33.744  22.813  25.997  1.00  0.00     0.132 A 
ATOM     21  C   UNL A   1      33.262  20.471  24.600  1.00  0.00     0.119 A 
ATOM     22  C   UNL A   1      33.785  21.595  26.666  1.00  0.00     0.043 A 
ATOM     23  F   UNL A   1      33.912  23.931  26.719  1.00  0.00    -0.206 F 
ATOM     24  C   UNL A   1      33.565  20.416  25.961  1.00  0.00     0.049 A 
BRANCH  21  25
ATOM     25  O   UNL A   1      32.930  19.387  23.834  1.00  0.00    -0.497 OA
ATOM     26  C   UNL A   1      32.354  18.303  24.558  1.00  0.00     0.278 C 
ENDBRANCH  21  25
ENDBRANCH  17  18
ENDBRANCH  12  17
ENDBRANCH   6   8
ENDBRANCH   5   6
ENDBRANCH   4   5
ENDBRANCH   3   4
ENDBRANCH   2   3
ENDBRANCH   1   2
BRANCH   1  27
ATOM     27  C   UNL A   1      35.308  33.272  28.230  1.00  0.00     0.188 C 
BRANCH  27  28
ATOM     28  O   UNL A   1      35.448  34.169  29.302  1.00  0.00    -0.376 OA
BRANCH  28  29
ATOM     29  C   UNL A   1      34.358  34.358  30.180  1.00  0.00     0.202 C 
BRANCH  29  30
ATOM     30  C   UNL A   1      34.490  33.897  31.640  1.00  0.00     0.261 C 
BRANCH  30  31
ATOM     31  O   UNL A   1      34.892  32.531  31.857  1.00  0.00    -0.460 OA
BRANCH  31  32
ATOM     32  C   UNL A   1      35.919  32.313  32.709  1.00  0.00     0.338 C 
ATOM     33  O   UNL A   1      35.932  32.538  33.910  1.00  0.00    -0.246 OA
BRANCH  32  34
ATOM     34  C   UNL A   1      36.942  31.504  31.999  1.00  0.00     0.060 A 
ATOM     35  C   UNL A   1      38.044  31.022  32.722  1.00  0.00     0.016 A 
ATOM     36  C   UNL A   1      36.812  31.200  30.642  1.00  0.00     0.016 A 
ATOM     37  C   UNL A   1      39.040  30.280  32.083  1.00  0.00     0.010 A 
ATOM     38  C   UNL A   1      37.822  30.474  29.997  1.00  0.00     0.010 A 
ATOM     39  C   UNL A   1      38.961  30.047  30.704  1.00  0.00    -0.014 A 
BRANCH  39  40
ATOM     40  C   UNL A   1      40.160  29.552  29.978  1.00  0.00     0.031 A 
ATOM     41  C   UNL A   1      41.311  30.501  29.766  1.00  0.00     0.074 A 
ATOM     42  C   UNL A   1      40.259  28.282  29.546  1.00  0.00     0.049 A 
ATOM     43  N   UNL A   1      42.457  30.301  29.165  1.00  0.00    -0.248 NA
ATOM     44  C   UNL A   1      41.142  31.860  30.302  1.00  0.00     0.031 C 
ATOM     45  C   UNL A   1      39.244  27.245  29.714  1.00  0.00     0.029 A 
ATOM     46  N   UNL A   1      41.275  27.654  28.867  1.00  0.00    -0.354 N 
ATOM     47  C   UNL A   1      43.139  31.510  29.244  1.00  0.00     0.074 A 
ATOM     48  C   UNL A   1      42.263  32.446  29.915  1.00  0.00     0.031 C 
ATOM     49  C   UNL A   1      39.685  26.110  29.144  1.00  0.00     0.029 A 
ATOM     50  C   UNL A   1      40.998  26.348  28.545  1.00  0.00     0.049 A 
ATOM     51  H   UNL A   1      42.122  28.099  28.632  1.00  0.00     0.167 HD
ATOM     52  C   UNL A   1      44.382  31.819  28.803  1.00  0.00     0.031 A 
ATOM     53  C   UNL A   1      41.711  25.453  27.832  1.00  0.00     0.031 A 
ATOM     54  C   UNL A   1      45.252  30.901  28.115  1.00  0.00     0.049 A 
ATOM     55  C   UNL A   1      43.064  25.837  27.290  1.00  0.00     0.074 A 
ATOM     56  C   UNL A   1      46.537  31.116  27.650  1.00  0.00     0.029 A 
ATOM     57  N   UNL A   1      44.918  29.598  27.779  1.00  0.00    -0.354 N 
ATOM     58  N   UNL A   1      43.714  26.971  27.404  1.00  0.00    -0.248 NA
ATOM     59  C   UNL A   1      43.790  24.804  26.535  1.00  0.00     0.031 C 
ATOM     60  C   UNL A   1      46.954  29.967  26.970  1.00  0.00     0.029 A 
ATOM     61  C   UNL A   1      45.960  29.009  27.082  1.00  0.00     0.049 A 
ATOM     62  H   UNL A   1      44.067  29.157  28.003  1.00  0.00     0.167 HD
ATOM     63  C   UNL A   1      44.932  26.778  26.762  1.00  0.00     0.074 A 
ATOM     64  C   UNL A   1      44.940  25.414  26.279  1.00  0.00     0.031 C 
ATOM     65  C   UNL A   1      45.956  27.653  26.591  1.00  0.00     0.031 A 
BRANCH  52  66
ATOM     66  C   UNL A   1      44.852  33.235  29.010  1.00  0.00    -0.014 A 
ATOM     67  C   UNL A   1      45.683  33.586  30.087  1.00  0.00     0.009 A 
ATOM     68  C   UNL A   1      44.460  34.233  28.105  1.00  0.00     0.009 A 
ATOM     69  C   UNL A   1      46.070  34.914  30.279  1.00  0.00     0.001 A 
ATOM     70  C   UNL A   1      44.878  35.553  28.278  1.00  0.00     0.001 A 
ATOM     71  C   UNL A   1      45.670  35.895  29.372  1.00  0.00     0.000 A 
ENDBRANCH  52  66
BRANCH  53  72
ATOM     72  C   UNL A   1      41.148  24.102  27.565  1.00  0.00    -0.014 A 
ATOM     73  C   UNL A   1      41.637  22.969  28.233  1.00  0.00     0.009 A 
ATOM     74  C   UNL A   1      40.124  23.939  26.618  1.00  0.00     0.009 A 
ATOM     75  C   UNL A   1      41.128  21.700  27.941  1.00  0.00     0.001 A 
ATOM     76  C   UNL A   1      39.595  22.675  26.353  1.00  0.00     0.001 A 
ATOM     77  C   UNL A   1      40.104  21.555  27.008  1.00  0.00     0.000 A 
ENDBRANCH  53  72
BRANCH  65  78
ATOM     78  C   UNL A   1      47.188  27.148  25.885  1.00  0.00    -0.014 A 
ATOM     79  C   UNL A   1      47.350  27.277  24.497  1.00  0.00     0.009 A 
ATOM     80  C   UNL A   1      48.215  26.545  26.631  1.00  0.00     0.009 A 
ATOM     81  C   UNL A   1      48.489  26.770  23.865  1.00  0.00     0.001 A 
ATOM     82  C   UNL A   1      49.369  26.072  26.003  1.00  0.00     0.001 A 
ATOM     83  C   UNL A   1      49.498  26.171  24.619  1.00  0.00     0.000 A 
ENDBRANCH  65  78
ENDBRANCH  39  40
ENDBRANCH  32  34
ENDBRANCH  31  32
ENDBRANCH  30  31
ENDBRANCH  29  30
ENDBRANCH  28  29
ENDBRANCH  27  28
ENDBRANCH   1  27
TORSDOF 21
ENDMDL
MODEL 3
REMARK VINA RESULT:      -9.8      3.579      9.788
REMARK SMILES CC[C@]1(C(=O)OCCOCCOCCOC(=O)c2ccc(-c3c4nc(c(-c5ccccc5)c5ccc([nH]5)c(-c5ccccc5)c5nc(c(-c6ccccc6)c6ccc3[nH]6)C=C5)C=C4)cc2)CCC[N@@H+](Cc2cc(OC)ccc2F)C1
REMARK SMILES IDX 10 1 9 2 8 3 7 4 6 5 4 6 5 7 3 8 66 9 80 10 67 11 69 12
REMARK SMILES IDX 68 13 2 15 1 16 70 17 71 18 72 19 78 20 73 21 77 22 79 23
REMARK SMILES IDX 76 24 74 25 75 26 11 27 12 28 13 29 14 30 15 31 16 32 17 33
REMARK SMILES IDX 18 34 19 35 65 36 20 37 64 38 21 39 22 40 23 41 58 42 24 43
REMARK SMILES IDX 63 44 57 45 59 46 25 47 62 48 56 49 55 50 26 52 48 53 33 54
REMARK SMILES IDX 47 55 34 56 37 57 46 58 60 59 35 60 36 61 45 63 61 64 38 65
REMARK SMILES IDX 27 66 28 67 32 68 29 69 31 70 30 71 49 72 50 73 54 74 51 75
REMARK SMILES IDX 53 76 52 77 39 78 40 79 44 80 41 81 43 82 42 83
REMARK H PARENT 69 14 59 51 37 62
REMARK Flexibility Score: inf
ROOT
ATOM      1  C   UNL A   1      40.027  21.600  26.442  1.00  0.00     0.188 C 
ENDROOT
BRANCH   1   2
ATOM      2  O   UNL A   1      38.730  21.764  25.884  1.00  0.00    -0.376 OA
BRANCH   2   3
ATOM      3  C   UNL A   1      38.199  23.069  25.689  1.00  0.00     0.202 C 
BRANCH   3   4
ATOM      4  C   UNL A   1      36.681  23.304  25.810  1.00  0.00     0.261 C 
BRANCH   4   5
ATOM      5  O   UNL A   1      35.817  22.429  25.045  1.00  0.00    -0.463 OA
BRANCH   5   6
ATOM      6  C   UNL A   1      35.337  22.944  23.882  1.00  0.00     0.317 C 
ATOM      7  O   UNL A   1      36.033  23.081  22.878  1.00  0.00    -0.251 OA
BRANCH   6   8
ATOM      8  C   UNL A   1      33.846  23.407  23.913  1.00  0.00     0.117 C 
ATOM      9  C   UNL A   1      33.097  23.401  25.272  1.00  0.00     0.030 C 
ATOM     10  C   UNL A   1      34.031  24.873  23.509  1.00  0.00     0.281 C 
ATOM     11  C   UNL A   1      31.888  24.349  25.334  1.00  0.00     0.063 C 
ATOM     12  N   UNL A   1      32.850  25.738  23.506  1.00  0.00    -0.330 N 
ATOM     13  C   UNL A   1      32.194  25.752  24.820  1.00  0.00     0.262 C 
ATOM     14  H   UNL A   1      32.164  25.367  22.849  1.00  0.00     0.348 HD
BRANCH   8  15
ATOM     15  C   UNL A   1      33.159  22.518  22.832  1.00  0.00     0.021 C 
ATOM     16  C   UNL A   1      32.439  21.247  23.242  1.00  0.00     0.005 C 
ENDBRANCH   8  15
BRANCH  12  17
ATOM     17  C   UNL A   1      33.237  27.106  23.053  1.00  0.00     0.302 C 
BRANCH  17  18
ATOM     18  C   UNL A   1      32.224  28.205  23.325  1.00  0.00     0.046 A 
ATOM     19  C   UNL A   1      31.092  28.335  22.508  1.00  0.00     0.059 A 
ATOM     20  C   UNL A   1      32.325  29.044  24.441  1.00  0.00     0.132 A 
ATOM     21  C   UNL A   1      30.066  29.220  22.848  1.00  0.00     0.119 A 
ATOM     22  C   UNL A   1      31.265  29.852  24.839  1.00  0.00     0.043 A 
ATOM     23  F   UNL A   1      33.429  29.039  25.201  1.00  0.00    -0.206 F 
ATOM     24  C   UNL A   1      30.122  29.925  24.051  1.00  0.00     0.049 A 
BRANCH  21  25
ATOM     25  O   UNL A   1      29.037  29.298  21.950  1.00  0.00    -0.497 OA
ATOM     26  C   UNL A   1      28.898  30.566  21.313  1.00  0.00     0.278 C 
ENDBRANCH  21  25
ENDBRANCH  17  18
ENDBRANCH  12  17
ENDBRANCH   6   8
ENDBRANCH   5   6
ENDBRANCH   4   5
ENDBRANCH   3   4
ENDBRANCH   2   3
ENDBRANCH   1   2
BRANCH   1  27
ATOM     27  C   UNL A   1      40.659  20.205  26.470  1.00  0.00     0.188 C 
BRANCH  27  28
ATOM     28  O   UNL A   1      41.758  20.033  25.613  1.00  0.00    -0.376 OA
BRANCH  28  29
ATOM     29  C   UNL A   1      43.026  20.495  26.029  1.00  0.00     0.202 C 
BRANCH  29  30
ATOM     30  C   UNL A   1      43.658  21.693  25.302  1.00  0.00     0.261 C 
BRANCH  30  31
ATOM     31  O   UNL A   1      44.246  22.717  26.127  1.00  0.00    -0.460 OA
BRANCH  31  32
ATOM     32  C   UNL A   1      44.284  23.973  25.626  1.00  0.00     0.338 C 
ATOM     33  O   UNL A   1      44.643  24.302  24.505  1.00  0.00    -0.246 OA
BRANCH  32  34
ATOM     34  C   UNL A   1      43.564  24.866  26.570  1.00  0.00     0.060 A 
ATOM     35  C   UNL A   1      43.957  26.211  26.660  1.00  0.00     0.016 A 
ATOM     36  C   UNL A   1      42.500  24.397  27.343  1.00  0.00     0.016 A 
ATOM     37  C   UNL A   1      43.321  27.074  27.553  1.00  0.00     0.010 A 
ATOM     38  C   UNL A   1      41.877  25.258  28.256  1.00  0.00     0.010 A 
ATOM     39  C   UNL A   1      42.312  26.590  28.396  1.00  0.00    -0.014 A 
BRANCH  39  40
ATOM     40  C   UNL A   1      41.872  27.410  29.555  1.00  0.00     0.031 A 
ATOM     41  C   UNL A   1      40.598  28.203  29.428  1.00  0.00     0.074 A 
ATOM     42  C   UNL A   1      42.555  27.433  30.713  1.00  0.00     0.049 A 
ATOM     43  N   UNL A   1      40.013  28.988  30.298  1.00  0.00    -0.248 NA
ATOM     44  C   UNL A   1      39.888  28.095  28.143  1.00  0.00     0.031 C 
ATOM     45  C   UNL A   1      43.780  26.688  30.993  1.00  0.00     0.029 A 
ATOM     46  N   UNL A   1      42.304  28.121  31.876  1.00  0.00    -0.354 N 
ATOM     47  C   UNL A   1      38.876  29.474  29.662  1.00  0.00     0.074 A 
ATOM     48  C   UNL A   1      38.874  28.925  28.323  1.00  0.00     0.031 C 
ATOM     49  C   UNL A   1      44.182  26.968  32.245  1.00  0.00     0.029 A 
ATOM     50  C   UNL A   1      43.260  27.933  32.845  1.00  0.00     0.049 A 
ATOM     51  H   UNL A   1      41.515  28.696  32.003  1.00  0.00     0.167 HD
ATOM     52  C   UNL A   1      37.915  30.297  30.145  1.00  0.00     0.031 A 
ATOM     53  C   UNL A   1      43.388  28.489  34.066  1.00  0.00     0.031 A 
ATOM     54  C   UNL A   1      37.920  30.864  31.468  1.00  0.00     0.049 A 
ATOM     55  C   UNL A   1      42.344  29.457  34.559  1.00  0.00     0.074 A 
ATOM     56  C   UNL A   1      36.979  31.693  32.054  1.00  0.00     0.029 A 
ATOM     57  N   UNL A   1      38.924  30.675  32.405  1.00  0.00    -0.354 N 
ATOM     58  N   UNL A   1      41.254  29.879  33.964  1.00  0.00    -0.248 NA
ATOM     59  C   UNL A   1      42.543  30.013  35.907  1.00  0.00     0.031 C 
ATOM     60  C   UNL A   1      37.448  32.062  33.319  1.00  0.00     0.029 A 
ATOM     61  C   UNL A   1      38.643  31.399  33.551  1.00  0.00     0.049 A 
ATOM     62  H   UNL A   1      39.720  30.110  32.274  1.00  0.00     0.167 HD
ATOM     63  C   UNL A   1      40.625  30.723  34.873  1.00  0.00     0.074 A 
ATOM     64  C   UNL A   1      41.444  30.738  36.066  1.00  0.00     0.031 C 
ATOM     65  C   UNL A   1      39.469  31.421  34.733  1.00  0.00     0.031 A 
BRANCH  52  66
ATOM     66  C   UNL A   1      36.800  30.675  29.205  1.00  0.00    -0.014 A 
ATOM     67  C   UNL A   1      36.702  31.966  28.659  1.00  0.00     0.009 A 
ATOM     68  C   UNL A   1      35.835  29.717  28.858  1.00  0.00     0.009 A 
ATOM     69  C   UNL A   1      35.634  32.301  27.823  1.00  0.00     0.001 A 
ATOM     70  C   UNL A   1      34.789  30.044  27.994  1.00  0.00     0.001 A 
ATOM     71  C   UNL A   1      34.681  31.339  27.489  1.00  0.00     0.000 A 
ENDBRANCH  52  66
BRANCH  53  72
ATOM     72  C   UNL A   1      44.570  28.162  34.908  1.00  0.00    -0.014 A 
ATOM     73  C   UNL A   1      44.516  27.137  35.866  1.00  0.00     0.009 A 
ATOM     74  C   UNL A   1      45.760  28.893  34.768  1.00  0.00     0.009 A 
ATOM     75  C   UNL A   1      45.621  26.869  36.679  1.00  0.00     0.001 A 
ATOM     76  C   UNL A   1      46.873  28.601  35.559  1.00  0.00     0.001 A 
ATOM     77  C   UNL A   1      46.799  27.596  36.521  1.00  0.00     0.000 A 
ENDBRANCH  53  72
BRANCH  65  78
ATOM     78  C   UNL A   1      39.000  32.228  35.916  1.00  0.00    -0.014 A 
ATOM     79  C   UNL A   1      38.139  31.689  36.884  1.00  0.00     0.009 A 
ATOM     80  C   UNL A   1      39.445  33.552  36.071  1.00  0.00     0.009 A 
ATOM     81  C   UNL A   1      37.695  32.472  37.953  1.00  0.00     0.001 A 
ATOM     82  C   UNL A   1      39.030  34.320  37.160  1.00  0.00     0.001 A 
ATOM     83  C   UNL A   1      38.143  33.785  38.092  1.00  0.00     0.000 A 
ENDBRANCH  65  78
ENDBRANCH  39  40
ENDBRANCH  32  34
ENDBRANCH  31  32
ENDBRANCH  30  31
ENDBRANCH  29  30
ENDBRANCH  28  29
ENDBRANCH  27  28
ENDBRANCH   1  27
TORSDOF 21
ENDMDL
