MODEL 1
REMARK VINA RESULT:     -12.2      0.000      0.000
REMARK SMILES Cc1cnn(C2(C(=O)OCCOCCOCCOC(=O)c3ccc(-c4c5nc(c(-c6ccccc6)c6ccc([nH]6)c(-c6ccccc6)c6nc(c(-c7ccccc7)c7ccc4[nH]7)C=C6)C=C5)cc3)CCN(C(=O)c3cc4ccccc4[nH]3)CC2)c1
REMARK SMILES IDX 14 1 13 2 12 3 11 4 10 5 9 6 7 7 8 8 6 9 69 10 84 11 70 12
REMARK SMILES IDX 83 13 71 14 72 15 73 16 5 17 1 18 2 19 3 20 85 21 4 22 74 23
REMARK SMILES IDX 75 24 82 25 76 26 81 27 77 29 80 30 78 31 79 32 15 33 16 34
REMARK SMILES IDX 17 35 18 36 19 37 20 38 21 39 22 40 68 41 23 42 67 43 24 44
REMARK SMILES IDX 25 45 26 46 61 47 27 48 66 49 60 50 62 51 28 52 65 53 59 54
REMARK SMILES IDX 58 55 29 57 51 58 36 59 50 60 37 61 40 62 49 63 63 64 38 65
REMARK SMILES IDX 39 66 48 68 64 69 41 70 30 71 31 72 35 73 32 74 34 75 33 76
REMARK SMILES IDX 52 77 53 78 57 79 54 80 56 81 55 82 42 83 43 84 47 85 44 86
REMARK SMILES IDX 46 87 45 88
REMARK H PARENT 82 28 62 56 40 67
REMARK Flexibility Score: inf
ROOT
ATOM      1  C   UNL A   1      40.621  21.332  27.464  1.00  0.00     0.188 C 
ENDROOT
BRANCH   1   2
ATOM      2  C   UNL A   1      39.845  20.918  26.213  1.00  0.00     0.188 C 
BRANCH   2   3
ATOM      3  O   UNL A   1      38.874  21.874  25.788  1.00  0.00    -0.376 OA
BRANCH   3   4
ATOM      4  C   UNL A   1      37.761  21.334  25.077  1.00  0.00     0.202 C 
BRANCH   4   5
ATOM      5  C   UNL A   1      36.939  22.314  24.214  1.00  0.00     0.261 C 
BRANCH   5   6
ATOM      6  O   UNL A   1      35.510  22.074  24.202  1.00  0.00    -0.461 OA
BRANCH   6   7
ATOM      7  C   UNL A   1      34.754  22.706  25.146  1.00  0.00     0.334 C 
ATOM      8  O   UNL A   1      35.250  23.266  26.123  1.00  0.00    -0.249 OA
BRANCH   7   9
ATOM      9  C   UNL A   1      33.215  22.553  24.946  1.00  0.00     0.163 C 
ATOM     10  C   UNL A   1      32.390  22.695  26.252  1.00  0.00     0.064 C 
ATOM     11  C   UNL A   1      32.935  23.744  23.996  1.00  0.00     0.064 C 
ATOM     12  C   UNL A   1      30.932  23.101  26.024  1.00  0.00     0.123 C 
ATOM     13  C   UNL A   1      31.483  24.131  23.836  1.00  0.00     0.123 C 
ATOM     14  N   UNL A   1      30.826  24.251  25.132  1.00  0.00    -0.337 N 
ATOM     15  C   UNL A   1      30.150  25.396  25.560  1.00  0.00     0.270 C 
ATOM     16  O   UNL A   1      29.789  25.551  26.723  1.00  0.00    -0.267 OA
BRANCH   9  17
ATOM     17  N   UNL A   1      32.910  21.253  24.295  1.00  0.00    -0.255 N 
ATOM     18  C   UNL A   1      32.563  17.621  23.938  1.00  0.00     0.048 C 
ATOM     19  C   UNL A   1      32.627  19.096  23.840  1.00  0.00    -0.013 A 
ATOM     20  C   UNL A   1      32.261  19.920  22.766  1.00  0.00     0.138 A 
ATOM     21  C   UNL A   1      33.089  19.984  24.788  1.00  0.00     0.113 A 
ATOM     22  N   UNL A   1      32.483  21.211  23.015  1.00  0.00    -0.180 NA
ENDBRANCH   9  17
BRANCH  15  23
ATOM     23  C   UNL A   1      29.964  26.436  24.577  1.00  0.00     0.105 A 
ATOM     24  C   UNL A   1      30.877  27.305  24.003  1.00  0.00     0.042 A 
ATOM     25  N   UNL A   1      28.736  26.737  24.041  1.00  0.00    -0.351 N 
ATOM     26  C   UNL A   1      30.155  28.245  23.220  1.00  0.00     0.000 A 
ATOM     27  C   UNL A   1      28.809  27.885  23.289  1.00  0.00     0.046 A 
ATOM     28  H   UNL A   1      27.919  26.205  24.177  1.00  0.00     0.167 HD
ATOM     29  C   UNL A   1      30.517  29.385  22.478  1.00  0.00     0.010 A 
ATOM     30  C   UNL A   1      27.797  28.623  22.667  1.00  0.00     0.026 A 
ATOM     31  C   UNL A   1      29.517  30.131  21.843  1.00  0.00     0.001 A 
ATOM     32  C   UNL A   1      28.178  29.757  21.943  1.00  0.00     0.002 A 
ENDBRANCH  15  23
ENDBRANCH   7   9
ENDBRANCH   6   7
ENDBRANCH   5   6
ENDBRANCH   4   5
ENDBRANCH   3   4
ENDBRANCH   2   3
ENDBRANCH   1   2
BRANCH   1  33
ATOM     33  O   UNL A   1      41.897  20.732  27.613  1.00  0.00    -0.376 OA
BRANCH  33  34
ATOM     34  C   UNL A   1      42.172  19.382  27.232  1.00  0.00     0.202 C 
BRANCH  34  35
ATOM     35  C   UNL A   1      42.669  18.936  25.848  1.00  0.00     0.261 C 
BRANCH  35  36
ATOM     36  O   UNL A   1      43.186  19.944  25.006  1.00  0.00    -0.460 OA
BRANCH  36  37
ATOM     37  C   UNL A   1      44.472  19.851  24.632  1.00  0.00     0.338 C 
ATOM     38  O   UNL A   1      45.113  18.837  24.396  1.00  0.00    -0.246 OA
BRANCH  37  39
ATOM     39  C   UNL A   1      44.961  21.238  24.567  1.00  0.00     0.060 A 
ATOM     40  C   UNL A   1      46.039  21.557  25.380  1.00  0.00     0.016 A 
ATOM     41  C   UNL A   1      44.191  22.227  23.914  1.00  0.00     0.016 A 
ATOM     42  C   UNL A   1      46.107  22.848  25.833  1.00  0.00     0.010 A 
ATOM     43  C   UNL A   1      44.260  23.514  24.360  1.00  0.00     0.010 A 
ATOM     44  C   UNL A   1      45.114  23.745  25.422  1.00  0.00    -0.014 A 
BRANCH  44  45
ATOM     45  C   UNL A   1      44.878  24.890  26.255  1.00  0.00     0.031 A 
ATOM     46  C   UNL A   1      45.956  25.875  26.227  1.00  0.00     0.074 A 
ATOM     47  C   UNL A   1      43.750  25.009  26.974  1.00  0.00     0.049 A 
ATOM     48  N   UNL A   1      46.843  26.061  27.139  1.00  0.00    -0.248 NA
ATOM     49  C   UNL A   1      46.181  26.604  24.975  1.00  0.00     0.031 C 
ATOM     50  C   UNL A   1      42.499  24.251  26.869  1.00  0.00     0.029 A 
ATOM     51  N   UNL A   1      43.467  25.945  27.909  1.00  0.00    -0.354 N 
ATOM     52  C   UNL A   1      47.653  27.073  26.655  1.00  0.00     0.074 A 
ATOM     53  C   UNL A   1      47.325  27.227  25.258  1.00  0.00     0.031 C 
ATOM     54  C   UNL A   1      41.527  24.922  27.533  1.00  0.00     0.029 A 
ATOM     55  C   UNL A   1      42.122  26.067  28.204  1.00  0.00     0.049 A 
ATOM     56  H   UNL A   1      44.161  26.494  28.342  1.00  0.00     0.167 HD
ATOM     57  C   UNL A   1      48.346  27.878  27.501  1.00  0.00     0.031 A 
ATOM     58  C   UNL A   1      41.560  27.107  28.865  1.00  0.00     0.031 A 
ATOM     59  C   UNL A   1      48.390  27.343  28.839  1.00  0.00     0.049 A 
ATOM     60  C   UNL A   1      42.642  27.796  29.619  1.00  0.00     0.074 A 
ATOM     61  C   UNL A   1      48.876  26.177  29.399  1.00  0.00     0.029 A 
ATOM     62  N   UNL A   1      47.509  27.868  29.757  1.00  0.00    -0.354 N 
ATOM     63  N   UNL A   1      43.250  27.265  30.642  1.00  0.00    -0.248 NA
ATOM     64  C   UNL A   1      43.372  28.872  28.959  1.00  0.00     0.031 C 
ATOM     65  C   UNL A   1      47.931  25.828  30.407  1.00  0.00     0.029 A 
ATOM     66  C   UNL A   1      46.949  26.819  30.440  1.00  0.00     0.049 A 
ATOM     67  H   UNL A   1      47.315  28.823  29.897  1.00  0.00     0.167 HD
ATOM     68  C   UNL A   1      44.586  27.615  30.486  1.00  0.00     0.074 A 
ATOM     69  C   UNL A   1      44.582  28.694  29.500  1.00  0.00     0.031 C 
ATOM     70  C   UNL A   1      45.589  26.805  30.941  1.00  0.00     0.031 A 
BRANCH  57  71
ATOM     71  C   UNL A   1      48.619  29.322  27.200  1.00  0.00    -0.014 A 
ATOM     72  C   UNL A   1      49.952  29.731  27.036  1.00  0.00     0.009 A 
ATOM     73  C   UNL A   1      47.652  30.337  27.335  1.00  0.00     0.009 A 
ATOM     74  C   UNL A   1      50.300  31.084  27.071  1.00  0.00     0.001 A 
ATOM     75  C   UNL A   1      47.989  31.689  27.323  1.00  0.00     0.001 A 
ATOM     76  C   UNL A   1      49.320  32.062  27.219  1.00  0.00     0.000 A 
ENDBRANCH  57  71
BRANCH  58  77
ATOM     77  C   UNL A   1      40.234  27.716  28.616  1.00  0.00    -0.014 A 
ATOM     78  C   UNL A   1      39.263  27.750  29.628  1.00  0.00     0.009 A 
ATOM     79  C   UNL A   1      40.006  28.493  27.465  1.00  0.00     0.009 A 
ATOM     80  C   UNL A   1      38.127  28.562  29.505  1.00  0.00     0.001 A 
ATOM     81  C   UNL A   1      38.867  29.296  27.338  1.00  0.00     0.001 A 
ATOM     82  C   UNL A   1      37.935  29.342  28.367  1.00  0.00     0.000 A 
ENDBRANCH  58  77
BRANCH  70  83
ATOM     83  C   UNL A   1      45.209  25.628  31.808  1.00  0.00    -0.014 A 
ATOM     84  C   UNL A   1      45.188  25.694  33.214  1.00  0.00     0.009 A 
ATOM     85  C   UNL A   1      44.699  24.475  31.192  1.00  0.00     0.009 A 
ATOM     86  C   UNL A   1      44.702  24.627  33.976  1.00  0.00     0.001 A 
ATOM     87  C   UNL A   1      44.193  23.420  31.953  1.00  0.00     0.001 A 
ATOM     88  C   UNL A   1      44.199  23.492  33.345  1.00  0.00     0.000 A 
ENDBRANCH  70  83
ENDBRANCH  44  45
ENDBRANCH  37  39
ENDBRANCH  36  37
ENDBRANCH  35  36
ENDBRANCH  34  35
ENDBRANCH  33  34
ENDBRANCH   1  33
TORSDOF 19
ENDMDL
MODEL 2
REMARK VINA RESULT:     -11.3      2.840      4.270
REMARK SMILES Cc1cnn(C2(C(=O)OCCOCCOCCOC(=O)c3ccc(-c4c5nc(c(-c6ccccc6)c6ccc([nH]6)c(-c6ccccc6)c6nc(c(-c7ccccc7)c7ccc4[nH]7)C=C6)C=C5)cc3)CCN(C(=O)c3cc4ccccc4[nH]3)CC2)c1
REMARK SMILES IDX 14 1 13 2 12 3 11 4 10 5 9 6 7 7 8 8 6 9 69 10 84 11 70 12
REMARK SMILES IDX 83 13 71 14 72 15 73 16 5 17 1 18 2 19 3 20 85 21 4 22 74 23
REMARK SMILES IDX 75 24 82 25 76 26 81 27 77 29 80 30 78 31 79 32 15 33 16 34
REMARK SMILES IDX 17 35 18 36 19 37 20 38 21 39 22 40 68 41 23 42 67 43 24 44
REMARK SMILES IDX 25 45 26 46 61 47 27 48 66 49 60 50 62 51 28 52 65 53 59 54
REMARK SMILES IDX 58 55 29 57 51 58 36 59 50 60 37 61 40 62 49 63 63 64 38 65
REMARK SMILES IDX 39 66 48 68 64 69 41 70 30 71 31 72 35 73 32 74 34 75 33 76
REMARK SMILES IDX 52 77 53 78 57 79 54 80 56 81 55 82 42 83 43 84 47 85 44 86
REMARK SMILES IDX 46 87 45 88
REMARK H PARENT 82 28 62 56 40 67
REMARK Flexibility Score: inf
ROOT
ATOM      1  C   UNL A   1      40.532  21.845  27.398  1.00  0.00     0.188 C 
ENDROOT
BRANCH   1   2
ATOM      2  C   UNL A   1      39.357  22.226  26.496  1.00  0.00     0.188 C 
BRANCH   2   3
ATOM      3  O   UNL A   1      38.790  21.126  25.785  1.00  0.00    -0.376 OA
BRANCH   3   4
ATOM      4  C   UNL A   1      37.768  21.469  24.851  1.00  0.00     0.202 C 
BRANCH   4   5
ATOM      5  C   UNL A   1      36.309  21.210  25.282  1.00  0.00     0.261 C 
BRANCH   5   6
ATOM      6  O   UNL A   1      35.420  22.348  25.162  1.00  0.00    -0.461 OA
BRANCH   6   7
ATOM      7  C   UNL A   1      34.497  22.536  26.150  1.00  0.00     0.334 C 
ATOM      8  O   UNL A   1      34.815  22.744  27.320  1.00  0.00    -0.249 OA
BRANCH   7   9
ATOM      9  C   UNL A   1      33.018  22.346  25.693  1.00  0.00     0.163 C 
ATOM     10  C   UNL A   1      31.981  22.462  26.841  1.00  0.00     0.064 C 
ATOM     11  C   UNL A   1      32.872  23.533  24.709  1.00  0.00     0.064 C 
ATOM     12  C   UNL A   1      30.573  22.833  26.370  1.00  0.00     0.123 C 
ATOM     13  C   UNL A   1      31.458  23.885  24.307  1.00  0.00     0.123 C 
ATOM     14  N   UNL A   1      30.590  23.983  25.473  1.00  0.00    -0.337 N 
ATOM     15  C   UNL A   1      29.822  25.109  25.780  1.00  0.00     0.270 C 
ATOM     16  O   UNL A   1      29.267  25.250  26.866  1.00  0.00    -0.267 OA
BRANCH   9  17
ATOM     17  N   UNL A   1      32.860  21.041  25.000  1.00  0.00    -0.255 N 
ATOM     18  C   UNL A   1      32.255  18.696  22.248  1.00  0.00     0.048 C 
ATOM     19  C   UNL A   1      32.521  19.435  23.502  1.00  0.00    -0.013 A 
ATOM     20  C   UNL A   1      32.830  18.924  24.772  1.00  0.00     0.138 A 
ATOM     21  C   UNL A   1      32.498  20.799  23.698  1.00  0.00     0.113 A 
ATOM     22  N   UNL A   1      32.977  19.884  25.685  1.00  0.00    -0.180 NA
ENDBRANCH   9  17
BRANCH  15  23
ATOM     23  C   UNL A   1      29.779  26.148  24.780  1.00  0.00     0.105 A 
ATOM     24  C   UNL A   1      30.792  26.927  24.247  1.00  0.00     0.042 A 
ATOM     25  N   UNL A   1      28.611  26.547  24.178  1.00  0.00    -0.351 N 
ATOM     26  C   UNL A   1      30.196  27.915  23.419  1.00  0.00     0.000 A 
ATOM     27  C   UNL A   1      28.823  27.675  23.421  1.00  0.00     0.046 A 
ATOM     28  H   UNL A   1      27.744  26.091  24.276  1.00  0.00     0.167 HD
ATOM     29  C   UNL A   1      30.694  29.009  22.686  1.00  0.00     0.010 A 
ATOM     30  C   UNL A   1      27.912  28.489  22.741  1.00  0.00     0.026 A 
ATOM     31  C   UNL A   1      29.797  29.831  21.994  1.00  0.00     0.001 A 
ATOM     32  C   UNL A   1      28.427  29.576  22.028  1.00  0.00     0.002 A 
ENDBRANCH  15  23
ENDBRANCH   7   9
ENDBRANCH   6   7
ENDBRANCH   5   6
ENDBRANCH   4   5
ENDBRANCH   3   4
ENDBRANCH   2   3
ENDBRANCH   1   2
BRANCH   1  33
ATOM     33  O   UNL A   1      41.488  20.976  26.814  1.00  0.00    -0.376 OA
BRANCH  33  34
ATOM     34  C   UNL A   1      42.326  21.361  25.721  1.00  0.00     0.202 C 
BRANCH  34  35
ATOM     35  C   UNL A   1      43.796  21.788  25.839  1.00  0.00     0.261 C 
BRANCH  35  36
ATOM     36  O   UNL A   1      44.046  23.030  26.461  1.00  0.00    -0.460 OA
BRANCH  36  37
ATOM     37  C   UNL A   1      43.562  24.136  25.873  1.00  0.00     0.338 C 
ATOM     38  O   UNL A   1      43.849  24.588  24.775  1.00  0.00    -0.246 OA
BRANCH  37  39
ATOM     39  C   UNL A   1      42.605  24.703  26.838  1.00  0.00     0.060 A 
ATOM     40  C   UNL A   1      41.493  25.342  26.310  1.00  0.00     0.016 A 
ATOM     41  C   UNL A   1      42.960  24.811  28.202  1.00  0.00     0.016 A 
ATOM     42  C   UNL A   1      40.969  26.372  27.046  1.00  0.00     0.010 A 
ATOM     43  C   UNL A   1      42.437  25.833  28.937  1.00  0.00     0.010 A 
ATOM     44  C   UNL A   1      41.568  26.678  28.274  1.00  0.00    -0.014 A 
BRANCH  44  45
ATOM     45  C   UNL A   1      41.384  28.008  28.780  1.00  0.00     0.031 A 
ATOM     46  C   UNL A   1      42.399  28.958  28.331  1.00  0.00     0.074 A 
ATOM     47  C   UNL A   1      40.352  28.313  29.584  1.00  0.00     0.049 A 
ATOM     48  N   UNL A   1      43.385  29.404  29.026  1.00  0.00    -0.248 NA
ATOM     49  C   UNL A   1      42.427  29.306  26.907  1.00  0.00     0.031 C 
ATOM     50  C   UNL A   1      39.137  27.542  29.866  1.00  0.00     0.029 A 
ATOM     51  N   UNL A   1      40.145  29.472  30.250  1.00  0.00    -0.354 N 
ATOM     52  C   UNL A   1      44.076  30.247  28.173  1.00  0.00     0.074 A 
ATOM     53  C   UNL A   1      43.565  29.996  26.847  1.00  0.00     0.031 C 
ATOM     54  C   UNL A   1      38.227  28.362  30.443  1.00  0.00     0.029 A 
ATOM     55  C   UNL A   1      38.844  29.656  30.680  1.00  0.00     0.049 A 
ATOM     56  H   UNL A   1      40.861  30.128  30.414  1.00  0.00     0.167 HD
ATOM     57  C   UNL A   1      44.830  31.266  28.658  1.00  0.00     0.031 A 
ATOM     58  C   UNL A   1      38.321  30.835  31.095  1.00  0.00     0.031 A 
ATOM     59  C   UNL A   1      45.071  31.132  30.074  1.00  0.00     0.049 A 
ATOM     60  C   UNL A   1      39.455  31.721  31.473  1.00  0.00     0.074 A 
ATOM     61  C   UNL A   1      45.682  30.178  30.865  1.00  0.00     0.029 A 
ATOM     62  N   UNL A   1      44.290  31.884  30.920  1.00  0.00    -0.354 N 
ATOM     63  N   UNL A   1      40.214  31.507  32.510  1.00  0.00    -0.248 NA
ATOM     64  C   UNL A   1      40.041  32.574  30.446  1.00  0.00     0.031 C 
ATOM     65  C   UNL A   1      44.892  30.117  32.049  1.00  0.00     0.029 A 
ATOM     66  C   UNL A   1      43.874  31.066  31.939  1.00  0.00     0.049 A 
ATOM     67  H   UNL A   1      44.068  32.838  30.813  1.00  0.00     0.167 HD
ATOM     68  C   UNL A   1      41.500  31.815  32.083  1.00  0.00     0.074 A 
ATOM     69  C   UNL A   1      41.317  32.571  30.845  1.00  0.00     0.031 C 
ATOM     70  C   UNL A   1      42.592  31.178  32.604  1.00  0.00     0.031 A 
BRANCH  57  71
ATOM     71  C   UNL A   1      44.991  32.570  27.933  1.00  0.00    -0.014 A 
ATOM     72  C   UNL A   1      43.869  33.402  27.795  1.00  0.00     0.009 A 
ATOM     73  C   UNL A   1      46.122  32.889  27.157  1.00  0.00     0.009 A 
ATOM     74  C   UNL A   1      43.862  34.457  26.879  1.00  0.00     0.001 A 
ATOM     75  C   UNL A   1      46.135  33.969  26.276  1.00  0.00     0.001 A 
ATOM     76  C   UNL A   1      44.993  34.737  26.116  1.00  0.00     0.000 A 
ENDBRANCH  57  71
BRANCH  58  77
ATOM     77  C   UNL A   1      36.946  31.333  30.871  1.00  0.00    -0.014 A 
ATOM     78  C   UNL A   1      36.120  31.666  31.955  1.00  0.00     0.009 A 
ATOM     79  C   UNL A   1      36.526  31.726  29.585  1.00  0.00     0.009 A 
ATOM     80  C   UNL A   1      34.940  32.397  31.761  1.00  0.00     0.001 A 
ATOM     81  C   UNL A   1      35.343  32.446  29.390  1.00  0.00     0.001 A 
ATOM     82  C   UNL A   1      34.558  32.796  30.482  1.00  0.00     0.000 A 
ENDBRANCH  58  77
BRANCH  70  83
ATOM     83  C   UNL A   1      42.385  30.290  33.807  1.00  0.00    -0.014 A 
ATOM     84  C   UNL A   1      42.529  30.752  35.129  1.00  0.00     0.009 A 
ATOM     85  C   UNL A   1      41.867  29.000  33.611  1.00  0.00     0.009 A 
ATOM     86  C   UNL A   1      42.198  29.938  36.217  1.00  0.00     0.001 A 
ATOM     87  C   UNL A   1      41.516  28.196  34.697  1.00  0.00     0.001 A 
ATOM     88  C   UNL A   1      41.686  28.662  35.999  1.00  0.00     0.000 A 
ENDBRANCH  70  83
ENDBRANCH  44  45
ENDBRANCH  37  39
ENDBRANCH  36  37
ENDBRANCH  35  36
ENDBRANCH  34  35
ENDBRANCH  33  34
ENDBRANCH   1  33
TORSDOF 19
ENDMDL
MODEL 3
REMARK VINA RESULT:     -11.0      2.057      7.236
REMARK SMILES Cc1cnn(C2(C(=O)OCCOCCOCCOC(=O)c3ccc(-c4c5nc(c(-c6ccccc6)c6ccc([nH]6)c(-c6ccccc6)c6nc(c(-c7ccccc7)c7ccc4[nH]7)C=C6)C=C5)cc3)CCN(C(=O)c3cc4ccccc4[nH]3)CC2)c1
REMARK SMILES IDX 14 1 13 2 12 3 11 4 10 5 9 6 7 7 8 8 6 9 69 10 84 11 70 12
REMARK SMILES IDX 83 13 71 14 72 15 73 16 5 17 1 18 2 19 3 20 85 21 4 22 74 23
REMARK SMILES IDX 75 24 82 25 76 26 81 27 77 29 80 30 78 31 79 32 15 33 16 34
REMARK SMILES IDX 17 35 18 36 19 37 20 38 21 39 22 40 68 41 23 42 67 43 24 44
REMARK SMILES IDX 25 45 26 46 61 47 27 48 66 49 60 50 62 51 28 52 65 53 59 54
REMARK SMILES IDX 58 55 29 57 51 58 36 59 50 60 37 61 40 62 49 63 63 64 38 65
REMARK SMILES IDX 39 66 48 68 64 69 41 70 30 71 31 72 35 73 32 74 34 75 33 76
REMARK SMILES IDX 52 77 53 78 57 79 54 80 56 81 55 82 42 83 43 84 47 85 44 86
REMARK SMILES IDX 46 87 45 88
REMARK H PARENT 82 28 62 56 40 67
REMARK Flexibility Score: inf
ROOT
ATOM      1  C   UNL A   1      35.612  23.860  24.871  1.00  0.00     0.188 C 
ENDROOT
BRANCH   1   2
ATOM      2  C   UNL A   1      34.487  24.604  25.592  1.00  0.00     0.188 C 
BRANCH   2   3
ATOM      3  O   UNL A   1      34.413  25.993  25.276  1.00  0.00    -0.376 OA
BRANCH   3   4
ATOM      4  C   UNL A   1      34.059  26.845  26.364  1.00  0.00     0.202 C 
BRANCH   4   5
ATOM      5  C   UNL A   1      33.743  28.318  26.028  1.00  0.00     0.261 C 
BRANCH   5   6
ATOM      6  O   UNL A   1      32.462  28.542  25.390  1.00  0.00    -0.461 OA
BRANCH   6   7
ATOM      7  C   UNL A   1      31.491  27.601  25.572  1.00  0.00     0.334 C 
ATOM      8  O   UNL A   1      31.085  27.278  26.687  1.00  0.00    -0.249 OA
BRANCH   7   9
ATOM      9  C   UNL A   1      31.031  26.889  24.262  1.00  0.00     0.163 C 
ATOM     10  C   UNL A   1      32.045  26.999  23.094  1.00  0.00     0.064 C 
ATOM     11  C   UNL A   1      30.930  25.425  24.757  1.00  0.00     0.064 C 
ATOM     12  C   UNL A   1      31.902  25.896  22.043  1.00  0.00     0.123 C 
ATOM     13  C   UNL A   1      30.831  24.371  23.679  1.00  0.00     0.123 C 
ATOM     14  N   UNL A   1      31.848  24.572  22.654  1.00  0.00    -0.337 N 
ATOM     15  C   UNL A   1      32.767  23.595  22.266  1.00  0.00     0.270 C 
ATOM     16  O   UNL A   1      33.739  23.849  21.560  1.00  0.00    -0.267 OA
BRANCH   9  17
ATOM     17  N   UNL A   1      29.708  27.412  23.832  1.00  0.00    -0.255 N 
ATOM     18  C   UNL A   1      27.267  29.751  22.415  1.00  0.00     0.048 C 
ATOM     19  C   UNL A   1      28.052  28.660  23.033  1.00  0.00    -0.013 A 
ATOM     20  C   UNL A   1      27.607  27.409  23.488  1.00  0.00     0.138 A 
ATOM     21  C   UNL A   1      29.401  28.647  23.317  1.00  0.00     0.113 A 
ATOM     22  N   UNL A   1      28.589  26.682  24.021  1.00  0.00    -0.180 NA
ENDBRANCH   9  17
BRANCH  15  23
ATOM     23  C   UNL A   1      32.564  22.273  22.808  1.00  0.00     0.105 A 
ATOM     24  C   UNL A   1      32.674  21.806  24.107  1.00  0.00     0.042 A 
ATOM     25  N   UNL A   1      32.217  21.199  22.027  1.00  0.00    -0.351 N 
ATOM     26  C   UNL A   1      32.535  20.393  24.078  1.00  0.00     0.000 A 
ATOM     27  C   UNL A   1      32.283  20.034  22.755  1.00  0.00     0.046 A 
ATOM     28  H   UNL A   1      31.957  21.254  21.079  1.00  0.00     0.167 HD
ATOM     29  C   UNL A   1      32.625  19.380  25.052  1.00  0.00     0.010 A 
ATOM     30  C   UNL A   1      32.135  18.705  22.347  1.00  0.00     0.026 A 
ATOM     31  C   UNL A   1      32.474  18.045  24.662  1.00  0.00     0.001 A 
ATOM     32  C   UNL A   1      32.239  17.715  23.328  1.00  0.00     0.002 A 
ENDBRANCH  15  23
ENDBRANCH   7   9
ENDBRANCH   6   7
ENDBRANCH   5   6
ENDBRANCH   4   5
ENDBRANCH   3   4
ENDBRANCH   2   3
ENDBRANCH   1   2
BRANCH   1  33
ATOM     33  O   UNL A   1      36.743  23.550  25.668  1.00  0.00    -0.376 OA
BRANCH  33  34
ATOM     34  C   UNL A   1      37.325  22.245  25.720  1.00  0.00     0.202 C 
BRANCH  34  35
ATOM     35  C   UNL A   1      38.733  21.924  26.241  1.00  0.00     0.261 C 
BRANCH  35  36
ATOM     36  O   UNL A   1      39.618  21.303  25.333  1.00  0.00    -0.460 OA
BRANCH  36  37
ATOM     37  C   UNL A   1      40.519  20.438  25.826  1.00  0.00     0.338 C 
ATOM     38  O   UNL A   1      40.469  19.217  25.817  1.00  0.00    -0.246 OA
BRANCH  37  39
ATOM     39  C   UNL A   1      41.591  21.273  26.391  1.00  0.00     0.060 A 
ATOM     40  C   UNL A   1      41.940  21.029  27.711  1.00  0.00     0.016 A 
ATOM     41  C   UNL A   1      42.031  22.423  25.696  1.00  0.00     0.016 A 
ATOM     42  C   UNL A   1      42.401  22.098  28.434  1.00  0.00     0.010 A 
ATOM     43  C   UNL A   1      42.494  23.487  26.412  1.00  0.00     0.010 A 
ATOM     44  C   UNL A   1      42.513  23.334  27.786  1.00  0.00    -0.014 A 
BRANCH  44  45
ATOM     45  C   UNL A   1      42.486  24.510  28.607  1.00  0.00     0.031 A 
ATOM     46  C   UNL A   1      41.393  25.426  28.294  1.00  0.00     0.074 A 
ATOM     47  C   UNL A   1      43.399  24.708  29.573  1.00  0.00     0.049 A 
ATOM     48  N   UNL A   1      41.487  26.532  27.644  1.00  0.00    -0.248 NA
ATOM     49  C   UNL A   1      40.025  24.977  28.572  1.00  0.00     0.031 C 
ATOM     50  C   UNL A   1      44.345  23.756  30.163  1.00  0.00     0.029 A 
ATOM     51  N   UNL A   1      43.584  25.827  30.310  1.00  0.00    -0.354 N 
ATOM     52  C   UNL A   1      40.196  27.025  27.581  1.00  0.00     0.074 A 
ATOM     53  C   UNL A   1      39.326  25.949  27.986  1.00  0.00     0.031 C 
ATOM     54  C   UNL A   1      44.820  24.277  31.320  1.00  0.00     0.029 A 
ATOM     55  C   UNL A   1      44.312  25.631  31.469  1.00  0.00     0.049 A 
ATOM     56  H   UNL A   1      43.230  26.706  30.043  1.00  0.00     0.167 HD
ATOM     57  C   UNL A   1      39.963  28.356  27.448  1.00  0.00     0.031 A 
ATOM     58  C   UNL A   1      44.379  26.502  32.504  1.00  0.00     0.031 A 
ATOM     59  C   UNL A   1      41.151  29.075  27.058  1.00  0.00     0.049 A 
ATOM     60  C   UNL A   1      43.980  27.840  31.989  1.00  0.00     0.074 A 
ATOM     61  C   UNL A   1      42.002  29.020  25.971  1.00  0.00     0.029 A 
ATOM     62  N   UNL A   1      41.841  29.737  28.048  1.00  0.00    -0.354 N 
ATOM     63  N   UNL A   1      44.702  28.528  31.151  1.00  0.00    -0.248 NA
ATOM     64  C   UNL A   1      42.570  28.209  32.034  1.00  0.00     0.031 C 
ATOM     65  C   UNL A   1      43.304  29.239  26.507  1.00  0.00     0.029 A 
ATOM     66  C   UNL A   1      43.173  29.462  27.879  1.00  0.00     0.049 A 
ATOM     67  H   UNL A   1      41.448  30.304  28.751  1.00  0.00     0.167 HD
ATOM     68  C   UNL A   1      43.789  29.089  30.266  1.00  0.00     0.074 A 
ATOM     69  C   UNL A   1      42.491  28.951  30.924  1.00  0.00     0.031 C 
ATOM     70  C   UNL A   1      44.125  29.339  28.965  1.00  0.00     0.031 A 
BRANCH  57  71
ATOM     71  C   UNL A   1      38.776  29.035  28.066  1.00  0.00    -0.014 A 
ATOM     72  C   UNL A   1      38.558  28.878  29.444  1.00  0.00     0.009 A 
ATOM     73  C   UNL A   1      37.727  29.595  27.312  1.00  0.00     0.009 A 
ATOM     74  C   UNL A   1      37.328  29.207  30.020  1.00  0.00     0.001 A 
ATOM     75  C   UNL A   1      36.514  29.968  27.892  1.00  0.00     0.001 A 
ATOM     76  C   UNL A   1      36.305  29.746  29.244  1.00  0.00     0.000 A 
ENDBRANCH  57  71
BRANCH  58  77
ATOM     77  C   UNL A   1      44.446  26.178  33.946  1.00  0.00    -0.014 A 
ATOM     78  C   UNL A   1      45.684  26.050  34.593  1.00  0.00     0.009 A 
ATOM     79  C   UNL A   1      43.292  26.244  34.751  1.00  0.00     0.009 A 
ATOM     80  C   UNL A   1      45.764  26.027  35.992  1.00  0.00     0.001 A 
ATOM     81  C   UNL A   1      43.371  26.211  36.147  1.00  0.00     0.001 A 
ATOM     82  C   UNL A   1      44.610  26.119  36.768  1.00  0.00     0.000 A 
ENDBRANCH  58  77
BRANCH  70  83
ATOM     83  C   UNL A   1      45.575  29.194  28.568  1.00  0.00    -0.014 A 
ATOM     84  C   UNL A   1      46.138  27.964  28.178  1.00  0.00     0.009 A 
ATOM     85  C   UNL A   1      46.352  30.353  28.421  1.00  0.00     0.009 A 
ATOM     86  C   UNL A   1      47.446  27.895  27.689  1.00  0.00     0.001 A 
ATOM     87  C   UNL A   1      47.650  30.286  27.911  1.00  0.00     0.001 A 
ATOM     88  C   UNL A   1      48.200  29.057  27.550  1.00  0.00     0.000 A 
ENDBRANCH  70  83
ENDBRANCH  44  45
ENDBRANCH  37  39
ENDBRANCH  36  37
ENDBRANCH  35  36
ENDBRANCH  34  35
ENDBRANCH  33  34
ENDBRANCH   1  33
TORSDOF 19
ENDMDL
