MODEL 1
REMARK VINA RESULT:      -9.6      0.000      0.000
REMARK SMILES CC(C)CN(C)c1cc2c(cc1Cl)C=C(C(=O)OCCOCCOCCOC(=O)c1ccc(-c3c4nc(c(-c5ccccc5)c5ccc([nH]5)c(-c5ccccc5)c5nc(c(-c6ccccc6)c6ccc3[nH]6)C=C5)C=C4)cc1)[C@@H](C(F)(F)F)O2
REMARK SMILES IDX 22 1 21 2 20 3 19 4 18 5 16 6 17 7 15 8 7 9 8 10 12 11 9 12
REMARK SMILES IDX 11 13 13 14 10 15 83 16 14 17 78 18 5 19 6 20 4 21 2 22 1 23
REMARK SMILES IDX 3 24 79 25 80 26 81 27 82 28 23 29 24 30 25 31 26 32 27 33
REMARK SMILES IDX 28 34 29 35 30 36 31 37 77 38 32 39 76 40 33 41 34 42 35 43
REMARK SMILES IDX 70 44 36 45 75 46 69 47 71 48 37 49 74 50 68 51 67 52 38 54
REMARK SMILES IDX 60 55 45 56 59 57 46 58 49 59 58 60 72 61 47 62 48 63 57 65
REMARK SMILES IDX 73 66 50 67 39 68 40 69 44 70 41 71 43 72 42 73 61 74 62 75
REMARK SMILES IDX 66 76 63 77 65 78 64 79 51 80 52 81 56 82 53 83 55 84 54 85
REMARK H PARENT 71 53 49 64
REMARK Flexibility Score: inf
ROOT
ATOM      1  C   UNL A   1      40.376  20.879  26.643  1.00  0.00     0.188 C 
ENDROOT
BRANCH   1   2
ATOM      2  O   UNL A   1      39.243  21.269  25.901  1.00  0.00    -0.376 OA
BRANCH   2   3
ATOM      3  C   UNL A   1      38.512  20.355  25.100  1.00  0.00     0.202 C 
BRANCH   3   4
ATOM      4  C   UNL A   1      37.055  20.555  24.662  1.00  0.00     0.261 C 
BRANCH   4   5
ATOM      5  O   UNL A   1      36.565  21.898  24.696  1.00  0.00    -0.460 OA
BRANCH   5   6
ATOM      6  C   UNL A   1      35.495  22.075  25.506  1.00  0.00     0.338 C 
ATOM      7  O   UNL A   1      35.338  21.597  26.618  1.00  0.00    -0.246 OA
BRANCH   6   8
ATOM      8  C   UNL A   1      34.569  23.063  24.928  1.00  0.00     0.087 C 
ATOM      9  C   UNL A   1      31.317  26.872  24.476  1.00  0.00     0.059 A 
ATOM     10  C   UNL A   1      31.748  25.842  23.611  1.00  0.00     0.074 A 
ATOM     11  C   UNL A   1      31.936  26.955  25.742  1.00  0.00     0.065 A 
ATOM     12  C   UNL A   1      32.749  24.940  23.998  1.00  0.00     0.130 A 
ATOM     13  C   UNL A   1      33.005  26.125  26.082  1.00  0.00     0.034 A 
ATOM     14  Cl  UNL A   1      31.365  28.000  26.999  1.00  0.00    -0.082 Cl
ATOM     15  C   UNL A   1      33.402  25.112  25.216  1.00  0.00     0.019 A 
ATOM     16  O   UNL A   1      33.048  23.910  23.142  1.00  0.00    -0.475 OA
ATOM     17  C   UNL A   1      34.443  24.196  25.627  1.00  0.00     0.027 C 
ATOM     18  C   UNL A   1      33.763  22.758  23.695  1.00  0.00     0.316 C 
BRANCH   9  19
ATOM     19  N   UNL A   1      30.279  27.736  24.104  1.00  0.00    -0.373 N 
ATOM     20  C   UNL A   1      29.044  27.089  23.672  1.00  0.00     0.143 C 
BRANCH  19  21
ATOM     21  C   UNL A   1      30.618  29.029  23.477  1.00  0.00     0.119 C 
BRANCH  21  22
ATOM     22  C   UNL A   1      29.372  29.840  23.062  1.00  0.00     0.002 C 
ATOM     23  C   UNL A   1      29.211  31.108  23.905  1.00  0.00     0.009 C 
ATOM     24  C   UNL A   1      29.412  30.231  21.581  1.00  0.00     0.009 C 
ENDBRANCH  21  22
ENDBRANCH  19  21
ENDBRANCH   9  19
BRANCH  18  25
ATOM     25  C   UNL A   1      32.799  21.587  23.937  1.00  0.00     0.430 C 
ATOM     26  F   UNL A   1      32.067  21.769  25.062  1.00  0.00    -0.167 F 
ATOM     27  F   UNL A   1      31.917  21.461  22.915  1.00  0.00    -0.167 F 
ATOM     28  F   UNL A   1      33.448  20.407  24.058  1.00  0.00    -0.167 F 
ENDBRANCH  18  25
ENDBRANCH   6   8
ENDBRANCH   5   6
ENDBRANCH   4   5
ENDBRANCH   3   4
ENDBRANCH   2   3
ENDBRANCH   1   2
BRANCH   1  29
ATOM     29  C   UNL A   1      41.304  19.758  26.126  1.00  0.00     0.188 C 
BRANCH  29  30
ATOM     30  O   UNL A   1      42.678  19.744  26.462  1.00  0.00    -0.376 OA
BRANCH  30  31
ATOM     31  C   UNL A   1      43.632  20.153  25.492  1.00  0.00     0.202 C 
BRANCH  31  32
ATOM     32  C   UNL A   1      43.712  21.619  25.056  1.00  0.00     0.261 C 
BRANCH  32  33
ATOM     33  O   UNL A   1      44.553  22.423  25.897  1.00  0.00    -0.460 OA
BRANCH  33  34
ATOM     34  C   UNL A   1      43.899  23.251  26.747  1.00  0.00     0.338 C 
ATOM     35  O   UNL A   1      43.023  22.958  27.543  1.00  0.00    -0.246 OA
BRANCH  34  36
ATOM     36  C   UNL A   1      44.552  24.574  26.727  1.00  0.00     0.060 A 
ATOM     37  C   UNL A   1      44.936  25.206  27.909  1.00  0.00     0.016 A 
ATOM     38  C   UNL A   1      44.795  25.174  25.483  1.00  0.00     0.016 A 
ATOM     39  C   UNL A   1      45.599  26.434  27.841  1.00  0.00     0.010 A 
ATOM     40  C   UNL A   1      45.441  26.407  25.418  1.00  0.00     0.010 A 
ATOM     41  C   UNL A   1      45.871  27.033  26.596  1.00  0.00    -0.014 A 
BRANCH  41  42
ATOM     42  C   UNL A   1      46.764  28.212  26.526  1.00  0.00     0.031 A 
ATOM     43  C   UNL A   1      48.242  28.079  26.335  1.00  0.00     0.074 A 
ATOM     44  C   UNL A   1      46.204  29.431  26.640  1.00  0.00     0.049 A 
ATOM     45  N   UNL A   1      49.125  29.026  26.134  1.00  0.00    -0.248 NA
ATOM     46  C   UNL A   1      48.807  26.723  26.378  1.00  0.00     0.031 C 
ATOM     47  C   UNL A   1      44.776  29.677  26.855  1.00  0.00     0.029 A 
ATOM     48  N   UNL A   1      46.756  30.685  26.577  1.00  0.00    -0.354 N 
ATOM     49  C   UNL A   1      50.346  28.382  25.997  1.00  0.00     0.074 A 
ATOM     50  C   UNL A   1      50.099  26.967  26.186  1.00  0.00     0.031 C 
ATOM     51  C   UNL A   1      44.560  31.001  26.870  1.00  0.00     0.029 A 
ATOM     52  C   UNL A   1      45.832  31.695  26.689  1.00  0.00     0.049 A 
ATOM     53  H   UNL A   1      47.720  30.845  26.462  1.00  0.00     0.167 HD
ATOM     54  C   UNL A   1      51.555  28.926  25.720  1.00  0.00     0.031 A 
ATOM     55  C   UNL A   1      45.983  33.031  26.637  1.00  0.00     0.031 A 
ATOM     56  C   UNL A   1      51.796  30.338  25.563  1.00  0.00     0.049 A 
ATOM     57  C   UNL A   1      47.344  33.609  26.378  1.00  0.00     0.074 A 
ATOM     58  C   UNL A   1      52.982  30.974  25.235  1.00  0.00     0.029 A 
ATOM     59  N   UNL A   1      50.846  31.333  25.737  1.00  0.00    -0.354 N 
ATOM     60  N   UNL A   1      48.474  32.984  26.157  1.00  0.00    -0.248 NA
ATOM     61  C   UNL A   1      47.449  35.075  26.344  1.00  0.00     0.031 C 
ATOM     62  C   UNL A   1      52.767  32.354  25.280  1.00  0.00     0.029 A 
ATOM     63  C   UNL A   1      51.430  32.578  25.561  1.00  0.00     0.049 A 
ATOM     64  H   UNL A   1      49.898  31.179  25.954  1.00  0.00     0.167 HD
ATOM     65  C   UNL A   1      49.419  33.975  25.934  1.00  0.00     0.074 A 
ATOM     66  C   UNL A   1      48.728  35.245  26.032  1.00  0.00     0.031 C 
ATOM     67  C   UNL A   1      50.741  33.840  25.669  1.00  0.00     0.031 A 
BRANCH  54  68
ATOM     68  C   UNL A   1      52.730  28.003  25.550  1.00  0.00    -0.014 A 
ATOM     69  C   UNL A   1      53.746  27.972  26.519  1.00  0.00     0.009 A 
ATOM     70  C   UNL A   1      52.900  27.270  24.365  1.00  0.00     0.009 A 
ATOM     71  C   UNL A   1      54.917  27.243  26.297  1.00  0.00     0.001 A 
ATOM     72  C   UNL A   1      54.060  26.521  24.157  1.00  0.00     0.001 A 
ATOM     73  C   UNL A   1      55.071  26.517  25.117  1.00  0.00     0.000 A 
ENDBRANCH  54  68
BRANCH  55  74
ATOM     74  C   UNL A   1      44.787  33.901  26.778  1.00  0.00    -0.014 A 
ATOM     75  C   UNL A   1      44.059  34.303  25.646  1.00  0.00     0.009 A 
ATOM     76  C   UNL A   1      44.406  34.383  28.038  1.00  0.00     0.009 A 
ATOM     77  C   UNL A   1      42.989  35.192  25.772  1.00  0.00     0.001 A 
ATOM     78  C   UNL A   1      43.316  35.248  28.164  1.00  0.00     0.001 A 
ATOM     79  C   UNL A   1      42.617  35.659  27.030  1.00  0.00     0.000 A 
ENDBRANCH  55  74
BRANCH  67  80
ATOM     80  C   UNL A   1      51.549  35.091  25.457  1.00  0.00    -0.014 A 
ATOM     81  C   UNL A   1      52.067  35.783  26.565  1.00  0.00     0.009 A 
ATOM     82  C   UNL A   1      51.709  35.643  24.177  1.00  0.00     0.009 A 
ATOM     83  C   UNL A   1      52.712  37.010  26.396  1.00  0.00     0.001 A 
ATOM     84  C   UNL A   1      52.381  36.855  24.009  1.00  0.00     0.001 A 
ATOM     85  C   UNL A   1      52.872  37.543  25.119  1.00  0.00     0.000 A 
ENDBRANCH  67  80
ENDBRANCH  41  42
ENDBRANCH  34  36
ENDBRANCH  33  34
ENDBRANCH  32  33
ENDBRANCH  31  32
ENDBRANCH  30  31
ENDBRANCH  29  30
ENDBRANCH   1  29
TORSDOF 21
ENDMDL
MODEL 2
REMARK VINA RESULT:      -9.5      6.725     10.972
REMARK SMILES CC(C)CN(C)c1cc2c(cc1Cl)C=C(C(=O)OCCOCCOCCOC(=O)c1ccc(-c3c4nc(c(-c5ccccc5)c5ccc([nH]5)c(-c5ccccc5)c5nc(c(-c6ccccc6)c6ccc3[nH]6)C=C5)C=C4)cc1)[C@@H](C(F)(F)F)O2
REMARK SMILES IDX 22 1 21 2 20 3 19 4 18 5 16 6 17 7 15 8 7 9 8 10 12 11 9 12
REMARK SMILES IDX 11 13 13 14 10 15 83 16 14 17 78 18 5 19 6 20 4 21 2 22 1 23
REMARK SMILES IDX 3 24 79 25 80 26 81 27 82 28 23 29 24 30 25 31 26 32 27 33
REMARK SMILES IDX 28 34 29 35 30 36 31 37 77 38 32 39 76 40 33 41 34 42 35 43
REMARK SMILES IDX 70 44 36 45 75 46 69 47 71 48 37 49 74 50 68 51 67 52 38 54
REMARK SMILES IDX 60 55 45 56 59 57 46 58 49 59 58 60 72 61 47 62 48 63 57 65
REMARK SMILES IDX 73 66 50 67 39 68 40 69 44 70 41 71 43 72 42 73 61 74 62 75
REMARK SMILES IDX 66 76 63 77 65 78 64 79 51 80 52 81 56 82 53 83 55 84 54 85
REMARK H PARENT 71 53 49 64
REMARK Flexibility Score: inf
ROOT
ATOM      1  C   UNL A   1      30.138  32.417  25.217  1.00  0.00     0.188 C 
ENDROOT
BRANCH   1   2
ATOM      2  O   UNL A   1      29.434  31.542  24.365  1.00  0.00    -0.376 OA
BRANCH   2   3
ATOM      3  C   UNL A   1      30.014  30.353  23.855  1.00  0.00     0.202 C 
BRANCH   3   4
ATOM      4  C   UNL A   1      29.651  29.717  22.507  1.00  0.00     0.261 C 
BRANCH   4   5
ATOM      5  O   UNL A   1      30.214  28.429  22.246  1.00  0.00    -0.460 OA
BRANCH   5   6
ATOM      6  C   UNL A   1      29.883  27.486  23.158  1.00  0.00     0.338 C 
ATOM      7  O   UNL A   1      28.764  27.241  23.579  1.00  0.00    -0.246 OA
BRANCH   6   8
ATOM      8  C   UNL A   1      31.056  26.661  23.496  1.00  0.00     0.087 C 
ATOM      9  C   UNL A   1      34.016  22.688  24.356  1.00  0.00     0.059 A 
ATOM     10  C   UNL A   1      34.138  24.074  24.599  1.00  0.00     0.074 A 
ATOM     11  C   UNL A   1      32.865  22.252  23.664  1.00  0.00     0.065 A 
ATOM     12  C   UNL A   1      33.154  24.976  24.173  1.00  0.00     0.130 A 
ATOM     13  C   UNL A   1      31.942  23.162  23.146  1.00  0.00     0.034 A 
ATOM     14  Cl  UNL A   1      32.450  20.580  23.493  1.00  0.00    -0.082 Cl
ATOM     15  C   UNL A   1      32.081  24.520  23.411  1.00  0.00     0.019 A 
ATOM     16  O   UNL A   1      33.296  26.293  24.529  1.00  0.00    -0.475 OA
ATOM     17  C   UNL A   1      31.061  25.439  22.954  1.00  0.00     0.027 C 
ATOM     18  C   UNL A   1      32.106  27.145  24.458  1.00  0.00     0.316 C 
BRANCH   9  19
ATOM     19  N   UNL A   1      34.976  21.787  24.832  1.00  0.00    -0.373 N 
ATOM     20  C   UNL A   1      34.719  21.233  26.157  1.00  0.00     0.143 C 
BRANCH  19  21
ATOM     21  C   UNL A   1      36.388  21.977  24.443  1.00  0.00     0.119 C 
BRANCH  21  22
ATOM     22  C   UNL A   1      37.306  22.285  25.645  1.00  0.00     0.002 C 
ATOM     23  C   UNL A   1      38.618  21.499  25.575  1.00  0.00     0.009 C 
ATOM     24  C   UNL A   1      37.628  23.779  25.749  1.00  0.00     0.009 C 
ENDBRANCH  21  22
ENDBRANCH  19  21
ENDBRANCH   9  19
BRANCH  18  25
ATOM     25  C   UNL A   1      31.516  27.369  25.858  1.00  0.00     0.430 C 
ATOM     26  F   UNL A   1      31.090  28.644  26.021  1.00  0.00    -0.167 F 
ATOM     27  F   UNL A   1      30.442  26.569  26.070  1.00  0.00    -0.167 F 
ATOM     28  F   UNL A   1      32.411  27.109  26.837  1.00  0.00    -0.167 F 
ENDBRANCH  18  25
ENDBRANCH   6   8
ENDBRANCH   5   6
ENDBRANCH   4   5
ENDBRANCH   3   4
ENDBRANCH   2   3
ENDBRANCH   1   2
BRANCH   1  29
ATOM     29  C   UNL A   1      31.256  31.884  26.139  1.00  0.00     0.188 C 
BRANCH  29  30
ATOM     30  O   UNL A   1      31.524  32.501  27.383  1.00  0.00    -0.376 OA
BRANCH  30  31
ATOM     31  C   UNL A   1      32.564  33.466  27.467  1.00  0.00     0.202 C 
BRANCH  31  32
ATOM     32  C   UNL A   1      33.980  33.042  27.870  1.00  0.00     0.261 C 
BRANCH  32  33
ATOM     33  O   UNL A   1      34.037  31.754  28.500  1.00  0.00    -0.460 OA
BRANCH  33  34
ATOM     34  C   UNL A   1      34.300  30.715  27.671  1.00  0.00     0.338 C 
ATOM     35  O   UNL A   1      33.685  30.389  26.670  1.00  0.00    -0.246 OA
BRANCH  34  36
ATOM     36  C   UNL A   1      35.599  30.122  28.041  1.00  0.00     0.060 A 
ATOM     37  C   UNL A   1      36.613  29.963  27.096  1.00  0.00     0.016 A 
ATOM     38  C   UNL A   1      35.798  29.739  29.375  1.00  0.00     0.016 A 
ATOM     39  C   UNL A   1      37.847  29.446  27.501  1.00  0.00     0.010 A 
ATOM     40  C   UNL A   1      37.024  29.208  29.773  1.00  0.00     0.010 A 
ATOM     41  C   UNL A   1      38.065  29.083  28.843  1.00  0.00    -0.014 A 
BRANCH  41  42
ATOM     42  C   UNL A   1      39.433  28.751  29.303  1.00  0.00     0.031 A 
ATOM     43  C   UNL A   1      40.194  29.637  30.239  1.00  0.00     0.074 A 
ATOM     44  C   UNL A   1      39.988  27.612  28.848  1.00  0.00     0.049 A 
ATOM     45  N   UNL A   1      41.347  29.410  30.817  1.00  0.00    -0.248 NA
ATOM     46  C   UNL A   1      39.596  30.938  30.568  1.00  0.00     0.031 C 
ATOM     47  C   UNL A   1      39.348  26.686  27.912  1.00  0.00     0.029 A 
ATOM     48  N   UNL A   1      41.200  27.030  29.121  1.00  0.00    -0.354 N 
ATOM     49  C   UNL A   1      41.603  30.525  31.602  1.00  0.00     0.074 A 
ATOM     50  C   UNL A   1      40.507  31.450  31.389  1.00  0.00     0.031 C 
ATOM     51  C   UNL A   1      40.158  25.635  27.715  1.00  0.00     0.029 A 
ATOM     52  C   UNL A   1      41.381  25.823  28.492  1.00  0.00     0.049 A 
ATOM     53  H   UNL A   1      41.874  27.438  29.711  1.00  0.00     0.167 HD
ATOM     54  C   UNL A   1      42.647  30.743  32.436  1.00  0.00     0.031 A 
ATOM     55  C   UNL A   1      42.405  24.952  28.543  1.00  0.00     0.031 A 
ATOM     56  C   UNL A   1      43.747  29.828  32.619  1.00  0.00     0.049 A 
ATOM     57  C   UNL A   1      43.575  25.243  29.438  1.00  0.00     0.074 A 
ATOM     58  C   UNL A   1      44.826  29.947  33.480  1.00  0.00     0.029 A 
ATOM     59  N   UNL A   1      43.921  28.642  31.924  1.00  0.00    -0.354 N 
ATOM     60  N   UNL A   1      43.759  26.257  30.247  1.00  0.00    -0.248 NA
ATOM     61  C   UNL A   1      44.669  24.261  29.443  1.00  0.00     0.031 C 
ATOM     62  C   UNL A   1      45.687  28.870  33.255  1.00  0.00     0.029 A 
ATOM     63  C   UNL A   1      45.109  28.040  32.310  1.00  0.00     0.049 A 
ATOM     64  H   UNL A   1      43.295  28.280  31.255  1.00  0.00     0.167 HD
ATOM     65  C   UNL A   1      44.976  26.026  30.873  1.00  0.00     0.074 A 
ATOM     66  C   UNL A   1      45.481  24.768  30.363  1.00  0.00     0.031 C 
ATOM     67  C   UNL A   1      45.613  26.792  31.792  1.00  0.00     0.031 A 
BRANCH  54  68
ATOM     68  C   UNL A   1      42.666  32.013  33.240  1.00  0.00    -0.014 A 
ATOM     69  C   UNL A   1      43.323  33.150  32.745  1.00  0.00     0.009 A 
ATOM     70  C   UNL A   1      42.154  32.041  34.547  1.00  0.00     0.009 A 
ATOM     71  C   UNL A   1      43.486  34.282  33.546  1.00  0.00     0.001 A 
ATOM     72  C   UNL A   1      42.296  33.183  35.338  1.00  0.00     0.001 A 
ATOM     73  C   UNL A   1      42.971  34.297  34.842  1.00  0.00     0.000 A 
ENDBRANCH  54  68
BRANCH  55  74
ATOM     74  C   UNL A   1      42.327  23.695  27.755  1.00  0.00    -0.014 A 
ATOM     75  C   UNL A   1      41.824  22.519  28.335  1.00  0.00     0.009 A 
ATOM     76  C   UNL A   1      42.814  23.650  26.441  1.00  0.00     0.009 A 
ATOM     77  C   UNL A   1      41.833  21.318  27.623  1.00  0.00     0.001 A 
ATOM     78  C   UNL A   1      42.793  22.454  25.720  1.00  0.00     0.001 A 
ATOM     79  C   UNL A   1      42.314  21.288  26.315  1.00  0.00     0.000 A 
ENDBRANCH  55  74
BRANCH  67  80
ATOM     80  C   UNL A   1      46.932  26.303  32.325  1.00  0.00    -0.014 A 
ATOM     81  C   UNL A   1      46.968  25.540  33.505  1.00  0.00     0.009 A 
ATOM     82  C   UNL A   1      48.142  26.681  31.724  1.00  0.00     0.009 A 
ATOM     83  C   UNL A   1      48.188  25.182  34.081  1.00  0.00     0.001 A 
ATOM     84  C   UNL A   1      49.361  26.296  32.287  1.00  0.00     0.001 A 
ATOM     85  C   UNL A   1      49.383  25.557  33.470  1.00  0.00     0.000 A 
ENDBRANCH  67  80
ENDBRANCH  41  42
ENDBRANCH  34  36
ENDBRANCH  33  34
ENDBRANCH  32  33
ENDBRANCH  31  32
ENDBRANCH  30  31
ENDBRANCH  29  30
ENDBRANCH   1  29
TORSDOF 21
ENDMDL
MODEL 3
REMARK VINA RESULT:      -9.3      7.108     11.112
REMARK SMILES CC(C)CN(C)c1cc2c(cc1Cl)C=C(C(=O)OCCOCCOCCOC(=O)c1ccc(-c3c4nc(c(-c5ccccc5)c5ccc([nH]5)c(-c5ccccc5)c5nc(c(-c6ccccc6)c6ccc3[nH]6)C=C5)C=C4)cc1)[C@@H](C(F)(F)F)O2
REMARK SMILES IDX 22 1 21 2 20 3 19 4 18 5 16 6 17 7 15 8 7 9 8 10 12 11 9 12
REMARK SMILES IDX 11 13 13 14 10 15 83 16 14 17 78 18 5 19 6 20 4 21 2 22 1 23
REMARK SMILES IDX 3 24 79 25 80 26 81 27 82 28 23 29 24 30 25 31 26 32 27 33
REMARK SMILES IDX 28 34 29 35 30 36 31 37 77 38 32 39 76 40 33 41 34 42 35 43
REMARK SMILES IDX 70 44 36 45 75 46 69 47 71 48 37 49 74 50 68 51 67 52 38 54
REMARK SMILES IDX 60 55 45 56 59 57 46 58 49 59 58 60 72 61 47 62 48 63 57 65
REMARK SMILES IDX 73 66 50 67 39 68 40 69 44 70 41 71 43 72 42 73 61 74 62 75
REMARK SMILES IDX 66 76 63 77 65 78 64 79 51 80 52 81 56 82 53 83 55 84 54 85
REMARK H PARENT 71 53 49 64
REMARK Flexibility Score: inf
ROOT
ATOM      1  C   UNL A   1      31.977  30.692  26.528  1.00  0.00     0.188 C 
ENDROOT
BRANCH   1   2
ATOM      2  O   UNL A   1      31.685  29.849  25.436  1.00  0.00    -0.376 OA
BRANCH   2   3
ATOM      3  C   UNL A   1      32.699  29.189  24.697  1.00  0.00     0.202 C 
BRANCH   3   4
ATOM      4  C   UNL A   1      32.625  28.888  23.195  1.00  0.00     0.261 C 
BRANCH   4   5
ATOM      5  O   UNL A   1      32.783  27.517  22.818  1.00  0.00    -0.460 OA
BRANCH   5   6
ATOM      6  C   UNL A   1      31.766  26.715  23.210  1.00  0.00     0.338 C 
ATOM      7  O   UNL A   1      30.573  26.931  23.068  1.00  0.00    -0.246 OA
BRANCH   6   8
ATOM      8  C   UNL A   1      32.285  25.435  23.720  1.00  0.00     0.087 C 
ATOM      9  C   UNL A   1      33.159  20.515  24.279  1.00  0.00     0.059 A 
ATOM     10  C   UNL A   1      33.427  21.655  25.068  1.00  0.00     0.074 A 
ATOM     11  C   UNL A   1      32.576  20.728  23.011  1.00  0.00     0.065 A 
ATOM     12  C   UNL A   1      33.123  22.944  24.609  1.00  0.00     0.130 A 
ATOM     13  C   UNL A   1      32.376  22.016  22.513  1.00  0.00     0.034 A 
ATOM     14  Cl  UNL A   1      31.972  19.438  22.027  1.00  0.00    -0.082 Cl
ATOM     15  C   UNL A   1      32.639  23.121  23.316  1.00  0.00     0.019 A 
ATOM     16  O   UNL A   1      33.325  23.993  25.469  1.00  0.00    -0.475 OA
ATOM     17  C   UNL A   1      32.329  24.445  22.823  1.00  0.00     0.027 C 
ATOM     18  C   UNL A   1      32.641  25.254  25.170  1.00  0.00     0.316 C 
BRANCH   9  19
ATOM     19  N   UNL A   1      33.415  19.227  24.766  1.00  0.00    -0.373 N 
ATOM     20  C   UNL A   1      32.698  18.859  25.984  1.00  0.00     0.143 C 
BRANCH  19  21
ATOM     21  C   UNL A   1      34.757  18.644  24.571  1.00  0.00     0.119 C 
BRANCH  21  22
ATOM     22  C   UNL A   1      34.712  17.197  24.035  1.00  0.00     0.002 C 
ATOM     23  C   UNL A   1      35.057  16.176  25.122  1.00  0.00     0.009 C 
ATOM     24  C   UNL A   1      33.341  16.850  23.445  1.00  0.00     0.009 C 
ENDBRANCH  21  22
ENDBRANCH  19  21
ENDBRANCH   9  19
BRANCH  18  25
ATOM     25  C   UNL A   1      31.410  25.429  26.071  1.00  0.00     0.430 C 
ATOM     26  F   UNL A   1      30.284  24.980  25.468  1.00  0.00    -0.167 F 
ATOM     27  F   UNL A   1      31.543  24.724  27.222  1.00  0.00    -0.167 F 
ATOM     28  F   UNL A   1      31.205  26.721  26.410  1.00  0.00    -0.167 F 
ENDBRANCH  18  25
ENDBRANCH   6   8
ENDBRANCH   5   6
ENDBRANCH   4   5
ENDBRANCH   3   4
ENDBRANCH   2   3
ENDBRANCH   1   2
BRANCH   1  29
ATOM     29  C   UNL A   1      33.396  30.721  27.138  1.00  0.00     0.188 C 
BRANCH  29  30
ATOM     30  O   UNL A   1      33.735  31.665  28.135  1.00  0.00    -0.376 OA
BRANCH  30  31
ATOM     31  C   UNL A   1      33.701  33.050  27.817  1.00  0.00     0.202 C 
BRANCH  31  32
ATOM     32  C   UNL A   1      33.802  34.100  28.928  1.00  0.00     0.261 C 
BRANCH  32  33
ATOM     33  O   UNL A   1      33.761  33.542  30.250  1.00  0.00    -0.460 OA
BRANCH  33  34
ATOM     34  C   UNL A   1      34.420  34.251  31.199  1.00  0.00     0.338 C 
ATOM     35  O   UNL A   1      34.030  35.245  31.788  1.00  0.00    -0.246 OA
BRANCH  34  36
ATOM     36  C   UNL A   1      35.640  33.518  31.585  1.00  0.00     0.060 A 
ATOM     37  C   UNL A   1      35.580  32.420  32.442  1.00  0.00     0.016 A 
ATOM     38  C   UNL A   1      36.865  33.944  31.052  1.00  0.00     0.016 A 
ATOM     39  C   UNL A   1      36.753  31.722  32.740  1.00  0.00     0.010 A 
ATOM     40  C   UNL A   1      38.038  33.257  31.365  1.00  0.00     0.010 A 
ATOM     41  C   UNL A   1      37.985  32.125  32.190  1.00  0.00    -0.014 A 
BRANCH  41  42
ATOM     42  C   UNL A   1      39.174  31.254  32.330  1.00  0.00     0.031 A 
ATOM     43  C   UNL A   1      39.466  30.146  31.368  1.00  0.00     0.074 A 
ATOM     44  C   UNL A   1      40.003  31.486  33.365  1.00  0.00     0.049 A 
ATOM     45  N   UNL A   1      40.530  29.386  31.300  1.00  0.00    -0.248 NA
ATOM     46  C   UNL A   1      38.441  29.845  30.359  1.00  0.00     0.031 C 
ATOM     47  C   UNL A   1      39.803  32.523  34.379  1.00  0.00     0.029 A 
ATOM     48  N   UNL A   1      41.181  30.884  33.728  1.00  0.00    -0.354 N 
ATOM     49  C   UNL A   1      40.320  28.535  30.224  1.00  0.00     0.074 A 
ATOM     50  C   UNL A   1      39.005  28.839  29.698  1.00  0.00     0.031 C 
ATOM     51  C   UNL A   1      40.841  32.508  35.229  1.00  0.00     0.029 A 
ATOM     52  C   UNL A   1      41.766  31.450  34.834  1.00  0.00     0.049 A 
ATOM     53  H   UNL A   1      41.569  30.122  33.241  1.00  0.00     0.167 HD
ATOM     54  C   UNL A   1      41.160  27.602  29.716  1.00  0.00     0.031 A 
ATOM     55  C   UNL A   1      42.924  31.164  35.456  1.00  0.00     0.031 A 
ATOM     56  C   UNL A   1      42.456  27.287  30.265  1.00  0.00     0.049 A 
ATOM     57  C   UNL A   1      43.813  30.089  34.900  1.00  0.00     0.074 A 
ATOM     58  C   UNL A   1      43.393  26.387  29.786  1.00  0.00     0.029 A 
ATOM     59  N   UNL A   1      42.989  27.843  31.417  1.00  0.00    -0.354 N 
ATOM     60  N   UNL A   1      43.645  29.357  33.827  1.00  0.00    -0.248 NA
ATOM     61  C   UNL A   1      45.059  29.813  35.629  1.00  0.00     0.031 C 
ATOM     62  C   UNL A   1      44.462  26.347  30.685  1.00  0.00     0.029 A 
ATOM     63  C   UNL A   1      44.226  27.276  31.685  1.00  0.00     0.049 A 
ATOM     64  H   UNL A   1      42.555  28.537  31.966  1.00  0.00     0.167 HD
ATOM     65  C   UNL A   1      44.771  28.551  33.737  1.00  0.00     0.074 A 
ATOM     66  C   UNL A   1      45.624  28.894  34.857  1.00  0.00     0.031 C 
ATOM     67  C   UNL A   1      45.068  27.613  32.805  1.00  0.00     0.031 A 
BRANCH  54  68
ATOM     68  C   UNL A   1      40.729  26.846  28.490  1.00  0.00    -0.014 A 
ATOM     69  C   UNL A   1      39.944  25.689  28.616  1.00  0.00     0.009 A 
ATOM     70  C   UNL A   1      41.216  27.201  27.222  1.00  0.00     0.009 A 
ATOM     71  C   UNL A   1      39.672  24.891  27.503  1.00  0.00     0.001 A 
ATOM     72  C   UNL A   1      40.922  26.414  26.106  1.00  0.00     0.001 A 
ATOM     73  C   UNL A   1      40.160  25.255  26.249  1.00  0.00     0.000 A 
ENDBRANCH  54  68
BRANCH  55  74
ATOM     74  C   UNL A   1      43.323  31.960  36.645  1.00  0.00    -0.014 A 
ATOM     75  C   UNL A   1      42.886  31.595  37.929  1.00  0.00     0.009 A 
ATOM     76  C   UNL A   1      44.091  33.124  36.494  1.00  0.00     0.009 A 
ATOM     77  C   UNL A   1      43.188  32.393  39.033  1.00  0.00     0.001 A 
ATOM     78  C   UNL A   1      44.417  33.904  37.605  1.00  0.00     0.001 A 
ATOM     79  C   UNL A   1      43.957  33.544  38.871  1.00  0.00     0.000 A 
ENDBRANCH  55  74
BRANCH  67  80
ATOM     80  C   UNL A   1      46.375  26.879  32.936  1.00  0.00    -0.014 A 
ATOM     81  C   UNL A   1      47.532  27.403  32.336  1.00  0.00     0.009 A 
ATOM     82  C   UNL A   1      46.442  25.623  33.558  1.00  0.00     0.009 A 
ATOM     83  C   UNL A   1      48.725  26.677  32.341  1.00  0.00     0.001 A 
ATOM     84  C   UNL A   1      47.644  24.913  33.587  1.00  0.00     0.001 A 
ATOM     85  C   UNL A   1      48.781  25.435  32.969  1.00  0.00     0.000 A 
ENDBRANCH  67  80
ENDBRANCH  41  42
ENDBRANCH  34  36
ENDBRANCH  33  34
ENDBRANCH  32  33
ENDBRANCH  31  32
ENDBRANCH  30  31
ENDBRANCH  29  30
ENDBRANCH   1  29
TORSDOF 21
ENDMDL
