MODEL 1
REMARK VINA RESULT:     -11.3      0.000      0.000
REMARK SMILES COc1ccc(N2C(=O)/C(=C/c3c(C(=O)OCCOCCOCCOC(=O)c4ccc(-c5c6nc(c(-c7ccccc7)c7ccc([nH]7)c(-c7ccccc7)c7nc(c(-c8ccccc8)c8ccc5[nH]8)C=C7)C=C6)cc4)[nH]c4cc(OC)ccc34)SC2=S)cc1
REMARK SMILES IDX 20 1 19 2 18 3 17 4 16 5 14 6 15 7 13 8 12 9 84 10 76 11
REMARK SMILES IDX 77 12 83 13 78 15 82 16 79 17 11 18 7 19 8 20 86 21 9 22
REMARK SMILES IDX 10 23 85 24 87 25 6 26 3 27 4 28 89 29 5 30 88 31 2 32 1 33
REMARK SMILES IDX 80 34 81 35 21 36 22 37 23 38 24 39 25 40 26 41 27 42 28 43
REMARK SMILES IDX 29 44 75 45 30 46 74 47 31 48 32 49 33 50 68 51 34 52 73 53
REMARK SMILES IDX 67 54 69 55 35 56 72 57 66 58 65 59 36 61 58 62 43 63 57 64
REMARK SMILES IDX 44 65 47 66 56 67 70 68 45 69 46 70 55 72 71 73 48 74 37 75
REMARK SMILES IDX 38 76 42 77 39 78 41 79 40 80 59 81 60 82 64 83 61 84 63 85
REMARK SMILES IDX 62 86 49 87 50 88 54 89 51 90 53 91 52 92
REMARK H PARENT 76 14 69 60 47 71
REMARK Flexibility Score: inf
ROOT
ATOM      1  C   UNL A   1      37.799  23.333  25.811  1.00  0.00     0.188 C 
ENDROOT
BRANCH   1   2
ATOM      2  O   UNL A   1      37.048  23.767  24.684  1.00  0.00    -0.376 OA
BRANCH   2   3
ATOM      3  C   UNL A   1      35.627  23.716  24.761  1.00  0.00     0.202 C 
BRANCH   3   4
ATOM      4  C   UNL A   1      34.955  24.797  25.610  1.00  0.00     0.261 C 
BRANCH   4   5
ATOM      5  O   UNL A   1      34.417  25.853  24.793  1.00  0.00    -0.459 OA
BRANCH   5   6
ATOM      6  C   UNL A   1      33.835  26.869  25.490  1.00  0.00     0.355 C 
ATOM      7  O   UNL A   1      34.410  27.582  26.303  1.00  0.00    -0.244 OA
BRANCH   6   8
ATOM      8  C   UNL A   1      32.520  27.171  24.973  1.00  0.00     0.133 A 
ATOM      9  C   UNL A   1      31.501  26.463  24.335  1.00  0.00     0.016 A 
ATOM     10  C   UNL A   1      30.475  27.416  23.981  1.00  0.00     0.008 A 
ATOM     11  N   UNL A   1      32.118  28.488  25.015  1.00  0.00    -0.348 N 
ATOM     12  C   UNL A   1      30.965  28.677  24.310  1.00  0.00     0.050 A 
ATOM     13  C   UNL A   1      29.207  27.358  23.356  1.00  0.00     0.015 A 
ATOM     14  H   UNL A   1      32.601  29.200  25.492  1.00  0.00     0.167 HD
ATOM     15  C   UNL A   1      30.340  29.872  23.941  1.00  0.00     0.073 A 
ATOM     16  C   UNL A   1      28.528  28.551  23.032  1.00  0.00     0.047 A 
ATOM     17  C   UNL A   1      29.108  29.790  23.295  1.00  0.00     0.120 A 
BRANCH   9  18
ATOM     18  C   UNL A   1      31.536  25.084  23.916  1.00  0.00     0.032 C 
ATOM     19  N   UNL A   1      32.505  21.816  25.092  1.00  0.00    -0.261 N 
ATOM     20  C   UNL A   1      31.992  22.643  24.084  1.00  0.00     0.270 C 
ATOM     21  C   UNL A   1      32.497  22.389  26.363  1.00  0.00     0.152 C 
ATOM     22  O   UNL A   1      31.850  22.398  22.892  1.00  0.00    -0.268 OA
ATOM     23  C   UNL A   1      31.612  23.971  24.663  1.00  0.00     0.081 C 
ATOM     24  S   UNL A   1      31.482  23.827  26.361  1.00  0.00    -0.054 SA
ATOM     25  S   UNL A   1      33.367  22.013  27.748  1.00  0.00    -0.051 S 
BRANCH  19  26
ATOM     26  C   UNL A   1      33.024  20.501  24.802  1.00  0.00     0.051 A 
ATOM     27  C   UNL A   1      33.990  17.863  24.304  1.00  0.00     0.119 A 
ATOM     28  C   UNL A   1      34.868  18.905  24.603  1.00  0.00     0.048 A 
ATOM     29  C   UNL A   1      32.633  18.143  24.223  1.00  0.00     0.048 A 
ATOM     30  C   UNL A   1      34.395  20.207  24.846  1.00  0.00     0.030 A 
ATOM     31  C   UNL A   1      32.167  19.446  24.447  1.00  0.00     0.030 A 
BRANCH  27  32
ATOM     32  O   UNL A   1      34.565  16.639  24.106  1.00  0.00    -0.497 OA
ATOM     33  C   UNL A   1      34.900  15.894  25.273  1.00  0.00     0.278 C 
ENDBRANCH  27  32
ENDBRANCH  19  26
ENDBRANCH   9  18
BRANCH  17  34
ATOM     34  O   UNL A   1      28.595  30.984  22.866  1.00  0.00    -0.497 OA
ATOM     35  C   UNL A   1      27.449  31.420  23.586  1.00  0.00     0.278 C 
ENDBRANCH  17  34
ENDBRANCH   6   8
ENDBRANCH   5   6
ENDBRANCH   4   5
ENDBRANCH   3   4
ENDBRANCH   2   3
ENDBRANCH   1   2
BRANCH   1  36
ATOM     36  C   UNL A   1      38.508  21.964  25.769  1.00  0.00     0.188 C 
BRANCH  36  37
ATOM     37  O   UNL A   1      37.908  20.991  24.925  1.00  0.00    -0.376 OA
BRANCH  37  38
ATOM     38  C   UNL A   1      38.517  19.702  24.969  1.00  0.00     0.202 C 
BRANCH  38  39
ATOM     39  C   UNL A   1      39.655  19.614  25.993  1.00  0.00     0.261 C 
BRANCH  39  40
ATOM     40  O   UNL A   1      40.907  19.185  25.435  1.00  0.00    -0.460 OA
BRANCH  40  41
ATOM     41  C   UNL A   1      41.989  19.243  26.244  1.00  0.00     0.338 C 
ATOM     42  O   UNL A   1      42.827  18.376  26.411  1.00  0.00    -0.246 OA
BRANCH  41  43
ATOM     43  C   UNL A   1      42.112  20.636  26.735  1.00  0.00     0.060 A 
ATOM     44  C   UNL A   1      42.438  21.640  25.812  1.00  0.00     0.016 A 
ATOM     45  C   UNL A   1      41.821  20.968  28.063  1.00  0.00     0.016 A 
ATOM     46  C   UNL A   1      42.482  22.974  26.222  1.00  0.00     0.010 A 
ATOM     47  C   UNL A   1      41.881  22.302  28.475  1.00  0.00     0.010 A 
ATOM     48  C   UNL A   1      42.228  23.308  27.561  1.00  0.00    -0.014 A 
BRANCH  48  49
ATOM     49  C   UNL A   1      42.490  24.687  28.035  1.00  0.00     0.031 A 
ATOM     50  C   UNL A   1      43.906  25.074  28.354  1.00  0.00     0.074 A 
ATOM     51  C   UNL A   1      41.500  25.585  28.183  1.00  0.00     0.049 A 
ATOM     52  N   UNL A   1      44.387  26.239  28.708  1.00  0.00    -0.248 NA
ATOM     53  C   UNL A   1      44.912  24.005  28.259  1.00  0.00     0.031 C 
ATOM     54  C   UNL A   1      40.083  25.344  27.918  1.00  0.00     0.029 A 
ATOM     55  N   UNL A   1      41.549  26.892  28.602  1.00  0.00    -0.354 N 
ATOM     56  C   UNL A   1      45.755  26.048  28.849  1.00  0.00     0.074 A 
ATOM     57  C   UNL A   1      46.021  24.651  28.585  1.00  0.00     0.031 C 
ATOM     58  C   UNL A   1      39.394  26.470  28.185  1.00  0.00     0.029 A 
ATOM     59  C   UNL A   1      40.321  27.504  28.644  1.00  0.00     0.049 A 
ATOM     60  H   UNL A   1      42.386  27.347  28.848  1.00  0.00     0.167 HD
ATOM     61  C   UNL A   1      46.709  26.955  29.160  1.00  0.00     0.031 A 
ATOM     62  C   UNL A   1      39.986  28.755  29.014  1.00  0.00     0.031 A 
ATOM     63  C   UNL A   1      46.456  28.333  29.475  1.00  0.00     0.049 A 
ATOM     64  C   UNL A   1      41.058  29.725  29.439  1.00  0.00     0.074 A 
ATOM     65  C   UNL A   1      47.364  29.329  29.784  1.00  0.00     0.029 A 
ATOM     66  N   UNL A   1      45.195  28.901  29.547  1.00  0.00    -0.354 N 
ATOM     67  N   UNL A   1      42.357  29.555  29.485  1.00  0.00    -0.248 NA
ATOM     68  C   UNL A   1      40.612  31.064  29.852  1.00  0.00     0.031 C 
ATOM     69  C   UNL A   1      46.647  30.492  30.090  1.00  0.00     0.029 A 
ATOM     70  C   UNL A   1      45.297  30.228  29.929  1.00  0.00     0.049 A 
ATOM     71  H   UNL A   1      44.350  28.431  29.356  1.00  0.00     0.167 HD
ATOM     72  C   UNL A   1      42.883  30.771  29.908  1.00  0.00     0.074 A 
ATOM     73  C   UNL A   1      41.765  31.672  30.095  1.00  0.00     0.031 C 
ATOM     74  C   UNL A   1      44.178  31.111  30.118  1.00  0.00     0.031 A 
BRANCH  61  75
ATOM     75  C   UNL A   1      48.125  26.461  29.192  1.00  0.00    -0.014 A 
ATOM     76  C   UNL A   1      48.964  26.618  28.077  1.00  0.00     0.009 A 
ATOM     77  C   UNL A   1      48.626  25.840  30.344  1.00  0.00     0.009 A 
ATOM     78  C   UNL A   1      50.271  26.132  28.107  1.00  0.00     0.001 A 
ATOM     79  C   UNL A   1      49.939  25.372  30.377  1.00  0.00     0.001 A 
ATOM     80  C   UNL A   1      50.758  25.511  29.257  1.00  0.00     0.000 A 
ENDBRANCH  61  75
BRANCH  62  81
ATOM     81  C   UNL A   1      38.564  29.182  29.002  1.00  0.00    -0.014 A 
ATOM     82  C   UNL A   1      38.003  29.760  27.854  1.00  0.00     0.009 A 
ATOM     83  C   UNL A   1      37.776  29.054  30.155  1.00  0.00     0.009 A 
ATOM     84  C   UNL A   1      36.685  30.224  27.868  1.00  0.00     0.001 A 
ATOM     85  C   UNL A   1      36.452  29.499  30.160  1.00  0.00     0.001 A 
ATOM     86  C   UNL A   1      35.911  30.091  29.020  1.00  0.00     0.000 A 
ENDBRANCH  62  81
BRANCH  74  87
ATOM     87  C   UNL A   1      44.460  32.522  30.553  1.00  0.00    -0.014 A 
ATOM     88  C   UNL A   1      44.637  33.549  29.614  1.00  0.00     0.009 A 
ATOM     89  C   UNL A   1      44.503  32.833  31.921  1.00  0.00     0.009 A 
ATOM     90  C   UNL A   1      44.882  34.857  30.038  1.00  0.00     0.001 A 
ATOM     91  C   UNL A   1      44.724  34.146  32.341  1.00  0.00     0.001 A 
ATOM     92  C   UNL A   1      44.920  35.154  31.400  1.00  0.00     0.000 A 
ENDBRANCH  74  87
ENDBRANCH  48  49
ENDBRANCH  41  43
ENDBRANCH  40  41
ENDBRANCH  39  40
ENDBRANCH  38  39
ENDBRANCH  37  38
ENDBRANCH  36  37
ENDBRANCH   1  36
TORSDOF 21
ENDMDL
MODEL 2
REMARK VINA RESULT:     -11.0      1.079      5.505
REMARK SMILES COc1ccc(N2C(=O)/C(=C/c3c(C(=O)OCCOCCOCCOC(=O)c4ccc(-c5c6nc(c(-c7ccccc7)c7ccc([nH]7)c(-c7ccccc7)c7nc(c(-c8ccccc8)c8ccc5[nH]8)C=C7)C=C6)cc4)[nH]c4cc(OC)ccc34)SC2=S)cc1
REMARK SMILES IDX 20 1 19 2 18 3 17 4 16 5 14 6 15 7 13 8 12 9 84 10 76 11
REMARK SMILES IDX 77 12 83 13 78 15 82 16 79 17 11 18 7 19 8 20 86 21 9 22
REMARK SMILES IDX 10 23 85 24 87 25 6 26 3 27 4 28 89 29 5 30 88 31 2 32 1 33
REMARK SMILES IDX 80 34 81 35 21 36 22 37 23 38 24 39 25 40 26 41 27 42 28 43
REMARK SMILES IDX 29 44 75 45 30 46 74 47 31 48 32 49 33 50 68 51 34 52 73 53
REMARK SMILES IDX 67 54 69 55 35 56 72 57 66 58 65 59 36 61 58 62 43 63 57 64
REMARK SMILES IDX 44 65 47 66 56 67 70 68 45 69 46 70 55 72 71 73 48 74 37 75
REMARK SMILES IDX 38 76 42 77 39 78 41 79 40 80 59 81 60 82 64 83 61 84 63 85
REMARK SMILES IDX 62 86 49 87 50 88 54 89 51 90 53 91 52 92
REMARK H PARENT 76 14 69 60 47 71
REMARK Flexibility Score: inf
ROOT
ATOM      1  C   UNL A   1      37.130  23.368  25.493  1.00  0.00     0.188 C 
ENDROOT
BRANCH   1   2
ATOM      2  O   UNL A   1      36.559  23.621  24.215  1.00  0.00    -0.376 OA
BRANCH   2   3
ATOM      3  C   UNL A   1      35.182  23.981  24.153  1.00  0.00     0.202 C 
BRANCH   3   4
ATOM      4  C   UNL A   1      34.757  25.184  24.997  1.00  0.00     0.261 C 
BRANCH   4   5
ATOM      5  O   UNL A   1      34.079  26.176  24.204  1.00  0.00    -0.459 OA
BRANCH   5   6
ATOM      6  C   UNL A   1      33.502  27.180  24.921  1.00  0.00     0.355 C 
ATOM      7  O   UNL A   1      34.107  27.972  25.632  1.00  0.00    -0.244 OA
BRANCH   6   8
ATOM      8  C   UNL A   1      32.118  27.358  24.550  1.00  0.00     0.133 A 
ATOM      9  C   UNL A   1      31.077  26.538  24.112  1.00  0.00     0.016 A 
ATOM     10  C   UNL A   1      29.956  27.395  23.805  1.00  0.00     0.008 A 
ATOM     11  N   UNL A   1      31.638  28.650  24.521  1.00  0.00    -0.348 N 
ATOM     12  C   UNL A   1      30.399  28.707  23.952  1.00  0.00     0.050 A 
ATOM     13  C   UNL A   1      28.629  27.207  23.353  1.00  0.00     0.015 A 
ATOM     14  H   UNL A   1      32.128  29.430  24.867  1.00  0.00     0.167 HD
ATOM     15  C   UNL A   1      29.658  29.824  23.558  1.00  0.00     0.073 A 
ATOM     16  C   UNL A   1      27.839  28.325  23.010  1.00  0.00     0.047 A 
ATOM     17  C   UNL A   1      28.365  29.613  23.083  1.00  0.00     0.120 A 
BRANCH   9  18
ATOM     18  C   UNL A   1      31.152  25.128  23.820  1.00  0.00     0.032 C 
ATOM     19  N   UNL A   1      32.307  22.022  25.243  1.00  0.00    -0.261 N 
ATOM     20  C   UNL A   1      31.716  22.732  24.188  1.00  0.00     0.270 C 
ATOM     21  C   UNL A   1      32.331  22.711  26.455  1.00  0.00     0.152 C 
ATOM     22  O   UNL A   1      31.532  22.372  23.032  1.00  0.00    -0.268 OA
ATOM     23  C   UNL A   1      31.307  24.093  24.661  1.00  0.00     0.081 C 
ATOM     24  S   UNL A   1      31.258  24.104  26.370  1.00  0.00    -0.054 SA
ATOM     25  S   UNL A   1      33.275  22.499  27.826  1.00  0.00    -0.051 S 
BRANCH  19  26
ATOM     26  C   UNL A   1      32.867  20.707  25.050  1.00  0.00     0.051 A 
ATOM     27  C   UNL A   1      34.015  18.138  24.578  1.00  0.00     0.119 A 
ATOM     28  C   UNL A   1      32.646  18.283  24.800  1.00  0.00     0.048 A 
ATOM     29  C   UNL A   1      34.817  19.270  24.622  1.00  0.00     0.048 A 
ATOM     30  C   UNL A   1      32.077  19.547  25.035  1.00  0.00     0.030 A 
ATOM     31  C   UNL A   1      34.250  20.527  24.876  1.00  0.00     0.030 A 
BRANCH  27  32
ATOM     32  O   UNL A   1      34.448  16.863  24.342  1.00  0.00    -0.497 OA
ATOM     33  C   UNL A   1      33.491  15.821  24.510  1.00  0.00     0.278 C 
ENDBRANCH  27  32
ENDBRANCH  19  26
ENDBRANCH   9  18
BRANCH  17  34
ATOM     34  O   UNL A   1      27.727  30.729  22.615  1.00  0.00    -0.497 OA
ATOM     35  C   UNL A   1      28.031  31.920  23.330  1.00  0.00     0.278 C 
ENDBRANCH  17  34
ENDBRANCH   6   8
ENDBRANCH   5   6
ENDBRANCH   4   5
ENDBRANCH   3   4
ENDBRANCH   2   3
ENDBRANCH   1   2
BRANCH   1  36
ATOM     36  C   UNL A   1      37.699  21.970  25.806  1.00  0.00     0.188 C 
BRANCH  36  37
ATOM     37  O   UNL A   1      37.879  21.118  24.683  1.00  0.00    -0.376 OA
BRANCH  37  38
ATOM     38  C   UNL A   1      38.344  19.806  24.994  1.00  0.00     0.202 C 
BRANCH  38  39
ATOM     39  C   UNL A   1      39.532  19.808  25.962  1.00  0.00     0.261 C 
BRANCH  39  40
ATOM     40  O   UNL A   1      40.731  19.236  25.414  1.00  0.00    -0.460 OA
BRANCH  40  41
ATOM     41  C   UNL A   1      41.806  19.170  26.231  1.00  0.00     0.338 C 
ATOM     42  O   UNL A   1      42.457  18.178  26.506  1.00  0.00    -0.246 OA
BRANCH  41  43
ATOM     43  C   UNL A   1      42.202  20.556  26.570  1.00  0.00     0.060 A 
ATOM     44  C   UNL A   1      42.509  21.435  25.522  1.00  0.00     0.016 A 
ATOM     45  C   UNL A   1      42.185  21.016  27.892  1.00  0.00     0.016 A 
ATOM     46  C   UNL A   1      42.807  22.771  25.799  1.00  0.00     0.010 A 
ATOM     47  C   UNL A   1      42.498  22.350  28.168  1.00  0.00     0.010 A 
ATOM     48  C   UNL A   1      42.827  23.228  27.125  1.00  0.00    -0.014 A 
BRANCH  48  49
ATOM     49  C   UNL A   1      43.355  24.579  27.428  1.00  0.00     0.031 A 
ATOM     50  C   UNL A   1      42.380  25.657  27.811  1.00  0.00     0.074 A 
ATOM     51  C   UNL A   1      44.670  24.855  27.368  1.00  0.00     0.049 A 
ATOM     52  N   UNL A   1      42.612  26.886  28.192  1.00  0.00    -0.248 NA
ATOM     53  C   UNL A   1      40.955  25.296  27.756  1.00  0.00     0.031 C 
ATOM     54  C   UNL A   1      45.724  23.910  27.005  1.00  0.00     0.029 A 
ATOM     55  N   UNL A   1      45.337  26.030  27.614  1.00  0.00    -0.354 N 
ATOM     56  C   UNL A   1      41.365  27.436  28.452  1.00  0.00     0.074 A 
ATOM     57  C   UNL A   1      40.379  26.424  28.143  1.00  0.00     0.031 C 
ATOM     58  C   UNL A   1      46.910  24.546  27.048  1.00  0.00     0.029 A 
ATOM     59  C   UNL A   1      46.695  25.940  27.435  1.00  0.00     0.049 A 
ATOM     60  H   UNL A   1      44.884  26.858  27.892  1.00  0.00     0.167 HD
ATOM     61  C   UNL A   1      41.062  28.671  28.914  1.00  0.00     0.031 A 
ATOM     62  C   UNL A   1      47.652  26.878  27.567  1.00  0.00     0.031 A 
ATOM     63  C   UNL A   1      42.024  29.704  29.175  1.00  0.00     0.049 A 
ATOM     64  C   UNL A   1      47.282  28.272  28.003  1.00  0.00     0.074 A 
ATOM     65  C   UNL A   1      41.810  30.980  29.665  1.00  0.00     0.029 A 
ATOM     66  N   UNL A   1      43.384  29.586  28.942  1.00  0.00    -0.354 N 
ATOM     67  N   UNL A   1      46.107  28.754  28.327  1.00  0.00    -0.248 NA
ATOM     68  C   UNL A   1      48.379  29.247  28.101  1.00  0.00     0.031 C 
ATOM     69  C   UNL A   1      43.039  31.652  29.682  1.00  0.00     0.029 A 
ATOM     70  C   UNL A   1      44.020  30.778  29.245  1.00  0.00     0.049 A 
ATOM     71  H   UNL A   1      43.833  28.775  28.609  1.00  0.00     0.167 HD
ATOM     72  C   UNL A   1      46.328  30.079  28.689  1.00  0.00     0.074 A 
ATOM     73  C   UNL A   1      47.749  30.322  28.556  1.00  0.00     0.031 C 
ATOM     74  C   UNL A   1      45.432  31.009  29.101  1.00  0.00     0.031 A 
BRANCH  61  75
ATOM     75  C   UNL A   1      39.611  28.969  29.146  1.00  0.00    -0.014 A 
ATOM     76  C   UNL A   1      38.968  28.534  30.317  1.00  0.00     0.009 A 
ATOM     77  C   UNL A   1      38.881  29.691  28.192  1.00  0.00     0.009 A 
ATOM     78  C   UNL A   1      37.611  28.793  30.512  1.00  0.00     0.001 A 
ATOM     79  C   UNL A   1      37.529  29.964  28.399  1.00  0.00     0.001 A 
ATOM     80  C   UNL A   1      36.893  29.509  29.554  1.00  0.00     0.000 A 
ENDBRANCH  61  75
BRANCH  62  81
ATOM     81  C   UNL A   1      49.071  26.542  27.287  1.00  0.00    -0.014 A 
ATOM     82  C   UNL A   1      49.588  26.659  25.988  1.00  0.00     0.009 A 
ATOM     83  C   UNL A   1      49.902  26.062  28.310  1.00  0.00     0.009 A 
ATOM     84  C   UNL A   1      50.903  26.276  25.714  1.00  0.00     0.001 A 
ATOM     85  C   UNL A   1      51.223  25.701  28.037  1.00  0.00     0.001 A 
ATOM     86  C   UNL A   1      51.720  25.800  26.739  1.00  0.00     0.000 A 
ENDBRANCH  62  81
BRANCH  74  87
ATOM     87  C   UNL A   1      45.963  32.369  29.457  1.00  0.00    -0.014 A 
ATOM     88  C   UNL A   1      45.965  33.415  28.522  1.00  0.00     0.009 A 
ATOM     89  C   UNL A   1      46.428  32.617  30.759  1.00  0.00     0.009 A 
ATOM     90  C   UNL A   1      46.448  34.676  28.876  1.00  0.00     0.001 A 
ATOM     91  C   UNL A   1      46.887  33.885  31.116  1.00  0.00     0.001 A 
ATOM     92  C   UNL A   1      46.904  34.911  30.173  1.00  0.00     0.000 A 
ENDBRANCH  74  87
ENDBRANCH  48  49
ENDBRANCH  41  43
ENDBRANCH  40  41
ENDBRANCH  39  40
ENDBRANCH  38  39
ENDBRANCH  37  38
ENDBRANCH  36  37
ENDBRANCH   1  36
TORSDOF 21
ENDMDL
MODEL 3
REMARK VINA RESULT:     -10.1      2.469      8.887
REMARK SMILES COc1ccc(N2C(=O)/C(=C/c3c(C(=O)OCCOCCOCCOC(=O)c4ccc(-c5c6nc(c(-c7ccccc7)c7ccc([nH]7)c(-c7ccccc7)c7nc(c(-c8ccccc8)c8ccc5[nH]8)C=C7)C=C6)cc4)[nH]c4cc(OC)ccc34)SC2=S)cc1
REMARK SMILES IDX 20 1 19 2 18 3 17 4 16 5 14 6 15 7 13 8 12 9 84 10 76 11
REMARK SMILES IDX 77 12 83 13 78 15 82 16 79 17 11 18 7 19 8 20 86 21 9 22
REMARK SMILES IDX 10 23 85 24 87 25 6 26 3 27 4 28 89 29 5 30 88 31 2 32 1 33
REMARK SMILES IDX 80 34 81 35 21 36 22 37 23 38 24 39 25 40 26 41 27 42 28 43
REMARK SMILES IDX 29 44 75 45 30 46 74 47 31 48 32 49 33 50 68 51 34 52 73 53
REMARK SMILES IDX 67 54 69 55 35 56 72 57 66 58 65 59 36 61 58 62 43 63 57 64
REMARK SMILES IDX 44 65 47 66 56 67 70 68 45 69 46 70 55 72 71 73 48 74 37 75
REMARK SMILES IDX 38 76 42 77 39 78 41 79 40 80 59 81 60 82 64 83 61 84 63 85
REMARK SMILES IDX 62 86 49 87 50 88 54 89 51 90 53 91 52 92
REMARK H PARENT 76 14 69 60 47 71
REMARK Flexibility Score: inf
ROOT
ATOM      1  C   UNL A   1      33.414  29.830  26.327  1.00  0.00     0.188 C 
ENDROOT
BRANCH   1   2
ATOM      2  O   UNL A   1      32.964  28.497  26.531  1.00  0.00    -0.376 OA
BRANCH   2   3
ATOM      3  C   UNL A   1      33.755  27.433  26.010  1.00  0.00     0.202 C 
BRANCH   3   4
ATOM      4  C   UNL A   1      33.161  26.028  26.126  1.00  0.00     0.261 C 
BRANCH   4   5
ATOM      5  O   UNL A   1      34.134  25.014  25.812  1.00  0.00    -0.459 OA
BRANCH   5   6
ATOM      6  C   UNL A   1      33.878  23.793  26.360  1.00  0.00     0.355 C 
ATOM      7  O   UNL A   1      33.781  23.568  27.560  1.00  0.00    -0.244 OA
BRANCH   6   8
ATOM      8  C   UNL A   1      33.487  22.838  25.348  1.00  0.00     0.133 A 
ATOM      9  C   UNL A   1      32.535  22.780  24.331  1.00  0.00     0.016 A 
ATOM     10  C   UNL A   1      32.609  21.461  23.749  1.00  0.00     0.008 A 
ATOM     11  N   UNL A   1      34.116  21.613  25.368  1.00  0.00    -0.348 N 
ATOM     12  C   UNL A   1      33.516  20.733  24.514  1.00  0.00     0.050 A 
ATOM     13  C   UNL A   1      31.957  20.777  22.696  1.00  0.00     0.015 A 
ATOM     14  H   UNL A   1      34.898  21.400  25.926  1.00  0.00     0.167 HD
ATOM     15  C   UNL A   1      33.714  19.356  24.381  1.00  0.00     0.073 A 
ATOM     16  C   UNL A   1      32.189  19.399  22.503  1.00  0.00     0.047 A 
ATOM     17  C   UNL A   1      33.034  18.697  23.359  1.00  0.00     0.120 A 
BRANCH   9  18
ATOM     18  C   UNL A   1      31.523  23.764  24.036  1.00  0.00     0.032 C 
ATOM     19  N   UNL A   1      31.162  27.195  22.987  1.00  0.00    -0.261 N 
ATOM     20  C   UNL A   1      30.592  25.979  23.385  1.00  0.00     0.270 C 
ATOM     21  C   UNL A   1      32.494  27.099  22.584  1.00  0.00     0.152 C 
ATOM     22  O   UNL A   1      29.446  25.757  23.757  1.00  0.00    -0.268 OA
ATOM     23  C   UNL A   1      31.618  24.890  23.311  1.00  0.00     0.081 C 
ATOM     24  S   UNL A   1      32.919  25.410  22.332  1.00  0.00    -0.054 SA
ATOM     25  S   UNL A   1      33.694  28.264  22.455  1.00  0.00    -0.051 S 
BRANCH  19  26
ATOM     26  C   UNL A   1      30.420  28.432  23.036  1.00  0.00     0.051 A 
ATOM     27  C   UNL A   1      28.989  30.900  23.037  1.00  0.00     0.119 A 
ATOM     28  C   UNL A   1      29.897  30.596  24.051  1.00  0.00     0.048 A 
ATOM     29  C   UNL A   1      28.772  29.960  22.039  1.00  0.00     0.048 A 
ATOM     30  C   UNL A   1      30.602  29.379  24.055  1.00  0.00     0.030 A 
ATOM     31  C   UNL A   1      29.462  28.741  22.055  1.00  0.00     0.030 A 
BRANCH  27  32
ATOM     32  O   UNL A   1      28.380  32.120  23.132  1.00  0.00    -0.497 OA
ATOM     33  C   UNL A   1      28.275  32.877  21.930  1.00  0.00     0.278 C 
ENDBRANCH  27  32
ENDBRANCH  19  26
ENDBRANCH   9  18
BRANCH  17  34
ATOM     34  O   UNL A   1      33.184  17.336  23.343  1.00  0.00    -0.497 OA
ATOM     35  C   UNL A   1      34.193  16.849  24.218  1.00  0.00     0.278 C 
ENDBRANCH  17  34
ENDBRANCH   6   8
ENDBRANCH   5   6
ENDBRANCH   4   5
ENDBRANCH   3   4
ENDBRANCH   2   3
ENDBRANCH   1   2
BRANCH   1  36
ATOM     36  C   UNL A   1      33.600  30.762  27.542  1.00  0.00     0.188 C 
BRANCH  36  37
ATOM     37  O   UNL A   1      34.912  31.278  27.720  1.00  0.00    -0.376 OA
BRANCH  37  38
ATOM     38  C   UNL A   1      34.969  32.580  28.300  1.00  0.00     0.202 C 
BRANCH  38  39
ATOM     39  C   UNL A   1      34.973  32.552  29.832  1.00  0.00     0.261 C 
BRANCH  39  40
ATOM     40  O   UNL A   1      36.282  32.654  30.414  1.00  0.00    -0.460 OA
BRANCH  40  41
ATOM     41  C   UNL A   1      36.651  31.671  31.266  1.00  0.00     0.338 C 
ATOM     42  O   UNL A   1      36.016  31.245  32.213  1.00  0.00    -0.246 OA
BRANCH  41  43
ATOM     43  C   UNL A   1      37.875  31.037  30.721  1.00  0.00     0.060 A 
ATOM     44  C   UNL A   1      38.782  30.461  31.621  1.00  0.00     0.016 A 
ATOM     45  C   UNL A   1      38.085  30.926  29.342  1.00  0.00     0.016 A 
ATOM     46  C   UNL A   1      39.905  29.784  31.140  1.00  0.00     0.010 A 
ATOM     47  C   UNL A   1      39.216  30.261  28.862  1.00  0.00     0.010 A 
ATOM     48  C   UNL A   1      40.139  29.701  29.759  1.00  0.00    -0.014 A 
BRANCH  48  49
ATOM     49  C   UNL A   1      41.434  29.178  29.264  1.00  0.00     0.031 A 
ATOM     50  C   UNL A   1      42.605  30.117  29.199  1.00  0.00     0.074 A 
ATOM     51  C   UNL A   1      41.579  27.898  28.879  1.00  0.00     0.049 A 
ATOM     52  N   UNL A   1      43.849  29.869  28.877  1.00  0.00    -0.248 NA
ATOM     53  C   UNL A   1      42.335  31.521  29.546  1.00  0.00     0.031 C 
ATOM     54  C   UNL A   1      40.529  26.881  28.882  1.00  0.00     0.029 A 
ATOM     55  N   UNL A   1      42.686  27.239  28.403  1.00  0.00    -0.354 N 
ATOM     56  C   UNL A   1      44.515  31.080  29.011  1.00  0.00     0.074 A 
ATOM     57  C   UNL A   1      43.533  32.068  29.400  1.00  0.00     0.031 C 
ATOM     58  C   UNL A   1      41.044  25.724  28.425  1.00  0.00     0.029 A 
ATOM     59  C   UNL A   1      42.454  25.923  28.092  1.00  0.00     0.049 A 
ATOM     60  H   UNL A   1      43.564  27.671  28.295  1.00  0.00     0.167 HD
ATOM     61  C   UNL A   1      45.829  31.348  28.835  1.00  0.00     0.031 A 
ATOM     62  C   UNL A   1      43.286  24.988  27.594  1.00  0.00     0.031 A 
ATOM     63  C   UNL A   1      46.807  30.391  28.399  1.00  0.00     0.049 A 
ATOM     64  C   UNL A   1      44.728  25.332  27.326  1.00  0.00     0.074 A 
ATOM     65  C   UNL A   1      48.166  30.569  28.212  1.00  0.00     0.029 A 
ATOM     66  N   UNL A   1      46.523  29.081  28.056  1.00  0.00    -0.354 N 
ATOM     67  N   UNL A   1      45.364  26.459  27.538  1.00  0.00    -0.248 NA
ATOM     68  C   UNL A   1      45.568  24.266  26.759  1.00  0.00     0.031 C 
ATOM     69  C   UNL A   1      48.697  29.376  27.708  1.00  0.00     0.029 A 
ATOM     70  C   UNL A   1      47.674  28.445  27.624  1.00  0.00     0.049 A 
ATOM     71  H   UNL A   1      45.632  28.662  28.109  1.00  0.00     0.167 HD
ATOM     72  C   UNL A   1      46.681  26.229  27.153  1.00  0.00     0.074 A 
ATOM     73  C   UNL A   1      46.755  24.854  26.706  1.00  0.00     0.031 C 
ATOM     74  C   UNL A   1      47.734  27.081  27.175  1.00  0.00     0.031 A 
BRANCH  61  75
ATOM     75  C   UNL A   1      46.273  32.755  29.102  1.00  0.00    -0.014 A 
ATOM     76  C   UNL A   1      46.189  33.735  28.099  1.00  0.00     0.009 A 
ATOM     77  C   UNL A   1      46.773  33.107  30.363  1.00  0.00     0.009 A 
ATOM     78  C   UNL A   1      46.628  35.036  28.348  1.00  0.00     0.001 A 
ATOM     79  C   UNL A   1      47.194  34.413  30.614  1.00  0.00     0.001 A 
ATOM     80  C   UNL A   1      47.129  35.374  29.606  1.00  0.00     0.000 A 
ENDBRANCH  61  75
BRANCH  62  81
ATOM     81  C   UNL A   1      42.786  23.619  27.310  1.00  0.00    -0.014 A 
ATOM     82  C   UNL A   1      42.384  23.261  26.014  1.00  0.00     0.009 A 
ATOM     83  C   UNL A   1      42.669  22.678  28.343  1.00  0.00     0.009 A 
ATOM     84  C   UNL A   1      41.850  21.995  25.764  1.00  0.00     0.001 A 
ATOM     85  C   UNL A   1      42.155  21.406  28.086  1.00  0.00     0.001 A 
ATOM     86  C   UNL A   1      41.738  21.068  26.800  1.00  0.00     0.000 A 
ENDBRANCH  62  81
BRANCH  74  87
ATOM     87  C   UNL A   1      49.063  26.546  26.721  1.00  0.00    -0.014 A 
ATOM     88  C   UNL A   1      49.870  25.781  27.579  1.00  0.00     0.009 A 
ATOM     89  C   UNL A   1      49.493  26.773  25.404  1.00  0.00     0.009 A 
ATOM     90  C   UNL A   1      51.094  25.279  27.134  1.00  0.00     0.001 A 
ATOM     91  C   UNL A   1      50.706  26.249  24.956  1.00  0.00     0.001 A 
ATOM     92  C   UNL A   1      51.508  25.510  25.822  1.00  0.00     0.000 A 
ENDBRANCH  74  87
ENDBRANCH  48  49
ENDBRANCH  41  43
ENDBRANCH  40  41
ENDBRANCH  39  40
ENDBRANCH  38  39
ENDBRANCH  37  38
ENDBRANCH  36  37
ENDBRANCH   1  36
TORSDOF 21
ENDMDL
