MODEL 1
REMARK VINA RESULT:      -8.5      0.000      0.000
REMARK SMILES O=C(CCCN1C(=O)/C(=C/c2ccccc2Cl)SC1=S)Nc1cccc(C(=O)OCCOCCOCCOC(=O)c2ccc(-c3c4nc(c(-c5ccccc5)c5ccc([nH]5)c(-c5ccccc5)c5nc(c(-c6ccccc6)c6ccc3[nH]6)C=C5)C=C4)cc2)c1
REMARK SMILES IDX 31 1 30 2 29 3 27 4 28 5 26 6 22 7 23 8 89 9 24 10 25 11
REMARK SMILES IDX 21 12 1 13 2 14 3 16 4 17 5 18 6 19 7 20 19 21 8 22 9 23
REMARK SMILES IDX 18 24 20 25 10 26 11 27 12 28 16 29 13 30 15 31 17 32 14 33
REMARK SMILES IDX 32 34 33 35 34 36 35 37 36 38 37 39 38 40 39 41 40 42 41 43
REMARK SMILES IDX 42 44 88 45 43 46 87 47 44 48 45 49 46 50 81 51 47 52 86 53
REMARK SMILES IDX 80 54 82 55 48 56 85 57 79 58 78 59 49 61 71 62 56 63 70 64
REMARK SMILES IDX 57 65 60 66 69 67 83 68 58 69 59 70 68 72 84 73 61 74 50 75
REMARK SMILES IDX 51 76 55 77 52 78 54 79 53 80 72 81 73 82 77 83 74 84 76 85
REMARK SMILES IDX 75 86 62 87 63 88 67 89 64 90 66 91 65 92
REMARK H PARENT 21 15 82 60 60 71
REMARK Flexibility Score: inf
ROOT
ATOM      1  C   UNL A   1      34.127  35.270  31.990  1.00  0.00     0.202 C 
ENDROOT
BRANCH   1   2
ATOM      2  C   UNL A   1      33.716  34.953  30.544  1.00  0.00     0.261 C 
BRANCH   2   3
ATOM      3  O   UNL A   1      33.988  33.620  30.105  1.00  0.00    -0.460 OA
BRANCH   3   4
ATOM      4  C   UNL A   1      34.918  33.493  29.117  1.00  0.00     0.338 C 
ATOM      5  O   UNL A   1      35.717  34.321  28.744  1.00  0.00    -0.246 OA
BRANCH   4   6
ATOM      6  C   UNL A   1      34.950  32.069  28.713  1.00  0.00     0.062 A 
ATOM      7  C   UNL A   1      36.076  29.934  28.671  1.00  0.00     0.042 A 
ATOM      8  C   UNL A   1      35.164  29.472  27.719  1.00  0.00     0.026 A 
ATOM      9  C   UNL A   1      35.993  31.248  29.131  1.00  0.00     0.041 A 
ATOM     10  C   UNL A   1      34.099  30.286  27.321  1.00  0.00     0.003 A 
ATOM     11  C   UNL A   1      33.978  31.580  27.836  1.00  0.00     0.016 A 
BRANCH   7  12
ATOM     12  N   UNL A   1      37.070  29.062  29.149  1.00  0.00    -0.326 N 
ATOM     13  O   UNL A   1      38.655  29.472  27.500  1.00  0.00    -0.275 OA
ATOM     14  C   UNL A   1      38.262  28.844  28.479  1.00  0.00     0.224 C 
ATOM     15  H   UNL A   1      36.912  28.588  29.997  1.00  0.00     0.169 HD
BRANCH  14  16
ATOM     16  C   UNL A   1      39.099  27.731  29.048  1.00  0.00     0.102 C 
BRANCH  16  17
ATOM     17  C   UNL A   1      39.453  26.639  28.041  1.00  0.00     0.032 C 
BRANCH  17  18
ATOM     18  C   UNL A   1      40.416  25.547  28.525  1.00  0.00     0.128 C 
BRANCH  18  19
ATOM     19  N   UNL A   1      41.681  25.361  27.802  1.00  0.00    -0.293 N 
ATOM     20  C   UNL A   1      42.786  26.158  28.049  1.00  0.00     0.266 C 
ATOM     21  C   UNL A   1      41.913  24.285  26.960  1.00  0.00     0.148 C 
ATOM     22  O   UNL A   1      42.916  26.989  28.936  1.00  0.00    -0.268 OA
ATOM     23  C   UNL A   1      43.858  25.859  27.072  1.00  0.00     0.081 C 
ATOM     24  S   UNL A   1      43.564  24.333  26.352  1.00  0.00    -0.054 SA
ATOM     25  S   UNL A   1      40.847  23.081  26.516  1.00  0.00    -0.052 S 
ATOM     26  C   UNL A   1      44.846  26.732  26.838  1.00  0.00     0.031 C 
BRANCH  26  27
ATOM     27  C   UNL A   1      46.002  26.501  25.964  1.00  0.00    -0.006 A 
ATOM     28  C   UNL A   1      46.129  27.378  24.876  1.00  0.00     0.010 A 
ATOM     29  C   UNL A   1      46.973  25.504  26.147  1.00  0.00     0.048 A 
ATOM     30  C   UNL A   1      47.230  27.303  24.024  1.00  0.00     0.001 A 
ATOM     31  C   UNL A   1      48.086  25.444  25.302  1.00  0.00     0.021 A 
ATOM     32  Cl  UNL A   1      46.833  24.294  27.377  1.00  0.00    -0.084 Cl
ATOM     33  C   UNL A   1      48.219  26.350  24.249  1.00  0.00     0.002 A 
ENDBRANCH  26  27
ENDBRANCH  18  19
ENDBRANCH  17  18
ENDBRANCH  16  17
ENDBRANCH  14  16
ENDBRANCH   7  12
ENDBRANCH   4   6
ENDBRANCH   3   4
ENDBRANCH   2   3
ENDBRANCH   1   2
BRANCH   1  34
ATOM     34  O   UNL A   1      33.702  34.477  33.087  1.00  0.00    -0.376 OA
BRANCH  34  35
ATOM     35  C   UNL A   1      34.613  33.614  33.744  1.00  0.00     0.188 C 
BRANCH  35  36
ATOM     36  C   UNL A   1      35.557  34.147  34.843  1.00  0.00     0.188 C 
BRANCH  36  37
ATOM     37  O   UNL A   1      36.862  34.494  34.457  1.00  0.00    -0.376 OA
BRANCH  37  38
ATOM     38  C   UNL A   1      37.932  33.580  34.613  1.00  0.00     0.202 C 
BRANCH  38  39
ATOM     39  C   UNL A   1      37.828  32.041  34.640  1.00  0.00     0.261 C 
BRANCH  39  40
ATOM     40  O   UNL A   1      37.739  31.336  33.401  1.00  0.00    -0.460 OA
BRANCH  40  41
ATOM     41  C   UNL A   1      38.573  30.277  33.257  1.00  0.00     0.338 C 
ATOM     42  O   UNL A   1      38.379  29.125  33.603  1.00  0.00    -0.246 OA
BRANCH  41  43
ATOM     43  C   UNL A   1      39.731  30.698  32.445  1.00  0.00     0.060 A 
ATOM     44  C   UNL A   1      40.877  31.174  33.097  1.00  0.00     0.016 A 
ATOM     45  C   UNL A   1      39.678  30.641  31.052  1.00  0.00     0.016 A 
ATOM     46  C   UNL A   1      41.975  31.604  32.352  1.00  0.00     0.010 A 
ATOM     47  C   UNL A   1      40.771  31.095  30.308  1.00  0.00     0.010 A 
ATOM     48  C   UNL A   1      41.916  31.598  30.953  1.00  0.00    -0.014 A 
BRANCH  48  49
ATOM     49  C   UNL A   1      42.985  32.250  30.156  1.00  0.00     0.031 A 
ATOM     50  C   UNL A   1      44.266  31.500  29.911  1.00  0.00     0.074 A 
ATOM     51  C   UNL A   1      42.828  33.490  29.659  1.00  0.00     0.049 A 
ATOM     52  N   UNL A   1      45.360  31.898  29.315  1.00  0.00    -0.248 NA
ATOM     53  C   UNL A   1      44.317  30.115  30.408  1.00  0.00     0.031 C 
ATOM     54  C   UNL A   1      41.622  34.307  29.780  1.00  0.00     0.029 A 
ATOM     55  N   UNL A   1      43.705  34.283  28.960  1.00  0.00    -0.354 N 
ATOM     56  C   UNL A   1      46.235  30.820  29.377  1.00  0.00     0.074 A 
ATOM     57  C   UNL A   1      45.551  29.760  30.088  1.00  0.00     0.031 C 
ATOM     58  C   UNL A   1      41.841  35.494  29.188  1.00  0.00     0.029 A 
ATOM     59  C   UNL A   1      43.212  35.535  28.683  1.00  0.00     0.049 A 
ATOM     60  H   UNL A   1      44.600  33.983  28.683  1.00  0.00     0.167 HD
ATOM     61  C   UNL A   1      47.493  30.719  28.887  1.00  0.00     0.031 A 
ATOM     62  C   UNL A   1      43.812  36.602  28.118  1.00  0.00     0.031 A 
ATOM     63  C   UNL A   1      48.183  31.778  28.199  1.00  0.00     0.049 A 
ATOM     64  C   UNL A   1      45.246  36.497  27.667  1.00  0.00     0.074 A 
ATOM     65  C   UNL A   1      49.454  31.765  27.653  1.00  0.00     0.029 A 
ATOM     66  N   UNL A   1      47.664  33.043  27.974  1.00  0.00    -0.354 N 
ATOM     67  N   UNL A   1      46.053  35.464  27.704  1.00  0.00    -0.248 NA
ATOM     68  C   UNL A   1      45.850  37.708  27.089  1.00  0.00     0.031 C 
ATOM     69  C   UNL A   1      49.729  33.044  27.157  1.00  0.00     0.029 A 
ATOM     70  C   UNL A   1      48.603  33.830  27.329  1.00  0.00     0.049 A 
ATOM     71  H   UNL A   1      46.761  33.339  28.235  1.00  0.00     0.167 HD
ATOM     72  C   UNL A   1      47.245  35.892  27.129  1.00  0.00     0.074 A 
ATOM     73  C   UNL A   1      47.050  37.271  26.735  1.00  0.00     0.031 C 
ATOM     74  C   UNL A   1      48.397  35.203  26.941  1.00  0.00     0.031 A 
BRANCH  61  75
ATOM     75  C   UNL A   1      48.225  29.426  29.117  1.00  0.00    -0.014 A 
ATOM     76  C   UNL A   1      48.203  28.392  28.168  1.00  0.00     0.009 A 
ATOM     77  C   UNL A   1      48.978  29.255  30.290  1.00  0.00     0.009 A 
ATOM     78  C   UNL A   1      48.894  27.202  28.403  1.00  0.00     0.001 A 
ATOM     79  C   UNL A   1      49.693  28.077  30.508  1.00  0.00     0.001 A 
ATOM     80  C   UNL A   1      49.643  27.048  29.569  1.00  0.00     0.000 A 
ENDBRANCH  61  75
BRANCH  62  81
ATOM     81  C   UNL A   1      43.073  37.886  27.974  1.00  0.00    -0.014 A 
ATOM     82  C   UNL A   1      43.094  38.845  28.999  1.00  0.00     0.009 A 
ATOM     83  C   UNL A   1      42.310  38.143  26.824  1.00  0.00     0.009 A 
ATOM     84  C   UNL A   1      42.343  40.018  28.887  1.00  0.00     0.001 A 
ATOM     85  C   UNL A   1      41.587  39.332  26.701  1.00  0.00     0.001 A 
ATOM     86  C   UNL A   1      41.595  40.263  27.737  1.00  0.00     0.000 A 
ENDBRANCH  62  81
BRANCH  74  87
ATOM     87  C   UNL A   1      49.526  35.913  26.242  1.00  0.00    -0.014 A 
ATOM     88  C   UNL A   1      50.394  36.772  26.933  1.00  0.00     0.009 A 
ATOM     89  C   UNL A   1      49.749  35.681  24.876  1.00  0.00     0.009 A 
ATOM     90  C   UNL A   1      51.438  37.413  26.262  1.00  0.00     0.001 A 
ATOM     91  C   UNL A   1      50.814  36.296  24.213  1.00  0.00     0.001 A 
ATOM     92  C   UNL A   1      51.650  37.169  24.906  1.00  0.00     0.000 A 
ENDBRANCH  74  87
ENDBRANCH  48  49
ENDBRANCH  41  43
ENDBRANCH  40  41
ENDBRANCH  39  40
ENDBRANCH  38  39
ENDBRANCH  37  38
ENDBRANCH  36  37
ENDBRANCH  35  36
ENDBRANCH  34  35
ENDBRANCH   1  34
TORSDOF 23
ENDMDL
MODEL 2
REMARK VINA RESULT:      -8.2      7.046     11.332
REMARK SMILES O=C(CCCN1C(=O)/C(=C/c2ccccc2Cl)SC1=S)Nc1cccc(C(=O)OCCOCCOCCOC(=O)c2ccc(-c3c4nc(c(-c5ccccc5)c5ccc([nH]5)c(-c5ccccc5)c5nc(c(-c6ccccc6)c6ccc3[nH]6)C=C5)C=C4)cc2)c1
REMARK SMILES IDX 31 1 30 2 29 3 27 4 28 5 26 6 22 7 23 8 89 9 24 10 25 11
REMARK SMILES IDX 21 12 1 13 2 14 3 16 4 17 5 18 6 19 7 20 19 21 8 22 9 23
REMARK SMILES IDX 18 24 20 25 10 26 11 27 12 28 16 29 13 30 15 31 17 32 14 33
REMARK SMILES IDX 32 34 33 35 34 36 35 37 36 38 37 39 38 40 39 41 40 42 41 43
REMARK SMILES IDX 42 44 88 45 43 46 87 47 44 48 45 49 46 50 81 51 47 52 86 53
REMARK SMILES IDX 80 54 82 55 48 56 85 57 79 58 78 59 49 61 71 62 56 63 70 64
REMARK SMILES IDX 57 65 60 66 69 67 83 68 58 69 59 70 68 72 84 73 61 74 50 75
REMARK SMILES IDX 51 76 55 77 52 78 54 79 53 80 72 81 73 82 77 83 74 84 76 85
REMARK SMILES IDX 75 86 62 87 63 88 67 89 64 90 66 91 65 92
REMARK H PARENT 21 15 82 60 60 71
REMARK Flexibility Score: inf
ROOT
ATOM      1  C   UNL A   1      36.239  30.068  29.078  1.00  0.00     0.202 C 
ENDROOT
BRANCH   1   2
ATOM      2  C   UNL A   1      35.576  30.774  27.885  1.00  0.00     0.261 C 
BRANCH   2   3
ATOM      3  O   UNL A   1      34.554  30.028  27.220  1.00  0.00    -0.460 OA
BRANCH   3   4
ATOM      4  C   UNL A   1      33.326  30.616  27.160  1.00  0.00     0.338 C 
ATOM      5  O   UNL A   1      33.011  31.712  27.566  1.00  0.00    -0.246 OA
BRANCH   4   6
ATOM      6  C   UNL A   1      32.468  29.773  26.296  1.00  0.00     0.062 A 
ATOM      7  C   UNL A   1      31.902  27.609  25.390  1.00  0.00     0.042 A 
ATOM      8  C   UNL A   1      31.055  28.220  24.461  1.00  0.00     0.026 A 
ATOM      9  C   UNL A   1      32.641  28.393  26.275  1.00  0.00     0.041 A 
ATOM     10  C   UNL A   1      30.859  29.604  24.502  1.00  0.00     0.003 A 
ATOM     11  C   UNL A   1      31.549  30.381  25.436  1.00  0.00     0.016 A 
BRANCH   7  12
ATOM     12  N   UNL A   1      31.996  26.207  25.414  1.00  0.00    -0.326 N 
ATOM     13  O   UNL A   1      29.980  25.782  26.487  1.00  0.00    -0.275 OA
ATOM     14  C   UNL A   1      31.055  25.401  26.031  1.00  0.00     0.224 C 
ATOM     15  H   UNL A   1      32.764  25.779  24.971  1.00  0.00     0.169 HD
BRANCH  14  16
ATOM     16  C   UNL A   1      31.439  23.949  26.117  1.00  0.00     0.102 C 
BRANCH  16  17
ATOM     17  C   UNL A   1      31.374  23.206  24.784  1.00  0.00     0.032 C 
BRANCH  17  18
ATOM     18  C   UNL A   1      32.672  23.152  23.967  1.00  0.00     0.128 C 
BRANCH  18  19
ATOM     19  N   UNL A   1      33.915  22.779  24.654  1.00  0.00    -0.293 N 
ATOM     20  C   UNL A   1      34.835  23.730  25.064  1.00  0.00     0.266 C 
ATOM     21  C   UNL A   1      34.174  21.490  25.090  1.00  0.00     0.148 C 
ATOM     22  O   UNL A   1      34.703  24.945  25.043  1.00  0.00    -0.268 OA
ATOM     23  C   UNL A   1      36.056  23.068  25.577  1.00  0.00     0.081 C 
ATOM     24  S   UNL A   1      35.704  21.437  25.958  1.00  0.00    -0.054 SA
ATOM     25  S   UNL A   1      33.244  20.123  24.861  1.00  0.00    -0.052 S 
ATOM     26  C   UNL A   1      37.219  23.728  25.659  1.00  0.00     0.031 C 
BRANCH  26  27
ATOM     27  C   UNL A   1      38.462  23.200  26.234  1.00  0.00    -0.006 A 
ATOM     28  C   UNL A   1      38.786  21.882  25.880  1.00  0.00     0.010 A 
ATOM     29  C   UNL A   1      39.334  23.910  27.075  1.00  0.00     0.048 A 
ATOM     30  C   UNL A   1      39.982  21.303  26.303  1.00  0.00     0.001 A 
ATOM     31  C   UNL A   1      40.542  23.334  27.481  1.00  0.00     0.021 A 
ATOM     32  Cl  UNL A   1      38.958  25.490  27.674  1.00  0.00    -0.084 Cl
ATOM     33  C   UNL A   1      40.869  22.035  27.087  1.00  0.00     0.002 A 
ENDBRANCH  26  27
ENDBRANCH  18  19
ENDBRANCH  17  18
ENDBRANCH  16  17
ENDBRANCH  14  16
ENDBRANCH   7  12
ENDBRANCH   4   6
ENDBRANCH   3   4
ENDBRANCH   2   3
ENDBRANCH   1   2
BRANCH   1  34
ATOM     34  O   UNL A   1      36.326  30.672  30.359  1.00  0.00    -0.376 OA
BRANCH  34  35
ATOM     35  C   UNL A   1      35.583  31.842  30.652  1.00  0.00     0.188 C 
BRANCH  35  36
ATOM     36  C   UNL A   1      35.158  32.171  32.098  1.00  0.00     0.188 C 
BRANCH  36  37
ATOM     37  O   UNL A   1      34.124  33.107  32.268  1.00  0.00    -0.376 OA
BRANCH  37  38
ATOM     38  C   UNL A   1      34.309  34.464  31.913  1.00  0.00     0.202 C 
BRANCH  38  39
ATOM     39  C   UNL A   1      35.188  35.494  32.653  1.00  0.00     0.261 C 
BRANCH  39  40
ATOM     40  O   UNL A   1      36.187  35.022  33.559  1.00  0.00    -0.460 OA
BRANCH  40  41
ATOM     41  C   UNL A   1      37.348  34.603  32.999  1.00  0.00     0.338 C 
ATOM     42  O   UNL A   1      37.686  34.692  31.832  1.00  0.00    -0.246 OA
BRANCH  41  43
ATOM     43  C   UNL A   1      38.252  34.152  34.075  1.00  0.00     0.060 A 
ATOM     44  C   UNL A   1      38.265  32.795  34.423  1.00  0.00     0.016 A 
ATOM     45  C   UNL A   1      39.065  35.065  34.747  1.00  0.00     0.016 A 
ATOM     46  C   UNL A   1      39.089  32.347  35.455  1.00  0.00     0.010 A 
ATOM     47  C   UNL A   1      39.873  34.617  35.796  1.00  0.00     0.010 A 
ATOM     48  C   UNL A   1      39.874  33.260  36.170  1.00  0.00    -0.014 A 
BRANCH  48  49
ATOM     49  C   UNL A   1      40.585  32.833  37.400  1.00  0.00     0.031 A 
ATOM     50  C   UNL A   1      42.033  32.439  37.300  1.00  0.00     0.074 A 
ATOM     51  C   UNL A   1      39.959  32.791  38.589  1.00  0.00     0.049 A 
ATOM     52  N   UNL A   1      42.830  31.962  38.221  1.00  0.00    -0.248 NA
ATOM     53  C   UNL A   1      42.666  32.606  35.981  1.00  0.00     0.031 C 
ATOM     54  C   UNL A   1      38.575  33.192  38.835  1.00  0.00     0.029 A 
ATOM     55  N   UNL A   1      40.413  32.374  39.817  1.00  0.00    -0.354 N 
ATOM     56  C   UNL A   1      44.052  31.757  37.593  1.00  0.00     0.074 A 
ATOM     57  C   UNL A   1      43.885  32.142  36.207  1.00  0.00     0.031 C 
ATOM     58  C   UNL A   1      38.287  32.986  40.133  1.00  0.00     0.029 A 
ATOM     59  C   UNL A   1      39.451  32.402  40.797  1.00  0.00     0.049 A 
ATOM     60  H   UNL A   1      41.339  32.082  39.979  1.00  0.00     0.167 HD
ATOM     61  C   UNL A   1      45.209  31.292  38.119  1.00  0.00     0.031 A 
ATOM     62  C   UNL A   1      39.496  31.975  42.075  1.00  0.00     0.031 A 
ATOM     63  C   UNL A   1      45.372  30.888  39.491  1.00  0.00     0.049 A 
ATOM     64  C   UNL A   1      40.767  31.370  42.613  1.00  0.00     0.074 A 
ATOM     65  C   UNL A   1      46.511  30.417  40.120  1.00  0.00     0.029 A 
ATOM     66  N   UNL A   1      44.363  30.895  40.441  1.00  0.00    -0.354 N 
ATOM     67  N   UNL A   1      41.925  31.209  42.017  1.00  0.00    -0.248 NA
ATOM     68  C   UNL A   1      40.738  30.893  44.004  1.00  0.00     0.031 C 
ATOM     69  C   UNL A   1      46.174  30.077  41.435  1.00  0.00     0.029 A 
ATOM     70  C   UNL A   1      44.844  30.404  41.643  1.00  0.00     0.049 A 
ATOM     71  H   UNL A   1      43.440  31.204  40.285  1.00  0.00     0.167 HD
ATOM     72  C   UNL A   1      42.766  30.642  42.969  1.00  0.00     0.074 A 
ATOM     73  C   UNL A   1      41.993  30.505  44.184  1.00  0.00     0.031 C 
ATOM     74  C   UNL A   1      44.065  30.271  42.847  1.00  0.00     0.031 A 
BRANCH  61  75
ATOM     75  C   UNL A   1      46.385  31.152  37.193  1.00  0.00    -0.014 A 
ATOM     76  C   UNL A   1      46.598  29.980  36.451  1.00  0.00     0.009 A 
ATOM     77  C   UNL A   1      47.275  32.227  37.035  1.00  0.00     0.009 A 
ATOM     78  C   UNL A   1      47.696  29.876  35.594  1.00  0.00     0.001 A 
ATOM     79  C   UNL A   1      48.353  32.132  36.155  1.00  0.00     0.001 A 
ATOM     80  C   UNL A   1      48.568  30.953  35.442  1.00  0.00     0.000 A 
ENDBRANCH  61  75
BRANCH  62  81
ATOM     81  C   UNL A   1      38.287  32.065  42.938  1.00  0.00    -0.014 A 
ATOM     82  C   UNL A   1      38.028  33.221  43.691  1.00  0.00     0.009 A 
ATOM     83  C   UNL A   1      37.404  30.978  43.043  1.00  0.00     0.009 A 
ATOM     84  C   UNL A   1      36.929  33.274  44.553  1.00  0.00     0.001 A 
ATOM     85  C   UNL A   1      36.288  31.047  43.879  1.00  0.00     0.001 A 
ATOM     86  C   UNL A   1      36.057  32.190  44.642  1.00  0.00     0.000 A 
ENDBRANCH  62  81
BRANCH  74  87
ATOM     87  C   UNL A   1      44.748  29.720  44.071  1.00  0.00    -0.014 A 
ATOM     88  C   UNL A   1      45.311  30.564  45.040  1.00  0.00     0.009 A 
ATOM     89  C   UNL A   1      44.788  28.332  44.275  1.00  0.00     0.009 A 
ATOM     90  C   UNL A   1      45.933  30.028  46.170  1.00  0.00     0.001 A 
ATOM     91  C   UNL A   1      45.380  27.798  45.422  1.00  0.00     0.001 A 
ATOM     92  C   UNL A   1      45.961  28.647  46.363  1.00  0.00     0.000 A 
ENDBRANCH  74  87
ENDBRANCH  48  49
ENDBRANCH  41  43
ENDBRANCH  40  41
ENDBRANCH  39  40
ENDBRANCH  38  39
ENDBRANCH  37  38
ENDBRANCH  36  37
ENDBRANCH  35  36
ENDBRANCH  34  35
ENDBRANCH   1  34
TORSDOF 23
ENDMDL
MODEL 3
REMARK VINA RESULT:      -8.0      6.193     12.297
REMARK SMILES O=C(CCCN1C(=O)/C(=C/c2ccccc2Cl)SC1=S)Nc1cccc(C(=O)OCCOCCOCCOC(=O)c2ccc(-c3c4nc(c(-c5ccccc5)c5ccc([nH]5)c(-c5ccccc5)c5nc(c(-c6ccccc6)c6ccc3[nH]6)C=C5)C=C4)cc2)c1
REMARK SMILES IDX 31 1 30 2 29 3 27 4 28 5 26 6 22 7 23 8 89 9 24 10 25 11
REMARK SMILES IDX 21 12 1 13 2 14 3 16 4 17 5 18 6 19 7 20 19 21 8 22 9 23
REMARK SMILES IDX 18 24 20 25 10 26 11 27 12 28 16 29 13 30 15 31 17 32 14 33
REMARK SMILES IDX 32 34 33 35 34 36 35 37 36 38 37 39 38 40 39 41 40 42 41 43
REMARK SMILES IDX 42 44 88 45 43 46 87 47 44 48 45 49 46 50 81 51 47 52 86 53
REMARK SMILES IDX 80 54 82 55 48 56 85 57 79 58 78 59 49 61 71 62 56 63 70 64
REMARK SMILES IDX 57 65 60 66 69 67 83 68 58 69 59 70 68 72 84 73 61 74 50 75
REMARK SMILES IDX 51 76 55 77 52 78 54 79 53 80 72 81 73 82 77 83 74 84 76 85
REMARK SMILES IDX 75 86 62 87 63 88 67 89 64 90 66 91 65 92
REMARK H PARENT 21 15 82 60 60 71
REMARK Flexibility Score: inf
ROOT
ATOM      1  C   UNL A   1      43.076  22.998  28.784  1.00  0.00     0.202 C 
ENDROOT
BRANCH   1   2
ATOM      2  C   UNL A   1      43.406  22.445  27.389  1.00  0.00     0.261 C 
BRANCH   2   3
ATOM      3  O   UNL A   1      42.399  22.642  26.394  1.00  0.00    -0.460 OA
BRANCH   3   4
ATOM      4  C   UNL A   1      41.396  21.720  26.367  1.00  0.00     0.338 C 
ATOM      5  O   UNL A   1      41.495  20.517  26.445  1.00  0.00    -0.246 OA
BRANCH   4   6
ATOM      6  C   UNL A   1      40.112  22.453  26.456  1.00  0.00     0.062 A 
ATOM      7  C   UNL A   1      37.727  22.541  26.095  1.00  0.00     0.042 A 
ATOM      8  C   UNL A   1      37.740  23.916  26.346  1.00  0.00     0.026 A 
ATOM      9  C   UNL A   1      38.922  21.823  26.106  1.00  0.00     0.041 A 
ATOM     10  C   UNL A   1      38.930  24.543  26.727  1.00  0.00     0.003 A 
ATOM     11  C   UNL A   1      40.115  23.807  26.805  1.00  0.00     0.016 A 
BRANCH   7  12
ATOM     12  N   UNL A   1      36.503  21.904  25.830  1.00  0.00    -0.326 N 
ATOM     13  O   UNL A   1      36.456  22.272  23.536  1.00  0.00    -0.275 OA
ATOM     14  C   UNL A   1      35.924  21.883  24.573  1.00  0.00     0.224 C 
ATOM     15  H   UNL A   1      36.038  21.451  26.570  1.00  0.00     0.169 HD
BRANCH  14  16
ATOM     16  C   UNL A   1      34.526  21.326  24.541  1.00  0.00     0.102 C 
BRANCH  16  17
ATOM     17  C   UNL A   1      33.446  22.369  24.260  1.00  0.00     0.032 C 
BRANCH  17  18
ATOM     18  C   UNL A   1      33.499  23.653  25.099  1.00  0.00     0.128 C 
BRANCH  18  19
ATOM     19  N   UNL A   1      32.513  24.707  24.825  1.00  0.00    -0.293 N 
ATOM     20  C   UNL A   1      32.726  25.669  23.852  1.00  0.00     0.266 C 
ATOM     21  C   UNL A   1      31.247  24.715  25.388  1.00  0.00     0.148 C 
ATOM     22  O   UNL A   1      33.635  25.709  23.036  1.00  0.00    -0.268 OA
ATOM     23  C   UNL A   1      31.655  26.690  23.904  1.00  0.00     0.081 C 
ATOM     24  S   UNL A   1      30.309  26.063  24.757  1.00  0.00    -0.054 SA
ATOM     25  S   UNL A   1      30.619  23.657  26.515  1.00  0.00    -0.052 S 
ATOM     26  C   UNL A   1      31.828  27.904  23.363  1.00  0.00     0.031 C 
BRANCH  26  27
ATOM     27  C   UNL A   1      30.807  28.955  23.278  1.00  0.00    -0.006 A 
ATOM     28  C   UNL A   1      29.994  28.923  22.135  1.00  0.00     0.010 A 
ATOM     29  C   UNL A   1      30.582  29.950  24.242  1.00  0.00     0.048 A 
ATOM     30  C   UNL A   1      28.940  29.823  21.984  1.00  0.00     0.001 A 
ATOM     31  C   UNL A   1      29.513  30.839  24.097  1.00  0.00     0.021 A 
ATOM     32  Cl  UNL A   1      31.614  30.154  25.617  1.00  0.00    -0.084 Cl
ATOM     33  C   UNL A   1      28.687  30.769  22.974  1.00  0.00     0.002 A 
ENDBRANCH  26  27
ENDBRANCH  18  19
ENDBRANCH  17  18
ENDBRANCH  16  17
ENDBRANCH  14  16
ENDBRANCH   7  12
ENDBRANCH   4   6
ENDBRANCH   3   4
ENDBRANCH   2   3
ENDBRANCH   1   2
BRANCH   1  34
ATOM     34  O   UNL A   1      43.482  24.293  29.197  1.00  0.00    -0.376 OA
BRANCH  34  35
ATOM     35  C   UNL A   1      43.918  25.246  28.243  1.00  0.00     0.188 C 
BRANCH  35  36
ATOM     36  C   UNL A   1      43.102  26.529  27.974  1.00  0.00     0.188 C 
BRANCH  36  37
ATOM     37  O   UNL A   1      41.738  26.505  28.311  1.00  0.00    -0.376 OA
BRANCH  37  38
ATOM     38  C   UNL A   1      41.107  27.646  28.863  1.00  0.00     0.202 C 
BRANCH  38  39
ATOM     39  C   UNL A   1      39.611  28.008  28.757  1.00  0.00     0.261 C 
BRANCH  39  40
ATOM     40  O   UNL A   1      38.968  28.611  29.882  1.00  0.00    -0.460 OA
BRANCH  40  41
ATOM     41  C   UNL A   1      38.560  29.893  29.718  1.00  0.00     0.338 C 
ATOM     42  O   UNL A   1      37.976  30.371  28.762  1.00  0.00    -0.246 OA
BRANCH  41  43
ATOM     43  C   UNL A   1      38.788  30.623  30.980  1.00  0.00     0.060 A 
ATOM     44  C   UNL A   1      38.057  31.793  31.226  1.00  0.00     0.016 A 
ATOM     45  C   UNL A   1      39.729  30.166  31.903  1.00  0.00     0.016 A 
ATOM     46  C   UNL A   1      38.273  32.517  32.399  1.00  0.00     0.010 A 
ATOM     47  C   UNL A   1      39.959  30.906  33.067  1.00  0.00     0.010 A 
ATOM     48  C   UNL A   1      39.249  32.096  33.311  1.00  0.00    -0.014 A 
BRANCH  48  49
ATOM     49  C   UNL A   1      39.637  32.968  34.447  1.00  0.00     0.031 A 
ATOM     50  C   UNL A   1      40.701  34.008  34.231  1.00  0.00     0.074 A 
ATOM     51  C   UNL A   1      39.059  32.840  35.654  1.00  0.00     0.049 A 
ATOM     52  N   UNL A   1      41.253  34.824  35.092  1.00  0.00    -0.248 NA
ATOM     53  C   UNL A   1      41.213  34.144  32.857  1.00  0.00     0.031 C 
ATOM     54  C   UNL A   1      37.982  31.909  35.986  1.00  0.00     0.029 A 
ATOM     55  N   UNL A   1      39.314  33.497  36.834  1.00  0.00    -0.354 N 
ATOM     56  C   UNL A   1      42.185  35.559  34.370  1.00  0.00     0.074 A 
ATOM     57  C   UNL A   1      42.139  35.078  33.005  1.00  0.00     0.031 C 
ATOM     58  C   UNL A   1      37.679  32.043  37.290  1.00  0.00     0.029 A 
ATOM     59  C   UNL A   1      38.565  33.038  37.891  1.00  0.00     0.049 A 
ATOM     60  H   UNL A   1      39.969  34.226  36.914  1.00  0.00     0.167 HD
ATOM     61  C   UNL A   1      43.005  36.546  34.801  1.00  0.00     0.031 A 
ATOM     62  C   UNL A   1      38.615  33.361  39.199  1.00  0.00     0.031 A 
ATOM     63  C   UNL A   1      43.068  37.012  36.162  1.00  0.00     0.049 A 
ATOM     64  C   UNL A   1      39.604  34.395  39.672  1.00  0.00     0.074 A 
ATOM     65  C   UNL A   1      43.858  38.017  36.691  1.00  0.00     0.029 A 
ATOM     66  N   UNL A   1      42.323  36.494  37.209  1.00  0.00    -0.354 N 
ATOM     67  N   UNL A   1      40.460  35.104  38.976  1.00  0.00    -0.248 NA
ATOM     68  C   UNL A   1      39.629  34.675  41.116  1.00  0.00     0.031 C 
ATOM     69  C   UNL A   1      43.638  38.063  38.072  1.00  0.00     0.029 A 
ATOM     70  C   UNL A   1      42.660  37.135  38.389  1.00  0.00     0.049 A 
ATOM     71  H   UNL A   1      41.653  35.776  37.126  1.00  0.00     0.167 HD
ATOM     72  C   UNL A   1      41.100  35.933  39.891  1.00  0.00     0.074 A 
ATOM     73  C   UNL A   1      40.522  35.652  41.188  1.00  0.00     0.031 C 
ATOM     74  C   UNL A   1      42.077  36.848  39.675  1.00  0.00     0.031 A 
BRANCH  61  75
ATOM     75  C   UNL A   1      43.937  37.162  33.795  1.00  0.00    -0.014 A 
ATOM     76  C   UNL A   1      45.183  36.587  33.502  1.00  0.00     0.009 A 
ATOM     77  C   UNL A   1      43.544  38.320  33.104  1.00  0.00     0.009 A 
ATOM     78  C   UNL A   1      46.030  37.176  32.560  1.00  0.00     0.001 A 
ATOM     79  C   UNL A   1      44.379  38.889  32.142  1.00  0.00     0.001 A 
ATOM     80  C   UNL A   1      45.624  38.322  31.877  1.00  0.00     0.000 A 
ENDBRANCH  61  75
BRANCH  62  81
ATOM     81  C   UNL A   1      37.724  32.675  40.173  1.00  0.00    -0.014 A 
ATOM     82  C   UNL A   1      36.408  33.118  40.378  1.00  0.00     0.009 A 
ATOM     83  C   UNL A   1      38.200  31.595  40.935  1.00  0.00     0.009 A 
ATOM     84  C   UNL A   1      35.599  32.514  41.344  1.00  0.00     0.001 A 
ATOM     85  C   UNL A   1      37.377  30.972  41.876  1.00  0.00     0.001 A 
ATOM     86  C   UNL A   1      36.081  31.438  42.088  1.00  0.00     0.000 A 
ENDBRANCH  62  81
BRANCH  74  87
ATOM     87  C   UNL A   1      42.557  37.645  40.859  1.00  0.00    -0.014 A 
ATOM     88  C   UNL A   1      41.833  38.745  41.346  1.00  0.00     0.009 A 
ATOM     89  C   UNL A   1      43.731  37.259  41.524  1.00  0.00     0.009 A 
ATOM     90  C   UNL A   1      42.296  39.463  42.451  1.00  0.00     0.001 A 
ATOM     91  C   UNL A   1      44.175  37.958  42.649  1.00  0.00     0.001 A 
ATOM     92  C   UNL A   1      43.462  39.065  43.104  1.00  0.00     0.000 A 
ENDBRANCH  74  87
ENDBRANCH  48  49
ENDBRANCH  41  43
ENDBRANCH  40  41
ENDBRANCH  39  40
ENDBRANCH  38  39
ENDBRANCH  37  38
ENDBRANCH  36  37
ENDBRANCH  35  36
ENDBRANCH  34  35
ENDBRANCH   1  34
TORSDOF 23
ENDMDL
