MODEL 1
REMARK VINA RESULT:     -10.0      0.000      0.000
REMARK SMILES O=C(OCCOCCOCCOC(=O)c1ccccc1Sc1ccc(S(=O)(=O)N2CCCC2)cc1[N+](=O)[O-])c1ccc(-c2c3nc(c(-c4ccccc4)c4ccc([nH]4)c(-c4ccccc4)c4nc(c(-c5ccccc5)c5ccc2[nH]5)C=C4)C=C3)cc1
REMARK SMILES IDX 8 1 7 2 6 3 5 4 4 5 3 6 2 7 1 8 39 9 40 10 86 11 41 12 85 13
REMARK SMILES IDX 42 14 43 15 44 16 79 17 45 18 84 19 78 20 80 21 46 22 83 23
REMARK SMILES IDX 77 24 76 25 47 27 69 28 54 29 68 30 55 31 58 32 67 33 81 34
REMARK SMILES IDX 56 35 57 36 66 38 82 39 59 40 48 41 49 42 53 43 50 44 52 45
REMARK SMILES IDX 51 46 70 47 71 48 75 49 72 50 74 51 73 52 60 53 61 54 65 55
REMARK SMILES IDX 62 56 64 57 63 58 9 59 10 60 11 61 12 62 13 63 14 64 15 65
REMARK SMILES IDX 16 66 20 67 17 68 19 69 18 70 21 71 22 72 23 73 35 74 24 75
REMARK SMILES IDX 34 76 25 77 36 78 37 79 38 80 26 81 27 82 28 83 29 84 30 85
REMARK SMILES IDX 33 86 31 87 32 88
REMARK H PARENT 80 26 58 37
REMARK Flexibility Score: inf
ROOT
ATOM      1  C   UNL A   1      33.230  22.199  27.551  1.00  0.00     0.188 C 
ENDROOT
BRANCH   1   2
ATOM      2  C   UNL A   1      33.271  21.399  26.252  1.00  0.00     0.188 C 
BRANCH   2   3
ATOM      3  O   UNL A   1      34.588  20.885  26.050  1.00  0.00    -0.376 OA
BRANCH   3   4
ATOM      4  C   UNL A   1      35.080  21.010  24.719  1.00  0.00     0.202 C 
BRANCH   4   5
ATOM      5  C   UNL A   1      36.513  21.518  24.643  1.00  0.00     0.261 C 
BRANCH   5   6
ATOM      6  O   UNL A   1      37.319  21.260  25.807  1.00  0.00    -0.460 OA
BRANCH   6   7
ATOM      7  C   UNL A   1      38.631  21.458  26.062  1.00  0.00     0.338 C 
ATOM      8  O   UNL A   1      39.400  20.512  25.877  1.00  0.00    -0.246 OA
BRANCH   7   9
ATOM      9  C   UNL A   1      39.247  22.750  26.489  1.00  0.00     0.060 A 
ATOM     10  C   UNL A   1      38.775  24.027  26.191  1.00  0.00     0.016 A 
ATOM     11  C   UNL A   1      40.370  22.650  27.332  1.00  0.00     0.016 A 
ATOM     12  C   UNL A   1      39.395  25.168  26.685  1.00  0.00     0.010 A 
ATOM     13  C   UNL A   1      41.014  23.789  27.824  1.00  0.00     0.010 A 
ATOM     14  C   UNL A   1      40.535  25.054  27.475  1.00  0.00    -0.014 A 
BRANCH  14  15
ATOM     15  C   UNL A   1      41.319  26.272  27.727  1.00  0.00     0.031 A 
ATOM     16  C   UNL A   1      40.748  27.282  28.672  1.00  0.00     0.074 A 
ATOM     17  C   UNL A   1      42.575  26.393  27.268  1.00  0.00     0.049 A 
ATOM     18  N   UNL A   1      41.217  28.448  29.014  1.00  0.00    -0.248 NA
ATOM     19  C   UNL A   1      39.496  26.904  29.356  1.00  0.00     0.031 C 
ATOM     20  C   UNL A   1      43.299  25.360  26.529  1.00  0.00     0.029 A 
ATOM     21  N   UNL A   1      43.476  27.419  27.378  1.00  0.00    -0.354 N 
ATOM     22  C   UNL A   1      40.315  28.949  29.942  1.00  0.00     0.074 A 
ATOM     23  C   UNL A   1      39.270  27.967  30.110  1.00  0.00     0.031 C 
ATOM     24  C   UNL A   1      44.528  25.815  26.242  1.00  0.00     0.029 A 
ATOM     25  C   UNL A   1      44.640  27.191  26.687  1.00  0.00     0.049 A 
ATOM     26  H   UNL A   1      43.305  28.236  27.900  1.00  0.00     0.167 HD
ATOM     27  C   UNL A   1      40.364  30.135  30.585  1.00  0.00     0.031 A 
ATOM     28  C   UNL A   1      45.653  28.024  26.387  1.00  0.00     0.031 A 
ATOM     29  C   UNL A   1      41.408  31.097  30.378  1.00  0.00     0.049 A 
ATOM     30  C   UNL A   1      45.584  29.412  26.943  1.00  0.00     0.074 A 
ATOM     31  C   UNL A   1      41.538  32.363  30.913  1.00  0.00     0.029 A 
ATOM     32  N   UNL A   1      42.506  30.889  29.553  1.00  0.00    -0.354 N 
ATOM     33  N   UNL A   1      44.691  29.922  27.759  1.00  0.00    -0.248 NA
ATOM     34  C   UNL A   1      46.647  30.340  26.549  1.00  0.00     0.031 C 
ATOM     35  C   UNL A   1      42.684  32.946  30.361  1.00  0.00     0.029 A 
ATOM     36  C   UNL A   1      43.300  32.020  29.530  1.00  0.00     0.049 A 
ATOM     37  H   UNL A   1      42.692  30.059  29.058  1.00  0.00     0.167 HD
ATOM     38  C   UNL A   1      45.098  31.222  27.999  1.00  0.00     0.074 A 
ATOM     39  C   UNL A   1      46.328  31.416  27.253  1.00  0.00     0.031 C 
ATOM     40  C   UNL A   1      44.513  32.171  28.770  1.00  0.00     0.031 A 
BRANCH  27  41
ATOM     41  C   UNL A   1      39.206  30.473  31.474  1.00  0.00    -0.014 A 
ATOM     42  C   UNL A   1      39.258  30.290  32.865  1.00  0.00     0.009 A 
ATOM     43  C   UNL A   1      38.024  30.962  30.896  1.00  0.00     0.009 A 
ATOM     44  C   UNL A   1      38.139  30.566  33.654  1.00  0.00     0.001 A 
ATOM     45  C   UNL A   1      36.916  31.257  31.689  1.00  0.00     0.001 A 
ATOM     46  C   UNL A   1      36.972  31.053  33.067  1.00  0.00     0.000 A 
ENDBRANCH  27  41
BRANCH  28  47
ATOM     47  C   UNL A   1      46.726  27.608  25.442  1.00  0.00    -0.014 A 
ATOM     48  C   UNL A   1      47.831  26.859  25.866  1.00  0.00     0.009 A 
ATOM     49  C   UNL A   1      46.661  28.005  24.093  1.00  0.00     0.009 A 
ATOM     50  C   UNL A   1      48.860  26.545  24.972  1.00  0.00     0.001 A 
ATOM     51  C   UNL A   1      47.674  27.665  23.195  1.00  0.00     0.001 A 
ATOM     52  C   UNL A   1      48.781  26.946  23.638  1.00  0.00     0.000 A 
ENDBRANCH  28  47
BRANCH  40  53
ATOM     53  C   UNL A   1      45.228  33.483  28.860  1.00  0.00    -0.014 A 
ATOM     54  C   UNL A   1      46.207  33.710  29.837  1.00  0.00     0.009 A 
ATOM     55  C   UNL A   1      44.931  34.492  27.931  1.00  0.00     0.009 A 
ATOM     56  C   UNL A   1      46.855  34.942  29.902  1.00  0.00     0.001 A 
ATOM     57  C   UNL A   1      45.605  35.710  27.980  1.00  0.00     0.001 A 
ATOM     58  C   UNL A   1      46.559  35.937  28.971  1.00  0.00     0.000 A 
ENDBRANCH  40  53
ENDBRANCH  14  15
ENDBRANCH   7   9
ENDBRANCH   6   7
ENDBRANCH   5   6
ENDBRANCH   4   5
ENDBRANCH   3   4
ENDBRANCH   2   3
ENDBRANCH   1   2
BRANCH   1  59
ATOM     59  O   UNL A   1      32.384  23.345  27.529  1.00  0.00    -0.376 OA
BRANCH  59  60
ATOM     60  C   UNL A   1      31.443  23.425  26.476  1.00  0.00     0.202 C 
BRANCH  60  61
ATOM     61  C   UNL A   1      31.370  24.649  25.568  1.00  0.00     0.261 C 
BRANCH  61  62
ATOM     62  O   UNL A   1      31.906  24.636  24.252  1.00  0.00    -0.460 OA
BRANCH  62  63
ATOM     63  C   UNL A   1      33.215  24.977  24.234  1.00  0.00     0.339 C 
ATOM     64  O   UNL A   1      34.165  24.298  24.581  1.00  0.00    -0.246 OA
BRANCH  63  65
ATOM     65  C   UNL A   1      33.376  26.361  23.816  1.00  0.00     0.074 A 
ATOM     66  C   UNL A   1      33.104  26.617  22.458  1.00  0.00     0.017 A 
ATOM     67  C   UNL A   1      33.908  27.343  24.669  1.00  0.00     0.027 A 
ATOM     68  C   UNL A   1      33.390  27.862  21.911  1.00  0.00     0.001 A 
ATOM     69  C   UNL A   1      34.238  28.574  24.064  1.00  0.00     0.016 A 
ATOM     70  C   UNL A   1      33.981  28.833  22.710  1.00  0.00     0.001 A 
BRANCH  67  71
ATOM     71  S   UNL A   1      34.057  27.369  26.467  1.00  0.00    -0.082 SA
BRANCH  71  72
ATOM     72  C   UNL A   1      34.064  29.032  27.114  1.00  0.00     0.090 A 
ATOM     73  C   UNL A   1      35.212  29.380  27.866  1.00  0.00     0.024 A 
ATOM     74  C   UNL A   1      33.067  30.017  26.992  1.00  0.00     0.284 A 
ATOM     75  C   UNL A   1      35.427  30.695  28.328  1.00  0.00     0.023 A 
ATOM     76  C   UNL A   1      33.299  31.349  27.426  1.00  0.00     0.108 A 
ATOM     77  C   UNL A   1      34.495  31.703  28.045  1.00  0.00     0.089 A 
BRANCH  74  78
ATOM     78  N   UNL A   1      31.759  29.741  26.374  1.00  0.00     0.063 N 
ATOM     79  O   UNL A   1      31.321  28.583  26.458  1.00  0.00    -0.258 OA
ATOM     80  O   UNL A   1      31.205  30.640  25.731  1.00  0.00    -0.258 OA
ENDBRANCH  74  78
BRANCH  77  81
ATOM     81  S   UNL A   1      34.936  33.400  28.440  1.00  0.00     0.243 S 
ATOM     82  O   UNL A   1      36.287  33.333  28.927  1.00  0.00    -0.207 OA
ATOM     83  O   UNL A   1      34.603  34.168  27.244  1.00  0.00    -0.207 OA
BRANCH  81  84
ATOM     84  N   UNL A   1      33.971  33.975  29.677  1.00  0.00    -0.198 NA
ATOM     85  C   UNL A   1      33.157  35.188  29.555  1.00  0.00     0.102 C 
ATOM     86  C   UNL A   1      34.138  33.698  31.106  1.00  0.00     0.102 C 
ATOM     87  C   UNL A   1      33.432  35.969  30.849  1.00  0.00     0.018 C 
ATOM     88  C   UNL A   1      34.337  35.079  31.698  1.00  0.00     0.018 C 
ENDBRANCH  81  84
ENDBRANCH  77  81
ENDBRANCH  71  72
ENDBRANCH  67  71
ENDBRANCH  63  65
ENDBRANCH  62  63
ENDBRANCH  61  62
ENDBRANCH  60  61
ENDBRANCH  59  60
ENDBRANCH   1  59
TORSDOF 22
ENDMDL
MODEL 2
REMARK VINA RESULT:      -9.9      4.007      8.526
REMARK SMILES O=C(OCCOCCOCCOC(=O)c1ccccc1Sc1ccc(S(=O)(=O)N2CCCC2)cc1[N+](=O)[O-])c1ccc(-c2c3nc(c(-c4ccccc4)c4ccc([nH]4)c(-c4ccccc4)c4nc(c(-c5ccccc5)c5ccc2[nH]5)C=C4)C=C3)cc1
REMARK SMILES IDX 8 1 7 2 6 3 5 4 4 5 3 6 2 7 1 8 39 9 40 10 86 11 41 12 85 13
REMARK SMILES IDX 42 14 43 15 44 16 79 17 45 18 84 19 78 20 80 21 46 22 83 23
REMARK SMILES IDX 77 24 76 25 47 27 69 28 54 29 68 30 55 31 58 32 67 33 81 34
REMARK SMILES IDX 56 35 57 36 66 38 82 39 59 40 48 41 49 42 53 43 50 44 52 45
REMARK SMILES IDX 51 46 70 47 71 48 75 49 72 50 74 51 73 52 60 53 61 54 65 55
REMARK SMILES IDX 62 56 64 57 63 58 9 59 10 60 11 61 12 62 13 63 14 64 15 65
REMARK SMILES IDX 16 66 20 67 17 68 19 69 18 70 21 71 22 72 23 73 35 74 24 75
REMARK SMILES IDX 34 76 25 77 36 78 37 79 38 80 26 81 27 82 28 83 29 84 30 85
REMARK SMILES IDX 33 86 31 87 32 88
REMARK H PARENT 80 26 58 37
REMARK Flexibility Score: inf
ROOT
ATOM      1  C   UNL A   1      31.891  28.626  26.493  1.00  0.00     0.188 C 
ENDROOT
BRANCH   1   2
ATOM      2  C   UNL A   1      31.949  30.010  27.133  1.00  0.00     0.188 C 
BRANCH   2   3
ATOM      3  O   UNL A   1      31.775  31.009  26.126  1.00  0.00    -0.376 OA
BRANCH   3   4
ATOM      4  C   UNL A   1      31.099  32.184  26.562  1.00  0.00     0.202 C 
BRANCH   4   5
ATOM      5  C   UNL A   1      31.998  33.410  26.647  1.00  0.00     0.261 C 
BRANCH   5   6
ATOM      6  O   UNL A   1      32.400  33.784  27.977  1.00  0.00    -0.460 OA
BRANCH   6   7
ATOM      7  C   UNL A   1      33.475  34.459  28.441  1.00  0.00     0.338 C 
ATOM      8  O   UNL A   1      33.467  35.688  28.342  1.00  0.00    -0.246 OA
BRANCH   7   9
ATOM      9  C   UNL A   1      34.653  33.849  29.128  1.00  0.00     0.060 A 
ATOM     10  C   UNL A   1      35.986  34.228  28.975  1.00  0.00     0.016 A 
ATOM     11  C   UNL A   1      34.366  32.843  30.071  1.00  0.00     0.016 A 
ATOM     12  C   UNL A   1      37.004  33.627  29.705  1.00  0.00     0.010 A 
ATOM     13  C   UNL A   1      35.380  32.219  30.801  1.00  0.00     0.010 A 
ATOM     14  C   UNL A   1      36.709  32.599  30.595  1.00  0.00    -0.014 A 
BRANCH  14  15
ATOM     15  C   UNL A   1      37.829  31.803  31.119  1.00  0.00     0.031 A 
ATOM     16  C   UNL A   1      38.272  32.069  32.523  1.00  0.00     0.074 A 
ATOM     17  C   UNL A   1      38.318  30.761  30.428  1.00  0.00     0.049 A 
ATOM     18  N   UNL A   1      39.260  31.542  33.188  1.00  0.00    -0.248 NA
ATOM     19  C   UNL A   1      37.461  33.030  33.294  1.00  0.00     0.031 C 
ATOM     20  C   UNL A   1      37.795  30.285  29.149  1.00  0.00     0.029 A 
ATOM     21  N   UNL A   1      39.340  29.895  30.714  1.00  0.00    -0.354 N 
ATOM     22  C   UNL A   1      39.199  32.114  34.451  1.00  0.00     0.074 A 
ATOM     23  C   UNL A   1      38.083  33.030  34.462  1.00  0.00     0.031 C 
ATOM     24  C   UNL A   1      38.513  29.221  28.757  1.00  0.00     0.029 A 
ATOM     25  C   UNL A   1      39.594  29.005  29.700  1.00  0.00     0.049 A 
ATOM     26  H   UNL A   1      39.841  29.910  31.562  1.00  0.00     0.167 HD
ATOM     27  C   UNL A   1      40.019  31.891  35.500  1.00  0.00     0.031 A 
ATOM     28  C   UNL A   1      40.623  28.159  29.521  1.00  0.00     0.031 A 
ATOM     29  C   UNL A   1      41.133  30.988  35.446  1.00  0.00     0.049 A 
ATOM     30  C   UNL A   1      41.642  28.079  30.614  1.00  0.00     0.074 A 
ATOM     31  C   UNL A   1      42.081  30.724  36.415  1.00  0.00     0.029 A 
ATOM     32  N   UNL A   1      41.447  30.203  34.345  1.00  0.00    -0.354 N 
ATOM     33  N   UNL A   1      41.635  28.679  31.782  1.00  0.00    -0.248 NA
ATOM     34  C   UNL A   1      42.803  27.217  30.380  1.00  0.00     0.031 C 
ATOM     35  C   UNL A   1      43.008  29.826  35.874  1.00  0.00     0.029 A 
ATOM     36  C   UNL A   1      42.601  29.484  34.592  1.00  0.00     0.049 A 
ATOM     37  H   UNL A   1      40.926  30.166  33.510  1.00  0.00     0.167 HD
ATOM     38  C   UNL A   1      42.775  28.246  32.435  1.00  0.00     0.074 A 
ATOM     39  C   UNL A   1      43.442  27.321  31.536  1.00  0.00     0.031 C 
ATOM     40  C   UNL A   1      43.231  28.578  33.667  1.00  0.00     0.031 A 
BRANCH  27  41
ATOM     41  C   UNL A   1      39.787  32.715  36.730  1.00  0.00    -0.014 A 
ATOM     42  C   UNL A   1      40.683  33.717  37.133  1.00  0.00     0.009 A 
ATOM     43  C   UNL A   1      38.653  32.459  37.517  1.00  0.00     0.009 A 
ATOM     44  C   UNL A   1      40.460  34.428  38.315  1.00  0.00     0.001 A 
ATOM     45  C   UNL A   1      38.422  33.185  38.685  1.00  0.00     0.001 A 
ATOM     46  C   UNL A   1      39.329  34.164  39.087  1.00  0.00     0.000 A 
ENDBRANCH  27  41
BRANCH  28  47
ATOM     47  C   UNL A   1      40.794  27.431  28.232  1.00  0.00    -0.014 A 
ATOM     48  C   UNL A   1      41.471  28.005  27.148  1.00  0.00     0.009 A 
ATOM     49  C   UNL A   1      40.234  26.151  28.072  1.00  0.00     0.009 A 
ATOM     50  C   UNL A   1      41.555  27.329  25.926  1.00  0.00     0.001 A 
ATOM     51  C   UNL A   1      40.344  25.464  26.862  1.00  0.00     0.001 A 
ATOM     52  C   UNL A   1      40.993  26.060  25.784  1.00  0.00     0.000 A 
ENDBRANCH  28  47
BRANCH  40  53
ATOM     53  C   UNL A   1      44.491  27.902  34.112  1.00  0.00    -0.014 A 
ATOM     54  C   UNL A   1      45.745  28.487  33.892  1.00  0.00     0.009 A 
ATOM     55  C   UNL A   1      44.409  26.674  34.786  1.00  0.00     0.009 A 
ATOM     56  C   UNL A   1      46.903  27.835  34.312  1.00  0.00     0.001 A 
ATOM     57  C   UNL A   1      45.566  26.042  35.234  1.00  0.00     0.001 A 
ATOM     58  C   UNL A   1      46.812  26.618  34.988  1.00  0.00     0.000 A 
ENDBRANCH  40  53
ENDBRANCH  14  15
ENDBRANCH   7   9
ENDBRANCH   6   7
ENDBRANCH   5   6
ENDBRANCH   4   5
ENDBRANCH   3   4
ENDBRANCH   2   3
ENDBRANCH   1   2
BRANCH   1  59
ATOM     59  O   UNL A   1      32.903  27.719  26.922  1.00  0.00    -0.376 OA
BRANCH  59  60
ATOM     60  C   UNL A   1      34.054  27.613  26.107  1.00  0.00     0.202 C 
BRANCH  60  61
ATOM     61  C   UNL A   1      34.328  26.360  25.280  1.00  0.00     0.261 C 
BRANCH  61  62
ATOM     62  O   UNL A   1      33.279  25.630  24.660  1.00  0.00    -0.460 OA
BRANCH  62  63
ATOM     63  C   UNL A   1      33.191  25.894  23.337  1.00  0.00     0.339 C 
ATOM     64  O   UNL A   1      33.886  25.448  22.441  1.00  0.00    -0.246 OA
BRANCH  63  65
ATOM     65  C   UNL A   1      32.172  26.900  23.084  1.00  0.00     0.074 A 
ATOM     66  C   UNL A   1      32.655  28.200  22.837  1.00  0.00     0.017 A 
ATOM     67  C   UNL A   1      30.800  26.627  23.225  1.00  0.00     0.027 A 
ATOM     68  C   UNL A   1      31.771  29.270  22.755  1.00  0.00     0.001 A 
ATOM     69  C   UNL A   1      29.941  27.747  23.193  1.00  0.00     0.016 A 
ATOM     70  C   UNL A   1      30.415  29.045  22.958  1.00  0.00     0.001 A 
BRANCH  67  71
ATOM     71  S   UNL A   1      29.919  25.053  23.239  1.00  0.00    -0.082 SA
BRANCH  71  72
ATOM     72  C   UNL A   1      30.855  23.769  24.049  1.00  0.00     0.090 A 
ATOM     73  C   UNL A   1      31.513  22.864  23.181  1.00  0.00     0.024 A 
ATOM     74  C   UNL A   1      30.994  23.533  25.429  1.00  0.00     0.284 A 
ATOM     75  C   UNL A   1      32.397  21.879  23.666  1.00  0.00     0.023 A 
ATOM     76  C   UNL A   1      31.911  22.564  25.916  1.00  0.00     0.108 A 
ATOM     77  C   UNL A   1      32.651  21.775  25.040  1.00  0.00     0.089 A 
BRANCH  74  78
ATOM     78  N   UNL A   1      30.240  24.297  26.439  1.00  0.00     0.063 N 
ATOM     79  O   UNL A   1      30.377  25.530  26.440  1.00  0.00    -0.258 OA
ATOM     80  O   UNL A   1      29.584  23.677  27.284  1.00  0.00    -0.258 OA
ENDBRANCH  74  78
BRANCH  77  81
ATOM     81  S   UNL A   1      33.967  20.674  25.578  1.00  0.00     0.243 S 
ATOM     82  O   UNL A   1      33.586  20.249  26.897  1.00  0.00    -0.207 OA
ATOM     83  O   UNL A   1      34.125  19.712  24.491  1.00  0.00    -0.207 OA
BRANCH  81  84
ATOM     84  N   UNL A   1      35.407  21.513  25.703  1.00  0.00    -0.198 NA
ATOM     85  C   UNL A   1      35.471  22.970  25.852  1.00  0.00     0.102 C 
ATOM     86  C   UNL A   1      36.717  21.060  25.228  1.00  0.00     0.102 C 
ATOM     87  C   UNL A   1      36.540  23.415  24.842  1.00  0.00     0.018 C 
ATOM     88  C   UNL A   1      37.105  22.134  24.231  1.00  0.00     0.018 C 
ENDBRANCH  81  84
ENDBRANCH  77  81
ENDBRANCH  71  72
ENDBRANCH  67  71
ENDBRANCH  63  65
ENDBRANCH  62  63
ENDBRANCH  61  62
ENDBRANCH  60  61
ENDBRANCH  59  60
ENDBRANCH   1  59
TORSDOF 22
ENDMDL
MODEL 3
REMARK VINA RESULT:      -9.4      3.689     10.255
REMARK SMILES O=C(OCCOCCOCCOC(=O)c1ccccc1Sc1ccc(S(=O)(=O)N2CCCC2)cc1[N+](=O)[O-])c1ccc(-c2c3nc(c(-c4ccccc4)c4ccc([nH]4)c(-c4ccccc4)c4nc(c(-c5ccccc5)c5ccc2[nH]5)C=C4)C=C3)cc1
REMARK SMILES IDX 8 1 7 2 6 3 5 4 4 5 3 6 2 7 1 8 39 9 40 10 86 11 41 12 85 13
REMARK SMILES IDX 42 14 43 15 44 16 79 17 45 18 84 19 78 20 80 21 46 22 83 23
REMARK SMILES IDX 77 24 76 25 47 27 69 28 54 29 68 30 55 31 58 32 67 33 81 34
REMARK SMILES IDX 56 35 57 36 66 38 82 39 59 40 48 41 49 42 53 43 50 44 52 45
REMARK SMILES IDX 51 46 70 47 71 48 75 49 72 50 74 51 73 52 60 53 61 54 65 55
REMARK SMILES IDX 62 56 64 57 63 58 9 59 10 60 11 61 12 62 13 63 14 64 15 65
REMARK SMILES IDX 16 66 20 67 17 68 19 69 18 70 21 71 22 72 23 73 35 74 24 75
REMARK SMILES IDX 34 76 25 77 36 78 37 79 38 80 26 81 27 82 28 83 29 84 30 85
REMARK SMILES IDX 33 86 31 87 32 88
REMARK H PARENT 80 26 58 37
REMARK Flexibility Score: inf
ROOT
ATOM      1  C   UNL A   1      32.850  36.123  32.047  1.00  0.00     0.188 C 
ENDROOT
BRANCH   1   2
ATOM      2  C   UNL A   1      33.739  37.115  32.792  1.00  0.00     0.188 C 
BRANCH   2   3
ATOM      3  O   UNL A   1      34.934  36.456  33.219  1.00  0.00    -0.376 OA
BRANCH   3   4
ATOM      4  C   UNL A   1      34.869  35.034  33.203  1.00  0.00     0.202 C 
BRANCH   4   5
ATOM      5  C   UNL A   1      36.223  34.359  33.378  1.00  0.00     0.261 C 
BRANCH   5   6
ATOM      6  O   UNL A   1      37.098  34.435  32.239  1.00  0.00    -0.460 OA
BRANCH   6   7
ATOM      7  C   UNL A   1      38.096  33.631  31.808  1.00  0.00     0.338 C 
ATOM      8  O   UNL A   1      37.977  32.419  31.999  1.00  0.00    -0.246 OA
BRANCH   7   9
ATOM      9  C   UNL A   1      39.307  34.078  31.057  1.00  0.00     0.060 A 
ATOM     10  C   UNL A   1      39.355  34.452  29.715  1.00  0.00     0.016 A 
ATOM     11  C   UNL A   1      40.492  34.195  31.809  1.00  0.00     0.016 A 
ATOM     12  C   UNL A   1      40.529  34.905  29.125  1.00  0.00     0.010 A 
ATOM     13  C   UNL A   1      41.683  34.635  31.226  1.00  0.00     0.010 A 
ATOM     14  C   UNL A   1      41.703  34.966  29.869  1.00  0.00    -0.014 A 
BRANCH  14  15
ATOM     15  C   UNL A   1      42.966  35.166  29.142  1.00  0.00     0.031 A 
ATOM     16  C   UNL A   1      43.816  33.962  28.884  1.00  0.00     0.074 A 
ATOM     17  C   UNL A   1      43.259  36.349  28.579  1.00  0.00     0.049 A 
ATOM     18  N   UNL A   1      44.986  33.886  28.317  1.00  0.00    -0.248 NA
ATOM     19  C   UNL A   1      43.246  32.661  29.284  1.00  0.00     0.031 C 
ATOM     20  C   UNL A   1      42.382  37.518  28.584  1.00  0.00     0.029 A 
ATOM     21  N   UNL A   1      44.357  36.758  27.870  1.00  0.00    -0.354 N 
ATOM     22  C   UNL A   1      45.300  32.535  28.302  1.00  0.00     0.074 A 
ATOM     23  C   UNL A   1      44.204  31.824  28.917  1.00  0.00     0.031 C 
ATOM     24  C   UNL A   1      42.987  38.515  27.920  1.00  0.00     0.029 A 
ATOM     25  C   UNL A   1      44.319  38.088  27.534  1.00  0.00     0.049 A 
ATOM     26  H   UNL A   1      45.099  36.157  27.626  1.00  0.00     0.167 HD
ATOM     27  C   UNL A   1      46.417  31.951  27.819  1.00  0.00     0.031 A 
ATOM     28  C   UNL A   1      45.276  38.889  27.033  1.00  0.00     0.031 A 
ATOM     29  C   UNL A   1      47.497  32.691  27.232  1.00  0.00     0.049 A 
ATOM     30  C   UNL A   1      46.590  38.256  26.697  1.00  0.00     0.074 A 
ATOM     31  C   UNL A   1      48.714  32.228  26.769  1.00  0.00     0.029 A 
ATOM     32  N   UNL A   1      47.484  34.066  27.037  1.00  0.00    -0.354 N 
ATOM     33  N   UNL A   1      46.924  36.988  26.754  1.00  0.00    -0.248 NA
ATOM     34  C   UNL A   1      47.656  39.145  26.228  1.00  0.00     0.031 C 
ATOM     35  C   UNL A   1      49.462  33.335  26.351  1.00  0.00     0.029 A 
ATOM     36  C   UNL A   1      48.688  34.477  26.498  1.00  0.00     0.049 A 
ATOM     37  H   UNL A   1      46.729  34.660  27.251  1.00  0.00     0.167 HD
ATOM     38  C   UNL A   1      48.231  36.920  26.303  1.00  0.00     0.074 A 
ATOM     39  C   UNL A   1      48.621  38.277  25.962  1.00  0.00     0.031 C 
ATOM     40  C   UNL A   1      49.036  35.838  26.178  1.00  0.00     0.031 A 
BRANCH  27  41
ATOM     41  C   UNL A   1      46.547  30.470  28.012  1.00  0.00    -0.014 A 
ATOM     42  C   UNL A   1      46.101  29.554  27.047  1.00  0.00     0.009 A 
ATOM     43  C   UNL A   1      47.107  29.986  29.204  1.00  0.00     0.009 A 
ATOM     44  C   UNL A   1      46.190  28.180  27.286  1.00  0.00     0.001 A 
ATOM     45  C   UNL A   1      47.215  28.614  29.431  1.00  0.00     0.001 A 
ATOM     46  C   UNL A   1      46.750  27.713  28.475  1.00  0.00     0.000 A 
ENDBRANCH  27  41
BRANCH  28  47
ATOM     47  C   UNL A   1      45.066  40.360  26.940  1.00  0.00    -0.014 A 
ATOM     48  C   UNL A   1      45.351  41.214  28.015  1.00  0.00     0.009 A 
ATOM     49  C   UNL A   1      44.531  40.917  25.764  1.00  0.00     0.009 A 
ATOM     50  C   UNL A   1      45.076  42.583  27.925  1.00  0.00     0.001 A 
ATOM     51  C   UNL A   1      44.285  42.287  25.665  1.00  0.00     0.001 A 
ATOM     52  C   UNL A   1      44.545  43.118  26.751  1.00  0.00     0.000 A 
ENDBRANCH  28  47
BRANCH  40  53
ATOM     53  C   UNL A   1      50.400  36.089  25.615  1.00  0.00    -0.014 A 
ATOM     54  C   UNL A   1      50.662  35.927  24.248  1.00  0.00     0.009 A 
ATOM     55  C   UNL A   1      51.425  36.524  26.469  1.00  0.00     0.009 A 
ATOM     56  C   UNL A   1      51.942  36.164  23.750  1.00  0.00     0.001 A 
ATOM     57  C   UNL A   1      52.694  36.791  25.962  1.00  0.00     0.001 A 
ATOM     58  C   UNL A   1      52.954  36.601  24.605  1.00  0.00     0.000 A 
ENDBRANCH  40  53
ENDBRANCH  14  15
ENDBRANCH   7   9
ENDBRANCH   6   7
ENDBRANCH   5   6
ENDBRANCH   4   5
ENDBRANCH   3   4
ENDBRANCH   2   3
ENDBRANCH   1   2
BRANCH   1  59
ATOM     59  O   UNL A   1      32.453  36.531  30.741  1.00  0.00    -0.376 OA
BRANCH  59  60
ATOM     60  C   UNL A   1      32.775  35.662  29.674  1.00  0.00     0.202 C 
BRANCH  60  61
ATOM     61  C   UNL A   1      33.991  34.742  29.738  1.00  0.00     0.261 C 
BRANCH  61  62
ATOM     62  O   UNL A   1      33.971  33.436  29.177  1.00  0.00    -0.460 OA
BRANCH  62  63
ATOM     63  C   UNL A   1      34.875  33.300  28.181  1.00  0.00     0.339 C 
ATOM     64  O   UNL A   1      35.120  34.088  27.285  1.00  0.00    -0.246 OA
BRANCH  63  65
ATOM     65  C   UNL A   1      35.505  31.990  28.241  1.00  0.00     0.074 A 
ATOM     66  C   UNL A   1      36.829  31.977  28.722  1.00  0.00     0.017 A 
ATOM     67  C   UNL A   1      34.890  30.840  27.716  1.00  0.00     0.027 A 
ATOM     68  C   UNL A   1      37.583  30.812  28.660  1.00  0.00     0.001 A 
ATOM     69  C   UNL A   1      35.706  29.693  27.617  1.00  0.00     0.016 A 
ATOM     70  C   UNL A   1      37.029  29.676  28.083  1.00  0.00     0.001 A 
BRANCH  67  71
ATOM     71  S   UNL A   1      33.158  30.517  27.329  1.00  0.00    -0.082 SA
BRANCH  71  72
ATOM     72  C   UNL A   1      32.971  29.598  25.811  1.00  0.00     0.090 A 
ATOM     73  C   UNL A   1      34.027  28.703  25.514  1.00  0.00     0.024 A 
ATOM     74  C   UNL A   1      31.926  29.675  24.871  1.00  0.00     0.284 A 
ATOM     75  C   UNL A   1      33.962  27.811  24.424  1.00  0.00     0.023 A 
ATOM     76  C   UNL A   1      31.844  28.753  23.794  1.00  0.00     0.108 A 
ATOM     77  C   UNL A   1      32.829  27.789  23.599  1.00  0.00     0.089 A 
BRANCH  74  78
ATOM     78  N   UNL A   1      30.847  30.672  24.973  1.00  0.00     0.063 N 
ATOM     79  O   UNL A   1      30.908  31.485  25.908  1.00  0.00    -0.258 OA
ATOM     80  O   UNL A   1      29.895  30.598  24.186  1.00  0.00    -0.258 OA
ENDBRANCH  74  78
BRANCH  77  81
ATOM     81  S   UNL A   1      32.692  26.472  22.384  1.00  0.00     0.243 S 
ATOM     82  O   UNL A   1      31.351  26.569  21.874  1.00  0.00    -0.207 OA
ATOM     83  O   UNL A   1      33.847  26.642  21.506  1.00  0.00    -0.207 OA
BRANCH  81  84
ATOM     84  N   UNL A   1      32.855  24.983  23.125  1.00  0.00    -0.198 NA
ATOM     85  C   UNL A   1      34.094  24.547  23.776  1.00  0.00     0.102 C 
ATOM     86  C   UNL A   1      32.059  23.784  22.845  1.00  0.00     0.102 C 
ATOM     87  C   UNL A   1      34.318  23.117  23.262  1.00  0.00     0.018 C 
ATOM     88  C   UNL A   1      33.103  22.781  22.399  1.00  0.00     0.018 C 
ENDBRANCH  81  84
ENDBRANCH  77  81
ENDBRANCH  71  72
ENDBRANCH  67  71
ENDBRANCH  63  65
ENDBRANCH  62  63
ENDBRANCH  61  62
ENDBRANCH  60  61
ENDBRANCH  59  60
ENDBRANCH   1  59
TORSDOF 22
ENDMDL
