MODEL 1
REMARK VINA RESULT:     -10.0      0.000      0.000
REMARK SMILES [NH3+][C@H](Cn1nnc2ccccc21)C(=O)OCCOCCOCCOC(=O)c1ccc(-c2c3nc(c(-c4ccccc4)c4ccc([nH]4)c(-c4ccccc4)c4nc(c(-c5ccccc5)c5ccc2[nH]5)C=C4)C=C3)cc1
REMARK SMILES IDX 19 1 18 2 17 3 16 4 15 5 13 6 14 7 2 8 1 9 3 13 4 14 5 15
REMARK SMILES IDX 12 16 6 17 7 18 11 19 8 20 10 21 9 22 20 23 21 24 22 25
REMARK SMILES IDX 23 26 24 27 25 28 26 29 27 30 28 31 74 32 29 33 73 34 30 35
REMARK SMILES IDX 31 36 32 37 67 38 33 39 72 40 66 41 68 42 34 43 71 44 65 45
REMARK SMILES IDX 64 46 35 48 57 49 42 50 56 51 43 52 46 53 55 54 69 55 44 56
REMARK SMILES IDX 45 57 54 59 70 60 47 61 36 62 37 63 41 64 38 65 40 66 39 67
REMARK SMILES IDX 58 68 59 69 63 70 60 71 62 72 61 73 48 74 49 75 53 76 50 77
REMARK SMILES IDX 52 78 51 79
REMARK H PARENT 1 10 1 11 1 12 68 47 46 58
REMARK Flexibility Score: inf
ROOT
ATOM      1  C   UNL A   1      34.989  21.867  24.903  1.00  0.00     0.188 C 
ENDROOT
BRANCH   1   2
ATOM      2  O   UNL A   1      33.606  21.603  25.050  1.00  0.00    -0.376 OA
BRANCH   2   3
ATOM      3  C   UNL A   1      32.828  21.395  23.874  1.00  0.00     0.202 C 
BRANCH   3   4
ATOM      4  C   UNL A   1      32.928  22.478  22.796  1.00  0.00     0.261 C 
BRANCH   4   5
ATOM      5  O   UNL A   1      32.424  23.752  23.264  1.00  0.00    -0.459 OA
BRANCH   5   6
ATOM      6  C   UNL A   1      32.819  24.842  22.569  1.00  0.00     0.366 C 
ATOM      7  O   UNL A   1      34.002  25.125  22.386  1.00  0.00    -0.245 OA
BRANCH   6   8
ATOM      8  C   UNL A   1      31.679  25.730  22.017  1.00  0.00     0.313 C 
BRANCH   8   9
ATOM      9  N   UNL A   1      31.852  25.975  20.572  1.00  0.00    -0.344 N 
ATOM     10  H   UNL A   1      30.992  25.732  20.081  1.00  0.00     0.345 HD
ATOM     11  H   UNL A   1      32.619  25.403  20.220  1.00  0.00     0.345 HD
ATOM     12  H   UNL A   1      32.064  26.961  20.417  1.00  0.00     0.345 HD
ENDBRANCH   8   9
BRANCH   8  13
ATOM     13  C   UNL A   1      30.985  26.837  22.807  1.00  0.00     0.224 C 
BRANCH  13  14
ATOM     14  N   UNL A   1      31.012  26.791  24.234  1.00  0.00    -0.238 N 
ATOM     15  N   UNL A   1      30.283  25.907  24.927  1.00  0.00    -0.066 NA
ATOM     16  C   UNL A   1      31.747  27.611  25.049  1.00  0.00     0.089 A 
ATOM     17  N   UNL A   1      30.402  26.219  26.209  1.00  0.00    -0.130 NA
ATOM     18  C   UNL A   1      31.289  27.259  26.311  1.00  0.00     0.113 A 
ATOM     19  C   UNL A   1      32.711  28.602  24.826  1.00  0.00     0.030 A 
ATOM     20  C   UNL A   1      31.764  27.950  27.430  1.00  0.00     0.032 A 
ATOM     21  C   UNL A   1      33.199  29.261  25.960  1.00  0.00     0.002 A 
ATOM     22  C   UNL A   1      32.725  28.952  27.237  1.00  0.00     0.002 A 
ENDBRANCH  13  14
ENDBRANCH   8  13
ENDBRANCH   6   8
ENDBRANCH   5   6
ENDBRANCH   4   5
ENDBRANCH   3   4
ENDBRANCH   2   3
ENDBRANCH   1   2
BRANCH   1  23
ATOM     23  C   UNL A   1      35.967  20.692  25.010  1.00  0.00     0.188 C 
BRANCH  23  24
ATOM     24  O   UNL A   1      37.359  20.853  24.834  1.00  0.00    -0.376 OA
BRANCH  24  25
ATOM     25  C   UNL A   1      37.976  21.954  25.477  1.00  0.00     0.202 C 
BRANCH  25  26
ATOM     26  C   UNL A   1      39.343  21.685  26.127  1.00  0.00     0.261 C 
BRANCH  26  27
ATOM     27  O   UNL A   1      39.653  22.653  27.146  1.00  0.00    -0.460 OA
BRANCH  27  28
ATOM     28  C   UNL A   1      40.950  23.078  27.182  1.00  0.00     0.338 C 
ATOM     29  O   UNL A   1      41.917  22.507  26.748  1.00  0.00    -0.246 OA
BRANCH  28  30
ATOM     30  C   UNL A   1      40.918  24.531  27.516  1.00  0.00     0.060 A 
ATOM     31  C   UNL A   1      41.828  25.123  28.397  1.00  0.00     0.016 A 
ATOM     32  C   UNL A   1      39.777  25.237  27.106  1.00  0.00     0.016 A 
ATOM     33  C   UNL A   1      41.577  26.411  28.893  1.00  0.00     0.010 A 
ATOM     34  C   UNL A   1      39.516  26.509  27.624  1.00  0.00     0.010 A 
ATOM     35  C   UNL A   1      40.414  27.108  28.522  1.00  0.00    -0.014 A 
BRANCH  35  36
ATOM     36  C   UNL A   1      40.327  28.567  28.711  1.00  0.00     0.031 A 
ATOM     37  C   UNL A   1      41.527  29.283  28.276  1.00  0.00     0.074 A 
ATOM     38  C   UNL A   1      39.334  29.346  29.187  1.00  0.00     0.049 A 
ATOM     39  N   UNL A   1      42.304  29.894  29.104  1.00  0.00    -0.248 NA
ATOM     40  C   UNL A   1      41.997  29.226  26.895  1.00  0.00     0.031 C 
ATOM     41  C   UNL A   1      38.227  28.928  30.001  1.00  0.00     0.029 A 
ATOM     42  N   UNL A   1      39.092  30.693  29.048  1.00  0.00    -0.354 N 
ATOM     43  C   UNL A   1      43.257  30.503  28.326  1.00  0.00     0.074 A 
ATOM     44  C   UNL A   1      43.118  29.943  27.000  1.00  0.00     0.031 C 
ATOM     45  C   UNL A   1      37.267  29.876  30.043  1.00  0.00     0.029 A 
ATOM     46  C   UNL A   1      37.788  31.060  29.369  1.00  0.00     0.049 A 
ATOM     47  H   UNL A   1      39.776  31.336  28.750  1.00  0.00     0.167 HD
ATOM     48  C   UNL A   1      43.892  31.609  28.784  1.00  0.00     0.031 A 
ATOM     49  C   UNL A   1      37.252  32.280  29.608  1.00  0.00     0.031 A 
ATOM     50  C   UNL A   1      43.754  31.785  30.211  1.00  0.00     0.049 A 
ATOM     51  C   UNL A   1      38.292  33.112  30.226  1.00  0.00     0.074 A 
ATOM     52  C   UNL A   1      44.135  31.074  31.330  1.00  0.00     0.029 A 
ATOM     53  N   UNL A   1      42.816  32.698  30.625  1.00  0.00    -0.354 N 
ATOM     54  N   UNL A   1      38.678  32.964  31.459  1.00  0.00    -0.248 NA
ATOM     55  C   UNL A   1      39.146  33.944  29.394  1.00  0.00     0.031 C 
ATOM     56  C   UNL A   1      43.194  31.400  32.349  1.00  0.00     0.029 A 
ATOM     57  C   UNL A   1      42.271  32.304  31.823  1.00  0.00     0.049 A 
ATOM     58  H   UNL A   1      42.569  33.517  30.135  1.00  0.00     0.167 HD
ATOM     59  C   UNL A   1      40.023  33.277  31.427  1.00  0.00     0.074 A 
ATOM     60  C   UNL A   1      40.204  34.042  30.202  1.00  0.00     0.031 C 
ATOM     61  C   UNL A   1      40.912  32.620  32.226  1.00  0.00     0.031 A 
BRANCH  48  62
ATOM     62  C   UNL A   1      44.269  32.733  27.866  1.00  0.00    -0.014 A 
ATOM     63  C   UNL A   1      45.286  32.615  26.897  1.00  0.00     0.009 A 
ATOM     64  C   UNL A   1      43.427  33.851  27.780  1.00  0.00     0.009 A 
ATOM     65  C   UNL A   1      45.480  33.580  25.910  1.00  0.00     0.001 A 
ATOM     66  C   UNL A   1      43.591  34.798  26.763  1.00  0.00     0.001 A 
ATOM     67  C   UNL A   1      44.620  34.665  25.834  1.00  0.00     0.000 A 
ENDBRANCH  48  62
BRANCH  49  68
ATOM     68  C   UNL A   1      36.037  32.829  28.963  1.00  0.00    -0.014 A 
ATOM     69  C   UNL A   1      35.625  34.156  29.182  1.00  0.00     0.009 A 
ATOM     70  C   UNL A   1      35.172  31.987  28.245  1.00  0.00     0.009 A 
ATOM     71  C   UNL A   1      34.371  34.606  28.750  1.00  0.00     0.001 A 
ATOM     72  C   UNL A   1      33.917  32.437  27.812  1.00  0.00     0.001 A 
ATOM     73  C   UNL A   1      33.511  33.742  28.079  1.00  0.00     0.000 A 
ENDBRANCH  49  68
BRANCH  61  74
ATOM     74  C   UNL A   1      40.381  31.951  33.472  1.00  0.00    -0.014 A 
ATOM     75  C   UNL A   1      39.911  30.632  33.369  1.00  0.00     0.009 A 
ATOM     76  C   UNL A   1      40.236  32.609  34.705  1.00  0.00     0.009 A 
ATOM     77  C   UNL A   1      39.313  29.992  34.458  1.00  0.00     0.001 A 
ATOM     78  C   UNL A   1      39.660  31.961  35.804  1.00  0.00     0.001 A 
ATOM     79  C   UNL A   1      39.192  30.655  35.677  1.00  0.00     0.000 A 
ENDBRANCH  61  74
ENDBRANCH  35  36
ENDBRANCH  28  30
ENDBRANCH  27  28
ENDBRANCH  26  27
ENDBRANCH  25  26
ENDBRANCH  24  25
ENDBRANCH  23  24
ENDBRANCH   1  23
TORSDOF 20
ENDMDL
MODEL 2
REMARK VINA RESULT:      -9.8      3.345      8.408
REMARK SMILES [NH3+][C@H](Cn1nnc2ccccc21)C(=O)OCCOCCOCCOC(=O)c1ccc(-c2c3nc(c(-c4ccccc4)c4ccc([nH]4)c(-c4ccccc4)c4nc(c(-c5ccccc5)c5ccc2[nH]5)C=C4)C=C3)cc1
REMARK SMILES IDX 19 1 18 2 17 3 16 4 15 5 13 6 14 7 2 8 1 9 3 13 4 14 5 15
REMARK SMILES IDX 12 16 6 17 7 18 11 19 8 20 10 21 9 22 20 23 21 24 22 25
REMARK SMILES IDX 23 26 24 27 25 28 26 29 27 30 28 31 74 32 29 33 73 34 30 35
REMARK SMILES IDX 31 36 32 37 67 38 33 39 72 40 66 41 68 42 34 43 71 44 65 45
REMARK SMILES IDX 64 46 35 48 57 49 42 50 56 51 43 52 46 53 55 54 69 55 44 56
REMARK SMILES IDX 45 57 54 59 70 60 47 61 36 62 37 63 41 64 38 65 40 66 39 67
REMARK SMILES IDX 58 68 59 69 63 70 60 71 62 72 61 73 48 74 49 75 53 76 50 77
REMARK SMILES IDX 52 78 51 79
REMARK H PARENT 1 10 1 11 1 12 68 47 46 58
REMARK Flexibility Score: inf
ROOT
ATOM      1  C   UNL A   1      32.109  28.298  24.998  1.00  0.00     0.188 C 
ENDROOT
BRANCH   1   2
ATOM      2  O   UNL A   1      31.299  27.238  25.473  1.00  0.00    -0.376 OA
BRANCH   2   3
ATOM      3  C   UNL A   1      31.732  26.519  26.624  1.00  0.00     0.202 C 
BRANCH   3   4
ATOM      4  C   UNL A   1      32.357  25.144  26.368  1.00  0.00     0.261 C 
BRANCH   4   5
ATOM      5  O   UNL A   1      31.570  24.360  25.441  1.00  0.00    -0.459 OA
BRANCH   5   6
ATOM      6  C   UNL A   1      31.384  23.060  25.765  1.00  0.00     0.366 C 
ATOM      7  O   UNL A   1      30.390  22.657  26.367  1.00  0.00    -0.245 OA
BRANCH   6   8
ATOM      8  C   UNL A   1      32.516  22.097  25.335  1.00  0.00     0.313 C 
BRANCH   8   9
ATOM      9  N   UNL A   1      32.733  21.048  26.350  1.00  0.00    -0.344 N 
ATOM     10  H   UNL A   1      33.596  20.547  26.141  1.00  0.00     0.345 HD
ATOM     11  H   UNL A   1      31.949  20.396  26.337  1.00  0.00     0.345 HD
ATOM     12  H   UNL A   1      32.803  21.478  27.273  1.00  0.00     0.345 HD
ENDBRANCH   8   9
BRANCH   8  13
ATOM     13  C   UNL A   1      33.743  22.513  24.527  1.00  0.00     0.224 C 
BRANCH  13  14
ATOM     14  N   UNL A   1      34.987  21.854  24.766  1.00  0.00    -0.238 N 
ATOM     15  N   UNL A   1      35.120  20.528  24.632  1.00  0.00    -0.066 NA
ATOM     16  C   UNL A   1      36.154  22.457  25.152  1.00  0.00     0.089 A 
ATOM     17  N   UNL A   1      36.330  20.209  25.070  1.00  0.00    -0.130 NA
ATOM     18  C   UNL A   1      36.981  21.370  25.397  1.00  0.00     0.113 A 
ATOM     19  C   UNL A   1      36.554  23.787  25.331  1.00  0.00     0.030 A 
ATOM     20  C   UNL A   1      38.269  21.587  25.895  1.00  0.00     0.032 A 
ATOM     21  C   UNL A   1      37.857  23.988  25.799  1.00  0.00     0.002 A 
ATOM     22  C   UNL A   1      38.696  22.909  26.090  1.00  0.00     0.002 A 
ENDBRANCH  13  14
ENDBRANCH   8  13
ENDBRANCH   6   8
ENDBRANCH   5   6
ENDBRANCH   4   5
ENDBRANCH   3   4
ENDBRANCH   2   3
ENDBRANCH   1   2
BRANCH   1  23
ATOM     23  C   UNL A   1      31.461  29.675  24.807  1.00  0.00     0.188 C 
BRANCH  23  24
ATOM     24  O   UNL A   1      31.507  30.672  25.807  1.00  0.00    -0.376 OA
BRANCH  24  25
ATOM     25  C   UNL A   1      32.481  30.533  26.826  1.00  0.00     0.202 C 
BRANCH  25  26
ATOM     26  C   UNL A   1      32.921  31.827  27.529  1.00  0.00     0.261 C 
BRANCH  26  27
ATOM     27  O   UNL A   1      34.095  31.626  28.336  1.00  0.00    -0.460 OA
BRANCH  27  28
ATOM     28  C   UNL A   1      35.242  32.196  27.861  1.00  0.00     0.338 C 
ATOM     29  O   UNL A   1      35.407  33.343  27.535  1.00  0.00    -0.246 OA
BRANCH  28  30
ATOM     30  C   UNL A   1      36.352  31.248  28.166  1.00  0.00     0.060 A 
ATOM     31  C   UNL A   1      36.269  29.878  27.900  1.00  0.00     0.016 A 
ATOM     32  C   UNL A   1      37.391  31.745  28.967  1.00  0.00     0.016 A 
ATOM     33  C   UNL A   1      37.209  29.002  28.464  1.00  0.00     0.010 A 
ATOM     34  C   UNL A   1      38.308  30.867  29.551  1.00  0.00     0.010 A 
ATOM     35  C   UNL A   1      38.226  29.487  29.304  1.00  0.00    -0.014 A 
BRANCH  35  36
ATOM     36  C   UNL A   1      39.420  28.667  29.580  1.00  0.00     0.031 A 
ATOM     37  C   UNL A   1      39.757  28.591  31.001  1.00  0.00     0.074 A 
ATOM     38  C   UNL A   1      40.228  27.965  28.759  1.00  0.00     0.049 A 
ATOM     39  N   UNL A   1      40.829  29.120  31.485  1.00  0.00    -0.248 NA
ATOM     40  C   UNL A   1      38.829  28.038  31.984  1.00  0.00     0.031 C 
ATOM     41  C   UNL A   1      40.371  28.135  27.340  1.00  0.00     0.029 A 
ATOM     42  N   UNL A   1      41.105  26.936  29.012  1.00  0.00    -0.354 N 
ATOM     43  C   UNL A   1      40.837  28.775  32.814  1.00  0.00     0.074 A 
ATOM     44  C   UNL A   1      39.523  28.246  33.105  1.00  0.00     0.031 C 
ATOM     45  C   UNL A   1      41.015  27.087  26.785  1.00  0.00     0.029 A 
ATOM     46  C   UNL A   1      41.478  26.230  27.871  1.00  0.00     0.049 A 
ATOM     47  H   UNL A   1      41.437  26.720  29.913  1.00  0.00     0.167 HD
ATOM     48  C   UNL A   1      42.013  28.705  33.483  1.00  0.00     0.031 A 
ATOM     49  C   UNL A   1      42.492  25.354  27.672  1.00  0.00     0.031 A 
ATOM     50  C   UNL A   1      43.089  29.385  32.800  1.00  0.00     0.049 A 
ATOM     51  C   UNL A   1      43.608  25.758  28.536  1.00  0.00     0.074 A 
ATOM     52  C   UNL A   1      43.350  30.688  32.428  1.00  0.00     0.029 A 
ATOM     53  N   UNL A   1      43.959  28.592  32.092  1.00  0.00    -0.354 N 
ATOM     54  N   UNL A   1      44.360  26.790  28.287  1.00  0.00    -0.248 NA
ATOM     55  C   UNL A   1      43.735  25.194  29.871  1.00  0.00     0.031 C 
ATOM     56  C   UNL A   1      44.193  30.615  31.282  1.00  0.00     0.029 A 
ATOM     57  C   UNL A   1      44.426  29.271  30.992  1.00  0.00     0.049 A 
ATOM     58  H   UNL A   1      44.212  27.672  32.336  1.00  0.00     0.167 HD
ATOM     59  C   UNL A   1      44.684  27.277  29.538  1.00  0.00     0.074 A 
ATOM     60  C   UNL A   1      44.441  26.168  30.450  1.00  0.00     0.031 C 
ATOM     61  C   UNL A   1      44.813  28.617  29.754  1.00  0.00     0.031 A 
BRANCH  48  62
ATOM     62  C   UNL A   1      42.257  27.664  34.534  1.00  0.00    -0.014 A 
ATOM     63  C   UNL A   1      41.922  27.860  35.890  1.00  0.00     0.009 A 
ATOM     64  C   UNL A   1      42.588  26.362  34.137  1.00  0.00     0.009 A 
ATOM     65  C   UNL A   1      41.948  26.817  36.815  1.00  0.00     0.001 A 
ATOM     66  C   UNL A   1      42.571  25.304  35.053  1.00  0.00     0.001 A 
ATOM     67  C   UNL A   1      42.258  25.533  36.390  1.00  0.00     0.000 A 
ENDBRANCH  48  62
BRANCH  49  68
ATOM     68  C   UNL A   1      42.358  24.003  27.081  1.00  0.00    -0.014 A 
ATOM     69  C   UNL A   1      41.919  22.907  27.845  1.00  0.00     0.009 A 
ATOM     70  C   UNL A   1      42.829  23.747  25.782  1.00  0.00     0.009 A 
ATOM     71  C   UNL A   1      41.999  21.599  27.349  1.00  0.00     0.001 A 
ATOM     72  C   UNL A   1      42.909  22.439  25.286  1.00  0.00     0.001 A 
ATOM     73  C   UNL A   1      42.509  21.364  26.076  1.00  0.00     0.000 A 
ENDBRANCH  49  68
BRANCH  61  74
ATOM     74  C   UNL A   1      45.112  29.498  28.564  1.00  0.00    -0.014 A 
ATOM     75  C   UNL A   1      46.442  29.896  28.350  1.00  0.00     0.009 A 
ATOM     76  C   UNL A   1      44.121  30.024  27.718  1.00  0.00     0.009 A 
ATOM     77  C   UNL A   1      46.771  30.791  27.330  1.00  0.00     0.001 A 
ATOM     78  C   UNL A   1      44.453  30.901  26.680  1.00  0.00     0.001 A 
ATOM     79  C   UNL A   1      45.777  31.291  26.491  1.00  0.00     0.000 A 
ENDBRANCH  61  74
ENDBRANCH  35  36
ENDBRANCH  28  30
ENDBRANCH  27  28
ENDBRANCH  26  27
ENDBRANCH  25  26
ENDBRANCH  24  25
ENDBRANCH  23  24
ENDBRANCH   1  23
TORSDOF 20
ENDMDL
MODEL 3
REMARK VINA RESULT:      -9.7      5.164     10.667
REMARK SMILES [NH3+][C@H](Cn1nnc2ccccc21)C(=O)OCCOCCOCCOC(=O)c1ccc(-c2c3nc(c(-c4ccccc4)c4ccc([nH]4)c(-c4ccccc4)c4nc(c(-c5ccccc5)c5ccc2[nH]5)C=C4)C=C3)cc1
REMARK SMILES IDX 19 1 18 2 17 3 16 4 15 5 13 6 14 7 2 8 1 9 3 13 4 14 5 15
REMARK SMILES IDX 12 16 6 17 7 18 11 19 8 20 10 21 9 22 20 23 21 24 22 25
REMARK SMILES IDX 23 26 24 27 25 28 26 29 27 30 28 31 74 32 29 33 73 34 30 35
REMARK SMILES IDX 31 36 32 37 67 38 33 39 72 40 66 41 68 42 34 43 71 44 65 45
REMARK SMILES IDX 64 46 35 48 57 49 42 50 56 51 43 52 46 53 55 54 69 55 44 56
REMARK SMILES IDX 45 57 54 59 70 60 47 61 36 62 37 63 41 64 38 65 40 66 39 67
REMARK SMILES IDX 58 68 59 69 63 70 60 71 62 72 61 73 48 74 49 75 53 76 50 77
REMARK SMILES IDX 52 78 51 79
REMARK H PARENT 1 10 1 11 1 12 68 47 46 58
REMARK Flexibility Score: inf
ROOT
ATOM      1  C   UNL A   1      34.612  32.971  32.764  1.00  0.00     0.188 C 
ENDROOT
BRANCH   1   2
ATOM      2  O   UNL A   1      35.662  32.043  32.564  1.00  0.00    -0.376 OA
BRANCH   2   3
ATOM      3  C   UNL A   1      36.640  31.896  33.590  1.00  0.00     0.202 C 
BRANCH   3   4
ATOM      4  C   UNL A   1      37.701  30.814  33.364  1.00  0.00     0.261 C 
BRANCH   4   5
ATOM      5  O   UNL A   1      38.867  31.021  34.196  1.00  0.00    -0.459 OA
BRANCH   5   6
ATOM      6  C   UNL A   1      38.632  31.469  35.451  1.00  0.00     0.366 C 
ATOM      7  O   UNL A   1      37.697  31.065  36.140  1.00  0.00    -0.245 OA
BRANCH   6   8
ATOM      8  C   UNL A   1      39.621  32.538  35.973  1.00  0.00     0.313 C 
BRANCH   8   9
ATOM      9  N   UNL A   1      39.327  32.890  37.375  1.00  0.00    -0.344 N 
ATOM     10  H   UNL A   1      39.566  32.103  37.979  1.00  0.00     0.345 HD
ATOM     11  H   UNL A   1      38.335  33.104  37.471  1.00  0.00     0.345 HD
ATOM     12  H   UNL A   1      39.880  33.705  37.644  1.00  0.00     0.345 HD
ENDBRANCH   8   9
BRANCH   8  13
ATOM     13  C   UNL A   1      40.226  33.647  35.115  1.00  0.00     0.224 C 
BRANCH  13  14
ATOM     14  N   UNL A   1      39.459  34.189  34.039  1.00  0.00    -0.238 N 
ATOM     15  N   UNL A   1      38.306  34.836  34.251  1.00  0.00    -0.066 NA
ATOM     16  C   UNL A   1      39.779  34.117  32.709  1.00  0.00     0.089 A 
ATOM     17  N   UNL A   1      37.766  35.073  33.063  1.00  0.00    -0.130 NA
ATOM     18  C   UNL A   1      38.645  34.641  32.105  1.00  0.00     0.113 A 
ATOM     19  C   UNL A   1      40.888  33.647  31.995  1.00  0.00     0.030 A 
ATOM     20  C   UNL A   1      38.561  34.665  30.709  1.00  0.00     0.032 A 
ATOM     21  C   UNL A   1      40.801  33.709  30.600  1.00  0.00     0.002 A 
ATOM     22  C   UNL A   1      39.654  34.196  29.967  1.00  0.00     0.002 A 
ENDBRANCH  13  14
ENDBRANCH   8  13
ENDBRANCH   6   8
ENDBRANCH   5   6
ENDBRANCH   4   5
ENDBRANCH   3   4
ENDBRANCH   2   3
ENDBRANCH   1   2
BRANCH   1  23
ATOM     23  C   UNL A   1      34.646  34.286  31.978  1.00  0.00     0.188 C 
BRANCH  23  24
ATOM     24  O   UNL A   1      35.067  34.346  30.631  1.00  0.00    -0.376 OA
BRANCH  24  25
ATOM     25  C   UNL A   1      34.095  34.097  29.631  1.00  0.00     0.202 C 
BRANCH  25  26
ATOM     26  C   UNL A   1      34.523  34.376  28.182  1.00  0.00     0.261 C 
BRANCH  26  27
ATOM     27  O   UNL A   1      35.422  33.368  27.684  1.00  0.00    -0.460 OA
BRANCH  27  28
ATOM     28  C   UNL A   1      34.984  32.079  27.797  1.00  0.00     0.338 C 
ATOM     29  O   UNL A   1      33.899  31.649  27.504  1.00  0.00    -0.246 OA
BRANCH  28  30
ATOM     30  C   UNL A   1      36.193  31.229  27.993  1.00  0.00     0.060 A 
ATOM     31  C   UNL A   1      36.252  29.894  27.583  1.00  0.00     0.016 A 
ATOM     32  C   UNL A   1      37.186  31.748  28.839  1.00  0.00     0.016 A 
ATOM     33  C   UNL A   1      37.289  29.070  28.046  1.00  0.00     0.010 A 
ATOM     34  C   UNL A   1      38.201  30.916  29.321  1.00  0.00     0.010 A 
ATOM     35  C   UNL A   1      38.262  29.569  28.928  1.00  0.00    -0.014 A 
BRANCH  35  36
ATOM     36  C   UNL A   1      39.540  28.857  29.110  1.00  0.00     0.031 A 
ATOM     37  C   UNL A   1      39.885  28.632  30.514  1.00  0.00     0.074 A 
ATOM     38  C   UNL A   1      40.421  28.365  28.215  1.00  0.00     0.049 A 
ATOM     39  N   UNL A   1      40.893  29.208  31.077  1.00  0.00    -0.248 NA
ATOM     40  C   UNL A   1      39.026  27.854  31.402  1.00  0.00     0.031 C 
ATOM     41  C   UNL A   1      40.542  28.737  26.833  1.00  0.00     0.029 A 
ATOM     42  N   UNL A   1      41.408  27.416  28.343  1.00  0.00    -0.354 N 
ATOM     43  C   UNL A   1      40.941  28.693  32.349  1.00  0.00     0.074 A 
ATOM     44  C   UNL A   1      39.695  27.987  32.550  1.00  0.00     0.031 C 
ATOM     45  C   UNL A   1      41.298  27.849  26.154  1.00  0.00     0.029 A 
ATOM     46  C   UNL A   1      41.856  26.913  27.123  1.00  0.00     0.049 A 
ATOM     47  H   UNL A   1      41.763  27.120  29.211  1.00  0.00     0.167 HD
ATOM     48  C   UNL A   1      42.118  28.667  33.019  1.00  0.00     0.031 A 
ATOM     49  C   UNL A   1      42.961  26.189  26.825  1.00  0.00     0.031 A 
ATOM     50  C   UNL A   1      43.110  29.546  32.446  1.00  0.00     0.049 A 
ATOM     51  C   UNL A   1      44.027  26.596  27.749  1.00  0.00     0.074 A 
ATOM     52  C   UNL A   1      43.223  30.908  32.253  1.00  0.00     0.029 A 
ATOM     53  N   UNL A   1      44.062  28.956  31.652  1.00  0.00    -0.354 N 
ATOM     54  N   UNL A   1      44.658  27.729  27.648  1.00  0.00    -0.248 NA
ATOM     55  C   UNL A   1      44.218  25.878  28.999  1.00  0.00     0.031 C 
ATOM     56  C   UNL A   1      44.068  31.081  31.119  1.00  0.00     0.029 A 
ATOM     57  C   UNL A   1      44.449  29.822  30.658  1.00  0.00     0.049 A 
ATOM     58  H   UNL A   1      44.417  28.045  31.776  1.00  0.00     0.167 HD
ATOM     59  C   UNL A   1      44.927  28.079  28.957  1.00  0.00     0.074 A 
ATOM     60  C   UNL A   1      44.810  26.839  29.711  1.00  0.00     0.031 C 
ATOM     61  C   UNL A   1      44.905  29.385  29.350  1.00  0.00     0.031 A 
BRANCH  48  62
ATOM     62  C   UNL A   1      42.479  27.529  33.928  1.00  0.00    -0.014 A 
ATOM     63  C   UNL A   1      41.688  27.161  35.035  1.00  0.00     0.009 A 
ATOM     64  C   UNL A   1      43.484  26.636  33.532  1.00  0.00     0.009 A 
ATOM     65  C   UNL A   1      41.909  25.978  35.739  1.00  0.00     0.001 A 
ATOM     66  C   UNL A   1      43.678  25.427  34.208  1.00  0.00     0.001 A 
ATOM     67  C   UNL A   1      42.896  25.102  35.313  1.00  0.00     0.000 A 
ENDBRANCH  48  62
BRANCH  49  68
ATOM     68  C   UNL A   1      42.979  24.922  26.059  1.00  0.00    -0.014 A 
ATOM     69  C   UNL A   1      42.164  23.834  26.419  1.00  0.00     0.009 A 
ATOM     70  C   UNL A   1      43.936  24.715  25.050  1.00  0.00     0.009 A 
ATOM     71  C   UNL A   1      42.338  22.573  25.834  1.00  0.00     0.001 A 
ATOM     72  C   UNL A   1      44.109  23.454  24.464  1.00  0.00     0.001 A 
ATOM     73  C   UNL A   1      43.320  22.380  24.868  1.00  0.00     0.000 A 
ENDBRANCH  49  68
BRANCH  61  74
ATOM     74  C   UNL A   1      45.102  30.443  28.290  1.00  0.00    -0.014 A 
ATOM     75  C   UNL A   1      46.394  30.961  28.102  1.00  0.00     0.009 A 
ATOM     76  C   UNL A   1      44.049  31.010  27.553  1.00  0.00     0.009 A 
ATOM     77  C   UNL A   1      46.626  32.013  27.211  1.00  0.00     0.001 A 
ATOM     78  C   UNL A   1      44.284  32.047  26.642  1.00  0.00     0.001 A 
ATOM     79  C   UNL A   1      45.572  32.553  26.478  1.00  0.00     0.000 A 
ENDBRANCH  61  74
ENDBRANCH  35  36
ENDBRANCH  28  30
ENDBRANCH  27  28
ENDBRANCH  26  27
ENDBRANCH  25  26
ENDBRANCH  24  25
ENDBRANCH  23  24
ENDBRANCH   1  23
TORSDOF 20
ENDMDL
