MODEL 1
REMARK VINA RESULT:     -10.9      0.000      0.000
REMARK SMILES Cn1cc(-c2cc(C(F)(F)F)c3c(C4CC4)nn(CC(=O)OCCOCCOCCOC(=O)c4ccc(-c5c6nc(c(-c7ccccc7)c7ccc([nH]7)c(-c7ccccc7)c7nc(c(-c8ccccc8)c8ccc5[nH]8)C=C7)C=C6)cc4)c3n2)cn1
REMARK SMILES IDX 26 1 25 2 24 3 23 4 22 5 20 6 21 7 19 8 18 9 5 10 6 11 83 12
REMARK SMILES IDX 7 13 82 14 12 15 13 16 17 17 4 18 1 19 2 20 3 21 85 22 84 23
REMARK SMILES IDX 8 24 9 25 10 26 11 27 14 28 15 29 16 30 27 31 28 32 29 33
REMARK SMILES IDX 30 34 31 35 32 36 33 37 34 38 35 39 81 40 36 41 80 42 37 43
REMARK SMILES IDX 38 44 39 45 74 46 40 47 79 48 73 49 75 50 41 51 78 52 72 53
REMARK SMILES IDX 71 54 42 56 64 57 49 58 63 59 50 60 53 61 62 62 76 63 51 64
REMARK SMILES IDX 52 65 61 67 77 68 54 69 43 70 44 71 48 72 45 73 47 74 46 75
REMARK SMILES IDX 65 76 66 77 70 78 67 79 69 80 68 81 55 82 56 83 60 84 57 85
REMARK SMILES IDX 59 86 58 87
REMARK H PARENT 75 55 53 66
REMARK Flexibility Score: inf
ROOT
ATOM      1  C   UNL A   1      31.182  28.489  24.691  1.00  0.00     0.188 C 
ENDROOT
BRANCH   1   2
ATOM      2  O   UNL A   1      30.255  27.597  24.067  1.00  0.00    -0.376 OA
BRANCH   2   3
ATOM      3  C   UNL A   1      29.862  26.446  24.815  1.00  0.00     0.202 C 
BRANCH   3   4
ATOM      4  C   UNL A   1      30.644  26.147  26.111  1.00  0.00     0.261 C 
BRANCH   4   5
ATOM      5  O   UNL A   1      30.748  24.759  26.515  1.00  0.00    -0.462 OA
BRANCH   5   6
ATOM      6  C   UNL A   1      32.005  24.287  26.664  1.00  0.00     0.327 C 
ATOM      7  O   UNL A   1      33.008  24.926  26.337  1.00  0.00    -0.250 OA
BRANCH   6   8
ATOM      8  C   UNL A   1      32.158  22.887  27.157  1.00  0.00     0.269 C 
BRANCH   8   9
ATOM      9  N   UNL A   1      33.222  21.979  26.723  1.00  0.00    -0.236 N 
ATOM     10  C   UNL A   1      32.064  20.760  23.752  1.00  0.00     0.077 A 
ATOM     11  C   UNL A   1      33.031  19.822  23.398  1.00  0.00     0.043 A 
ATOM     12  N   UNL A   1      31.780  20.973  25.063  1.00  0.00    -0.228 NA
ATOM     13  C   UNL A   1      33.988  19.455  24.368  1.00  0.00     0.071 A 
ATOM     14  C   UNL A   1      32.931  21.032  25.763  1.00  0.00     0.159 A 
ATOM     15  C   UNL A   1      34.114  20.420  25.386  1.00  0.00     0.055 A 
ATOM     16  C   UNL A   1      35.064  21.396  25.797  1.00  0.00     0.076 A 
ATOM     17  N   UNL A   1      34.537  22.308  26.648  1.00  0.00    -0.174 NA
BRANCH  10  18
ATOM     18  C   UNL A   1      32.011  22.069  23.060  1.00  0.00     0.038 A 
ATOM     19  C   UNL A   1      34.202  24.855  23.258  1.00  0.00     0.173 C 
ATOM     20  N   UNL A   1      33.084  23.995  22.925  1.00  0.00    -0.275 N 
ATOM     21  C   UNL A   1      33.186  22.666  22.614  1.00  0.00     0.118 A 
ATOM     22  N   UNL A   1      31.827  24.357  23.235  1.00  0.00    -0.181 NA
ATOM     23  C   UNL A   1      31.201  23.183  23.397  1.00  0.00     0.145 A 
ENDBRANCH  10  18
BRANCH  13  24
ATOM     24  C   UNL A   1      34.574  18.075  24.460  1.00  0.00     0.417 C 
ATOM     25  F   UNL A   1      35.898  18.017  24.742  1.00  0.00    -0.166 F 
ATOM     26  F   UNL A   1      33.966  17.337  25.434  1.00  0.00    -0.166 F 
ATOM     27  F   UNL A   1      34.417  17.357  23.312  1.00  0.00    -0.166 F 
ENDBRANCH  13  24
BRANCH  16  28
ATOM     28  C   UNL A   1      36.455  21.660  25.208  1.00  0.00     0.041 C 
ATOM     29  C   UNL A   1      36.722  22.242  23.842  1.00  0.00     0.011 C 
ATOM     30  C   UNL A   1      37.006  23.071  25.040  1.00  0.00     0.011 C 
ENDBRANCH  16  28
ENDBRANCH   8   9
ENDBRANCH   6   8
ENDBRANCH   5   6
ENDBRANCH   4   5
ENDBRANCH   3   4
ENDBRANCH   2   3
ENDBRANCH   1   2
BRANCH   1  31
ATOM     31  C   UNL A   1      32.624  28.385  24.188  1.00  0.00     0.188 C 
BRANCH  31  32
ATOM     32  O   UNL A   1      33.557  28.619  25.235  1.00  0.00    -0.376 OA
BRANCH  32  33
ATOM     33  C   UNL A   1      33.190  29.265  26.445  1.00  0.00     0.202 C 
BRANCH  33  34
ATOM     34  C   UNL A   1      33.982  30.508  26.851  1.00  0.00     0.261 C 
BRANCH  34  35
ATOM     35  O   UNL A   1      33.478  31.099  28.035  1.00  0.00    -0.460 OA
BRANCH  35  36
ATOM     36  C   UNL A   1      33.224  32.419  27.939  1.00  0.00     0.338 C 
ATOM     37  O   UNL A   1      32.355  32.955  27.287  1.00  0.00    -0.246 OA
BRANCH  36  38
ATOM     38  C   UNL A   1      34.238  33.126  28.741  1.00  0.00     0.060 A 
ATOM     39  C   UNL A   1      35.191  33.858  28.034  1.00  0.00     0.016 A 
ATOM     40  C   UNL A   1      34.479  32.602  30.009  1.00  0.00     0.016 A 
ATOM     41  C   UNL A   1      36.503  33.679  28.386  1.00  0.00     0.010 A 
ATOM     42  C   UNL A   1      35.782  32.357  30.320  1.00  0.00     0.010 A 
ATOM     43  C   UNL A   1      36.761  32.792  29.430  1.00  0.00    -0.014 A 
BRANCH  43  44
ATOM     44  C   UNL A   1      38.098  32.286  29.588  1.00  0.00     0.031 A 
ATOM     45  C   UNL A   1      38.186  30.849  29.285  1.00  0.00     0.074 A 
ATOM     46  C   UNL A   1      39.132  33.105  29.853  1.00  0.00     0.049 A 
ATOM     47  N   UNL A   1      38.332  29.883  30.126  1.00  0.00    -0.248 NA
ATOM     48  C   UNL A   1      37.853  30.422  27.914  1.00  0.00     0.031 C 
ATOM     49  C   UNL A   1      39.168  34.572  29.872  1.00  0.00     0.029 A 
ATOM     50  N   UNL A   1      40.430  32.773  30.050  1.00  0.00    -0.354 N 
ATOM     51  C   UNL A   1      38.308  28.736  29.350  1.00  0.00     0.074 A 
ATOM     52  C   UNL A   1      37.756  29.106  28.074  1.00  0.00     0.031 C 
ATOM     53  C   UNL A   1      40.459  34.984  29.818  1.00  0.00     0.029 A 
ATOM     54  C   UNL A   1      41.328  33.820  29.891  1.00  0.00     0.049 A 
ATOM     55  H   UNL A   1      40.715  31.860  30.288  1.00  0.00     0.167 HD
ATOM     56  C   UNL A   1      39.046  27.643  29.670  1.00  0.00     0.031 A 
ATOM     57  C   UNL A   1      42.670  33.685  29.736  1.00  0.00     0.031 A 
ATOM     58  C   UNL A   1      39.514  27.683  31.029  1.00  0.00     0.049 A 
ATOM     59  C   UNL A   1      43.024  32.324  30.214  1.00  0.00     0.074 A 
ATOM     60  C   UNL A   1      38.895  27.727  32.262  1.00  0.00     0.029 A 
ATOM     61  N   UNL A   1      40.804  28.115  31.229  1.00  0.00    -0.354 N 
ATOM     62  N   UNL A   1      42.926  31.947  31.457  1.00  0.00    -0.248 NA
ATOM     63  C   UNL A   1      43.046  31.246  29.234  1.00  0.00     0.031 C 
ATOM     64  C   UNL A   1      39.698  28.603  33.048  1.00  0.00     0.029 A 
ATOM     65  C   UNL A   1      40.793  28.999  32.277  1.00  0.00     0.049 A 
ATOM     66  H   UNL A   1      41.595  27.837  30.712  1.00  0.00     0.167 HD
ATOM     67  C   UNL A   1      42.450  30.646  31.396  1.00  0.00     0.074 A 
ATOM     68  C   UNL A   1      42.627  30.238  30.004  1.00  0.00     0.031 C 
ATOM     69  C   UNL A   1      41.687  30.129  32.402  1.00  0.00     0.031 A 
BRANCH  56  70
ATOM     70  C   UNL A   1      39.674  26.780  28.615  1.00  0.00    -0.014 A 
ATOM     71  C   UNL A   1      40.478  27.372  27.635  1.00  0.00     0.009 A 
ATOM     72  C   UNL A   1      39.312  25.429  28.418  1.00  0.00     0.009 A 
ATOM     73  C   UNL A   1      40.894  26.646  26.514  1.00  0.00     0.001 A 
ATOM     74  C   UNL A   1      39.766  24.687  27.330  1.00  0.00     0.001 A 
ATOM     75  C   UNL A   1      40.545  25.303  26.366  1.00  0.00     0.000 A 
ENDBRANCH  56  70
BRANCH  57  76
ATOM     76  C   UNL A   1      43.596  34.459  28.870  1.00  0.00    -0.014 A 
ATOM     77  C   UNL A   1      43.763  34.095  27.521  1.00  0.00     0.009 A 
ATOM     78  C   UNL A   1      44.073  35.723  29.262  1.00  0.00     0.009 A 
ATOM     79  C   UNL A   1      44.312  34.988  26.590  1.00  0.00     0.001 A 
ATOM     80  C   UNL A   1      44.631  36.611  28.335  1.00  0.00     0.001 A 
ATOM     81  C   UNL A   1      44.728  36.253  26.994  1.00  0.00     0.000 A 
ENDBRANCH  57  76
BRANCH  69  82
ATOM     82  C   UNL A   1      41.557  30.932  33.674  1.00  0.00    -0.014 A 
ATOM     83  C   UNL A   1      42.447  30.803  34.756  1.00  0.00     0.009 A 
ATOM     84  C   UNL A   1      40.635  31.988  33.691  1.00  0.00     0.009 A 
ATOM     85  C   UNL A   1      42.413  31.711  35.822  1.00  0.00     0.001 A 
ATOM     86  C   UNL A   1      40.612  32.902  34.745  1.00  0.00     0.001 A 
ATOM     87  C   UNL A   1      41.503  32.766  35.808  1.00  0.00     0.000 A 
ENDBRANCH  69  82
ENDBRANCH  43  44
ENDBRANCH  36  38
ENDBRANCH  35  36
ENDBRANCH  34  35
ENDBRANCH  33  34
ENDBRANCH  32  33
ENDBRANCH  31  32
ENDBRANCH   1  31
TORSDOF 21
ENDMDL
MODEL 2
REMARK VINA RESULT:     -10.5      4.351      8.691
REMARK SMILES Cn1cc(-c2cc(C(F)(F)F)c3c(C4CC4)nn(CC(=O)OCCOCCOCCOC(=O)c4ccc(-c5c6nc(c(-c7ccccc7)c7ccc([nH]7)c(-c7ccccc7)c7nc(c(-c8ccccc8)c8ccc5[nH]8)C=C7)C=C6)cc4)c3n2)cn1
REMARK SMILES IDX 26 1 25 2 24 3 23 4 22 5 20 6 21 7 19 8 18 9 5 10 6 11 83 12
REMARK SMILES IDX 7 13 82 14 12 15 13 16 17 17 4 18 1 19 2 20 3 21 85 22 84 23
REMARK SMILES IDX 8 24 9 25 10 26 11 27 14 28 15 29 16 30 27 31 28 32 29 33
REMARK SMILES IDX 30 34 31 35 32 36 33 37 34 38 35 39 81 40 36 41 80 42 37 43
REMARK SMILES IDX 38 44 39 45 74 46 40 47 79 48 73 49 75 50 41 51 78 52 72 53
REMARK SMILES IDX 71 54 42 56 64 57 49 58 63 59 50 60 53 61 62 62 76 63 51 64
REMARK SMILES IDX 52 65 61 67 77 68 54 69 43 70 44 71 48 72 45 73 47 74 46 75
REMARK SMILES IDX 65 76 66 77 70 78 67 79 69 80 68 81 55 82 56 83 60 84 57 85
REMARK SMILES IDX 59 86 58 87
REMARK H PARENT 75 55 53 66
REMARK Flexibility Score: inf
ROOT
ATOM      1  C   UNL A   1      37.048  21.497  25.210  1.00  0.00     0.188 C 
ENDROOT
BRANCH   1   2
ATOM      2  O   UNL A   1      35.911  21.427  26.073  1.00  0.00    -0.376 OA
BRANCH   2   3
ATOM      3  C   UNL A   1      35.020  22.542  26.061  1.00  0.00     0.202 C 
BRANCH   3   4
ATOM      4  C   UNL A   1      33.647  22.354  26.740  1.00  0.00     0.261 C 
BRANCH   4   5
ATOM      5  O   UNL A   1      32.901  23.554  27.063  1.00  0.00    -0.462 OA
BRANCH   5   6
ATOM      6  C   UNL A   1      31.572  23.497  26.824  1.00  0.00     0.327 C 
ATOM      7  O   UNL A   1      30.779  22.909  27.563  1.00  0.00    -0.250 OA
BRANCH   6   8
ATOM      8  C   UNL A   1      31.078  24.096  25.550  1.00  0.00     0.269 C 
BRANCH   8   9
ATOM      9  N   UNL A   1      30.731  25.510  25.391  1.00  0.00    -0.236 N 
ATOM     10  C   UNL A   1      33.752  27.015  24.878  1.00  0.00     0.077 A 
ATOM     11  C   UNL A   1      33.425  28.369  24.831  1.00  0.00     0.043 A 
ATOM     12  N   UNL A   1      33.038  26.177  25.673  1.00  0.00    -0.228 NA
ATOM     13  C   UNL A   1      32.128  28.754  25.233  1.00  0.00     0.071 A 
ATOM     14  C   UNL A   1      31.725  26.455  25.546  1.00  0.00     0.159 A 
ATOM     15  C   UNL A   1      31.212  27.686  25.177  1.00  0.00     0.055 A 
ATOM     16  C   UNL A   1      30.112  27.287  24.368  1.00  0.00     0.076 A 
ATOM     17  N   UNL A   1      29.787  25.984  24.539  1.00  0.00    -0.174 NA
BRANCH  10  18
ATOM     18  C   UNL A   1      34.075  26.287  23.629  1.00  0.00     0.038 A 
ATOM     19  C   UNL A   1      32.108  25.726  20.728  1.00  0.00     0.173 C 
ATOM     20  N   UNL A   1      33.186  25.694  21.695  1.00  0.00    -0.275 N 
ATOM     21  C   UNL A   1      33.632  26.777  22.405  1.00  0.00     0.118 A 
ATOM     22  N   UNL A   1      33.598  24.528  22.222  1.00  0.00    -0.181 NA
ATOM     23  C   UNL A   1      34.061  24.883  23.430  1.00  0.00     0.145 A 
ENDBRANCH  10  18
BRANCH  13  24
ATOM     24  C   UNL A   1      31.837  30.059  25.918  1.00  0.00     0.417 C 
ATOM     25  F   UNL A   1      30.931  30.855  25.302  1.00  0.00    -0.166 F 
ATOM     26  F   UNL A   1      31.348  29.864  27.177  1.00  0.00    -0.166 F 
ATOM     27  F   UNL A   1      32.948  30.831  26.078  1.00  0.00    -0.166 F 
ENDBRANCH  13  24
BRANCH  16  28
ATOM     28  C   UNL A   1      29.470  28.057  23.208  1.00  0.00     0.041 C 
ATOM     29  C   UNL A   1      29.128  29.526  23.226  1.00  0.00     0.011 C 
ATOM     30  C   UNL A   1      30.254  29.066  22.376  1.00  0.00     0.011 C 
ENDBRANCH  16  28
ENDBRANCH   8   9
ENDBRANCH   6   8
ENDBRANCH   5   6
ENDBRANCH   4   5
ENDBRANCH   3   4
ENDBRANCH   2   3
ENDBRANCH   1   2
BRANCH   1  31
ATOM     31  C   UNL A   1      38.138  22.480  25.647  1.00  0.00     0.188 C 
BRANCH  31  32
ATOM     32  O   UNL A   1      38.941  21.935  26.686  1.00  0.00    -0.376 OA
BRANCH  32  33
ATOM     33  C   UNL A   1      40.091  21.146  26.420  1.00  0.00     0.202 C 
BRANCH  33  34
ATOM     34  C   UNL A   1      41.313  21.852  25.834  1.00  0.00     0.261 C 
BRANCH  34  35
ATOM     35  O   UNL A   1      42.525  21.361  26.378  1.00  0.00    -0.460 OA
BRANCH  35  36
ATOM     36  C   UNL A   1      43.506  21.166  25.474  1.00  0.00     0.338 C 
ATOM     37  O   UNL A   1      43.747  20.150  24.860  1.00  0.00    -0.246 OA
BRANCH  36  38
ATOM     38  C   UNL A   1      44.288  22.412  25.391  1.00  0.00     0.060 A 
ATOM     39  C   UNL A   1      45.181  22.655  26.434  1.00  0.00     0.016 A 
ATOM     40  C   UNL A   1      43.723  23.432  24.631  1.00  0.00     0.016 A 
ATOM     41  C   UNL A   1      45.155  23.902  27.000  1.00  0.00     0.010 A 
ATOM     42  C   UNL A   1      43.632  24.650  25.231  1.00  0.00     0.010 A 
ATOM     43  C   UNL A   1      44.247  24.817  26.470  1.00  0.00    -0.014 A 
BRANCH  43  44
ATOM     44  C   UNL A   1      43.911  25.982  27.245  1.00  0.00     0.031 A 
ATOM     45  C   UNL A   1      44.859  27.085  27.027  1.00  0.00     0.074 A 
ATOM     46  C   UNL A   1      42.775  26.042  27.964  1.00  0.00     0.049 A 
ATOM     47  N   UNL A   1      45.764  27.506  27.843  1.00  0.00    -0.248 NA
ATOM     48  C   UNL A   1      44.957  27.637  25.664  1.00  0.00     0.031 C 
ATOM     49  C   UNL A   1      41.646  25.105  27.990  1.00  0.00     0.029 A 
ATOM     50  N   UNL A   1      42.341  27.053  28.754  1.00  0.00    -0.354 N 
ATOM     51  C   UNL A   1      46.413  28.518  27.154  1.00  0.00     0.074 A 
ATOM     52  C   UNL A   1      46.062  28.371  25.767  1.00  0.00     0.031 C 
ATOM     53  C   UNL A   1      40.574  25.718  28.551  1.00  0.00     0.029 A 
ATOM     54  C   UNL A   1      40.981  27.029  29.033  1.00  0.00     0.049 A 
ATOM     55  H   UNL A   1      42.943  27.750  29.103  1.00  0.00     0.167 HD
ATOM     56  C   UNL A   1      46.916  29.605  27.792  1.00  0.00     0.031 A 
ATOM     57  C   UNL A   1      40.264  28.068  29.533  1.00  0.00     0.031 A 
ATOM     58  C   UNL A   1      47.031  29.398  29.209  1.00  0.00     0.049 A 
ATOM     59  C   UNL A   1      41.240  29.016  30.128  1.00  0.00     0.074 A 
ATOM     60  C   UNL A   1      47.728  28.509  30.003  1.00  0.00     0.029 A 
ATOM     61  N   UNL A   1      46.022  29.905  29.994  1.00  0.00    -0.354 N 
ATOM     62  N   UNL A   1      41.961  28.745  31.179  1.00  0.00    -0.248 NA
ATOM     63  C   UNL A   1      41.747  30.087  29.282  1.00  0.00     0.031 C 
ATOM     64  C   UNL A   1      46.841  28.190  31.070  1.00  0.00     0.029 A 
ATOM     65  C   UNL A   1      45.676  28.943  30.907  1.00  0.00     0.049 A 
ATOM     66  H   UNL A   1      45.621  30.801  29.915  1.00  0.00     0.167 HD
ATOM     67  C   UNL A   1      43.205  29.296  30.907  1.00  0.00     0.074 A 
ATOM     68  C   UNL A   1      42.989  30.185  29.767  1.00  0.00     0.031 C 
ATOM     69  C   UNL A   1      44.341  28.758  31.435  1.00  0.00     0.031 A 
BRANCH  56  70
ATOM     70  C   UNL A   1      46.890  30.967  27.164  1.00  0.00    -0.014 A 
ATOM     71  C   UNL A   1      48.064  31.726  27.123  1.00  0.00     0.009 A 
ATOM     72  C   UNL A   1      45.689  31.624  26.814  1.00  0.00     0.009 A 
ATOM     73  C   UNL A   1      48.034  33.075  26.754  1.00  0.00     0.001 A 
ATOM     74  C   UNL A   1      45.661  32.953  26.398  1.00  0.00     0.001 A 
ATOM     75  C   UNL A   1      46.835  33.685  26.385  1.00  0.00     0.000 A 
ENDBRANCH  56  70
BRANCH  57  76
ATOM     76  C   UNL A   1      38.880  28.496  29.204  1.00  0.00    -0.014 A 
ATOM     77  C   UNL A   1      37.939  28.675  30.234  1.00  0.00     0.009 A 
ATOM     78  C   UNL A   1      38.564  29.026  27.940  1.00  0.00     0.009 A 
ATOM     79  C   UNL A   1      36.768  29.419  30.028  1.00  0.00     0.001 A 
ATOM     80  C   UNL A   1      37.391  29.760  27.731  1.00  0.00     0.001 A 
ATOM     81  C   UNL A   1      36.505  29.977  28.781  1.00  0.00     0.000 A 
ENDBRANCH  57  76
BRANCH  69  82
ATOM     82  C   UNL A   1      44.194  27.688  32.489  1.00  0.00    -0.014 A 
ATOM     83  C   UNL A   1      44.160  26.314  32.186  1.00  0.00     0.009 A 
ATOM     84  C   UNL A   1      44.297  28.072  33.832  1.00  0.00     0.009 A 
ATOM     85  C   UNL A   1      44.232  25.356  33.204  1.00  0.00     0.001 A 
ATOM     86  C   UNL A   1      44.386  27.117  34.846  1.00  0.00     0.001 A 
ATOM     87  C   UNL A   1      44.357  25.759  34.532  1.00  0.00     0.000 A 
ENDBRANCH  69  82
ENDBRANCH  43  44
ENDBRANCH  36  38
ENDBRANCH  35  36
ENDBRANCH  34  35
ENDBRANCH  33  34
ENDBRANCH  32  33
ENDBRANCH  31  32
ENDBRANCH   1  31
TORSDOF 21
ENDMDL
MODEL 3
REMARK VINA RESULT:     -10.2      5.028      9.216
REMARK SMILES Cn1cc(-c2cc(C(F)(F)F)c3c(C4CC4)nn(CC(=O)OCCOCCOCCOC(=O)c4ccc(-c5c6nc(c(-c7ccccc7)c7ccc([nH]7)c(-c7ccccc7)c7nc(c(-c8ccccc8)c8ccc5[nH]8)C=C7)C=C6)cc4)c3n2)cn1
REMARK SMILES IDX 26 1 25 2 24 3 23 4 22 5 20 6 21 7 19 8 18 9 5 10 6 11 83 12
REMARK SMILES IDX 7 13 82 14 12 15 13 16 17 17 4 18 1 19 2 20 3 21 85 22 84 23
REMARK SMILES IDX 8 24 9 25 10 26 11 27 14 28 15 29 16 30 27 31 28 32 29 33
REMARK SMILES IDX 30 34 31 35 32 36 33 37 34 38 35 39 81 40 36 41 80 42 37 43
REMARK SMILES IDX 38 44 39 45 74 46 40 47 79 48 73 49 75 50 41 51 78 52 72 53
REMARK SMILES IDX 71 54 42 56 64 57 49 58 63 59 50 60 53 61 62 62 76 63 51 64
REMARK SMILES IDX 52 65 61 67 77 68 54 69 43 70 44 71 48 72 45 73 47 74 46 75
REMARK SMILES IDX 65 76 66 77 70 78 67 79 69 80 68 81 55 82 56 83 60 84 57 85
REMARK SMILES IDX 59 86 58 87
REMARK H PARENT 75 55 53 66
REMARK Flexibility Score: inf
ROOT
ATOM      1  C   UNL A   1      37.873  21.958  25.088  1.00  0.00     0.188 C 
ENDROOT
BRANCH   1   2
ATOM      2  O   UNL A   1      37.534  22.816  26.180  1.00  0.00    -0.376 OA
BRANCH   2   3
ATOM      3  C   UNL A   1      36.340  23.587  26.049  1.00  0.00     0.202 C 
BRANCH   3   4
ATOM      4  C   UNL A   1      35.032  22.953  26.566  1.00  0.00     0.261 C 
BRANCH   4   5
ATOM      5  O   UNL A   1      33.839  23.774  26.527  1.00  0.00    -0.462 OA
BRANCH   5   6
ATOM      6  C   UNL A   1      32.737  23.231  27.090  1.00  0.00     0.327 C 
ATOM      7  O   UNL A   1      32.763  22.200  27.764  1.00  0.00    -0.250 OA
BRANCH   6   8
ATOM      8  C   UNL A   1      31.424  23.873  26.785  1.00  0.00     0.269 C 
BRANCH   8   9
ATOM      9  N   UNL A   1      31.115  24.543  25.520  1.00  0.00    -0.236 N 
ATOM     10  C   UNL A   1      31.207  27.857  26.332  1.00  0.00     0.077 A 
ATOM     11  C   UNL A   1      30.812  28.482  25.151  1.00  0.00     0.043 A 
ATOM     12  N   UNL A   1      30.700  26.639  26.652  1.00  0.00    -0.228 NA
ATOM     13  C   UNL A   1      30.273  27.680  24.123  1.00  0.00     0.071 A 
ATOM     14  C   UNL A   1      30.696  25.857  25.553  1.00  0.00     0.159 A 
ATOM     15  C   UNL A   1      30.640  26.327  24.252  1.00  0.00     0.055 A 
ATOM     16  C   UNL A   1      31.503  25.404  23.597  1.00  0.00     0.076 A 
ATOM     17  N   UNL A   1      31.747  24.301  24.342  1.00  0.00    -0.174 NA
BRANCH  10  18
ATOM     18  C   UNL A   1      32.631  27.875  26.741  1.00  0.00     0.038 A 
ATOM     19  C   UNL A   1      34.762  30.611  27.498  1.00  0.00     0.173 C 
ATOM     20  N   UNL A   1      34.265  29.274  27.246  1.00  0.00    -0.275 N 
ATOM     21  C   UNL A   1      33.067  28.788  27.697  1.00  0.00     0.118 A 
ATOM     22  N   UNL A   1      34.786  28.526  26.259  1.00  0.00    -0.181 NA
ATOM     23  C   UNL A   1      33.764  27.735  25.900  1.00  0.00     0.145 A 
ENDBRANCH  10  18
BRANCH  13  24
ATOM     24  C   UNL A   1      29.200  28.160  23.186  1.00  0.00     0.417 C 
ATOM     25  F   UNL A   1      28.079  27.402  23.142  1.00  0.00    -0.166 F 
ATOM     26  F   UNL A   1      28.775  29.414  23.514  1.00  0.00    -0.166 F 
ATOM     27  F   UNL A   1      29.628  28.250  21.896  1.00  0.00    -0.166 F 
ENDBRANCH  13  24
BRANCH  16  28
ATOM     28  C   UNL A   1      32.340  25.636  22.333  1.00  0.00     0.041 C 
ATOM     29  C   UNL A   1      33.045  26.922  21.983  1.00  0.00     0.011 C 
ATOM     30  C   UNL A   1      33.859  25.747  22.380  1.00  0.00     0.011 C 
ENDBRANCH  16  28
ENDBRANCH   8   9
ENDBRANCH   6   8
ENDBRANCH   5   6
ENDBRANCH   4   5
ENDBRANCH   3   4
ENDBRANCH   2   3
ENDBRANCH   1   2
BRANCH   1  31
ATOM     31  C   UNL A   1      38.764  20.766  25.449  1.00  0.00     0.188 C 
BRANCH  31  32
ATOM     32  O   UNL A   1      39.996  21.192  26.015  1.00  0.00    -0.376 OA
BRANCH  32  33
ATOM     33  C   UNL A   1      40.752  20.369  26.890  1.00  0.00     0.202 C 
BRANCH  33  34
ATOM     34  C   UNL A   1      42.258  20.272  26.647  1.00  0.00     0.261 C 
BRANCH  34  35
ATOM     35  O   UNL A   1      42.594  20.481  25.288  1.00  0.00    -0.460 OA
BRANCH  35  36
ATOM     36  C   UNL A   1      43.865  20.167  24.970  1.00  0.00     0.338 C 
ATOM     37  O   UNL A   1      44.344  19.059  24.862  1.00  0.00    -0.246 OA
BRANCH  36  38
ATOM     38  C   UNL A   1      44.610  21.430  24.818  1.00  0.00     0.060 A 
ATOM     39  C   UNL A   1      45.680  21.628  25.689  1.00  0.00     0.016 A 
ATOM     40  C   UNL A   1      43.905  22.482  24.239  1.00  0.00     0.016 A 
ATOM     41  C   UNL A   1      45.752  22.840  26.324  1.00  0.00     0.010 A 
ATOM     42  C   UNL A   1      43.920  23.661  24.919  1.00  0.00     0.010 A 
ATOM     43  C   UNL A   1      44.754  23.767  26.029  1.00  0.00    -0.014 A 
BRANCH  43  44
ATOM     44  C   UNL A   1      44.561  24.879  26.922  1.00  0.00     0.031 A 
ATOM     45  C   UNL A   1      45.667  25.846  26.851  1.00  0.00     0.074 A 
ATOM     46  C   UNL A   1      43.419  25.030  27.617  1.00  0.00     0.049 A 
ATOM     47  N   UNL A   1      46.591  26.037  27.729  1.00  0.00    -0.248 NA
ATOM     48  C   UNL A   1      45.897  26.521  25.561  1.00  0.00     0.031 C 
ATOM     49  C   UNL A   1      42.166  24.273  27.513  1.00  0.00     0.029 A 
ATOM     50  N   UNL A   1      43.106  26.002  28.506  1.00  0.00    -0.354 N 
ATOM     51  C   UNL A   1      47.407  27.010  27.172  1.00  0.00     0.074 A 
ATOM     52  C   UNL A   1      47.091  27.067  25.770  1.00  0.00     0.031 C 
ATOM     53  C   UNL A   1      41.173  24.974  28.115  1.00  0.00     0.029 A 
ATOM     54  C   UNL A   1      41.747  26.150  28.750  1.00  0.00     0.049 A 
ATOM     55  H   UNL A   1      43.788  26.561  28.944  1.00  0.00     0.167 HD
ATOM     56  C   UNL A   1      48.037  27.935  27.939  1.00  0.00     0.031 A 
ATOM     57  C   UNL A   1      41.170  27.224  29.347  1.00  0.00     0.031 A 
ATOM     58  C   UNL A   1      48.065  27.562  29.327  1.00  0.00     0.049 A 
ATOM     59  C   UNL A   1      42.249  27.948  30.067  1.00  0.00     0.074 A 
ATOM     60  C   UNL A   1      48.595  26.499  30.031  1.00  0.00     0.029 A 
ATOM     61  N   UNL A   1      47.111  28.126  30.141  1.00  0.00    -0.354 N 
ATOM     62  N   UNL A   1      42.882  27.462  31.096  1.00  0.00    -0.248 NA
ATOM     63  C   UNL A   1      42.939  29.016  29.357  1.00  0.00     0.031 C 
ATOM     64  C   UNL A   1      47.630  26.203  31.036  1.00  0.00     0.029 A 
ATOM     65  C   UNL A   1      46.593  27.133  30.932  1.00  0.00     0.049 A 
ATOM     66  H   UNL A   1      46.847  29.075  30.153  1.00  0.00     0.167 HD
ATOM     67  C   UNL A   1      44.202  27.848  30.916  1.00  0.00     0.074 A 
ATOM     68  C   UNL A   1      44.161  28.876  29.878  1.00  0.00     0.031 C 
ATOM     69  C   UNL A   1      45.227  27.093  31.406  1.00  0.00     0.031 A 
BRANCH  56  70
ATOM     70  C   UNL A   1      48.232  29.346  27.467  1.00  0.00    -0.014 A 
ATOM     71  C   UNL A   1      49.529  29.858  27.359  1.00  0.00     0.009 A 
ATOM     72  C   UNL A   1      47.167  30.265  27.345  1.00  0.00     0.009 A 
ATOM     73  C   UNL A   1      49.745  31.224  27.141  1.00  0.00     0.001 A 
ATOM     74  C   UNL A   1      47.376  31.617  27.078  1.00  0.00     0.001 A 
ATOM     75  C   UNL A   1      48.670  32.099  26.994  1.00  0.00     0.000 A 
ENDBRANCH  56  70
BRANCH  57  76
ATOM     76  C   UNL A   1      39.876  27.886  29.037  1.00  0.00    -0.014 A 
ATOM     77  C   UNL A   1      38.963  28.159  30.072  1.00  0.00     0.009 A 
ATOM     78  C   UNL A   1      39.665  28.527  27.803  1.00  0.00     0.009 A 
ATOM     79  C   UNL A   1      37.929  29.091  29.903  1.00  0.00     0.001 A 
ATOM     80  C   UNL A   1      38.627  29.450  27.630  1.00  0.00     0.001 A 
ATOM     81  C   UNL A   1      37.774  29.750  28.687  1.00  0.00     0.000 A 
ENDBRANCH  57  76
BRANCH  69  82
ATOM     82  C   UNL A   1      44.885  25.950  32.329  1.00  0.00    -0.014 A 
ATOM     83  C   UNL A   1      44.576  24.657  31.866  1.00  0.00     0.009 A 
ATOM     84  C   UNL A   1      45.080  26.137  33.704  1.00  0.00     0.009 A 
ATOM     85  C   UNL A   1      44.472  23.584  32.760  1.00  0.00     0.001 A 
ATOM     86  C   UNL A   1      44.992  25.064  34.593  1.00  0.00     0.001 A 
ATOM     87  C   UNL A   1      44.692  23.787  34.120  1.00  0.00     0.000 A 
ENDBRANCH  69  82
ENDBRANCH  43  44
ENDBRANCH  36  38
ENDBRANCH  35  36
ENDBRANCH  34  35
ENDBRANCH  33  34
ENDBRANCH  32  33
ENDBRANCH  31  32
ENDBRANCH   1  31
TORSDOF 21
ENDMDL
