MODEL 1
REMARK VINA RESULT:     -10.7      0.000      0.000
REMARK SMILES C[C@](Nc1ccc(C(N)=O)nn1)(C(=O)OCCOCCOCCOC(=O)c1ccc(-c2c3nc(c(-c4ccccc4)c4ccc([nH]4)c(-c4ccccc4)c4nc(c(-c5ccccc5)c5ccc2[nH]5)C=C4)C=C3)cc1)c1ccccc1
REMARK SMILES IDX 19 1 18 2 17 3 16 4 15 5 13 6 14 7 2 8 1 9 75 10 76 11 80 12
REMARK SMILES IDX 77 13 79 14 78 15 3 16 4 18 5 19 12 20 6 21 11 22 7 23 8 24
REMARK SMILES IDX 9 25 10 26 20 29 21 30 22 31 23 32 24 33 25 34 26 35 27 36
REMARK SMILES IDX 28 37 74 38 29 39 73 40 30 41 31 42 32 43 67 44 33 45 72 46
REMARK SMILES IDX 66 47 68 48 34 49 71 50 65 51 64 52 35 54 57 55 42 56 56 57
REMARK SMILES IDX 43 58 46 59 55 60 69 61 44 62 45 63 54 65 70 66 47 67 36 68
REMARK SMILES IDX 37 69 41 70 38 71 40 72 39 73 58 74 59 75 63 76 60 77 62 78
REMARK SMILES IDX 61 79 48 80 49 81 53 82 50 83 52 84 51 85
REMARK H PARENT 3 17 9 27 9 28 68 53 46 64
REMARK Flexibility Score: inf
ROOT
ATOM      1  C   UNL A   1      40.320  21.289  26.227  1.00  0.00     0.188 C 
ENDROOT
BRANCH   1   2
ATOM      2  O   UNL A   1      39.144  22.051  26.461  1.00  0.00    -0.376 OA
BRANCH   2   3
ATOM      3  C   UNL A   1      38.082  21.988  25.516  1.00  0.00     0.202 C 
BRANCH   3   4
ATOM      4  C   UNL A   1      37.059  23.135  25.414  1.00  0.00     0.261 C 
BRANCH   4   5
ATOM      5  O   UNL A   1      35.687  22.813  25.721  1.00  0.00    -0.461 OA
BRANCH   5   6
ATOM      6  C   UNL A   1      34.886  22.506  24.651  1.00  0.00     0.336 C 
ATOM      7  O   UNL A   1      35.210  22.703  23.484  1.00  0.00    -0.249 OA
BRANCH   6   8
ATOM      8  C   UNL A   1      33.472  21.940  25.085  1.00  0.00     0.160 C 
ATOM      9  C   UNL A   1      33.726  21.582  26.566  1.00  0.00     0.053 C 
BRANCH   8  10
ATOM     10  C   UNL A   1      32.426  23.049  24.835  1.00  0.00    -0.012 A 
ATOM     11  C   UNL A   1      31.486  22.917  23.794  1.00  0.00     0.007 A 
ATOM     12  C   UNL A   1      32.440  24.272  25.523  1.00  0.00     0.007 A 
ATOM     13  C   UNL A   1      30.685  23.985  23.385  1.00  0.00     0.000 A 
ATOM     14  C   UNL A   1      31.615  25.337  25.130  1.00  0.00     0.000 A 
ATOM     15  C   UNL A   1      30.761  25.204  24.042  1.00  0.00     0.000 A 
ENDBRANCH   8  10
BRANCH   8  16
ATOM     16  N   UNL A   1      33.128  20.722  24.315  1.00  0.00    -0.350 N 
ATOM     17  H   UNL A   1      32.710  20.860  23.433  1.00  0.00     0.163 HD
BRANCH  16  18
ATOM     18  C   UNL A   1      33.330  19.422  24.706  1.00  0.00     0.149 A 
ATOM     19  C   UNL A   1      34.385  18.629  24.289  1.00  0.00     0.051 A 
ATOM     20  N   UNL A   1      32.364  18.893  25.492  1.00  0.00    -0.132 NA
ATOM     21  C   UNL A   1      34.350  17.256  24.531  1.00  0.00     0.040 A 
ATOM     22  N   UNL A   1      32.327  17.550  25.766  1.00  0.00    -0.143 NA
ATOM     23  C   UNL A   1      33.280  16.749  25.245  1.00  0.00     0.150 A 
BRANCH  23  24
ATOM     24  C   UNL A   1      33.074  15.281  25.390  1.00  0.00     0.269 C 
ATOM     25  N   UNL A   1      31.774  14.853  25.425  1.00  0.00    -0.364 N 
ATOM     26  O   UNL A   1      34.010  14.494  25.446  1.00  0.00    -0.268 OA
ATOM     27  H   UNL A   1      31.038  15.507  25.379  1.00  0.00     0.160 HD
ATOM     28  H   UNL A   1      31.573  13.891  25.495  1.00  0.00     0.160 HD
ENDBRANCH  23  24
ENDBRANCH  16  18
ENDBRANCH   8  16
ENDBRANCH   6   8
ENDBRANCH   5   6
ENDBRANCH   4   5
ENDBRANCH   3   4
ENDBRANCH   2   3
ENDBRANCH   1   2
BRANCH   1  29
ATOM     29  C   UNL A   1      41.110  20.750  27.433  1.00  0.00     0.188 C 
BRANCH  29  30
ATOM     30  O   UNL A   1      42.488  20.597  27.199  1.00  0.00    -0.376 OA
BRANCH  30  31
ATOM     31  C   UNL A   1      42.936  20.629  25.855  1.00  0.00     0.202 C 
BRANCH  31  32
ATOM     32  C   UNL A   1      44.215  21.397  25.459  1.00  0.00     0.261 C 
BRANCH  32  33
ATOM     33  O   UNL A   1      44.538  22.592  26.194  1.00  0.00    -0.460 OA
BRANCH  33  34
ATOM     34  C   UNL A   1      44.363  23.782  25.576  1.00  0.00     0.338 C 
ATOM     35  O   UNL A   1      44.558  24.029  24.394  1.00  0.00    -0.246 OA
BRANCH  34  36
ATOM     36  C   UNL A   1      43.665  24.695  26.518  1.00  0.00     0.060 A 
ATOM     37  C   UNL A   1      44.046  26.043  26.562  1.00  0.00     0.016 A 
ATOM     38  C   UNL A   1      42.633  24.237  27.341  1.00  0.00     0.016 A 
ATOM     39  C   UNL A   1      43.410  26.926  27.441  1.00  0.00     0.010 A 
ATOM     40  C   UNL A   1      42.010  25.119  28.237  1.00  0.00     0.010 A 
ATOM     41  C   UNL A   1      42.405  26.467  28.306  1.00  0.00    -0.014 A 
BRANCH  41  42
ATOM     42  C   UNL A   1      41.894  27.357  29.384  1.00  0.00     0.031 A 
ATOM     43  C   UNL A   1      42.646  27.416  30.687  1.00  0.00     0.074 A 
ATOM     44  C   UNL A   1      40.805  28.130  29.211  1.00  0.00     0.049 A 
ATOM     45  N   UNL A   1      42.387  28.112  31.765  1.00  0.00    -0.248 NA
ATOM     46  C   UNL A   1      43.847  26.571  30.787  1.00  0.00     0.031 C 
ATOM     47  C   UNL A   1      39.993  28.190  28.000  1.00  0.00     0.029 A 
ATOM     48  N   UNL A   1      40.203  29.027  30.062  1.00  0.00    -0.354 N 
ATOM     49  C   UNL A   1      43.383  27.781  32.676  1.00  0.00     0.074 A 
ATOM     50  C   UNL A   1      44.242  26.813  32.028  1.00  0.00     0.031 C 
ATOM     51  C   UNL A   1      39.021  29.104  28.170  1.00  0.00     0.029 A 
ATOM     52  C   UNL A   1      39.101  29.649  29.525  1.00  0.00     0.049 A 
ATOM     53  H   UNL A   1      40.530  29.206  30.974  1.00  0.00     0.167 HD
ATOM     54  C   UNL A   1      43.565  28.234  33.938  1.00  0.00     0.031 A 
ATOM     55  C   UNL A   1      38.242  30.536  30.069  1.00  0.00     0.031 A 
ATOM     56  C   UNL A   1      42.698  29.169  34.604  1.00  0.00     0.049 A 
ATOM     57  C   UNL A   1      38.428  30.965  31.505  1.00  0.00     0.074 A 
ATOM     58  C   UNL A   1      42.799  29.672  35.891  1.00  0.00     0.029 A 
ATOM     59  N   UNL A   1      41.565  29.735  34.043  1.00  0.00    -0.354 N 
ATOM     60  N   UNL A   1      39.384  30.657  32.348  1.00  0.00    -0.248 NA
ATOM     61  C   UNL A   1      37.404  31.861  32.067  1.00  0.00     0.031 C 
ATOM     62  C   UNL A   1      41.693  30.493  36.129  1.00  0.00     0.029 A 
ATOM     63  C   UNL A   1      40.944  30.561  34.966  1.00  0.00     0.049 A 
ATOM     64  H   UNL A   1      41.249  29.574  33.124  1.00  0.00     0.167 HD
ATOM     65  C   UNL A   1      39.087  31.333  33.527  1.00  0.00     0.074 A 
ATOM     66  C   UNL A   1      37.882  32.097  33.280  1.00  0.00     0.031 C 
ATOM     67  C   UNL A   1      39.745  31.317  34.712  1.00  0.00     0.031 A 
BRANCH  54  68
ATOM     68  C   UNL A   1      44.733  27.681  34.708  1.00  0.00    -0.014 A 
ATOM     69  C   UNL A   1      45.987  28.311  34.686  1.00  0.00     0.009 A 
ATOM     70  C   UNL A   1      44.561  26.536  35.502  1.00  0.00     0.009 A 
ATOM     71  C   UNL A   1      47.053  27.788  35.421  1.00  0.00     0.001 A 
ATOM     72  C   UNL A   1      45.620  26.033  36.260  1.00  0.00     0.001 A 
ATOM     73  C   UNL A   1      46.867  26.655  36.213  1.00  0.00     0.000 A 
ENDBRANCH  54  68
BRANCH  55  74
ATOM     74  C   UNL A   1      37.080  31.054  29.289  1.00  0.00    -0.014 A 
ATOM     75  C   UNL A   1      36.007  30.212  28.951  1.00  0.00     0.009 A 
ATOM     76  C   UNL A   1      37.074  32.374  28.813  1.00  0.00     0.009 A 
ATOM     77  C   UNL A   1      34.978  30.669  28.122  1.00  0.00     0.001 A 
ATOM     78  C   UNL A   1      36.024  32.840  28.019  1.00  0.00     0.001 A 
ATOM     79  C   UNL A   1      34.985  31.984  27.660  1.00  0.00     0.000 A 
ENDBRANCH  55  74
BRANCH  67  80
ATOM     80  C   UNL A   1      39.201  32.180  35.820  1.00  0.00    -0.014 A 
ATOM     81  C   UNL A   1      39.583  33.524  35.962  1.00  0.00     0.009 A 
ATOM     82  C   UNL A   1      38.267  31.645  36.723  1.00  0.00     0.009 A 
ATOM     83  C   UNL A   1      39.076  34.298  37.009  1.00  0.00     0.001 A 
ATOM     84  C   UNL A   1      37.736  32.431  37.747  1.00  0.00     0.001 A 
ATOM     85  C   UNL A   1      38.151  33.753  37.897  1.00  0.00     0.000 A 
ENDBRANCH  67  80
ENDBRANCH  41  42
ENDBRANCH  34  36
ENDBRANCH  33  34
ENDBRANCH  32  33
ENDBRANCH  31  32
ENDBRANCH  30  31
ENDBRANCH  29  30
ENDBRANCH   1  29
TORSDOF 21
ENDMDL
MODEL 2
REMARK VINA RESULT:     -10.4      1.732      3.877
REMARK SMILES C[C@](Nc1ccc(C(N)=O)nn1)(C(=O)OCCOCCOCCOC(=O)c1ccc(-c2c3nc(c(-c4ccccc4)c4ccc([nH]4)c(-c4ccccc4)c4nc(c(-c5ccccc5)c5ccc2[nH]5)C=C4)C=C3)cc1)c1ccccc1
REMARK SMILES IDX 19 1 18 2 17 3 16 4 15 5 13 6 14 7 2 8 1 9 75 10 76 11 80 12
REMARK SMILES IDX 77 13 79 14 78 15 3 16 4 18 5 19 12 20 6 21 11 22 7 23 8 24
REMARK SMILES IDX 9 25 10 26 20 29 21 30 22 31 23 32 24 33 25 34 26 35 27 36
REMARK SMILES IDX 28 37 74 38 29 39 73 40 30 41 31 42 32 43 67 44 33 45 72 46
REMARK SMILES IDX 66 47 68 48 34 49 71 50 65 51 64 52 35 54 57 55 42 56 56 57
REMARK SMILES IDX 43 58 46 59 55 60 69 61 44 62 45 63 54 65 70 66 47 67 36 68
REMARK SMILES IDX 37 69 41 70 38 71 40 72 39 73 58 74 59 75 63 76 60 77 62 78
REMARK SMILES IDX 61 79 48 80 49 81 53 82 50 83 52 84 51 85
REMARK H PARENT 3 17 9 27 9 28 68 53 46 64
REMARK Flexibility Score: inf
ROOT
ATOM      1  C   UNL A   1      40.010  21.772  26.915  1.00  0.00     0.188 C 
ENDROOT
BRANCH   1   2
ATOM      2  O   UNL A   1      39.335  22.172  25.731  1.00  0.00    -0.376 OA
BRANCH   2   3
ATOM      3  C   UNL A   1      38.129  21.510  25.368  1.00  0.00     0.202 C 
BRANCH   3   4
ATOM      4  C   UNL A   1      37.144  22.167  24.383  1.00  0.00     0.261 C 
BRANCH   4   5
ATOM      5  O   UNL A   1      35.761  21.770  24.484  1.00  0.00    -0.461 OA
BRANCH   5   6
ATOM      6  C   UNL A   1      34.874  22.478  23.712  1.00  0.00     0.336 C 
ATOM      7  O   UNL A   1      35.216  23.245  22.818  1.00  0.00    -0.249 OA
BRANCH   6   8
ATOM      8  C   UNL A   1      33.368  22.256  24.149  1.00  0.00     0.160 C 
ATOM      9  C   UNL A   1      32.609  22.964  23.004  1.00  0.00     0.053 C 
BRANCH   8  10
ATOM     10  C   UNL A   1      33.132  20.734  24.265  1.00  0.00    -0.012 A 
ATOM     11  C   UNL A   1      32.614  20.010  23.174  1.00  0.00     0.007 A 
ATOM     12  C   UNL A   1      33.292  20.033  25.471  1.00  0.00     0.007 A 
ATOM     13  C   UNL A   1      32.169  18.693  23.308  1.00  0.00     0.000 A 
ATOM     14  C   UNL A   1      32.870  18.701  25.598  1.00  0.00     0.000 A 
ATOM     15  C   UNL A   1      32.280  18.042  24.526  1.00  0.00     0.000 A 
ENDBRANCH   8  10
BRANCH   8  16
ATOM     16  N   UNL A   1      33.085  22.923  25.441  1.00  0.00    -0.350 N 
ATOM     17  H   UNL A   1      33.081  22.351  26.242  1.00  0.00     0.163 HD
BRANCH  16  18
ATOM     18  C   UNL A   1      32.829  24.258  25.635  1.00  0.00     0.149 A 
ATOM     19  C   UNL A   1      33.739  25.276  25.408  1.00  0.00     0.051 A 
ATOM     20  N   UNL A   1      31.615  24.547  26.158  1.00  0.00    -0.132 NA
ATOM     21  C   UNL A   1      33.467  26.558  25.886  1.00  0.00     0.040 A 
ATOM     22  N   UNL A   1      31.318  25.808  26.610  1.00  0.00    -0.143 NA
ATOM     23  C   UNL A   1      32.256  26.775  26.516  1.00  0.00     0.150 A 
BRANCH  23  24
ATOM     24  C   UNL A   1      31.965  28.059  27.211  1.00  0.00     0.269 C 
ATOM     25  N   UNL A   1      31.150  27.982  28.309  1.00  0.00    -0.364 N 
ATOM     26  O   UNL A   1      32.449  29.122  26.844  1.00  0.00    -0.268 OA
ATOM     27  H   UNL A   1      30.773  27.114  28.583  1.00  0.00     0.160 HD
ATOM     28  H   UNL A   1      30.941  28.794  28.825  1.00  0.00     0.160 HD
ENDBRANCH  23  24
ENDBRANCH  16  18
ENDBRANCH   8  16
ENDBRANCH   6   8
ENDBRANCH   5   6
ENDBRANCH   4   5
ENDBRANCH   3   4
ENDBRANCH   2   3
ENDBRANCH   1   2
BRANCH   1  29
ATOM     29  C   UNL A   1      41.154  20.748  26.810  1.00  0.00     0.188 C 
BRANCH  29  30
ATOM     30  O   UNL A   1      41.999  20.936  25.701  1.00  0.00    -0.376 OA
BRANCH  30  31
ATOM     31  C   UNL A   1      43.333  20.469  25.803  1.00  0.00     0.202 C 
BRANCH  31  32
ATOM     32  C   UNL A   1      44.524  21.359  25.392  1.00  0.00     0.261 C 
BRANCH  32  33
ATOM     33  O   UNL A   1      44.741  22.577  26.131  1.00  0.00    -0.460 OA
BRANCH  33  34
ATOM     34  C   UNL A   1      44.509  23.750  25.499  1.00  0.00     0.338 C 
ATOM     35  O   UNL A   1      44.673  23.986  24.311  1.00  0.00    -0.246 OA
BRANCH  34  36
ATOM     36  C   UNL A   1      43.794  24.650  26.441  1.00  0.00     0.060 A 
ATOM     37  C   UNL A   1      44.148  26.005  26.483  1.00  0.00     0.016 A 
ATOM     38  C   UNL A   1      42.773  24.171  27.267  1.00  0.00     0.016 A 
ATOM     39  C   UNL A   1      43.496  26.876  27.362  1.00  0.00     0.010 A 
ATOM     40  C   UNL A   1      42.135  25.042  28.163  1.00  0.00     0.010 A 
ATOM     41  C   UNL A   1      42.502  26.398  28.229  1.00  0.00    -0.014 A 
BRANCH  41  42
ATOM     42  C   UNL A   1      41.975  27.278  29.307  1.00  0.00     0.031 A 
ATOM     43  C   UNL A   1      42.691  27.304  30.632  1.00  0.00     0.074 A 
ATOM     44  C   UNL A   1      40.905  28.072  29.117  1.00  0.00     0.049 A 
ATOM     45  N   UNL A   1      42.413  27.987  31.714  1.00  0.00    -0.248 NA
ATOM     46  C   UNL A   1      43.874  26.438  30.752  1.00  0.00     0.031 C 
ATOM     47  C   UNL A   1      40.128  28.165  27.885  1.00  0.00     0.029 A 
ATOM     48  N   UNL A   1      40.293  28.966  29.966  1.00  0.00    -0.354 N 
ATOM     49  C   UNL A   1      43.377  27.624  32.647  1.00  0.00     0.074 A 
ATOM     50  C   UNL A   1      44.238  26.653  32.007  1.00  0.00     0.031 C 
ATOM     51  C   UNL A   1      39.166  29.092  28.042  1.00  0.00     0.029 A 
ATOM     52  C   UNL A   1      39.217  29.615  29.407  1.00  0.00     0.049 A 
ATOM     53  H   UNL A   1      40.597  29.124  30.889  1.00  0.00     0.167 HD
ATOM     54  C   UNL A   1      43.530  28.054  33.921  1.00  0.00     0.031 A 
ATOM     55  C   UNL A   1      38.357  30.507  29.943  1.00  0.00     0.031 A 
ATOM     56  C   UNL A   1      42.660  28.993  34.577  1.00  0.00     0.049 A 
ATOM     57  C   UNL A   1      38.509  30.909  31.390  1.00  0.00     0.074 A 
ATOM     58  C   UNL A   1      42.733  29.473  35.874  1.00  0.00     0.029 A 
ATOM     59  N   UNL A   1      41.553  29.586  33.994  1.00  0.00    -0.354 N 
ATOM     60  N   UNL A   1      39.436  30.571  32.254  1.00  0.00    -0.248 NA
ATOM     61  C   UNL A   1      37.484  31.813  31.938  1.00  0.00     0.031 C 
ATOM     62  C   UNL A   1      41.633  30.308  36.095  1.00  0.00     0.029 A 
ATOM     63  C   UNL A   1      40.919  30.408  34.913  1.00  0.00     0.049 A 
ATOM     64  H   UNL A   1      41.260  29.445  33.064  1.00  0.00     0.167 HD
ATOM     65  C   UNL A   1      39.116  31.234  33.435  1.00  0.00     0.074 A 
ATOM     66  C   UNL A   1      37.932  32.021  33.167  1.00  0.00     0.031 C 
ATOM     67  C   UNL A   1      39.741  31.188  34.638  1.00  0.00     0.031 A 
BRANCH  54  68
ATOM     68  C   UNL A   1      44.666  27.470  34.714  1.00  0.00    -0.014 A 
ATOM     69  C   UNL A   1      44.652  26.131  35.134  1.00  0.00     0.009 A 
ATOM     70  C   UNL A   1      45.788  28.261  35.008  1.00  0.00     0.009 A 
ATOM     71  C   UNL A   1      45.725  25.605  35.857  1.00  0.00     0.001 A 
ATOM     72  C   UNL A   1      46.872  27.726  35.704  1.00  0.00     0.001 A 
ATOM     73  C   UNL A   1      46.837  26.400  36.134  1.00  0.00     0.000 A 
ENDBRANCH  54  68
BRANCH  55  74
ATOM     74  C   UNL A   1      37.227  31.056  29.139  1.00  0.00    -0.014 A 
ATOM     75  C   UNL A   1      37.247  32.383  28.680  1.00  0.00     0.009 A 
ATOM     76  C   UNL A   1      36.086  30.277  28.890  1.00  0.00     0.009 A 
ATOM     77  C   UNL A   1      36.136  32.928  28.028  1.00  0.00     0.001 A 
ATOM     78  C   UNL A   1      34.993  30.812  28.203  1.00  0.00     0.001 A 
ATOM     79  C   UNL A   1      35.012  32.141  27.787  1.00  0.00     0.000 A 
ENDBRANCH  55  74
BRANCH  67  80
ATOM     80  C   UNL A   1      39.179  32.041  35.745  1.00  0.00    -0.014 A 
ATOM     81  C   UNL A   1      38.234  31.539  36.655  1.00  0.00     0.009 A 
ATOM     82  C   UNL A   1      39.625  33.365  35.897  1.00  0.00     0.009 A 
ATOM     83  C   UNL A   1      37.717  32.357  37.662  1.00  0.00     0.001 A 
ATOM     84  C   UNL A   1      39.133  34.169  36.926  1.00  0.00     0.001 A 
ATOM     85  C   UNL A   1      38.169  33.668  37.799  1.00  0.00     0.000 A 
ENDBRANCH  67  80
ENDBRANCH  41  42
ENDBRANCH  34  36
ENDBRANCH  33  34
ENDBRANCH  32  33
ENDBRANCH  31  32
ENDBRANCH  30  31
ENDBRANCH  29  30
ENDBRANCH   1  29
TORSDOF 21
ENDMDL
MODEL 3
REMARK VINA RESULT:     -10.3      1.763      6.861
REMARK SMILES C[C@](Nc1ccc(C(N)=O)nn1)(C(=O)OCCOCCOCCOC(=O)c1ccc(-c2c3nc(c(-c4ccccc4)c4ccc([nH]4)c(-c4ccccc4)c4nc(c(-c5ccccc5)c5ccc2[nH]5)C=C4)C=C3)cc1)c1ccccc1
REMARK SMILES IDX 19 1 18 2 17 3 16 4 15 5 13 6 14 7 2 8 1 9 75 10 76 11 80 12
REMARK SMILES IDX 77 13 79 14 78 15 3 16 4 18 5 19 12 20 6 21 11 22 7 23 8 24
REMARK SMILES IDX 9 25 10 26 20 29 21 30 22 31 23 32 24 33 25 34 26 35 27 36
REMARK SMILES IDX 28 37 74 38 29 39 73 40 30 41 31 42 32 43 67 44 33 45 72 46
REMARK SMILES IDX 66 47 68 48 34 49 71 50 65 51 64 52 35 54 57 55 42 56 56 57
REMARK SMILES IDX 43 58 46 59 55 60 69 61 44 62 45 63 54 65 70 66 47 67 36 68
REMARK SMILES IDX 37 69 41 70 38 71 40 72 39 73 58 74 59 75 63 76 60 77 62 78
REMARK SMILES IDX 61 79 48 80 49 81 53 82 50 83 52 84 51 85
REMARK H PARENT 3 17 9 27 9 28 68 53 46 64
REMARK Flexibility Score: inf
ROOT
ATOM      1  C   UNL A   1      39.880  21.903  26.878  1.00  0.00     0.188 C 
ENDROOT
BRANCH   1   2
ATOM      2  O   UNL A   1      39.202  22.198  25.665  1.00  0.00    -0.376 OA
BRANCH   2   3
ATOM      3  C   UNL A   1      37.993  21.511  25.367  1.00  0.00     0.202 C 
BRANCH   3   4
ATOM      4  C   UNL A   1      37.007  22.079  24.329  1.00  0.00     0.261 C 
BRANCH   4   5
ATOM      5  O   UNL A   1      35.615  21.744  24.501  1.00  0.00    -0.461 OA
BRANCH   5   6
ATOM      6  C   UNL A   1      34.725  22.444  23.726  1.00  0.00     0.336 C 
ATOM      7  O   UNL A   1      35.066  23.253  22.868  1.00  0.00    -0.249 OA
BRANCH   6   8
ATOM      8  C   UNL A   1      33.216  22.154  24.107  1.00  0.00     0.160 C 
ATOM      9  C   UNL A   1      32.471  22.773  22.904  1.00  0.00     0.053 C 
BRANCH   8  10
ATOM     10  C   UNL A   1      33.060  20.626  24.275  1.00  0.00    -0.012 A 
ATOM     11  C   UNL A   1      32.669  19.828  23.183  1.00  0.00     0.007 A 
ATOM     12  C   UNL A   1      33.168  19.987  25.520  1.00  0.00     0.007 A 
ATOM     13  C   UNL A   1      32.291  18.493  23.344  1.00  0.00     0.000 A 
ATOM     14  C   UNL A   1      32.814  18.638  25.677  1.00  0.00     0.000 A 
ATOM     15  C   UNL A   1      32.346  17.901  24.596  1.00  0.00     0.000 A 
ENDBRANCH   8  10
BRANCH   8  16
ATOM     16  N   UNL A   1      32.841  22.853  25.358  1.00  0.00    -0.350 N 
ATOM     17  H   UNL A   1      32.689  22.289  26.151  1.00  0.00     0.163 HD
BRANCH  16  18
ATOM     18  C   UNL A   1      32.680  24.206  25.523  1.00  0.00     0.149 A 
ATOM     19  C   UNL A   1      33.716  25.105  25.710  1.00  0.00     0.051 A 
ATOM     20  N   UNL A   1      31.399  24.639  25.579  1.00  0.00    -0.132 NA
ATOM     21  C   UNL A   1      33.430  26.404  26.131  1.00  0.00     0.040 A 
ATOM     22  N   UNL A   1      31.098  25.920  25.964  1.00  0.00    -0.143 NA
ATOM     23  C   UNL A   1      32.104  26.762  26.281  1.00  0.00     0.150 A 
BRANCH  23  24
ATOM     24  C   UNL A   1      31.719  28.062  26.896  1.00  0.00     0.269 C 
ATOM     25  N   UNL A   1      31.410  28.034  28.229  1.00  0.00    -0.364 N 
ATOM     26  O   UNL A   1      31.707  29.107  26.256  1.00  0.00    -0.268 OA
ATOM     27  H   UNL A   1      31.426  27.180  28.720  1.00  0.00     0.160 HD
ATOM     28  H   UNL A   1      31.171  28.866  28.698  1.00  0.00     0.160 HD
ENDBRANCH  23  24
ENDBRANCH  16  18
ENDBRANCH   8  16
ENDBRANCH   6   8
ENDBRANCH   5   6
ENDBRANCH   4   5
ENDBRANCH   3   4
ENDBRANCH   2   3
ENDBRANCH   1   2
BRANCH   1  29
ATOM     29  C   UNL A   1      41.112  20.982  26.837  1.00  0.00     0.188 C 
BRANCH  29  30
ATOM     30  O   UNL A   1      41.927  21.155  25.704  1.00  0.00    -0.376 OA
BRANCH  30  31
ATOM     31  C   UNL A   1      43.272  20.717  25.787  1.00  0.00     0.202 C 
BRANCH  31  32
ATOM     32  C   UNL A   1      44.437  21.632  25.352  1.00  0.00     0.261 C 
BRANCH  32  33
ATOM     33  O   UNL A   1      44.715  22.795  26.155  1.00  0.00    -0.460 OA
BRANCH  33  34
ATOM     34  C   UNL A   1      44.487  24.011  25.608  1.00  0.00     0.338 C 
ATOM     35  O   UNL A   1      44.635  24.325  24.436  1.00  0.00    -0.246 OA
BRANCH  34  36
ATOM     36  C   UNL A   1      43.799  24.852  26.621  1.00  0.00     0.060 A 
ATOM     37  C   UNL A   1      44.154  26.203  26.733  1.00  0.00     0.016 A 
ATOM     38  C   UNL A   1      42.801  24.325  27.445  1.00  0.00     0.016 A 
ATOM     39  C   UNL A   1      43.528  27.020  27.680  1.00  0.00     0.010 A 
ATOM     40  C   UNL A   1      42.187  25.141  28.408  1.00  0.00     0.010 A 
ATOM     41  C   UNL A   1      42.558  26.490  28.544  1.00  0.00    -0.014 A 
BRANCH  41  42
ATOM     42  C   UNL A   1      42.061  27.305  29.686  1.00  0.00     0.031 A 
ATOM     43  C   UNL A   1      40.765  28.054  29.527  1.00  0.00     0.074 A 
ATOM     44  C   UNL A   1      42.718  27.360  30.860  1.00  0.00     0.049 A 
ATOM     45  N   UNL A   1      40.142  28.829  30.380  1.00  0.00    -0.248 NA
ATOM     46  C   UNL A   1      40.085  27.916  28.229  1.00  0.00     0.031 C 
ATOM     47  C   UNL A   1      43.970  26.673  31.162  1.00  0.00     0.029 A 
ATOM     48  N   UNL A   1      42.410  28.021  32.026  1.00  0.00    -0.354 N 
ATOM     49  C   UNL A   1      39.005  29.279  29.720  1.00  0.00     0.074 A 
ATOM     50  C   UNL A   1      39.032  28.703  28.392  1.00  0.00     0.031 C 
ATOM     51  C   UNL A   1      44.305  26.915  32.442  1.00  0.00     0.029 A 
ATOM     52  C   UNL A   1      43.327  27.828  33.033  1.00  0.00     0.049 A 
ATOM     53  H   UNL A   1      41.608  28.583  32.130  1.00  0.00     0.167 HD
ATOM     54  C   UNL A   1      38.031  30.103  30.171  1.00  0.00     0.031 A 
ATOM     55  C   UNL A   1      43.383  28.346  34.278  1.00  0.00     0.031 A 
ATOM     56  C   UNL A   1      38.012  30.709  31.476  1.00  0.00     0.049 A 
ATOM     57  C   UNL A   1      42.321  29.321  34.726  1.00  0.00     0.074 A 
ATOM     58  C   UNL A   1      37.069  31.569  32.012  1.00  0.00     0.029 A 
ATOM     59  N   UNL A   1      38.984  30.528  32.446  1.00  0.00    -0.354 N 
ATOM     60  N   UNL A   1      41.244  29.724  34.097  1.00  0.00    -0.248 NA
ATOM     61  C   UNL A   1      42.493  29.921  36.060  1.00  0.00     0.031 C 
ATOM     62  C   UNL A   1      37.503  31.959  33.283  1.00  0.00     0.029 A 
ATOM     63  C   UNL A   1      38.677  31.282  33.567  1.00  0.00     0.049 A 
ATOM     64  H   UNL A   1      39.776  29.950  32.352  1.00  0.00     0.167 HD
ATOM     65  C   UNL A   1      40.603  30.605  34.963  1.00  0.00     0.074 A 
ATOM     66  C   UNL A   1      41.393  30.650  36.175  1.00  0.00     0.031 C 
ATOM     67  C   UNL A   1      39.469  31.321  34.769  1.00  0.00     0.031 A 
BRANCH  54  68
ATOM     68  C   UNL A   1      36.916  30.439  29.220  1.00  0.00    -0.014 A 
ATOM     69  C   UNL A   1      36.782  31.725  28.675  1.00  0.00     0.009 A 
ATOM     70  C   UNL A   1      36.010  29.439  28.831  1.00  0.00     0.009 A 
ATOM     71  C   UNL A   1      35.747  32.010  27.782  1.00  0.00     0.001 A 
ATOM     72  C   UNL A   1      34.995  29.719  27.915  1.00  0.00     0.001 A 
ATOM     73  C   UNL A   1      34.860  31.006  27.397  1.00  0.00     0.000 A 
ENDBRANCH  54  68
BRANCH  55  74
ATOM     74  C   UNL A   1      44.512  28.011  35.195  1.00  0.00    -0.014 A 
ATOM     75  C   UNL A   1      45.747  28.671  35.087  1.00  0.00     0.009 A 
ATOM     76  C   UNL A   1      44.383  26.975  36.134  1.00  0.00     0.009 A 
ATOM     77  C   UNL A   1      46.837  28.274  35.869  1.00  0.00     0.001 A 
ATOM     78  C   UNL A   1      45.462  26.608  36.942  1.00  0.00     0.001 A 
ATOM     79  C   UNL A   1      46.692  27.246  36.798  1.00  0.00     0.000 A 
ENDBRANCH  55  74
BRANCH  67  80
ATOM     80  C   UNL A   1      38.990  32.185  35.907  1.00  0.00    -0.014 A 
ATOM     81  C   UNL A   1      38.104  31.695  36.881  1.00  0.00     0.009 A 
ATOM     82  C   UNL A   1      39.457  33.505  36.022  1.00  0.00     0.009 A 
ATOM     83  C   UNL A   1      37.662  32.523  37.917  1.00  0.00     0.001 A 
ATOM     84  C   UNL A   1      39.042  34.318  37.078  1.00  0.00     0.001 A 
ATOM     85  C   UNL A   1      38.134  33.830  38.017  1.00  0.00     0.000 A 
ENDBRANCH  67  80
ENDBRANCH  41  42
ENDBRANCH  34  36
ENDBRANCH  33  34
ENDBRANCH  32  33
ENDBRANCH  31  32
ENDBRANCH  30  31
ENDBRANCH  29  30
ENDBRANCH   1  29
TORSDOF 21
ENDMDL
