MODEL 1
REMARK VINA RESULT:     -11.9      0.000      0.000
REMARK SMILES O=C(OCCOCCOCCOC(=O)c1ccc(-c2c3nc(c(-c4ccccc4)c4ccc([nH]4)c(-c4ccccc4)c4nc(c(-c5ccccc5)c5ccc2[nH]5)C=C4)C=C3)cc1)C1=Cc2cc(Cl)cc(-c3ccccc3)c2O[C@@H]1C(F)(F)F
REMARK SMILES IDX 8 1 7 2 6 3 5 4 4 5 3 6 2 7 1 8 63 9 64 10 79 11 65 12 78 13
REMARK SMILES IDX 66 14 77 15 67 16 70 17 68 18 69 19 80 20 81 21 82 22 83 23
REMARK SMILES IDX 71 24 72 25 76 26 73 27 75 28 74 29 9 30 10 31 11 32 12 33
REMARK SMILES IDX 13 34 14 35 15 36 16 37 62 38 17 39 61 40 18 41 19 42 20 43
REMARK SMILES IDX 55 44 21 45 60 46 54 47 56 48 22 49 59 50 53 51 52 52 23 54
REMARK SMILES IDX 45 55 30 56 44 57 31 58 34 59 43 60 57 61 32 62 33 63 42 65
REMARK SMILES IDX 58 66 35 67 24 68 25 69 29 70 26 71 28 72 27 73 46 74 47 75
REMARK SMILES IDX 51 76 48 77 50 78 49 79 36 80 37 81 41 82 38 83 40 84 39 85
REMARK H PARENT 56 53 34 64
REMARK Flexibility Score: inf
ROOT
ATOM      1  C   UNL A   1      41.815  20.394  27.288  1.00  0.00     0.188 C 
ENDROOT
BRANCH   1   2
ATOM      2  C   UNL A   1      40.504  21.194  27.259  1.00  0.00     0.188 C 
BRANCH   2   3
ATOM      3  O   UNL A   1      39.775  21.600  25.978  1.00  0.00    -0.376 OA
BRANCH   3   4
ATOM      4  C   UNL A   1      38.217  22.453  25.870  1.00  0.00     0.202 C 
BRANCH   4   5
ATOM      5  C   UNL A   1      36.820  22.068  24.251  1.00  0.00     0.261 C 
BRANCH   5   6
ATOM      6  O   UNL A   1      35.300  21.976  24.376  1.00  0.00    -0.460 OA
BRANCH   6   7
ATOM      7  C   UNL A   1      34.687  23.041  23.840  1.00  0.00     0.338 C 
ATOM      8  O   UNL A   1      35.017  23.684  22.873  1.00  0.00    -0.246 OA
BRANCH   7   9
ATOM      9  C   UNL A   1      33.946  23.428  25.031  1.00  0.00     0.087 C 
ATOM     10  C   UNL A   1      34.318  24.678  25.655  1.00  0.00     0.027 C 
ATOM     11  C   UNL A   1      32.255  23.078  24.218  1.00  0.00     0.316 C 
ATOM     12  C   UNL A   1      33.400  26.197  25.483  1.00  0.00     0.019 A 
ATOM     13  O   UNL A   1      31.295  24.764  23.863  1.00  0.00    -0.475 OA
ATOM     14  C   UNL A   1      33.993  27.332  25.971  1.00  0.00     0.032 A 
ATOM     15  C   UNL A   1      31.940  26.331  24.565  1.00  0.00     0.135 A 
ATOM     16  C   UNL A   1      33.306  28.521  25.718  1.00  0.00     0.042 A 
ATOM     17  C   UNL A   1      31.292  27.549  24.427  1.00  0.00     0.026 A 
ATOM     18  Cl  UNL A   1      34.029  29.992  26.279  1.00  0.00    -0.084 Cl
ATOM     19  C   UNL A   1      32.046  28.615  25.020  1.00  0.00     0.033 A 
BRANCH  11  20
ATOM     20  C   UNL A   1      31.983  21.788  25.356  1.00  0.00     0.430 C 
ATOM     21  F   UNL A   1      32.522  21.795  26.583  1.00  0.00    -0.167 F 
ATOM     22  F   UNL A   1      30.641  21.643  25.520  1.00  0.00    -0.167 F 
ATOM     23  F   UNL A   1      32.396  20.578  24.856  1.00  0.00    -0.167 F 
ENDBRANCH  11  20
BRANCH  17  24
ATOM     24  C   UNL A   1      29.989  27.920  23.883  1.00  0.00    -0.015 A 
ATOM     25  C   UNL A   1      29.723  29.211  23.420  1.00  0.00     0.009 A 
ATOM     26  C   UNL A   1      28.898  27.034  24.022  1.00  0.00     0.009 A 
ATOM     27  C   UNL A   1      28.432  29.569  23.006  1.00  0.00     0.001 A 
ATOM     28  C   UNL A   1      27.613  27.383  23.591  1.00  0.00     0.001 A 
ATOM     29  C   UNL A   1      27.388  28.645  23.056  1.00  0.00     0.000 A 
ENDBRANCH  17  24
ENDBRANCH   7   9
ENDBRANCH   6   7
ENDBRANCH   5   6
ENDBRANCH   4   5
ENDBRANCH   3   4
ENDBRANCH   2   3
ENDBRANCH   1   2
BRANCH   1  30
ATOM     30  O   UNL A   1      42.407  20.015  26.081  1.00  0.00    -0.376 OA
BRANCH  30  31
ATOM     31  C   UNL A   1      43.224  21.003  25.498  1.00  0.00     0.202 C 
BRANCH  31  32
ATOM     32  C   UNL A   1      43.559  22.280  26.273  1.00  0.00     0.261 C 
BRANCH  32  33
ATOM     33  O   UNL A   1      42.636  23.360  26.076  1.00  0.00    -0.460 OA
BRANCH  33  34
ATOM     34  C   UNL A   1      43.182  24.559  25.761  1.00  0.00     0.338 C 
ATOM     35  O   UNL A   1      43.942  24.819  24.846  1.00  0.00    -0.246 OA
BRANCH  34  36
ATOM     36  C   UNL A   1      42.551  25.584  26.608  1.00  0.00     0.060 A 
ATOM     37  C   UNL A   1      43.029  26.903  26.584  1.00  0.00     0.016 A 
ATOM     38  C   UNL A   1      41.516  25.215  27.464  1.00  0.00     0.016 A 
ATOM     39  C   UNL A   1      42.462  27.867  27.410  1.00  0.00     0.010 A 
ATOM     40  C   UNL A   1      40.984  26.165  28.332  1.00  0.00     0.010 A 
ATOM     41  C   UNL A   1      41.474  27.484  28.322  1.00  0.00    -0.014 A 
BRANCH  41  42
ATOM     42  C   UNL A   1      41.142  28.390  29.437  1.00  0.00     0.031 A 
ATOM     43  C   UNL A   1      41.967  28.279  30.687  1.00  0.00     0.074 A 
ATOM     44  C   UNL A   1      40.146  29.284  29.338  1.00  0.00     0.049 A 
ATOM     45  N   UNL A   1      41.840  28.913  31.822  1.00  0.00    -0.248 NA
ATOM     46  C   UNL A   1      43.084  27.317  30.652  1.00  0.00     0.031 C 
ATOM     47  C   UNL A   1      39.325  29.511  28.151  1.00  0.00     0.029 A 
ATOM     48  N   UNL A   1      39.654  30.165  30.265  1.00  0.00    -0.354 N 
ATOM     49  C   UNL A   1      42.851  28.419  32.636  1.00  0.00     0.074 A 
ATOM     50  C   UNL A   1      43.565  27.416  31.880  1.00  0.00     0.031 C 
ATOM     51  C   UNL A   1      38.418  30.464  28.427  1.00  0.00     0.029 A 
ATOM     52  C   UNL A   1      38.572  30.882  29.820  1.00  0.00     0.049 A 
ATOM     53  H   UNL A   1      40.040  30.272  31.165  1.00  0.00     0.167 HD
ATOM     54  C   UNL A   1      43.154  28.773  33.905  1.00  0.00     0.031 A 
ATOM     55  C   UNL A   1      37.784  31.752  30.480  1.00  0.00     0.031 A 
ATOM     56  C   UNL A   1      42.414  29.747  34.660  1.00  0.00     0.049 A 
ATOM     57  C   UNL A   1      38.085  32.054  31.927  1.00  0.00     0.074 A 
ATOM     58  C   UNL A   1      42.636  30.184  35.952  1.00  0.00     0.029 A 
ATOM     59  N   UNL A   1      41.297  30.421  34.191  1.00  0.00    -0.354 N 
ATOM     60  N   UNL A   1      39.061  31.608  32.683  1.00  0.00    -0.248 NA
ATOM     61  C   UNL A   1      37.178  32.988  32.611  1.00  0.00     0.031 C 
ATOM     62  C   UNL A   1      41.607  31.064  36.293  1.00  0.00     0.029 A 
ATOM     63  C   UNL A   1      40.797  31.245  35.183  1.00  0.00     0.049 A 
ATOM     64  H   UNL A   1      40.916  30.327  33.288  1.00  0.00     0.167 HD
ATOM     65  C   UNL A   1      38.906  32.235  33.915  1.00  0.00     0.074 A 
ATOM     66  C   UNL A   1      37.756  33.106  33.798  1.00  0.00     0.031 C 
ATOM     67  C   UNL A   1      39.649  32.106  35.042  1.00  0.00     0.031 A 
BRANCH  54  68
ATOM     68  C   UNL A   1      44.299  28.062  34.570  1.00  0.00    -0.014 A 
ATOM     69  C   UNL A   1      44.128  26.818  35.197  1.00  0.00     0.009 A 
ATOM     70  C   UNL A   1      45.581  28.634  34.536  1.00  0.00     0.009 A 
ATOM     71  C   UNL A   1      45.210  26.176  35.803  1.00  0.00     0.001 A 
ATOM     72  C   UNL A   1      46.668  27.974  35.112  1.00  0.00     0.001 A 
ATOM     73  C   UNL A   1      46.480  26.751  35.751  1.00  0.00     0.000 A 
ENDBRANCH  54  68
BRANCH  55  74
ATOM     74  C   UNL A   1      36.614  32.377  29.803  1.00  0.00    -0.014 A 
ATOM     75  C   UNL A   1      35.389  31.699  29.711  1.00  0.00     0.009 A 
ATOM     76  C   UNL A   1      36.731  33.639  29.199  1.00  0.00     0.009 A 
ATOM     77  C   UNL A   1      34.323  32.251  28.995  1.00  0.00     0.001 A 
ATOM     78  C   UNL A   1      35.653  34.207  28.518  1.00  0.00     0.001 A 
ATOM     79  C   UNL A   1      34.455  33.506  28.402  1.00  0.00     0.000 A 
ENDBRANCH  55  74
BRANCH  67  80
ATOM     80  C   UNL A   1      39.278  32.966  36.220  1.00  0.00    -0.014 A 
ATOM     81  C   UNL A   1      38.382  32.523  37.205  1.00  0.00     0.009 A 
ATOM     82  C   UNL A   1      39.878  34.228  36.368  1.00  0.00     0.009 A 
ATOM     83  C   UNL A   1      38.062  33.343  38.289  1.00  0.00     0.001 A 
ATOM     84  C   UNL A   1      39.589  35.028  37.473  1.00  0.00     0.001 A 
ATOM     85  C   UNL A   1      38.671  34.591  38.426  1.00  0.00     0.000 A 
ENDBRANCH  67  80
ENDBRANCH  41  42
ENDBRANCH  34  36
ENDBRANCH  33  34
ENDBRANCH  32  33
ENDBRANCH  31  32
ENDBRANCH  30  31
ENDBRANCH   1  30
TORSDOF 19
ENDMDL
MODEL 2
REMARK VINA RESULT:     -11.9      0.680      5.656
REMARK SMILES O=C(OCCOCCOCCOC(=O)c1ccc(-c2c3nc(c(-c4ccccc4)c4ccc([nH]4)c(-c4ccccc4)c4nc(c(-c5ccccc5)c5ccc2[nH]5)C=C4)C=C3)cc1)C1=Cc2cc(Cl)cc(-c3ccccc3)c2O[C@@H]1C(F)(F)F
REMARK SMILES IDX 8 1 7 2 6 3 5 4 4 5 3 6 2 7 1 8 63 9 64 10 79 11 65 12 78 13
REMARK SMILES IDX 66 14 77 15 67 16 70 17 68 18 69 19 80 20 81 21 82 22 83 23
REMARK SMILES IDX 71 24 72 25 76 26 73 27 75 28 74 29 9 30 10 31 11 32 12 33
REMARK SMILES IDX 13 34 14 35 15 36 16 37 62 38 17 39 61 40 18 41 19 42 20 43
REMARK SMILES IDX 55 44 21 45 60 46 54 47 56 48 22 49 59 50 53 51 52 52 23 54
REMARK SMILES IDX 45 55 30 56 44 57 31 58 34 59 43 60 57 61 32 62 33 63 42 65
REMARK SMILES IDX 58 66 35 67 24 68 25 69 29 70 26 71 28 72 27 73 46 74 47 75
REMARK SMILES IDX 51 76 48 77 50 78 49 79 36 80 37 81 41 82 38 83 40 84 39 85
REMARK H PARENT 56 53 34 64
REMARK Flexibility Score: inf
ROOT
ATOM      1  C   UNL A   1      42.253  20.275  26.576  1.00  0.00     0.188 C 
ENDROOT
BRANCH   1   2
ATOM      2  C   UNL A   1      40.779  20.658  26.772  1.00  0.00     0.188 C 
BRANCH   2   3
ATOM      3  O   UNL A   1      39.940  21.402  25.734  1.00  0.00    -0.376 OA
BRANCH   3   4
ATOM      4  C   UNL A   1      38.376  22.205  26.012  1.00  0.00     0.202 C 
BRANCH   4   5
ATOM      5  C   UNL A   1      36.826  22.234  24.489  1.00  0.00     0.261 C 
BRANCH   5   6
ATOM      6  O   UNL A   1      35.319  22.229  24.738  1.00  0.00    -0.460 OA
BRANCH   6   7
ATOM      7  C   UNL A   1      34.702  23.233  24.098  1.00  0.00     0.338 C 
ATOM      8  O   UNL A   1      35.088  23.857  23.140  1.00  0.00    -0.246 OA
BRANCH   7   9
ATOM      9  C   UNL A   1      33.827  23.620  25.195  1.00  0.00     0.087 C 
ATOM     10  C   UNL A   1      34.159  24.838  25.898  1.00  0.00     0.027 C 
ATOM     11  C   UNL A   1      32.244  23.358  24.159  1.00  0.00     0.316 C 
ATOM     12  C   UNL A   1      33.327  26.397  25.655  1.00  0.00     0.019 A 
ATOM     13  O   UNL A   1      31.401  25.089  23.733  1.00  0.00    -0.475 OA
ATOM     14  C   UNL A   1      33.893  27.494  26.249  1.00  0.00     0.032 A 
ATOM     15  C   UNL A   1      32.005  26.611  24.560  1.00  0.00     0.135 A 
ATOM     16  C   UNL A   1      33.288  28.715  25.944  1.00  0.00     0.042 A 
ATOM     17  C   UNL A   1      31.426  27.857  24.375  1.00  0.00     0.026 A 
ATOM     18  Cl  UNL A   1      33.985  30.142  26.638  1.00  0.00    -0.084 Cl
ATOM     19  C   UNL A   1      32.134  28.878  25.093  1.00  0.00     0.033 A 
BRANCH  11  20
ATOM     20  C   UNL A   1      31.780  22.052  25.213  1.00  0.00     0.430 C 
ATOM     21  F   UNL A   1      32.350  21.865  26.412  1.00  0.00    -0.167 F 
ATOM     22  F   UNL A   1      30.440  22.137  25.429  1.00  0.00    -0.167 F 
ATOM     23  F   UNL A   1      31.949  20.830  24.610  1.00  0.00    -0.167 F 
ENDBRANCH  11  20
BRANCH  17  24
ATOM     24  C   UNL A   1      30.219  28.294  23.679  1.00  0.00    -0.015 A 
ATOM     25  C   UNL A   1      30.141  29.537  23.046  1.00  0.00     0.009 A 
ATOM     26  C   UNL A   1      29.025  27.554  23.824  1.00  0.00     0.009 A 
ATOM     27  C   UNL A   1      28.936  29.975  22.480  1.00  0.00     0.001 A 
ATOM     28  C   UNL A   1      27.825  27.980  23.243  1.00  0.00     0.001 A 
ATOM     29  C   UNL A   1      27.790  29.182  22.546  1.00  0.00     0.000 A 
ENDBRANCH  17  24
ENDBRANCH   7   9
ENDBRANCH   6   7
ENDBRANCH   5   6
ENDBRANCH   4   5
ENDBRANCH   3   4
ENDBRANCH   2   3
ENDBRANCH   1   2
BRANCH   1  30
ATOM     30  O   UNL A   1      42.865  20.534  25.348  1.00  0.00    -0.376 OA
BRANCH  30  31
ATOM     31  C   UNL A   1      43.576  21.749  25.297  1.00  0.00     0.202 C 
BRANCH  31  32
ATOM     32  C   UNL A   1      43.507  22.731  26.470  1.00  0.00     0.261 C 
BRANCH  32  33
ATOM     33  O   UNL A   1      42.574  23.806  26.297  1.00  0.00    -0.460 OA
BRANCH  33  34
ATOM     34  C   UNL A   1      43.109  25.020  26.027  1.00  0.00     0.338 C 
ATOM     35  O   UNL A   1      43.821  25.334  25.090  1.00  0.00    -0.246 OA
BRANCH  34  36
ATOM     36  C   UNL A   1      42.531  25.993  26.968  1.00  0.00     0.060 A 
ATOM     37  C   UNL A   1      43.102  27.269  27.095  1.00  0.00     0.016 A 
ATOM     38  C   UNL A   1      41.451  25.611  27.760  1.00  0.00     0.016 A 
ATOM     39  C   UNL A   1      42.583  28.178  28.010  1.00  0.00     0.010 A 
ATOM     40  C   UNL A   1      40.965  26.501  28.715  1.00  0.00     0.010 A 
ATOM     41  C   UNL A   1      41.547  27.774  28.857  1.00  0.00    -0.014 A 
BRANCH  41  42
ATOM     42  C   UNL A   1      41.251  28.577  30.057  1.00  0.00     0.031 A 
ATOM     43  C   UNL A   1      40.095  29.533  29.982  1.00  0.00     0.074 A 
ATOM     44  C   UNL A   1      41.982  28.456  31.177  1.00  0.00     0.049 A 
ATOM     45  N   UNL A   1      39.670  30.390  30.871  1.00  0.00    -0.248 NA
ATOM     46  C   UNL A   1      39.317  29.523  28.730  1.00  0.00     0.031 C 
ATOM     47  C   UNL A   1      43.085  27.518  31.372  1.00  0.00     0.029 A 
ATOM     48  N   UNL A   1      41.902  29.139  32.362  1.00  0.00    -0.354 N 
ATOM     49  C   UNL A   1      38.585  31.027  30.282  1.00  0.00     0.074 A 
ATOM     50  C   UNL A   1      38.432  30.481  28.954  1.00  0.00     0.031 C 
ATOM     51  C   UNL A   1      43.591  27.695  32.605  1.00  0.00     0.029 A 
ATOM     52  C   UNL A   1      42.872  28.783  33.265  1.00  0.00     0.049 A 
ATOM     53  H   UNL A   1      41.215  29.820  32.547  1.00  0.00     0.167 HD
ATOM     54  C   UNL A   1      37.788  31.984  30.807  1.00  0.00     0.031 A 
ATOM     55  C   UNL A   1      43.157  29.305  34.474  1.00  0.00     0.031 A 
ATOM     56  C   UNL A   1      37.972  32.545  32.117  1.00  0.00     0.049 A 
ATOM     57  C   UNL A   1      42.313  30.442  34.994  1.00  0.00     0.074 A 
ATOM     58  C   UNL A   1      37.222  33.518  32.750  1.00  0.00     0.029 A 
ATOM     59  N   UNL A   1      38.993  32.191  32.987  1.00  0.00    -0.354 N 
ATOM     60  N   UNL A   1      41.268  31.019  34.446  1.00  0.00    -0.248 NA
ATOM     61  C   UNL A   1      42.682  30.995  36.305  1.00  0.00     0.031 C 
ATOM     62  C   UNL A   1      37.834  33.809  33.972  1.00  0.00     0.029 A 
ATOM     63  C   UNL A   1      38.911  32.954  34.139  1.00  0.00     0.049 A 
ATOM     64  H   UNL A   1      39.672  31.501  32.812  1.00  0.00     0.167 HD
ATOM     65  C   UNL A   1      40.837  31.973  35.361  1.00  0.00     0.074 A 
ATOM     66  C   UNL A   1      41.719  31.883  36.505  1.00  0.00     0.031 C 
ATOM     67  C   UNL A   1      39.802  32.844  35.267  1.00  0.00     0.031 A 
BRANCH  54  68
ATOM     68  C   UNL A   1      36.684  32.521  29.941  1.00  0.00    -0.014 A 
ATOM     69  C   UNL A   1      36.930  33.482  28.947  1.00  0.00     0.009 A 
ATOM     70  C   UNL A   1      35.379  32.028  30.099  1.00  0.00     0.009 A 
ATOM     71  C   UNL A   1      35.886  33.960  28.152  1.00  0.00     0.001 A 
ATOM     72  C   UNL A   1      34.344  32.481  29.280  1.00  0.00     0.001 A 
ATOM     73  C   UNL A   1      34.597  33.452  28.313  1.00  0.00     0.000 A 
ENDBRANCH  54  68
BRANCH  55  74
ATOM     74  C   UNL A   1      44.307  28.792  35.267  1.00  0.00    -0.014 A 
ATOM     75  C   UNL A   1      44.127  27.783  36.227  1.00  0.00     0.009 A 
ATOM     76  C   UNL A   1      45.588  29.344  35.105  1.00  0.00     0.009 A 
ATOM     77  C   UNL A   1      45.192  27.370  37.032  1.00  0.00     0.001 A 
ATOM     78  C   UNL A   1      46.660  28.903  35.883  1.00  0.00     0.001 A 
ATOM     79  C   UNL A   1      46.458  27.927  36.857  1.00  0.00     0.000 A 
ENDBRANCH  55  74
BRANCH  67  80
ATOM     80  C   UNL A   1      39.531  33.731  36.453  1.00  0.00    -0.014 A 
ATOM     81  C   UNL A   1      38.813  33.274  37.570  1.00  0.00     0.009 A 
ATOM     82  C   UNL A   1      40.050  35.036  36.469  1.00  0.00     0.009 A 
ATOM     83  C   UNL A   1      38.584  34.120  38.656  1.00  0.00     0.001 A 
ATOM     84  C   UNL A   1      39.856  35.866  37.574  1.00  0.00     0.001 A 
ATOM     85  C   UNL A   1      39.112  35.411  38.660  1.00  0.00     0.000 A 
ENDBRANCH  67  80
ENDBRANCH  41  42
ENDBRANCH  34  36
ENDBRANCH  33  34
ENDBRANCH  32  33
ENDBRANCH  31  32
ENDBRANCH  30  31
ENDBRANCH   1  30
TORSDOF 19
ENDMDL
MODEL 3
REMARK VINA RESULT:     -11.5      4.533      6.694
REMARK SMILES O=C(OCCOCCOCCOC(=O)c1ccc(-c2c3nc(c(-c4ccccc4)c4ccc([nH]4)c(-c4ccccc4)c4nc(c(-c5ccccc5)c5ccc2[nH]5)C=C4)C=C3)cc1)C1=Cc2cc(Cl)cc(-c3ccccc3)c2O[C@@H]1C(F)(F)F
REMARK SMILES IDX 8 1 7 2 6 3 5 4 4 5 3 6 2 7 1 8 63 9 64 10 79 11 65 12 78 13
REMARK SMILES IDX 66 14 77 15 67 16 70 17 68 18 69 19 80 20 81 21 82 22 83 23
REMARK SMILES IDX 71 24 72 25 76 26 73 27 75 28 74 29 9 30 10 31 11 32 12 33
REMARK SMILES IDX 13 34 14 35 15 36 16 37 62 38 17 39 61 40 18 41 19 42 20 43
REMARK SMILES IDX 55 44 21 45 60 46 54 47 56 48 22 49 59 50 53 51 52 52 23 54
REMARK SMILES IDX 45 55 30 56 44 57 31 58 34 59 43 60 57 61 32 62 33 63 42 65
REMARK SMILES IDX 58 66 35 67 24 68 25 69 29 70 26 71 28 72 27 73 46 74 47 75
REMARK SMILES IDX 51 76 48 77 50 78 49 79 36 80 37 81 41 82 38 83 40 84 39 85
REMARK H PARENT 56 53 34 64
REMARK Flexibility Score: inf
ROOT
ATOM      1  C   UNL A   1      40.719  21.800  27.290  1.00  0.00     0.188 C 
ENDROOT
BRANCH   1   2
ATOM      2  C   UNL A   1      39.801  22.121  26.102  1.00  0.00     0.188 C 
BRANCH   2   3
ATOM      3  O   UNL A   1      38.301  21.832  26.074  1.00  0.00    -0.376 OA
BRANCH   3   4
ATOM      4  C   UNL A   1      37.323  21.445  24.638  1.00  0.00     0.202 C 
BRANCH   4   5
ATOM      5  C   UNL A   1      35.474  22.502  24.203  1.00  0.00     0.261 C 
BRANCH   5   6
ATOM      6  O   UNL A   1      35.178  23.966  24.524  1.00  0.00    -0.460 OA
BRANCH   6   7
ATOM      7  C   UNL A   1      34.299  24.500  23.662  1.00  0.00     0.338 C 
ATOM      8  O   UNL A   1      34.523  25.032  22.603  1.00  0.00    -0.246 OA
BRANCH   7   9
ATOM      9  C   UNL A   1      33.224  24.703  24.621  1.00  0.00     0.087 C 
ATOM     10  C   UNL A   1      33.437  25.706  25.639  1.00  0.00     0.027 C 
ATOM     11  C   UNL A   1      31.890  24.801  23.259  1.00  0.00     0.316 C 
ATOM     12  C   UNL A   1      32.725  27.341  25.603  1.00  0.00     0.019 A 
ATOM     13  O   UNL A   1      31.209  26.644  23.086  1.00  0.00    -0.475 OA
ATOM     14  C   UNL A   1      33.185  28.233  26.536  1.00  0.00     0.032 A 
ATOM     15  C   UNL A   1      31.672  27.894  24.346  1.00  0.00     0.135 A 
ATOM     16  C   UNL A   1      32.697  29.535  26.407  1.00  0.00     0.042 A 
ATOM     17  C   UNL A   1      31.184  29.192  24.343  1.00  0.00     0.026 A 
ATOM     18  Cl  UNL A   1      33.275  30.715  27.537  1.00  0.00    -0.084 Cl
ATOM     19  C   UNL A   1      31.755  29.971  25.404  1.00  0.00     0.033 A 
BRANCH  11  20
ATOM     20  C   UNL A   1      31.172  23.335  23.868  1.00  0.00     0.430 C 
ATOM     21  F   UNL A   1      31.890  22.223  24.077  1.00  0.00    -0.167 F 
ATOM     22  F   UNL A   1      30.549  23.624  25.042  1.00  0.00    -0.167 F 
ATOM     23  F   UNL A   1      30.163  22.889  23.050  1.00  0.00    -0.167 F 
ENDBRANCH  11  20
BRANCH  17  24
ATOM     24  C   UNL A   1      30.166  29.864  23.541  1.00  0.00    -0.015 A 
ATOM     25  C   UNL A   1      30.105  29.719  22.153  1.00  0.00     0.009 A 
ATOM     26  C   UNL A   1      29.356  30.858  24.135  1.00  0.00     0.009 A 
ATOM     27  C   UNL A   1      29.187  30.462  21.398  1.00  0.00     0.001 A 
ATOM     28  C   UNL A   1      28.425  31.586  23.385  1.00  0.00     0.001 A 
ATOM     29  C   UNL A   1      28.324  31.366  22.017  1.00  0.00     0.000 A 
ENDBRANCH  17  24
ENDBRANCH   7   9
ENDBRANCH   6   7
ENDBRANCH   5   6
ENDBRANCH   4   5
ENDBRANCH   3   4
ENDBRANCH   2   3
ENDBRANCH   1   2
BRANCH   1  30
ATOM     30  O   UNL A   1      40.930  20.465  27.645  1.00  0.00    -0.376 OA
BRANCH  30  31
ATOM     31  C   UNL A   1      41.062  19.586  26.551  1.00  0.00     0.202 C 
BRANCH  31  32
ATOM     32  C   UNL A   1      42.453  19.181  26.054  1.00  0.00     0.261 C 
BRANCH  32  33
ATOM     33  O   UNL A   1      42.923  19.921  24.920  1.00  0.00    -0.460 OA
BRANCH  33  34
ATOM     34  C   UNL A   1      44.266  19.962  24.752  1.00  0.00     0.338 C 
ATOM     35  O   UNL A   1      44.990  19.102  24.283  1.00  0.00    -0.246 OA
BRANCH  34  36
ATOM     36  C   UNL A   1      44.723  21.326  25.059  1.00  0.00     0.060 A 
ATOM     37  C   UNL A   1      45.199  21.633  26.343  1.00  0.00     0.016 A 
ATOM     38  C   UNL A   1      44.627  22.311  24.079  1.00  0.00     0.016 A 
ATOM     39  C   UNL A   1      45.597  22.930  26.649  1.00  0.00     0.010 A 
ATOM     40  C   UNL A   1      44.972  23.622  24.400  1.00  0.00     0.010 A 
ATOM     41  C   UNL A   1      45.432  23.935  25.692  1.00  0.00    -0.014 A 
BRANCH  41  42
ATOM     42  C   UNL A   1      45.491  25.344  26.120  1.00  0.00     0.031 A 
ATOM     43  C   UNL A   1      46.834  26.017  26.107  1.00  0.00     0.074 A 
ATOM     44  C   UNL A   1      44.385  26.005  26.499  1.00  0.00     0.049 A 
ATOM     45  N   UNL A   1      47.161  27.221  26.491  1.00  0.00    -0.248 NA
ATOM     46  C   UNL A   1      47.962  25.217  25.596  1.00  0.00     0.031 C 
ATOM     47  C   UNL A   1      43.029  25.464  26.492  1.00  0.00     0.029 A 
ATOM     48  N   UNL A   1      44.240  27.283  26.973  1.00  0.00    -0.354 N 
ATOM     49  C   UNL A   1      48.530  27.318  26.279  1.00  0.00     0.074 A 
ATOM     50  C   UNL A   1      48.978  26.047  25.759  1.00  0.00     0.031 C 
ATOM     51  C   UNL A   1      42.185  26.402  26.956  1.00  0.00     0.029 A 
ATOM     52  C   UNL A   1      42.950  27.591  27.328  1.00  0.00     0.049 A 
ATOM     53  H   UNL A   1      44.988  27.918  27.053  1.00  0.00     0.167 HD
ATOM     54  C   UNL A   1      49.340  28.378  26.500  1.00  0.00     0.031 A 
ATOM     55  C   UNL A   1      42.459  28.701  27.913  1.00  0.00     0.031 A 
ATOM     56  C   UNL A   1      48.888  29.625  27.051  1.00  0.00     0.049 A 
ATOM     57  C   UNL A   1      43.404  29.830  28.241  1.00  0.00     0.074 A 
ATOM     58  C   UNL A   1      49.623  30.766  27.313  1.00  0.00     0.029 A 
ATOM     59  N   UNL A   1      47.583  29.887  27.438  1.00  0.00    -0.354 N 
ATOM     60  N   UNL A   1      44.692  29.929  28.009  1.00  0.00    -0.248 NA
ATOM     61  C   UNL A   1      42.824  31.007  28.904  1.00  0.00     0.031 C 
ATOM     62  C   UNL A   1      48.778  31.691  27.933  1.00  0.00     0.029 A 
ATOM     63  C   UNL A   1      47.499  31.161  27.972  1.00  0.00     0.049 A 
ATOM     64  H   UNL A   1      46.828  29.261  27.347  1.00  0.00     0.167 HD
ATOM     65  C   UNL A   1      45.066  31.189  28.464  1.00  0.00     0.074 A 
ATOM     66  C   UNL A   1      43.865  31.824  28.965  1.00  0.00     0.031 C 
ATOM     67  C   UNL A   1      46.290  31.773  28.464  1.00  0.00     0.031 A 
BRANCH  54  68
ATOM     68  C   UNL A   1      50.802  28.209  26.198  1.00  0.00    -0.014 A 
ATOM     69  C   UNL A   1      51.573  27.216  26.824  1.00  0.00     0.009 A 
ATOM     70  C   UNL A   1      51.411  29.037  25.241  1.00  0.00     0.009 A 
ATOM     71  C   UNL A   1      52.929  27.078  26.521  1.00  0.00     0.001 A 
ATOM     72  C   UNL A   1      52.758  28.874  24.915  1.00  0.00     0.001 A 
ATOM     73  C   UNL A   1      53.517  27.900  25.560  1.00  0.00     0.000 A 
ENDBRANCH  54  68
BRANCH  55  74
ATOM     74  C   UNL A   1      41.015  28.796  28.262  1.00  0.00    -0.014 A 
ATOM     75  C   UNL A   1      40.550  28.382  29.521  1.00  0.00     0.009 A 
ATOM     76  C   UNL A   1      40.082  29.255  27.319  1.00  0.00     0.009 A 
ATOM     77  C   UNL A   1      39.183  28.386  29.810  1.00  0.00     0.001 A 
ATOM     78  C   UNL A   1      38.720  29.297  27.624  1.00  0.00     0.001 A 
ATOM     79  C   UNL A   1      38.270  28.848  28.863  1.00  0.00     0.000 A 
ENDBRANCH  55  74
BRANCH  67  80
ATOM     80  C   UNL A   1      46.385  33.187  28.971  1.00  0.00    -0.014 A 
ATOM     81  C   UNL A   1      46.147  34.290  28.136  1.00  0.00     0.009 A 
ATOM     82  C   UNL A   1      46.671  33.414  30.328  1.00  0.00     0.009 A 
ATOM     83  C   UNL A   1      46.238  35.589  28.639  1.00  0.00     0.001 A 
ATOM     84  C   UNL A   1      46.719  34.711  30.837  1.00  0.00     0.001 A 
ATOM     85  C   UNL A   1      46.516  35.797  29.990  1.00  0.00     0.000 A 
ENDBRANCH  67  80
ENDBRANCH  41  42
ENDBRANCH  34  36
ENDBRANCH  33  34
ENDBRANCH  32  33
ENDBRANCH  31  32
ENDBRANCH  30  31
ENDBRANCH   1  30
TORSDOF 19
ENDMDL
