MODEL 1
REMARK VINA RESULT:     -10.0      0.000      0.000
REMARK SMILES Cc1ccc(S(=O)(=O)n2cc(C(=O)C(=O)NCC(=O)NCC(=O)OCCOCCOCCOC(=O)c3ccc(-c4c5nc(c(-c6ccccc6)c6ccc([nH]6)c(-c6ccccc6)c6nc(c(-c7ccccc7)c7ccc4[nH]7)C=C6)C=C5)cc3)c3ccccc32)cc1
REMARK SMILES IDX 26 1 25 2 24 3 22 4 23 5 21 6 20 7 18 8 19 9 17 11 16 12
REMARK SMILES IDX 14 13 15 14 12 16 13 17 11 18 9 19 10 20 89 21 84 22 88 23
REMARK SMILES IDX 85 24 87 25 86 26 6 27 7 28 8 29 5 30 1 31 2 32 3 33 91 34
REMARK SMILES IDX 4 35 90 36 27 37 28 38 29 39 30 40 31 41 32 42 33 43 34 44
REMARK SMILES IDX 35 45 36 46 37 47 83 48 38 49 82 50 39 51 40 52 41 53 76 54
REMARK SMILES IDX 42 55 81 56 75 57 77 58 43 59 80 60 74 61 73 62 44 64 66 65
REMARK SMILES IDX 51 66 65 67 52 68 55 69 64 70 78 71 53 72 54 73 63 75 79 76
REMARK SMILES IDX 56 77 45 78 46 79 50 80 47 81 49 82 48 83 67 84 68 85 72 86
REMARK SMILES IDX 69 87 71 88 70 89 57 90 58 91 62 92 59 93 61 94 60 95
REMARK H PARENT 20 10 16 15 77 63 55 74
REMARK Flexibility Score: inf
ROOT
ATOM      1  C   UNL A   1      33.449  35.350  32.113  1.00  0.00     0.202 C 
ENDROOT
BRANCH   1   2
ATOM      2  C   UNL A   1      34.584  35.967  32.944  1.00  0.00     0.261 C 
BRANCH   2   3
ATOM      3  O   UNL A   1      36.070  35.042  33.193  1.00  0.00    -0.462 OA
BRANCH   3   4
ATOM      4  C   UNL A   1      37.187  34.352  33.914  1.00  0.00     0.325 C 
ATOM      5  O   UNL A   1      37.889  35.108  34.597  1.00  0.00    -0.250 OA
BRANCH   4   6
ATOM      6  C   UNL A   1      37.534  32.589  34.134  1.00  0.00     0.238 C 
BRANCH   6   7
ATOM      7  N   UNL A   1      37.937  31.961  35.563  1.00  0.00    -0.344 N 
ATOM      8  C   UNL A   1      38.772  30.957  36.040  1.00  0.00     0.239 C 
ATOM      9  O   UNL A   1      38.253  30.068  36.731  1.00  0.00    -0.273 OA
ATOM     10  H   UNL A   1      37.460  32.411  36.297  1.00  0.00     0.164 HD
BRANCH   8  11
ATOM     11  C   UNL A   1      40.298  30.976  35.968  1.00  0.00     0.216 C 
BRANCH  11  12
ATOM     12  N   UNL A   1      40.717  31.380  34.669  1.00  0.00    -0.340 N 
ATOM     13  C   UNL A   1      40.732  30.771  33.460  1.00  0.00     0.292 C 
ATOM     14  O   UNL A   1      41.002  31.445  32.477  1.00  0.00    -0.265 OA
ATOM     15  H   UNL A   1      41.073  32.298  34.645  1.00  0.00     0.164 HD
BRANCH  13  16
ATOM     16  C   UNL A   1      40.572  29.268  33.355  1.00  0.00     0.252 C 
ATOM     17  O   UNL A   1      39.421  28.836  33.358  1.00  0.00    -0.283 OA
BRANCH  16  18
ATOM     18  C   UNL A   1      41.753  28.384  33.368  1.00  0.00     0.054 A 
ATOM     19  N   UNL A   1      43.628  26.827  34.161  1.00  0.00    -0.240 N 
ATOM     20  C   UNL A   1      42.421  27.908  34.467  1.00  0.00     0.117 A 
ATOM     21  C   UNL A   1      43.487  27.044  32.505  1.00  0.00     0.065 A 
ATOM     22  C   UNL A   1      42.404  27.920  32.215  1.00  0.00     0.012 A 
ATOM     23  C   UNL A   1      44.264  26.637  31.378  1.00  0.00     0.028 A 
ATOM     24  C   UNL A   1      42.094  28.260  30.868  1.00  0.00     0.011 A 
ATOM     25  C   UNL A   1      43.984  27.088  30.080  1.00  0.00     0.002 A 
ATOM     26  C   UNL A   1      42.898  27.885  29.817  1.00  0.00     0.001 A 
BRANCH  19  27
ATOM     27  S   UNL A   1      44.383  24.905  35.570  1.00  0.00     0.268 S 
ATOM     28  O   UNL A   1      45.002  23.730  34.939  1.00  0.00    -0.201 OA
ATOM     29  O   UNL A   1      43.882  24.774  36.947  1.00  0.00    -0.201 OA
BRANCH  27  30
ATOM     30  C   UNL A   1      45.379  26.030  35.602  1.00  0.00     0.088 A 
ATOM     31  C   UNL A   1      48.706  29.299  36.756  1.00  0.00     0.044 C 
ATOM     32  C   UNL A   1      47.533  28.597  36.122  1.00  0.00    -0.051 A 
ATOM     33  C   UNL A   1      46.335  28.160  37.271  1.00  0.00     0.005 A 
ATOM     34  C   UNL A   1      47.761  27.901  34.589  1.00  0.00     0.005 A 
ATOM     35  C   UNL A   1      45.274  26.939  37.094  1.00  0.00     0.022 A 
ATOM     36  C   UNL A   1      46.734  26.558  34.157  1.00  0.00     0.022 A 
ENDBRANCH  27  30
ENDBRANCH  19  27
ENDBRANCH  16  18
ENDBRANCH  13  16
ENDBRANCH  11  12
ENDBRANCH   8  11
ENDBRANCH   6   7
ENDBRANCH   4   6
ENDBRANCH   3   4
ENDBRANCH   2   3
ENDBRANCH   1   2
BRANCH   1  37
ATOM     37  O   UNL A   1      33.659  34.186  31.352  1.00  0.00    -0.376 OA
BRANCH  37  38
ATOM     38  C   UNL A   1      34.357  34.351  30.140  1.00  0.00     0.188 C 
BRANCH  38  39
ATOM     39  C   UNL A   1      35.637  33.543  29.954  1.00  0.00     0.188 C 
BRANCH  39  40
ATOM     40  O   UNL A   1      35.518  32.127  29.939  1.00  0.00    -0.376 OA
BRANCH  40  41
ATOM     41  C   UNL A   1      36.132  31.264  30.861  1.00  0.00     0.202 C 
BRANCH  41  42
ATOM     42  C   UNL A   1      36.343  29.944  30.213  1.00  0.00     0.261 C 
BRANCH  42  43
ATOM     43  O   UNL A   1      37.679  29.778  29.611  1.00  0.00    -0.460 OA
BRANCH  43  44
ATOM     44  C   UNL A   1      38.456  28.656  29.490  1.00  0.00     0.338 C 
ATOM     45  O   UNL A   1      38.666  27.945  30.472  1.00  0.00    -0.246 OA
BRANCH  44  46
ATOM     46  C   UNL A   1      39.067  28.265  28.163  1.00  0.00     0.060 A 
ATOM     47  C   UNL A   1      39.275  26.936  27.934  1.00  0.00     0.016 A 
ATOM     48  C   UNL A   1      39.656  29.091  27.219  1.00  0.00     0.016 A 
ATOM     49  C   UNL A   1      40.336  26.549  27.085  1.00  0.00     0.010 A 
ATOM     50  C   UNL A   1      40.852  28.677  26.531  1.00  0.00     0.010 A 
ATOM     51  C   UNL A   1      41.389  27.376  26.618  1.00  0.00    -0.014 A 
BRANCH  51  52
ATOM     52  C   UNL A   1      43.149  27.125  26.329  1.00  0.00     0.031 A 
ATOM     53  C   UNL A   1      43.199  25.705  25.914  1.00  0.00     0.074 A 
ATOM     54  C   UNL A   1      44.419  27.989  26.198  1.00  0.00     0.049 A 
ATOM     55  N   UNL A   1      44.007  25.177  25.081  1.00  0.00    -0.248 NA
ATOM     56  C   UNL A   1      42.222  24.736  26.461  1.00  0.00     0.031 C 
ATOM     57  C   UNL A   1      45.634  27.942  25.249  1.00  0.00     0.029 A 
ATOM     58  N   UNL A   1      44.640  29.407  26.494  1.00  0.00    -0.354 N 
ATOM     59  C   UNL A   1      43.957  23.835  25.396  1.00  0.00     0.074 A 
ATOM     60  C   UNL A   1      42.718  23.572  26.070  1.00  0.00     0.031 C 
ATOM     61  C   UNL A   1      46.405  29.081  25.260  1.00  0.00     0.029 A 
ATOM     62  C   UNL A   1      45.810  30.060  26.138  1.00  0.00     0.049 A 
ATOM     63  H   UNL A   1      43.936  29.911  26.963  1.00  0.00     0.167 HD
ATOM     64  C   UNL A   1      45.118  23.161  25.557  1.00  0.00     0.031 A 
ATOM     65  C   UNL A   1      46.349  30.978  27.000  1.00  0.00     0.031 A 
ATOM     66  C   UNL A   1      46.244  24.085  25.519  1.00  0.00     0.049 A 
ATOM     67  C   UNL A   1      47.168  30.067  27.859  1.00  0.00     0.074 A 
ATOM     68  C   UNL A   1      46.880  24.768  24.501  1.00  0.00     0.029 A 
ATOM     69  N   UNL A   1      46.507  24.811  26.670  1.00  0.00    -0.354 N 
ATOM     70  N   UNL A   1      46.782  28.844  28.138  1.00  0.00    -0.248 NA
ATOM     71  C   UNL A   1      48.603  30.261  27.907  1.00  0.00     0.031 C 
ATOM     72  C   UNL A   1      47.632  25.835  25.092  1.00  0.00     0.029 A 
ATOM     73  C   UNL A   1      47.333  25.904  26.450  1.00  0.00     0.049 A 
ATOM     74  H   UNL A   1      46.145  24.575  27.555  1.00  0.00     0.167 HD
ATOM     75  C   UNL A   1      47.814  28.079  27.625  1.00  0.00     0.074 A 
ATOM     76  C   UNL A   1      48.970  28.988  27.710  1.00  0.00     0.031 C 
ATOM     77  C   UNL A   1      47.707  26.730  27.590  1.00  0.00     0.031 A 
BRANCH  64  78
ATOM     78  C   UNL A   1      45.172  21.670  25.521  1.00  0.00    -0.014 A 
ATOM     79  C   UNL A   1      46.380  21.135  25.071  1.00  0.00     0.009 A 
ATOM     80  C   UNL A   1      44.085  20.782  25.650  1.00  0.00     0.009 A 
ATOM     81  C   UNL A   1      46.447  19.837  24.571  1.00  0.00     0.001 A 
ATOM     82  C   UNL A   1      44.146  19.478  25.152  1.00  0.00     0.001 A 
ATOM     83  C   UNL A   1      45.318  19.025  24.568  1.00  0.00     0.000 A 
ENDBRANCH  64  78
BRANCH  65  84
ATOM     84  C   UNL A   1      45.395  31.994  27.555  1.00  0.00    -0.014 A 
ATOM     85  C   UNL A   1      45.343  32.154  28.958  1.00  0.00     0.009 A 
ATOM     86  C   UNL A   1      44.818  32.987  26.757  1.00  0.00     0.009 A 
ATOM     87  C   UNL A   1      44.978  33.380  29.526  1.00  0.00     0.001 A 
ATOM     88  C   UNL A   1      44.422  34.201  27.332  1.00  0.00     0.001 A 
ATOM     89  C   UNL A   1      44.589  34.426  28.701  1.00  0.00     0.000 A 
ENDBRANCH  65  84
BRANCH  77  90
ATOM     90  C   UNL A   1      48.515  26.120  28.632  1.00  0.00    -0.014 A 
ATOM     91  C   UNL A   1      47.775  25.702  30.423  1.00  0.00     0.009 A 
ATOM     92  C   UNL A   1      50.480  25.955  28.540  1.00  0.00     0.009 A 
ATOM     93  C   UNL A   1      49.104  25.291  31.799  1.00  0.00     0.001 A 
ATOM     94  C   UNL A   1      51.849  25.607  29.890  1.00  0.00     0.001 A 
ATOM     95  C   UNL A   1      51.049  25.275  31.804  1.00  0.00     0.000 A 
ENDBRANCH  77  90
ENDBRANCH  51  52
ENDBRANCH  44  46
ENDBRANCH  43  44
ENDBRANCH  42  43
ENDBRANCH  41  42
ENDBRANCH  40  41
ENDBRANCH  39  40
ENDBRANCH  38  39
ENDBRANCH  37  38
ENDBRANCH   1  37
TORSDOF 24
ENDMDL
MODEL 2
REMARK VINA RESULT:      -9.9      3.654      8.795
REMARK SMILES Cc1ccc(S(=O)(=O)n2cc(C(=O)C(=O)NCC(=O)NCC(=O)OCCOCCOCCOC(=O)c3ccc(-c4c5nc(c(-c6ccccc6)c6ccc([nH]6)c(-c6ccccc6)c6nc(c(-c7ccccc7)c7ccc4[nH]7)C=C6)C=C5)cc3)c3ccccc32)cc1
REMARK SMILES IDX 26 1 25 2 24 3 22 4 23 5 21 6 20 7 18 8 19 9 17 11 16 12
REMARK SMILES IDX 14 13 15 14 12 16 13 17 11 18 9 19 10 20 89 21 84 22 88 23
REMARK SMILES IDX 85 24 87 25 86 26 6 27 7 28 8 29 5 30 1 31 2 32 3 33 91 34
REMARK SMILES IDX 4 35 90 36 27 37 28 38 29 39 30 40 31 41 32 42 33 43 34 44
REMARK SMILES IDX 35 45 36 46 37 47 83 48 38 49 82 50 39 51 40 52 41 53 76 54
REMARK SMILES IDX 42 55 81 56 75 57 77 58 43 59 80 60 74 61 73 62 44 64 66 65
REMARK SMILES IDX 51 66 65 67 52 68 55 69 64 70 78 71 53 72 54 73 63 75 79 76
REMARK SMILES IDX 56 77 45 78 46 79 50 80 47 81 49 82 48 83 67 84 68 85 72 86
REMARK SMILES IDX 69 87 71 88 70 89 57 90 58 91 62 92 59 93 61 94 60 95
REMARK H PARENT 20 10 16 15 77 63 55 74
REMARK Flexibility Score: inf
ROOT
ATOM      1  C   UNL A   1      34.194  23.003  26.257  1.00  0.00     0.202 C 
ENDROOT
BRANCH   1   2
ATOM      2  C   UNL A   1      33.082  23.980  25.847  1.00  0.00     0.261 C 
BRANCH   2   3
ATOM      3  O   UNL A   1      33.291  25.705  26.172  1.00  0.00    -0.462 OA
BRANCH   3   4
ATOM      4  C   UNL A   1      33.102  27.186  26.054  1.00  0.00     0.325 C 
ATOM      5  O   UNL A   1      31.936  27.529  25.819  1.00  0.00    -0.250 OA
BRANCH   4   6
ATOM      6  C   UNL A   1      34.234  28.551  26.422  1.00  0.00     0.238 C 
BRANCH   6   7
ATOM      7  N   UNL A   1      33.740  30.082  26.503  1.00  0.00    -0.344 N 
ATOM      8  C   UNL A   1      33.600  31.062  27.481  1.00  0.00     0.239 C 
ATOM      9  O   UNL A   1      32.476  31.564  27.625  1.00  0.00    -0.273 OA
ATOM     10  H   UNL A   1      33.460  30.414  25.620  1.00  0.00     0.164 HD
BRANCH   8  11
ATOM     11  C   UNL A   1      34.755  31.719  28.236  1.00  0.00     0.216 C 
BRANCH  11  12
ATOM     12  N   UNL A   1      34.260  32.390  29.390  1.00  0.00    -0.340 N 
ATOM     13  C   UNL A   1      34.688  33.455  30.108  1.00  0.00     0.292 C 
ATOM     14  O   UNL A   1      33.947  33.908  30.968  1.00  0.00    -0.265 OA
ATOM     15  H   UNL A   1      33.430  31.994  29.742  1.00  0.00     0.164 HD
BRANCH  13  16
ATOM     16  C   UNL A   1      36.107  33.965  29.953  1.00  0.00     0.252 C 
ATOM     17  O   UNL A   1      36.369  34.550  28.904  1.00  0.00    -0.283 OA
BRANCH  16  18
ATOM     18  C   UNL A   1      37.131  33.660  30.971  1.00  0.00     0.054 A 
ATOM     19  N   UNL A   1      38.276  32.838  33.110  1.00  0.00    -0.240 N 
ATOM     20  C   UNL A   1      36.921  33.220  32.252  1.00  0.00     0.117 A 
ATOM     21  C   UNL A   1      39.281  33.410  31.898  1.00  0.00     0.065 A 
ATOM     22  C   UNL A   1      38.511  33.821  30.774  1.00  0.00     0.012 A 
ATOM     23  C   UNL A   1      40.684  33.665  31.804  1.00  0.00     0.028 A 
ATOM     24  C   UNL A   1      39.149  34.351  29.619  1.00  0.00     0.011 A 
ATOM     25  C   UNL A   1      41.252  34.292  30.686  1.00  0.00     0.002 A 
ATOM     26  C   UNL A   1      40.498  34.624  29.590  1.00  0.00     0.001 A 
BRANCH  19  27
ATOM     27  S   UNL A   1      38.555  31.082  34.867  1.00  0.00     0.268 S 
ATOM     28  O   UNL A   1      39.509  29.981  34.662  1.00  0.00    -0.201 OA
ATOM     29  O   UNL A   1      37.528  30.928  35.910  1.00  0.00    -0.201 OA
BRANCH  27  30
ATOM     30  C   UNL A   1      39.312  32.331  35.220  1.00  0.00     0.088 A 
ATOM     31  C   UNL A   1      42.359  36.038  35.479  1.00  0.00     0.044 C 
ATOM     32  C   UNL A   1      41.385  34.944  35.833  1.00  0.00    -0.051 A 
ATOM     33  C   UNL A   1      41.974  33.386  35.418  1.00  0.00     0.005 A 
ATOM     34  C   UNL A   1      39.760  35.377  36.071  1.00  0.00     0.005 A 
ATOM     35  C   UNL A   1      41.042  32.090  35.104  1.00  0.00     0.022 A 
ATOM     36  C   UNL A   1      38.553  34.147  35.793  1.00  0.00     0.022 A 
ENDBRANCH  27  30
ENDBRANCH  19  27
ENDBRANCH  16  18
ENDBRANCH  13  16
ENDBRANCH  11  12
ENDBRANCH   8  11
ENDBRANCH   6   7
ENDBRANCH   4   6
ENDBRANCH   3   4
ENDBRANCH   2   3
ENDBRANCH   1   2
BRANCH   1  37
ATOM     37  O   UNL A   1      35.550  23.335  26.088  1.00  0.00    -0.376 OA
BRANCH  37  38
ATOM     38  C   UNL A   1      36.438  22.256  25.912  1.00  0.00     0.188 C 
BRANCH  38  39
ATOM     39  C   UNL A   1      37.866  22.587  25.488  1.00  0.00     0.188 C 
BRANCH  39  40
ATOM     40  O   UNL A   1      38.821  22.792  26.520  1.00  0.00    -0.376 OA
BRANCH  40  41
ATOM     41  C   UNL A   1      39.950  21.984  26.736  1.00  0.00     0.202 C 
BRANCH  41  42
ATOM     42  C   UNL A   1      41.153  22.853  26.810  1.00  0.00     0.261 C 
BRANCH  42  43
ATOM     43  O   UNL A   1      42.069  22.708  25.664  1.00  0.00    -0.460 OA
BRANCH  43  44
ATOM     44  C   UNL A   1      43.321  22.155  25.603  1.00  0.00     0.338 C 
ATOM     45  O   UNL A   1      43.482  21.056  25.074  1.00  0.00    -0.246 OA
BRANCH  44  46
ATOM     46  C   UNL A   1      44.523  22.873  26.174  1.00  0.00     0.060 A 
ATOM     47  C   UNL A   1      44.788  22.698  27.502  1.00  0.00     0.016 A 
ATOM     48  C   UNL A   1      45.280  23.872  25.584  1.00  0.00     0.016 A 
ATOM     49  C   UNL A   1      45.434  23.736  28.211  1.00  0.00     0.010 A 
ATOM     50  C   UNL A   1      45.743  24.993  26.360  1.00  0.00     0.010 A 
ATOM     51  C   UNL A   1      45.632  25.067  27.763  1.00  0.00    -0.014 A 
BRANCH  51  52
ATOM     52  C   UNL A   1      45.584  26.681  28.563  1.00  0.00     0.031 A 
ATOM     53  C   UNL A   1      44.178  26.763  29.020  1.00  0.00     0.074 A 
ATOM     54  C   UNL A   1      46.587  27.752  29.033  1.00  0.00     0.049 A 
ATOM     55  N   UNL A   1      43.744  27.343  30.068  1.00  0.00    -0.248 NA
ATOM     56  C   UNL A   1      43.104  26.104  28.241  1.00  0.00     0.031 C 
ATOM     57  C   UNL A   1      46.678  28.632  30.297  1.00  0.00     0.029 A 
ATOM     58  N   UNL A   1      48.022  27.893  28.770  1.00  0.00    -0.354 N 
ATOM     59  C   UNL A   1      42.406  27.537  29.795  1.00  0.00     0.074 A 
ATOM     60  C   UNL A   1      42.004  26.587  28.796  1.00  0.00     0.031 C 
ATOM     61  C   UNL A   1      47.898  29.240  30.476  1.00  0.00     0.029 A 
ATOM     62  C   UNL A   1      48.804  28.826  29.431  1.00  0.00     0.049 A 
ATOM     63  H   UNL A   1      48.443  27.306  28.100  1.00  0.00     0.167 HD
ATOM     64  C   UNL A   1      41.870  28.760  30.002  1.00  0.00     0.031 A 
ATOM     65  C   UNL A   1      49.780  29.490  28.737  1.00  0.00     0.031 A 
ATOM     66  C   UNL A   1      42.917  29.717  30.338  1.00  0.00     0.049 A 
ATOM     67  C   UNL A   1      48.971  30.621  28.185  1.00  0.00     0.074 A 
ATOM     68  C   UNL A   1      43.666  29.945  31.476  1.00  0.00     0.029 A 
ATOM     69  N   UNL A   1      43.672  30.225  29.293  1.00  0.00    -0.354 N 
ATOM     70  N   UNL A   1      47.713  30.471  27.843  1.00  0.00    -0.248 NA
ATOM     71  C   UNL A   1      49.329  31.976  28.552  1.00  0.00     0.031 C 
ATOM     72  C   UNL A   1      44.814  30.715  31.098  1.00  0.00     0.029 A 
ATOM     73  C   UNL A   1      44.852  30.823  29.710  1.00  0.00     0.049 A 
ATOM     74  H   UNL A   1      43.398  30.167  28.349  1.00  0.00     0.167 HD
ATOM     75  C   UNL A   1      47.070  31.385  28.660  1.00  0.00     0.074 A 
ATOM     76  C   UNL A   1      48.107  32.407  28.888  1.00  0.00     0.031 C 
ATOM     77  C   UNL A   1      45.718  31.422  28.704  1.00  0.00     0.031 A 
BRANCH  64  78
ATOM     78  C   UNL A   1      40.395  28.966  30.099  1.00  0.00    -0.014 A 
ATOM     79  C   UNL A   1      39.845  29.764  29.095  1.00  0.00     0.009 A 
ATOM     80  C   UNL A   1      39.570  28.659  31.200  1.00  0.00     0.009 A 
ATOM     81  C   UNL A   1      38.619  30.399  29.276  1.00  0.00     0.001 A 
ATOM     82  C   UNL A   1      38.339  29.292  31.387  1.00  0.00     0.001 A 
ATOM     83  C   UNL A   1      37.888  30.200  30.442  1.00  0.00     0.000 A 
ENDBRANCH  64  78
BRANCH  65  84
ATOM     84  C   UNL A   1      50.682  28.636  27.895  1.00  0.00    -0.014 A 
ATOM     85  C   UNL A   1      51.478  27.670  28.550  1.00  0.00     0.009 A 
ATOM     86  C   UNL A   1      50.527  28.532  26.509  1.00  0.00     0.009 A 
ATOM     87  C   UNL A   1      51.872  26.500  27.891  1.00  0.00     0.001 A 
ATOM     88  C   UNL A   1      50.952  27.374  25.845  1.00  0.00     0.001 A 
ATOM     89  C   UNL A   1      51.539  26.324  26.555  1.00  0.00     0.000 A 
ENDBRANCH  65  84
BRANCH  77  90
ATOM     90  C   UNL A   1      45.207  32.563  27.964  1.00  0.00    -0.014 A 
ATOM     91  C   UNL A   1      44.505  34.176  28.878  1.00  0.00     0.009 A 
ATOM     92  C   UNL A   1      44.818  32.529  26.029  1.00  0.00     0.009 A 
ATOM     93  C   UNL A   1      43.485  35.399  27.743  1.00  0.00     0.001 A 
ATOM     94  C   UNL A   1      43.760  33.689  24.865  1.00  0.00     0.001 A 
ATOM     95  C   UNL A   1      42.934  35.335  25.878  1.00  0.00     0.000 A 
ENDBRANCH  77  90
ENDBRANCH  51  52
ENDBRANCH  44  46
ENDBRANCH  43  44
ENDBRANCH  42  43
ENDBRANCH  41  42
ENDBRANCH  40  41
ENDBRANCH  39  40
ENDBRANCH  38  39
ENDBRANCH  37  38
ENDBRANCH   1  37
TORSDOF 24
ENDMDL
MODEL 3
REMARK VINA RESULT:      -9.6      6.094     12.030
REMARK SMILES Cc1ccc(S(=O)(=O)n2cc(C(=O)C(=O)NCC(=O)NCC(=O)OCCOCCOCCOC(=O)c3ccc(-c4c5nc(c(-c6ccccc6)c6ccc([nH]6)c(-c6ccccc6)c6nc(c(-c7ccccc7)c7ccc4[nH]7)C=C6)C=C5)cc3)c3ccccc32)cc1
REMARK SMILES IDX 26 1 25 2 24 3 22 4 23 5 21 6 20 7 18 8 19 9 17 11 16 12
REMARK SMILES IDX 14 13 15 14 12 16 13 17 11 18 9 19 10 20 89 21 84 22 88 23
REMARK SMILES IDX 85 24 87 25 86 26 6 27 7 28 8 29 5 30 1 31 2 32 3 33 91 34
REMARK SMILES IDX 4 35 90 36 27 37 28 38 29 39 30 40 31 41 32 42 33 43 34 44
REMARK SMILES IDX 35 45 36 46 37 47 83 48 38 49 82 50 39 51 40 52 41 53 76 54
REMARK SMILES IDX 42 55 81 56 75 57 77 58 43 59 80 60 74 61 73 62 44 64 66 65
REMARK SMILES IDX 51 66 65 67 52 68 55 69 64 70 78 71 53 72 54 73 63 75 79 76
REMARK SMILES IDX 56 77 45 78 46 79 50 80 47 81 49 82 48 83 67 84 68 85 72 86
REMARK SMILES IDX 69 87 71 88 70 89 57 90 58 91 62 92 59 93 61 94 60 95
REMARK H PARENT 20 10 16 15 77 63 55 74
REMARK Flexibility Score: inf
ROOT
ATOM      1  C   UNL A   1      41.009  24.985  27.720  1.00  0.00     0.202 C 
ENDROOT
BRANCH   1   2
ATOM      2  C   UNL A   1      39.689  25.445  27.084  1.00  0.00     0.261 C 
BRANCH   2   3
ATOM      3  O   UNL A   1      38.560  24.232  26.472  1.00  0.00    -0.462 OA
BRANCH   3   4
ATOM      4  C   UNL A   1      37.284  23.636  25.962  1.00  0.00     0.325 C 
ATOM      5  O   UNL A   1      36.321  24.413  25.981  1.00  0.00    -0.250 OA
BRANCH   4   6
ATOM      6  C   UNL A   1      36.972  22.064  25.118  1.00  0.00     0.238 C 
BRANCH   6   7
ATOM      7  N   UNL A   1      35.483  21.509  24.852  1.00  0.00    -0.344 N 
ATOM      8  C   UNL A   1      34.443  20.969  25.601  1.00  0.00     0.239 C 
ATOM      9  O   UNL A   1      34.022  19.852  25.265  1.00  0.00    -0.273 OA
ATOM     10  H   UNL A   1      35.245  21.568  23.899  1.00  0.00     0.164 HD
BRANCH   8  11
ATOM     11  C   UNL A   1      33.638  21.723  26.657  1.00  0.00     0.216 C 
BRANCH  11  12
ATOM     12  N   UNL A   1      32.245  21.533  26.433  1.00  0.00    -0.340 N 
ATOM     13  C   UNL A   1      31.234  22.358  26.072  1.00  0.00     0.292 C 
ATOM     14  O   UNL A   1      30.154  21.861  25.792  1.00  0.00    -0.265 OA
ATOM     15  H   UNL A   1      31.954  20.602  26.572  1.00  0.00     0.164 HD
BRANCH  13  16
ATOM     16  C   UNL A   1      31.400  23.862  26.166  1.00  0.00     0.252 C 
ATOM     17  O   UNL A   1      31.563  24.328  27.292  1.00  0.00    -0.283 OA
BRANCH  16  18
ATOM     18  C   UNL A   1      31.253  24.710  24.968  1.00  0.00     0.054 A 
ATOM     19  N   UNL A   1      30.540  26.594  23.383  1.00  0.00    -0.240 N 
ATOM     20  C   UNL A   1      30.372  25.746  24.788  1.00  0.00     0.117 A 
ATOM     21  C   UNL A   1      31.692  25.526  22.802  1.00  0.00     0.065 A 
ATOM     22  C   UNL A   1      31.995  24.545  23.788  1.00  0.00     0.012 A 
ATOM     23  C   UNL A   1      32.325  25.336  21.536  1.00  0.00     0.028 A 
ATOM     24  C   UNL A   1      32.947  23.523  23.518  1.00  0.00     0.011 A 
ATOM     25  C   UNL A   1      33.173  24.247  21.284  1.00  0.00     0.002 A 
ATOM     26  C   UNL A   1      33.497  23.348  22.269  1.00  0.00     0.001 A 
BRANCH  19  27
ATOM     27  S   UNL A   1      30.110  29.023  22.978  1.00  0.00     0.268 S 
ATOM     28  O   UNL A   1      28.947  29.677  23.598  1.00  0.00    -0.201 OA
ATOM     29  O   UNL A   1      30.770  29.699  21.851  1.00  0.00    -0.201 OA
BRANCH  27  30
ATOM     30  C   UNL A   1      31.176  28.824  24.018  1.00  0.00     0.088 A 
ATOM     31  C   UNL A   1      35.120  28.963  26.760  1.00  0.00     0.044 C 
ATOM     32  C   UNL A   1      33.879  28.501  26.041  1.00  0.00    -0.051 A 
ATOM     33  C   UNL A   1      34.022  28.638  24.336  1.00  0.00     0.005 A 
ATOM     34  C   UNL A   1      32.432  28.426  26.928  1.00  0.00     0.005 A 
ATOM     35  C   UNL A   1      32.774  28.802  23.305  1.00  0.00     0.022 A 
ATOM     36  C   UNL A   1      30.937  28.580  26.040  1.00  0.00     0.022 A 
ENDBRANCH  27  30
ENDBRANCH  19  27
ENDBRANCH  16  18
ENDBRANCH  13  16
ENDBRANCH  11  12
ENDBRANCH   8  11
ENDBRANCH   6   7
ENDBRANCH   4   6
ENDBRANCH   3   4
ENDBRANCH   2   3
ENDBRANCH   1   2
BRANCH   1  37
ATOM     37  O   UNL A   1      41.555  23.723  27.425  1.00  0.00    -0.376 OA
BRANCH  37  38
ATOM     38  C   UNL A   1      42.879  23.714  26.945  1.00  0.00     0.188 C 
BRANCH  38  39
ATOM     39  C   UNL A   1      43.588  22.365  26.872  1.00  0.00     0.188 C 
BRANCH  39  40
ATOM     40  O   UNL A   1      43.931  21.879  25.581  1.00  0.00    -0.376 OA
BRANCH  40  41
ATOM     41  C   UNL A   1      43.849  22.630  24.397  1.00  0.00     0.202 C 
BRANCH  41  42
ATOM     42  C   UNL A   1      45.225  22.940  23.931  1.00  0.00     0.261 C 
BRANCH  42  43
ATOM     43  O   UNL A   1      45.804  24.155  24.534  1.00  0.00    -0.460 OA
BRANCH  43  44
ATOM     44  C   UNL A   1      47.085  24.636  24.487  1.00  0.00     0.338 C 
ATOM     45  O   UNL A   1      47.741  24.535  23.452  1.00  0.00    -0.246 OA
BRANCH  44  46
ATOM     46  C   UNL A   1      47.718  25.299  25.690  1.00  0.00     0.060 A 
ATOM     47  C   UNL A   1      47.431  24.778  26.918  1.00  0.00     0.016 A 
ATOM     48  C   UNL A   1      48.383  26.513  25.743  1.00  0.00     0.016 A 
ATOM     49  C   UNL A   1      47.441  25.635  28.042  1.00  0.00     0.010 A 
ATOM     50  C   UNL A   1      48.185  27.407  26.855  1.00  0.00     0.010 A 
ATOM     51  C   UNL A   1      47.477  27.052  28.022  1.00  0.00    -0.014 A 
BRANCH  51  52
ATOM     52  C   UNL A   1      46.702  28.342  29.012  1.00  0.00     0.031 A 
ATOM     53  C   UNL A   1      45.292  27.895  29.063  1.00  0.00     0.074 A 
ATOM     54  C   UNL A   1      47.146  29.519  29.903  1.00  0.00     0.049 A 
ATOM     55  N   UNL A   1      44.469  28.055  30.023  1.00  0.00    -0.248 NA
ATOM     56  C   UNL A   1      44.707  27.151  27.924  1.00  0.00     0.031 C 
ATOM     57  C   UNL A   1      46.653  30.062  31.260  1.00  0.00     0.029 A 
ATOM     58  N   UNL A   1      48.464  30.136  30.077  1.00  0.00    -0.354 N 
ATOM     59  C   UNL A   1      43.239  27.903  29.419  1.00  0.00     0.074 A 
ATOM     60  C   UNL A   1      43.415  27.142  28.214  1.00  0.00     0.031 C 
ATOM     61  C   UNL A   1      47.518  30.943  31.865  1.00  0.00     0.029 A 
ATOM     62  C   UNL A   1      48.713  31.075  31.066  1.00  0.00     0.049 A 
ATOM     63  H   UNL A   1      49.195  29.877  29.471  1.00  0.00     0.167 HD
ATOM     64  C   UNL A   1      42.281  28.828  29.651  1.00  0.00     0.031 A 
ATOM     65  C   UNL A   1      49.523  32.142  30.784  1.00  0.00     0.031 A 
ATOM     66  C   UNL A   1      42.834  29.944  30.410  1.00  0.00     0.049 A 
ATOM     67  C   UNL A   1      48.511  33.081  30.206  1.00  0.00     0.074 A 
ATOM     68  C   UNL A   1      43.195  30.107  31.733  1.00  0.00     0.029 A 
ATOM     69  N   UNL A   1      43.571  30.884  29.708  1.00  0.00    -0.354 N 
ATOM     70  N   UNL A   1      47.487  32.651  29.506  1.00  0.00    -0.248 NA
ATOM     71  C   UNL A   1      48.289  34.353  30.861  1.00  0.00     0.031 C 
ATOM     72  C   UNL A   1      44.057  31.249  31.814  1.00  0.00     0.029 A 
ATOM     73  C   UNL A   1      44.352  31.688  30.526  1.00  0.00     0.049 A 
ATOM     74  H   UNL A   1      43.544  30.973  28.728  1.00  0.00     0.167 HD
ATOM     75  C   UNL A   1      46.408  33.113  30.239  1.00  0.00     0.074 A 
ATOM     76  C   UNL A   1      46.951  34.311  30.903  1.00  0.00     0.031 C 
ATOM     77  C   UNL A   1      45.151  32.737  29.907  1.00  0.00     0.031 A 
BRANCH  64  78
ATOM     78  C   UNL A   1      40.843  28.560  29.361  1.00  0.00    -0.014 A 
ATOM     79  C   UNL A   1      40.366  29.121  28.175  1.00  0.00     0.009 A 
ATOM     80  C   UNL A   1      39.885  28.032  30.251  1.00  0.00     0.009 A 
ATOM     81  C   UNL A   1      39.005  29.340  27.982  1.00  0.00     0.001 A 
ATOM     82  C   UNL A   1      38.518  28.248  30.063  1.00  0.00     0.001 A 
ATOM     83  C   UNL A   1      38.084  28.946  28.947  1.00  0.00     0.000 A 
ENDBRANCH  64  78
BRANCH  65  84
ATOM     84  C   UNL A   1      50.823  31.817  30.108  1.00  0.00    -0.014 A 
ATOM     85  C   UNL A   1      51.120  32.478  28.895  1.00  0.00     0.009 A 
ATOM     86  C   UNL A   1      51.863  31.161  30.774  1.00  0.00     0.009 A 
ATOM     87  C   UNL A   1      52.447  32.705  28.510  1.00  0.00     0.001 A 
ATOM     88  C   UNL A   1      53.188  31.363  30.367  1.00  0.00     0.001 A 
ATOM     89  C   UNL A   1      53.479  32.209  29.293  1.00  0.00     0.000 A 
ENDBRANCH  65  84
BRANCH  77  90
ATOM     90  C   UNL A   1      44.448  33.817  29.237  1.00  0.00    -0.014 A 
ATOM     91  C   UNL A   1      43.103  34.933  30.173  1.00  0.00     0.009 A 
ATOM     92  C   UNL A   1      44.463  34.087  27.281  1.00  0.00     0.009 A 
ATOM     93  C   UNL A   1      41.975  36.030  29.012  1.00  0.00     0.001 A 
ATOM     94  C   UNL A   1      43.325  35.120  26.074  1.00  0.00     0.001 A 
ATOM     95  C   UNL A   1      41.837  36.210  27.079  1.00  0.00     0.000 A 
ENDBRANCH  77  90
ENDBRANCH  51  52
ENDBRANCH  44  46
ENDBRANCH  43  44
ENDBRANCH  42  43
ENDBRANCH  41  42
ENDBRANCH  40  41
ENDBRANCH  39  40
ENDBRANCH  38  39
ENDBRANCH  37  38
ENDBRANCH   1  37
TORSDOF 24
ENDMDL
