MODEL 1
REMARK VINA RESULT:      -9.3      0.000      0.000
REMARK SMILES CCC[C@@H](CNC(=O)N1C[C@@H](C)[C@H](C(=O)OC)C1)C(=O)OCCOCCOCCOC(=O)c1ccc(-c2c3nc(c(-c4ccccc4)c4ccc([nH]4)c(-c4ccccc4)c4nc(c(-c5ccccc5)c5ccc2[nH]5)C=C4)C=C3)cc1
REMARK SMILES IDX 24 1 23 2 22 3 21 4 19 5 20 6 4 7 3 8 2 9 1 10 5 11 6 12
REMARK SMILES IDX 7 13 8 15 9 16 10 17 18 18 11 19 13 20 12 21 14 22 15 23
REMARK SMILES IDX 16 24 17 25 25 26 26 27 27 28 28 29 29 30 30 31 31 32 32 33
REMARK SMILES IDX 33 34 34 35 80 36 35 37 79 38 36 39 37 40 38 41 73 42 39 43
REMARK SMILES IDX 78 44 72 45 74 46 40 47 77 48 71 49 70 50 41 52 63 53 48 54
REMARK SMILES IDX 62 55 49 56 52 57 61 58 75 59 50 60 51 61 60 63 76 64 53 65
REMARK SMILES IDX 42 66 43 67 47 68 44 69 46 70 45 71 64 72 65 73 69 74 66 75
REMARK SMILES IDX 68 76 67 77 54 78 55 79 59 80 56 81 58 82 57 83
REMARK H PARENT 6 14 74 51 52 62
REMARK Flexibility Score: inf
ROOT
ATOM      1  O   UNL A   1      33.923  31.820  28.299  1.00  0.00    -0.376 OA
ENDROOT
BRANCH   1   2
ATOM      2  C   UNL A   1      33.432  31.024  27.242  1.00  0.00     0.202 C 
BRANCH   2   3
ATOM      3  C   UNL A   1      33.689  29.507  27.126  1.00  0.00     0.261 C 
BRANCH   3   4
ATOM      4  O   UNL A   1      32.921  28.667  26.250  1.00  0.00    -0.463 OA
BRANCH   4   5
ATOM      5  C   UNL A   1      32.239  27.633  26.793  1.00  0.00     0.310 C 
ATOM      6  O   UNL A   1      31.434  27.736  27.711  1.00  0.00    -0.252 OA
BRANCH   5   7
ATOM      7  C   UNL A   1      32.568  26.280  26.176  1.00  0.00     0.118 C 
BRANCH   7   8
ATOM      8  C   UNL A   1      31.421  25.432  25.597  1.00  0.00     0.017 C 
BRANCH   8   9
ATOM      9  C   UNL A   1      30.109  26.209  25.366  1.00  0.00    -0.002 C 
ATOM     10  C   UNL A   1      29.707  26.357  23.902  1.00  0.00     0.004 C 
ENDBRANCH   8   9
ENDBRANCH   7   8
BRANCH   7  11
ATOM     11  C   UNL A   1      33.711  26.495  25.177  1.00  0.00     0.133 C 
BRANCH  11  12
ATOM     12  N   UNL A   1      33.282  26.477  23.782  1.00  0.00    -0.337 N 
ATOM     13  C   UNL A   1      33.568  25.551  22.827  1.00  0.00     0.317 C 
ATOM     14  H   UNL A   1      32.714  27.229  23.497  1.00  0.00     0.165 HD
ATOM     15  O   UNL A   1      33.737  25.941  21.673  1.00  0.00    -0.249 OA
BRANCH  13  16
ATOM     16  N   UNL A   1      33.733  24.251  23.188  1.00  0.00    -0.324 N 
ATOM     17  C   UNL A   1      32.810  23.150  23.015  1.00  0.00     0.125 C 
ATOM     18  C   UNL A   1      35.037  23.710  23.537  1.00  0.00     0.137 C 
ATOM     19  C   UNL A   1      33.202  22.218  24.151  1.00  0.00     0.021 C 
ATOM     20  C   UNL A   1      34.740  22.371  24.222  1.00  0.00     0.123 C 
ATOM     21  C   UNL A   1      32.749  20.789  23.917  1.00  0.00     0.010 C 
BRANCH  20  22
ATOM     22  C   UNL A   1      35.214  22.259  25.657  1.00  0.00     0.310 C 
ATOM     23  O   UNL A   1      34.629  22.800  26.588  1.00  0.00    -0.252 OA
BRANCH  22  24
ATOM     24  O   UNL A   1      36.391  21.603  25.776  1.00  0.00    -0.469 OA
ATOM     25  C   UNL A   1      36.470  20.367  25.061  1.00  0.00     0.282 C 
ENDBRANCH  22  24
ENDBRANCH  20  22
ENDBRANCH  13  16
ENDBRANCH  11  12
ENDBRANCH   7  11
ENDBRANCH   5   7
ENDBRANCH   4   5
ENDBRANCH   3   4
ENDBRANCH   2   3
ENDBRANCH   1   2
BRANCH   1  26
ATOM     26  C   UNL A   1      34.585  33.017  27.964  1.00  0.00     0.188 C 
BRANCH  26  27
ATOM     27  C   UNL A   1      33.813  34.261  28.406  1.00  0.00     0.188 C 
BRANCH  27  28
ATOM     28  O   UNL A   1      33.097  34.278  29.631  1.00  0.00    -0.376 OA
BRANCH  28  29
ATOM     29  C   UNL A   1      33.623  35.044  30.707  1.00  0.00     0.202 C 
BRANCH  29  30
ATOM     30  C   UNL A   1      34.416  34.341  31.825  1.00  0.00     0.261 C 
BRANCH  30  31
ATOM     31  O   UNL A   1      35.540  33.549  31.400  1.00  0.00    -0.460 OA
BRANCH  31  32
ATOM     32  C   UNL A   1      35.961  32.614  32.293  1.00  0.00     0.338 C 
ATOM     33  O   UNL A   1      35.507  32.396  33.401  1.00  0.00    -0.246 OA
BRANCH  32  34
ATOM     34  C   UNL A   1      36.934  31.704  31.640  1.00  0.00     0.060 A 
ATOM     35  C   UNL A   1      37.954  31.146  32.432  1.00  0.00     0.016 A 
ATOM     36  C   UNL A   1      36.880  31.434  30.274  1.00  0.00     0.016 A 
ATOM     37  C   UNL A   1      38.931  30.335  31.861  1.00  0.00     0.010 A 
ATOM     38  C   UNL A   1      37.893  30.663  29.692  1.00  0.00     0.010 A 
ATOM     39  C   UNL A   1      38.941  30.142  30.477  1.00  0.00    -0.014 A 
BRANCH  39  40
ATOM     40  C   UNL A   1      40.175  29.629  29.836  1.00  0.00     0.031 A 
ATOM     41  C   UNL A   1      41.330  30.581  29.671  1.00  0.00     0.074 A 
ATOM     42  C   UNL A   1      40.296  28.348  29.445  1.00  0.00     0.049 A 
ATOM     43  N   UNL A   1      42.492  30.389  29.101  1.00  0.00    -0.248 NA
ATOM     44  C   UNL A   1      41.146  31.933  30.226  1.00  0.00     0.031 C 
ATOM     45  C   UNL A   1      39.283  27.308  29.609  1.00  0.00     0.029 A 
ATOM     46  N   UNL A   1      41.338  27.710  28.819  1.00  0.00    -0.354 N 
ATOM     47  C   UNL A   1      43.166  31.600  29.211  1.00  0.00     0.074 A 
ATOM     48  C   UNL A   1      42.281  32.523  29.884  1.00  0.00     0.031 C 
ATOM     49  C   UNL A   1      39.747  26.163  29.076  1.00  0.00     0.029 A 
ATOM     50  C   UNL A   1      41.072  26.399  28.507  1.00  0.00     0.049 A 
ATOM     51  H   UNL A   1      42.195  28.151  28.614  1.00  0.00     0.167 HD
ATOM     52  C   UNL A   1      44.412  31.916  28.789  1.00  0.00     0.031 A 
ATOM     53  C   UNL A   1      41.806  25.504  27.815  1.00  0.00     0.031 A 
ATOM     54  C   UNL A   1      45.292  31.004  28.110  1.00  0.00     0.049 A 
ATOM     55  C   UNL A   1      43.160  25.905  27.287  1.00  0.00     0.074 A 
ATOM     56  C   UNL A   1      46.579  31.228  27.654  1.00  0.00     0.029 A 
ATOM     57  N   UNL A   1      44.972  29.697  27.783  1.00  0.00    -0.354 N 
ATOM     58  N   UNL A   1      43.796  27.045  27.412  1.00  0.00    -0.248 NA
ATOM     59  C   UNL A   1      43.902  24.886  26.528  1.00  0.00     0.031 C 
ATOM     60  C   UNL A   1      47.015  30.074  26.995  1.00  0.00     0.029 A 
ATOM     61  C   UNL A   1      46.026  29.109  27.105  1.00  0.00     0.049 A 
ATOM     62  H   UNL A   1      44.121  29.252  27.999  1.00  0.00     0.167 HD
ATOM     63  C   UNL A   1      45.022  26.869  26.779  1.00  0.00     0.074 A 
ATOM     64  C   UNL A   1      45.047  25.507  26.287  1.00  0.00     0.031 C 
ATOM     65  C   UNL A   1      46.039  27.752  26.623  1.00  0.00     0.031 A 
BRANCH  52  66
ATOM     66  C   UNL A   1      44.879  33.328  29.006  1.00  0.00    -0.014 A 
ATOM     67  C   UNL A   1      45.548  33.710  30.179  1.00  0.00     0.009 A 
ATOM     68  C   UNL A   1      44.668  34.286  28.001  1.00  0.00     0.009 A 
ATOM     69  C   UNL A   1      45.971  35.029  30.352  1.00  0.00     0.001 A 
ATOM     70  C   UNL A   1      45.119  35.596  28.165  1.00  0.00     0.001 A 
ATOM     71  C   UNL A   1      45.763  35.969  29.343  1.00  0.00     0.000 A 
ENDBRANCH  52  66
BRANCH  53  72
ATOM     72  C   UNL A   1      41.268  24.144  27.545  1.00  0.00    -0.014 A 
ATOM     73  C   UNL A   1      40.257  23.943  26.593  1.00  0.00     0.009 A 
ATOM     74  C   UNL A   1      41.736  23.040  28.277  1.00  0.00     0.009 A 
ATOM     75  C   UNL A   1      39.705  22.674  26.402  1.00  0.00     0.001 A 
ATOM     76  C   UNL A   1      41.205  21.767  28.061  1.00  0.00     0.001 A 
ATOM     77  C   UNL A   1      40.182  21.586  27.133  1.00  0.00     0.000 A 
ENDBRANCH  53  72
BRANCH  65  78
ATOM     78  C   UNL A   1      47.285  27.261  25.937  1.00  0.00    -0.014 A 
ATOM     79  C   UNL A   1      47.475  27.415  24.556  1.00  0.00     0.009 A 
ATOM     80  C   UNL A   1      48.304  26.665  26.699  1.00  0.00     0.009 A 
ATOM     81  C   UNL A   1      48.640  26.942  23.945  1.00  0.00     0.001 A 
ATOM     82  C   UNL A   1      49.480  26.225  26.093  1.00  0.00     0.001 A 
ATOM     83  C   UNL A   1      49.642  26.352  24.714  1.00  0.00     0.000 A 
ENDBRANCH  65  78
ENDBRANCH  39  40
ENDBRANCH  32  34
ENDBRANCH  31  32
ENDBRANCH  30  31
ENDBRANCH  29  30
ENDBRANCH  28  29
ENDBRANCH  27  28
ENDBRANCH  26  27
ENDBRANCH   1  26
TORSDOF 24
ENDMDL
MODEL 2
REMARK VINA RESULT:      -9.0      2.887      8.986
REMARK SMILES CCC[C@@H](CNC(=O)N1C[C@@H](C)[C@H](C(=O)OC)C1)C(=O)OCCOCCOCCOC(=O)c1ccc(-c2c3nc(c(-c4ccccc4)c4ccc([nH]4)c(-c4ccccc4)c4nc(c(-c5ccccc5)c5ccc2[nH]5)C=C4)C=C3)cc1
REMARK SMILES IDX 24 1 23 2 22 3 21 4 19 5 20 6 4 7 3 8 2 9 1 10 5 11 6 12
REMARK SMILES IDX 7 13 8 15 9 16 10 17 18 18 11 19 13 20 12 21 14 22 15 23
REMARK SMILES IDX 16 24 17 25 25 26 26 27 27 28 28 29 29 30 30 31 31 32 32 33
REMARK SMILES IDX 33 34 34 35 80 36 35 37 79 38 36 39 37 40 38 41 73 42 39 43
REMARK SMILES IDX 78 44 72 45 74 46 40 47 77 48 71 49 70 50 41 52 63 53 48 54
REMARK SMILES IDX 62 55 49 56 52 57 61 58 75 59 50 60 51 61 60 63 76 64 53 65
REMARK SMILES IDX 42 66 43 67 47 68 44 69 46 70 45 71 64 72 65 73 69 74 66 75
REMARK SMILES IDX 68 76 67 77 54 78 55 79 59 80 56 81 58 82 57 83
REMARK H PARENT 6 14 74 51 52 62
REMARK Flexibility Score: inf
ROOT
ATOM      1  O   UNL A   1      39.003  22.877  26.497  1.00  0.00    -0.376 OA
ENDROOT
BRANCH   1   2
ATOM      2  C   UNL A   1      37.786  22.880  25.782  1.00  0.00     0.202 C 
BRANCH   2   3
ATOM      3  C   UNL A   1      36.980  21.603  25.467  1.00  0.00     0.261 C 
BRANCH   3   4
ATOM      4  O   UNL A   1      35.546  21.567  25.542  1.00  0.00    -0.463 OA
BRANCH   4   5
ATOM      5  C   UNL A   1      34.839  22.026  24.485  1.00  0.00     0.310 C 
ATOM      6  O   UNL A   1      35.335  22.466  23.454  1.00  0.00    -0.252 OA
BRANCH   5   7
ATOM      7  C   UNL A   1      33.330  21.977  24.678  1.00  0.00     0.118 C 
BRANCH   7   8
ATOM      8  C   UNL A   1      32.558  20.747  24.166  1.00  0.00     0.017 C 
BRANCH   8   9
ATOM      9  C   UNL A   1      33.293  19.406  24.363  1.00  0.00    -0.002 C 
ATOM     10  C   UNL A   1      32.781  18.565  25.527  1.00  0.00     0.004 C 
ENDBRANCH   8   9
ENDBRANCH   7   8
BRANCH   7  11
ATOM     11  C   UNL A   1      33.043  22.287  26.152  1.00  0.00     0.133 C 
BRANCH  11  12
ATOM     12  N   UNL A   1      31.625  22.249  26.494  1.00  0.00    -0.337 N 
ATOM     13  C   UNL A   1      30.747  23.287  26.552  1.00  0.00     0.317 C 
ATOM     14  H   UNL A   1      31.257  21.361  26.709  1.00  0.00     0.165 HD
ATOM     15  O   UNL A   1      29.879  23.265  27.423  1.00  0.00    -0.249 OA
BRANCH  13  16
ATOM     16  N   UNL A   1      30.904  24.340  25.708  1.00  0.00    -0.324 N 
ATOM     17  C   UNL A   1      30.747  24.365  24.270  1.00  0.00     0.125 C 
ATOM     18  C   UNL A   1      30.956  25.711  26.191  1.00  0.00     0.137 C 
ATOM     19  C   UNL A   1      31.671  25.503  23.864  1.00  0.00     0.021 C 
ATOM     20  C   UNL A   1      31.502  26.526  25.013  1.00  0.00     0.123 C 
ATOM     21  C   UNL A   1      31.333  26.071  22.498  1.00  0.00     0.010 C 
BRANCH  20  22
ATOM     22  C   UNL A   1      32.810  27.244  25.274  1.00  0.00     0.310 C 
ATOM     23  O   UNL A   1      33.892  26.796  24.912  1.00  0.00    -0.252 OA
BRANCH  22  24
ATOM     24  O   UNL A   1      32.662  28.355  26.033  1.00  0.00    -0.469 OA
ATOM     25  C   UNL A   1      33.813  29.202  26.095  1.00  0.00     0.282 C 
ENDBRANCH  22  24
ENDBRANCH  20  22
ENDBRANCH  13  16
ENDBRANCH  11  12
ENDBRANCH   7  11
ENDBRANCH   5   7
ENDBRANCH   4   5
ENDBRANCH   3   4
ENDBRANCH   2   3
ENDBRANCH   1   2
BRANCH   1  26
ATOM     26  C   UNL A   1      39.796  21.715  26.435  1.00  0.00     0.188 C 
BRANCH  26  27
ATOM     27  C   UNL A   1      41.273  21.995  26.716  1.00  0.00     0.188 C 
BRANCH  27  28
ATOM     28  O   UNL A   1      42.093  21.023  27.347  1.00  0.00    -0.376 OA
BRANCH  28  29
ATOM     29  C   UNL A   1      41.861  19.652  27.051  1.00  0.00     0.202 C 
BRANCH  29  30
ATOM     30  C   UNL A   1      42.780  18.923  26.053  1.00  0.00     0.261 C 
BRANCH  30  31
ATOM     31  O   UNL A   1      43.049  19.616  24.820  1.00  0.00    -0.460 OA
BRANCH  31  32
ATOM     32  C   UNL A   1      44.364  19.733  24.497  1.00  0.00     0.338 C 
ATOM     33  O   UNL A   1      45.053  18.924  23.904  1.00  0.00    -0.246 OA
BRANCH  32  34
ATOM     34  C   UNL A   1      44.821  21.119  24.766  1.00  0.00     0.060 A 
ATOM     35  C   UNL A   1      45.377  21.400  26.027  1.00  0.00     0.016 A 
ATOM     36  C   UNL A   1      44.671  22.135  23.824  1.00  0.00     0.016 A 
ATOM     37  C   UNL A   1      45.765  22.697  26.357  1.00  0.00     0.010 A 
ATOM     38  C   UNL A   1      45.012  23.446  24.175  1.00  0.00     0.010 A 
ATOM     39  C   UNL A   1      45.525  23.736  25.455  1.00  0.00    -0.014 A 
BRANCH  39  40
ATOM     40  C   UNL A   1      45.564  25.133  25.949  1.00  0.00     0.031 A 
ATOM     41  C   UNL A   1      46.885  25.857  25.909  1.00  0.00     0.074 A 
ATOM     42  C   UNL A   1      44.461  25.768  26.383  1.00  0.00     0.049 A 
ATOM     43  N   UNL A   1      47.188  27.059  26.326  1.00  0.00    -0.248 NA
ATOM     44  C   UNL A   1      48.015  25.120  25.317  1.00  0.00     0.031 C 
ATOM     45  C   UNL A   1      43.112  25.208  26.409  1.00  0.00     0.029 A 
ATOM     46  N   UNL A   1      44.313  27.034  26.893  1.00  0.00    -0.354 N 
ATOM     47  C   UNL A   1      48.545  27.213  26.066  1.00  0.00     0.074 A 
ATOM     48  C   UNL A   1      49.010  25.980  25.473  1.00  0.00     0.031 C 
ATOM     49  C   UNL A   1      42.274  26.123  26.930  1.00  0.00     0.029 A 
ATOM     50  C   UNL A   1      43.033  27.315  27.303  1.00  0.00     0.049 A 
ATOM     51  H   UNL A   1      45.055  27.679  26.958  1.00  0.00     0.167 HD
ATOM     52  C   UNL A   1      49.335  28.287  26.300  1.00  0.00     0.031 A 
ATOM     53  C   UNL A   1      42.540  28.400  27.933  1.00  0.00     0.031 A 
ATOM     54  C   UNL A   1      48.879  29.511  26.898  1.00  0.00     0.049 A 
ATOM     55  C   UNL A   1      43.458  29.553  28.253  1.00  0.00     0.074 A 
ATOM     56  C   UNL A   1      49.602  30.661  27.164  1.00  0.00     0.029 A 
ATOM     57  N   UNL A   1      47.584  29.743  27.330  1.00  0.00    -0.354 N 
ATOM     58  N   UNL A   1      44.735  29.696  27.987  1.00  0.00    -0.248 NA
ATOM     59  C   UNL A   1      42.861  30.700  28.954  1.00  0.00     0.031 C 
ATOM     60  C   UNL A   1      48.758  31.566  27.814  1.00  0.00     0.029 A 
ATOM     61  C   UNL A   1      47.492  31.006  27.887  1.00  0.00     0.049 A 
ATOM     62  H   UNL A   1      46.839  29.104  27.252  1.00  0.00     0.167 HD
ATOM     63  C   UNL A   1      45.082  30.959  28.456  1.00  0.00     0.074 A 
ATOM     64  C   UNL A   1      43.878  31.546  29.007  1.00  0.00     0.031 C 
ATOM     65  C   UNL A   1      46.287  31.580  28.430  1.00  0.00     0.031 A 
BRANCH  52  66
ATOM     66  C   UNL A   1      50.792  28.162  25.952  1.00  0.00    -0.014 A 
ATOM     67  C   UNL A   1      51.281  28.530  24.689  1.00  0.00     0.009 A 
ATOM     68  C   UNL A   1      51.695  27.694  26.921  1.00  0.00     0.009 A 
ATOM     69  C   UNL A   1      52.640  28.405  24.394  1.00  0.00     0.001 A 
ATOM     70  C   UNL A   1      53.056  27.600  26.633  1.00  0.00     0.001 A 
ATOM     71  C   UNL A   1      53.528  27.946  25.368  1.00  0.00     0.000 A 
ENDBRANCH  52  66
BRANCH  53  72
ATOM     72  C   UNL A   1      41.111  28.446  28.340  1.00  0.00    -0.014 A 
ATOM     73  C   UNL A   1      40.686  27.875  29.550  1.00  0.00     0.009 A 
ATOM     74  C   UNL A   1      40.151  29.023  27.493  1.00  0.00     0.009 A 
ATOM     75  C   UNL A   1      39.330  27.854  29.887  1.00  0.00     0.001 A 
ATOM     76  C   UNL A   1      38.800  29.031  27.847  1.00  0.00     0.001 A 
ATOM     77  C   UNL A   1      38.389  28.435  29.037  1.00  0.00     0.000 A 
ENDBRANCH  53  72
BRANCH  65  78
ATOM     78  C   UNL A   1      46.356  32.985  28.964  1.00  0.00    -0.014 A 
ATOM     79  C   UNL A   1      46.675  33.248  30.305  1.00  0.00     0.009 A 
ATOM     80  C   UNL A   1      46.130  34.066  28.096  1.00  0.00     0.009 A 
ATOM     81  C   UNL A   1      46.724  34.563  30.775  1.00  0.00     0.001 A 
ATOM     82  C   UNL A   1      46.213  35.379  28.560  1.00  0.00     0.001 A 
ATOM     83  C   UNL A   1      46.497  35.626  29.902  1.00  0.00     0.000 A 
ENDBRANCH  65  78
ENDBRANCH  39  40
ENDBRANCH  32  34
ENDBRANCH  31  32
ENDBRANCH  30  31
ENDBRANCH  29  30
ENDBRANCH  28  29
ENDBRANCH  27  28
ENDBRANCH  26  27
ENDBRANCH   1  26
TORSDOF 24
ENDMDL
MODEL 3
REMARK VINA RESULT:      -9.0      3.734      7.097
REMARK SMILES CCC[C@@H](CNC(=O)N1C[C@@H](C)[C@H](C(=O)OC)C1)C(=O)OCCOCCOCCOC(=O)c1ccc(-c2c3nc(c(-c4ccccc4)c4ccc([nH]4)c(-c4ccccc4)c4nc(c(-c5ccccc5)c5ccc2[nH]5)C=C4)C=C3)cc1
REMARK SMILES IDX 24 1 23 2 22 3 21 4 19 5 20 6 4 7 3 8 2 9 1 10 5 11 6 12
REMARK SMILES IDX 7 13 8 15 9 16 10 17 18 18 11 19 13 20 12 21 14 22 15 23
REMARK SMILES IDX 16 24 17 25 25 26 26 27 27 28 28 29 29 30 30 31 31 32 32 33
REMARK SMILES IDX 33 34 34 35 80 36 35 37 79 38 36 39 37 40 38 41 73 42 39 43
REMARK SMILES IDX 78 44 72 45 74 46 40 47 77 48 71 49 70 50 41 52 63 53 48 54
REMARK SMILES IDX 62 55 49 56 52 57 61 58 75 59 50 60 51 61 60 63 76 64 53 65
REMARK SMILES IDX 42 66 43 67 47 68 44 69 46 70 45 71 64 72 65 73 69 74 66 75
REMARK SMILES IDX 68 76 67 77 54 78 55 79 59 80 56 81 58 82 57 83
REMARK H PARENT 6 14 74 51 52 62
REMARK Flexibility Score: inf
ROOT
ATOM      1  O   UNL A   1      34.539  29.116  26.282  1.00  0.00    -0.376 OA
ENDROOT
BRANCH   1   2
ATOM      2  C   UNL A   1      33.168  29.168  25.951  1.00  0.00     0.202 C 
BRANCH   2   3
ATOM      3  C   UNL A   1      32.378  27.962  25.400  1.00  0.00     0.261 C 
BRANCH   3   4
ATOM      4  O   UNL A   1      31.015  28.077  24.965  1.00  0.00    -0.463 OA
BRANCH   4   5
ATOM      5  C   UNL A   1      30.537  27.146  24.109  1.00  0.00     0.310 C 
ATOM      6  O   UNL A   1      29.874  27.395  23.109  1.00  0.00    -0.252 OA
BRANCH   5   7
ATOM      7  C   UNL A   1      30.875  25.713  24.497  1.00  0.00     0.118 C 
BRANCH   7   8
ATOM      8  C   UNL A   1      30.295  25.144  25.805  1.00  0.00     0.017 C 
BRANCH   8   9
ATOM      9  C   UNL A   1      31.088  23.958  26.390  1.00  0.00    -0.002 C 
ATOM     10  C   UNL A   1      30.277  22.679  26.572  1.00  0.00     0.004 C 
ENDBRANCH   8   9
ENDBRANCH   7   8
BRANCH   7  11
ATOM     11  C   UNL A   1      30.584  24.825  23.282  1.00  0.00     0.133 C 
BRANCH  11  12
ATOM     12  N   UNL A   1      31.532  25.001  22.187  1.00  0.00    -0.337 N 
ATOM     13  C   UNL A   1      32.820  24.568  22.114  1.00  0.00     0.317 C 
ATOM     14  H   UNL A   1      31.199  25.496  21.403  1.00  0.00     0.165 HD
ATOM     15  O   UNL A   1      33.642  25.283  21.543  1.00  0.00    -0.249 OA
BRANCH  13  16
ATOM     16  N   UNL A   1      33.170  23.410  22.732  1.00  0.00    -0.324 N 
ATOM     17  C   UNL A   1      32.409  22.183  22.831  1.00  0.00     0.125 C 
ATOM     18  C   UNL A   1      34.540  23.137  23.136  1.00  0.00     0.137 C 
ATOM     19  C   UNL A   1      32.940  21.577  24.122  1.00  0.00     0.021 C 
ATOM     20  C   UNL A   1      34.442  21.948  24.098  1.00  0.00     0.123 C 
ATOM     21  C   UNL A   1      32.691  20.083  24.211  1.00  0.00     0.010 C 
BRANCH  20  22
ATOM     22  C   UNL A   1      34.941  22.211  25.505  1.00  0.00     0.310 C 
ATOM     23  O   UNL A   1      34.182  22.388  26.451  1.00  0.00    -0.252 OA
BRANCH  22  24
ATOM     24  O   UNL A   1      36.286  22.336  25.575  1.00  0.00    -0.469 OA
ATOM     25  C   UNL A   1      36.755  23.632  25.954  1.00  0.00     0.282 C 
ENDBRANCH  22  24
ENDBRANCH  20  22
ENDBRANCH  13  16
ENDBRANCH  11  12
ENDBRANCH   7  11
ENDBRANCH   5   7
ENDBRANCH   4   5
ENDBRANCH   3   4
ENDBRANCH   2   3
ENDBRANCH   1   2
BRANCH   1  26
ATOM     26  C   UNL A   1      34.929  29.632  27.533  1.00  0.00     0.188 C 
BRANCH  26  27
ATOM     27  C   UNL A   1      34.753  31.149  27.626  1.00  0.00     0.188 C 
BRANCH  27  28
ATOM     28  O   UNL A   1      33.601  31.715  28.229  1.00  0.00    -0.376 OA
BRANCH  28  29
ATOM     29  C   UNL A   1      32.902  32.732  27.524  1.00  0.00     0.202 C 
BRANCH  29  30
ATOM     30  C   UNL A   1      33.017  34.196  27.989  1.00  0.00     0.261 C 
BRANCH  30  31
ATOM     31  O   UNL A   1      32.666  34.453  29.361  1.00  0.00    -0.460 OA
BRANCH  31  32
ATOM     32  C   UNL A   1      33.627  35.071  30.098  1.00  0.00     0.338 C 
ATOM     33  O   UNL A   1      33.523  36.113  30.719  1.00  0.00    -0.246 OA
BRANCH  32  34
ATOM     34  C   UNL A   1      34.798  34.173  30.245  1.00  0.00     0.060 A 
ATOM     35  C   UNL A   1      34.722  33.133  31.190  1.00  0.00     0.016 A 
ATOM     36  C   UNL A   1      35.965  34.366  29.508  1.00  0.00     0.016 A 
ATOM     37  C   UNL A   1      35.814  32.298  31.414  1.00  0.00     0.010 A 
ATOM     38  C   UNL A   1      37.079  33.560  29.771  1.00  0.00     0.010 A 
ATOM     39  C   UNL A   1      37.017  32.549  30.751  1.00  0.00    -0.014 A 
BRANCH  39  40
ATOM     40  C   UNL A   1      38.261  31.933  31.272  1.00  0.00     0.031 A 
ATOM     41  C   UNL A   1      38.850  30.779  30.503  1.00  0.00     0.074 A 
ATOM     42  C   UNL A   1      38.884  32.400  32.369  1.00  0.00     0.049 A 
ATOM     43  N   UNL A   1      39.897  30.044  30.777  1.00  0.00    -0.248 NA
ATOM     44  C   UNL A   1      38.161  30.407  29.256  1.00  0.00     0.031 C 
ATOM     45  C   UNL A   1      38.460  33.550  33.164  1.00  0.00     0.029 A 
ATOM     46  N   UNL A   1      40.014  31.946  33.004  1.00  0.00    -0.354 N 
ATOM     47  C   UNL A   1      39.979  29.113  29.749  1.00  0.00     0.074 A 
ATOM     48  C   UNL A   1      38.869  29.361  28.857  1.00  0.00     0.031 C 
ATOM     49  C   UNL A   1      39.311  33.700  34.196  1.00  0.00     0.029 A 
ATOM     50  C   UNL A   1      40.315  32.639  34.151  1.00  0.00     0.049 A 
ATOM     51  H   UNL A   1      40.557  31.197  32.667  1.00  0.00     0.167 HD
ATOM     52  C   UNL A   1      40.896  28.135  29.563  1.00  0.00     0.031 A 
ATOM     53  C   UNL A   1      41.275  32.420  35.071  1.00  0.00     0.031 A 
ATOM     54  C   UNL A   1      41.995  27.878  30.453  1.00  0.00     0.049 A 
ATOM     55  C   UNL A   1      42.239  31.276  34.882  1.00  0.00     0.074 A 
ATOM     56  C   UNL A   1      42.986  26.917  30.343  1.00  0.00     0.029 A 
ATOM     57  N   UNL A   1      42.244  28.579  31.621  1.00  0.00    -0.354 N 
ATOM     58  N   UNL A   1      42.318  30.412  33.898  1.00  0.00    -0.248 NA
ATOM     59  C   UNL A   1      43.252  31.084  35.930  1.00  0.00     0.031 C 
ATOM     60  C   UNL A   1      43.799  26.997  31.477  1.00  0.00     0.029 A 
ATOM     61  C   UNL A   1      43.356  28.055  32.257  1.00  0.00     0.049 A 
ATOM     62  H   UNL A   1      41.710  29.338  31.950  1.00  0.00     0.167 HD
ATOM     63  C   UNL A   1      43.408  29.600  34.192  1.00  0.00     0.074 A 
ATOM     64  C   UNL A   1      43.968  30.085  35.436  1.00  0.00     0.031 C 
ATOM     65  C   UNL A   1      43.905  28.549  33.493  1.00  0.00     0.031 A 
BRANCH  52  66
ATOM     66  C   UNL A   1      40.717  27.235  28.372  1.00  0.00    -0.014 A 
ATOM     67  C   UNL A   1      41.333  27.513  27.142  1.00  0.00     0.009 A 
ATOM     68  C   UNL A   1      39.939  26.073  28.497  1.00  0.00     0.009 A 
ATOM     69  C   UNL A   1      41.150  26.658  26.053  1.00  0.00     0.001 A 
ATOM     70  C   UNL A   1      39.783  25.206  27.416  1.00  0.00     0.001 A 
ATOM     71  C   UNL A   1      40.381  25.502  26.192  1.00  0.00     0.000 A 
ENDBRANCH  52  66
BRANCH  53  72
ATOM     72  C   UNL A   1      41.362  33.280  36.282  1.00  0.00    -0.014 A 
ATOM     73  C   UNL A   1      42.189  34.414  36.305  1.00  0.00     0.009 A 
ATOM     74  C   UNL A   1      40.648  32.942  37.443  1.00  0.00     0.009 A 
ATOM     75  C   UNL A   1      42.323  35.170  37.472  1.00  0.00     0.001 A 
ATOM     76  C   UNL A   1      40.758  33.718  38.599  1.00  0.00     0.001 A 
ATOM     77  C   UNL A   1      41.605  34.824  38.616  1.00  0.00     0.000 A 
ENDBRANCH  53  72
BRANCH  65  78
ATOM     78  C   UNL A   1      45.144  27.884  34.028  1.00  0.00    -0.014 A 
ATOM     79  C   UNL A   1      45.074  26.781  34.892  1.00  0.00     0.009 A 
ATOM     80  C   UNL A   1      46.407  28.353  33.629  1.00  0.00     0.009 A 
ATOM     81  C   UNL A   1      46.243  26.189  35.379  1.00  0.00     0.001 A 
ATOM     82  C   UNL A   1      47.572  27.739  34.089  1.00  0.00     0.001 A 
ATOM     83  C   UNL A   1      47.489  26.665  34.974  1.00  0.00     0.000 A 
ENDBRANCH  65  78
ENDBRANCH  39  40
ENDBRANCH  32  34
ENDBRANCH  31  32
ENDBRANCH  30  31
ENDBRANCH  29  30
ENDBRANCH  28  29
ENDBRANCH  27  28
ENDBRANCH  26  27
ENDBRANCH   1  26
TORSDOF 24
ENDMDL
