MODEL 1
REMARK VINA RESULT:      -7.8      0.000      0.000
REMARK SMILES O=C(OCCOCCOCCOC(=O)c1ccc(S(=O)(=O)Cc2cccs2)c(F)c1)c1ccc(-c2c3nc(c(-c4ccccc4)c4ccc([nH]4)c(-c4ccccc4)c4nc(c(-c5ccccc5)c5ccc2[nH]5)C=C4)C=C3)cc1
REMARK SMILES IDX 8 1 7 2 6 3 5 4 4 5 3 6 2 7 1 8 31 9 32 10 78 11 33 12 77 13
REMARK SMILES IDX 34 14 35 15 36 16 71 17 37 18 76 19 70 20 72 21 38 22 75 23
REMARK SMILES IDX 69 24 68 25 39 27 61 28 46 29 60 30 47 31 50 32 59 33 73 34
REMARK SMILES IDX 48 35 49 36 58 38 74 39 51 40 40 41 41 42 45 43 42 44 44 45
REMARK SMILES IDX 43 46 62 47 63 48 67 49 64 50 66 51 65 52 52 53 53 54 57 55
REMARK SMILES IDX 54 56 56 57 55 58 9 59 10 60 11 61 12 62 13 63 14 64 15 65
REMARK SMILES IDX 16 66 30 67 17 68 28 69 18 70 29 71 19 72 20 73 21 74 22 75
REMARK SMILES IDX 23 76 24 77 27 78 25 79 26 80
REMARK H PARENT 72 26 50 37
REMARK Flexibility Score: inf
ROOT
ATOM      1  C   UNL A   1      34.176  33.632  32.306  1.00  0.00     0.188 C 
ENDROOT
BRANCH   1   2
ATOM      2  C   UNL A   1      34.731  32.360  31.656  1.00  0.00     0.188 C 
BRANCH   2   3
ATOM      3  O   UNL A   1      35.353  32.633  30.391  1.00  0.00    -0.376 OA
BRANCH   3   4
ATOM      4  C   UNL A   1      34.478  33.272  29.452  1.00  0.00     0.202 C 
BRANCH   4   5
ATOM      5  C   UNL A   1      34.564  32.730  28.016  1.00  0.00     0.261 C 
BRANCH   5   6
ATOM      6  O   UNL A   1      33.897  31.467  27.860  1.00  0.00    -0.460 OA
BRANCH   6   7
ATOM      7  C   UNL A   1      34.446  30.227  27.812  1.00  0.00     0.338 C 
ATOM      8  O   UNL A   1      33.732  29.282  27.482  1.00  0.00    -0.246 OA
BRANCH   7   9
ATOM      9  C   UNL A   1      35.882  29.937  28.125  1.00  0.00     0.060 A 
ATOM     10  C   UNL A   1      36.942  30.067  27.229  1.00  0.00     0.016 A 
ATOM     11  C   UNL A   1      36.189  29.548  29.443  1.00  0.00     0.016 A 
ATOM     12  C   UNL A   1      38.237  29.713  27.575  1.00  0.00     0.010 A 
ATOM     13  C   UNL A   1      37.504  29.250  29.821  1.00  0.00     0.010 A 
ATOM     14  C   UNL A   1      38.529  29.297  28.869  1.00  0.00    -0.014 A 
BRANCH  14  15
ATOM     15  C   UNL A   1      39.891  28.804  29.148  1.00  0.00     0.031 A 
ATOM     16  C   UNL A   1      40.830  29.688  29.907  1.00  0.00     0.074 A 
ATOM     17  C   UNL A   1      40.219  27.531  28.862  1.00  0.00     0.049 A 
ATOM     18  N   UNL A   1      42.067  29.468  30.259  1.00  0.00    -0.248 NA
ATOM     19  C   UNL A   1      40.293  30.982  30.365  1.00  0.00     0.031 C 
ATOM     20  C   UNL A   1      39.314  26.539  28.283  1.00  0.00     0.029 A 
ATOM     21  N   UNL A   1      41.390  26.844  29.035  1.00  0.00    -0.354 N 
ATOM     22  C   UNL A   1      42.456  30.590  30.976  1.00  0.00     0.074 A 
ATOM     23  C   UNL A   1      41.336  31.502  30.992  1.00  0.00     0.031 C 
ATOM     24  C   UNL A   1      39.969  25.382  28.114  1.00  0.00     0.029 A 
ATOM     25  C   UNL A   1      41.351  25.565  28.533  1.00  0.00     0.049 A 
ATOM     26  H   UNL A   1      42.183  27.228  29.475  1.00  0.00     0.167 HD
ATOM     27  C   UNL A   1      43.646  30.829  31.571  1.00  0.00     0.031 A 
ATOM     28  C   UNL A   1      42.333  24.658  28.394  1.00  0.00     0.031 A 
ATOM     29  C   UNL A   1      44.752  29.913  31.524  1.00  0.00     0.049 A 
ATOM     30  C   UNL A   1      43.695  25.018  28.911  1.00  0.00     0.074 A 
ATOM     31  C   UNL A   1      46.025  30.068  32.039  1.00  0.00     0.029 A 
ATOM     32  N   UNL A   1      44.709  28.666  30.915  1.00  0.00    -0.354 N 
ATOM     33  N   UNL A   1      44.072  26.101  29.549  1.00  0.00    -0.248 NA
ATOM     34  C   UNL A   1      44.761  24.032  28.703  1.00  0.00     0.031 C 
ATOM     35  C   UNL A   1      46.770  28.933  31.695  1.00  0.00     0.029 A 
ATOM     36  C   UNL A   1      45.942  28.050  31.016  1.00  0.00     0.049 A 
ATOM     37  H   UNL A   1      43.918  28.279  30.476  1.00  0.00     0.167 HD
ATOM     38  C   UNL A   1      45.412  25.916  29.847  1.00  0.00     0.074 A 
ATOM     39  C   UNL A   1      45.777  24.611  29.330  1.00  0.00     0.031 C 
ATOM     40  C   UNL A   1      46.266  26.746  30.494  1.00  0.00     0.031 A 
BRANCH  27  41
ATOM     41  C   UNL A   1      43.813  32.155  32.252  1.00  0.00    -0.014 A 
ATOM     42  C   UNL A   1      44.248  33.291  31.550  1.00  0.00     0.009 A 
ATOM     43  C   UNL A   1      43.553  32.262  33.626  1.00  0.00     0.009 A 
ATOM     44  C   UNL A   1      44.448  34.500  32.220  1.00  0.00     0.001 A 
ATOM     45  C   UNL A   1      43.733  33.477  34.288  1.00  0.00     0.001 A 
ATOM     46  C   UNL A   1      44.189  34.592  33.588  1.00  0.00     0.000 A 
ENDBRANCH  27  41
BRANCH  28  47
ATOM     47  C   UNL A   1      42.080  23.371  27.695  1.00  0.00    -0.014 A 
ATOM     48  C   UNL A   1      41.584  22.253  28.381  1.00  0.00     0.009 A 
ATOM     49  C   UNL A   1      42.360  23.251  26.323  1.00  0.00     0.009 A 
ATOM     50  C   UNL A   1      41.402  21.036  27.715  1.00  0.00     0.001 A 
ATOM     51  C   UNL A   1      42.150  22.044  25.653  1.00  0.00     0.001 A 
ATOM     52  C   UNL A   1      41.683  20.933  26.352  1.00  0.00     0.000 A 
ENDBRANCH  28  47
BRANCH  40  53
ATOM     53  C   UNL A   1      47.658  26.239  30.714  1.00  0.00    -0.014 A 
ATOM     54  C   UNL A   1      48.037  25.664  31.935  1.00  0.00     0.009 A 
ATOM     55  C   UNL A   1      48.590  26.308  29.667  1.00  0.00     0.009 A 
ATOM     56  C   UNL A   1      49.339  25.193  32.114  1.00  0.00     0.001 A 
ATOM     57  C   UNL A   1      49.880  25.811  29.839  1.00  0.00     0.001 A 
ATOM     58  C   UNL A   1      50.256  25.262  31.064  1.00  0.00     0.000 A 
ENDBRANCH  40  53
ENDBRANCH  14  15
ENDBRANCH   7   9
ENDBRANCH   6   7
ENDBRANCH   5   6
ENDBRANCH   4   5
ENDBRANCH   3   4
ENDBRANCH   2   3
ENDBRANCH   1   2
BRANCH   1  59
ATOM     59  O   UNL A   1      34.975  34.198  33.344  1.00  0.00    -0.376 OA
BRANCH  59  60
ATOM     60  C   UNL A   1      36.132  34.925  32.944  1.00  0.00     0.202 C 
BRANCH  60  61
ATOM     61  C   UNL A   1      37.490  34.391  33.418  1.00  0.00     0.261 C 
BRANCH  61  62
ATOM     62  O   UNL A   1      37.799  33.043  33.012  1.00  0.00    -0.460 OA
BRANCH  62  63
ATOM     63  C   UNL A   1      37.777  32.140  34.020  1.00  0.00     0.338 C 
ATOM     64  O   UNL A   1      37.018  32.139  34.985  1.00  0.00    -0.246 OA
BRANCH  63  65
ATOM     65  C   UNL A   1      38.870  31.149  33.925  1.00  0.00     0.063 A 
ATOM     66  C   UNL A   1      40.055  31.458  34.605  1.00  0.00     0.017 A 
ATOM     67  C   UNL A   1      38.739  29.912  33.286  1.00  0.00     0.056 A 
ATOM     68  C   UNL A   1      41.088  30.526  34.685  1.00  0.00     0.024 A 
ATOM     69  C   UNL A   1      39.785  28.983  33.367  1.00  0.00     0.142 A 
ATOM     70  C   UNL A   1      40.942  29.271  34.083  1.00  0.00     0.103 A 
ATOM     71  F   UNL A   1      39.652  27.827  32.705  1.00  0.00    -0.206 F 
BRANCH  70  72
ATOM     72  S   UNL A   1      42.281  28.128  34.239  1.00  0.00     0.186 S 
ATOM     73  O   UNL A   1      42.360  27.446  32.959  1.00  0.00    -0.223 OA
ATOM     74  O   UNL A   1      43.428  28.906  34.687  1.00  0.00    -0.223 OA
BRANCH  72  75
ATOM     75  C   UNL A   1      41.933  26.897  35.470  1.00  0.00     0.188 C 
BRANCH  75  76
ATOM     76  C   UNL A   1      42.665  25.614  35.233  1.00  0.00     0.020 A 
ATOM     77  C   UNL A   1      42.141  24.337  35.132  1.00  0.00     0.016 A 
ATOM     78  S   UNL A   1      44.378  25.584  35.179  1.00  0.00    -0.148 S 
ATOM     79  C   UNL A   1      43.150  23.341  34.999  1.00  0.00     0.012 A 
ATOM     80  C   UNL A   1      44.414  23.887  35.001  1.00  0.00     0.065 A 
ENDBRANCH  75  76
ENDBRANCH  72  75
ENDBRANCH  70  72
ENDBRANCH  63  65
ENDBRANCH  62  63
ENDBRANCH  61  62
ENDBRANCH  60  61
ENDBRANCH  59  60
ENDBRANCH   1  59
TORSDOF 20
ENDMDL
MODEL 2
REMARK VINA RESULT:      -7.4      5.653     11.562
REMARK SMILES O=C(OCCOCCOCCOC(=O)c1ccc(S(=O)(=O)Cc2cccs2)c(F)c1)c1ccc(-c2c3nc(c(-c4ccccc4)c4ccc([nH]4)c(-c4ccccc4)c4nc(c(-c5ccccc5)c5ccc2[nH]5)C=C4)C=C3)cc1
REMARK SMILES IDX 8 1 7 2 6 3 5 4 4 5 3 6 2 7 1 8 31 9 32 10 78 11 33 12 77 13
REMARK SMILES IDX 34 14 35 15 36 16 71 17 37 18 76 19 70 20 72 21 38 22 75 23
REMARK SMILES IDX 69 24 68 25 39 27 61 28 46 29 60 30 47 31 50 32 59 33 73 34
REMARK SMILES IDX 48 35 49 36 58 38 74 39 51 40 40 41 41 42 45 43 42 44 44 45
REMARK SMILES IDX 43 46 62 47 63 48 67 49 64 50 66 51 65 52 52 53 53 54 57 55
REMARK SMILES IDX 54 56 56 57 55 58 9 59 10 60 11 61 12 62 13 63 14 64 15 65
REMARK SMILES IDX 16 66 30 67 17 68 28 69 18 70 29 71 19 72 20 73 21 74 22 75
REMARK SMILES IDX 23 76 24 77 27 78 25 79 26 80
REMARK H PARENT 72 26 50 37
REMARK Flexibility Score: inf
ROOT
ATOM      1  C   UNL A   1      35.163  20.967  24.776  1.00  0.00     0.188 C 
ENDROOT
BRANCH   1   2
ATOM      2  C   UNL A   1      36.561  20.369  24.968  1.00  0.00     0.188 C 
BRANCH   2   3
ATOM      3  O   UNL A   1      37.594  21.341  24.748  1.00  0.00    -0.376 OA
BRANCH   3   4
ATOM      4  C   UNL A   1      38.800  21.064  25.473  1.00  0.00     0.202 C 
BRANCH   4   5
ATOM      5  C   UNL A   1      39.027  19.582  25.808  1.00  0.00     0.261 C 
BRANCH   5   6
ATOM      6  O   UNL A   1      40.317  19.110  25.387  1.00  0.00    -0.460 OA
BRANCH   6   7
ATOM      7  C   UNL A   1      41.512  19.260  26.013  1.00  0.00     0.338 C 
ATOM      8  O   UNL A   1      42.194  18.258  26.222  1.00  0.00    -0.246 OA
BRANCH   7   9
ATOM      9  C   UNL A   1      42.063  20.581  26.456  1.00  0.00     0.060 A 
ATOM     10  C   UNL A   1      42.137  21.018  27.778  1.00  0.00     0.016 A 
ATOM     11  C   UNL A   1      42.592  21.424  25.462  1.00  0.00     0.016 A 
ATOM     12  C   UNL A   1      42.598  22.284  28.103  1.00  0.00     0.010 A 
ATOM     13  C   UNL A   1      43.122  22.680  25.786  1.00  0.00     0.010 A 
ATOM     14  C   UNL A   1      43.089  23.127  27.112  1.00  0.00    -0.014 A 
BRANCH  14  15
ATOM     15  C   UNL A   1      43.441  24.509  27.490  1.00  0.00     0.031 A 
ATOM     16  C   UNL A   1      44.878  24.923  27.429  1.00  0.00     0.074 A 
ATOM     17  C   UNL A   1      42.471  25.410  27.731  1.00  0.00     0.049 A 
ATOM     18  N   UNL A   1      45.416  26.076  27.718  1.00  0.00    -0.248 NA
ATOM     19  C   UNL A   1      45.834  23.915  26.939  1.00  0.00     0.031 C 
ATOM     20  C   UNL A   1      41.036  25.145  27.642  1.00  0.00     0.029 A 
ATOM     21  N   UNL A   1      42.539  26.732  28.079  1.00  0.00    -0.354 N 
ATOM     22  C   UNL A   1      46.770  25.934  27.448  1.00  0.00     0.074 A 
ATOM     23  C   UNL A   1      46.979  24.578  26.994  1.00  0.00     0.031 C 
ATOM     24  C   UNL A   1      40.356  26.256  27.961  1.00  0.00     0.029 A 
ATOM     25  C   UNL A   1      41.308  27.296  28.319  1.00  0.00     0.049 A 
ATOM     26  H   UNL A   1      43.386  27.231  28.150  1.00  0.00     0.167 HD
ATOM     27  C   UNL A   1      47.746  26.860  27.566  1.00  0.00     0.031 A 
ATOM     28  C   UNL A   1      40.991  28.506  28.809  1.00  0.00     0.031 A 
ATOM     29  C   UNL A   1      47.516  28.196  28.040  1.00  0.00     0.049 A 
ATOM     30  C   UNL A   1      42.112  29.460  29.097  1.00  0.00     0.074 A 
ATOM     31  C   UNL A   1      48.433  29.207  28.257  1.00  0.00     0.029 A 
ATOM     32  N   UNL A   1      46.267  28.703  28.374  1.00  0.00    -0.354 N 
ATOM     33  N   UNL A   1      43.398  29.306  28.883  1.00  0.00    -0.248 NA
ATOM     34  C   UNL A   1      41.745  30.756  29.679  1.00  0.00     0.031 C 
ATOM     35  C   UNL A   1      47.744  30.310  28.774  1.00  0.00     0.029 A 
ATOM     36  C   UNL A   1      46.391  30.004  28.824  1.00  0.00     0.049 A 
ATOM     37  H   UNL A   1      45.419  28.208  28.302  1.00  0.00     0.167 HD
ATOM     38  C   UNL A   1      43.992  30.494  29.275  1.00  0.00     0.074 A 
ATOM     39  C   UNL A   1      42.923  31.364  29.727  1.00  0.00     0.031 C 
ATOM     40  C   UNL A   1      45.302  30.841  29.260  1.00  0.00     0.031 A 
BRANCH  27  41
ATOM     41  C   UNL A   1      49.144  26.421  27.244  1.00  0.00    -0.014 A 
ATOM     42  C   UNL A   1      49.987  25.873  28.224  1.00  0.00     0.009 A 
ATOM     43  C   UNL A   1      49.633  26.582  25.939  1.00  0.00     0.009 A 
ATOM     44  C   UNL A   1      51.302  25.524  27.909  1.00  0.00     0.001 A 
ATOM     45  C   UNL A   1      50.941  26.213  25.622  1.00  0.00     0.001 A 
ATOM     46  C   UNL A   1      51.777  25.692  26.608  1.00  0.00     0.000 A 
ENDBRANCH  27  41
BRANCH  28  47
ATOM     47  C   UNL A   1      39.577  28.853  29.111  1.00  0.00    -0.014 A 
ATOM     48  C   UNL A   1      39.012  28.585  30.366  1.00  0.00     0.009 A 
ATOM     49  C   UNL A   1      38.772  29.441  28.120  1.00  0.00     0.009 A 
ATOM     50  C   UNL A   1      37.665  28.871  30.612  1.00  0.00     0.001 A 
ATOM     51  C   UNL A   1      37.436  29.753  28.377  1.00  0.00     0.001 A 
ATOM     52  C   UNL A   1      36.879  29.457  29.619  1.00  0.00     0.000 A 
ENDBRANCH  28  47
BRANCH  40  53
ATOM     53  C   UNL A   1      45.634  32.233  29.701  1.00  0.00    -0.014 A 
ATOM     54  C   UNL A   1      45.519  33.321  28.824  1.00  0.00     0.009 A 
ATOM     55  C   UNL A   1      46.032  32.459  31.028  1.00  0.00     0.009 A 
ATOM     56  C   UNL A   1      45.829  34.609  29.261  1.00  0.00     0.001 A 
ATOM     57  C   UNL A   1      46.311  33.750  31.470  1.00  0.00     0.001 A 
ATOM     58  C   UNL A   1      46.218  34.822  30.584  1.00  0.00     0.000 A 
ENDBRANCH  40  53
ENDBRANCH  14  15
ENDBRANCH   7   9
ENDBRANCH   6   7
ENDBRANCH   5   6
ENDBRANCH   4   5
ENDBRANCH   3   4
ENDBRANCH   2   3
ENDBRANCH   1   2
BRANCH   1  59
ATOM     59  O   UNL A   1      34.134  20.042  24.427  1.00  0.00    -0.376 OA
BRANCH  59  60
ATOM     60  C   UNL A   1      32.791  20.499  24.535  1.00  0.00     0.202 C 
BRANCH  60  61
ATOM     61  C   UNL A   1      32.435  21.332  25.774  1.00  0.00     0.261 C 
BRANCH  61  62
ATOM     62  O   UNL A   1      31.179  22.035  25.704  1.00  0.00    -0.460 OA
BRANCH  62  63
ATOM     63  C   UNL A   1      31.170  23.222  26.355  1.00  0.00     0.338 C 
ATOM     64  O   UNL A   1      31.189  23.390  27.571  1.00  0.00    -0.246 OA
BRANCH  63  65
ATOM     65  C   UNL A   1      31.024  24.375  25.442  1.00  0.00     0.063 A 
ATOM     66  C   UNL A   1      30.783  25.619  26.040  1.00  0.00     0.017 A 
ATOM     67  C   UNL A   1      31.207  24.295  24.058  1.00  0.00     0.056 A 
ATOM     68  C   UNL A   1      30.766  26.782  25.271  1.00  0.00     0.024 A 
ATOM     69  C   UNL A   1      31.183  25.468  23.292  1.00  0.00     0.142 A 
ATOM     70  C   UNL A   1      30.992  26.708  23.891  1.00  0.00     0.103 A 
ATOM     71  F   UNL A   1      31.313  25.355  21.965  1.00  0.00    -0.206 F 
BRANCH  70  72
ATOM     72  S   UNL A   1      30.977  28.222  22.978  1.00  0.00     0.186 S 
ATOM     73  O   UNL A   1      32.364  28.478  22.632  1.00  0.00    -0.223 OA
ATOM     74  O   UNL A   1      30.012  28.037  21.904  1.00  0.00    -0.223 OA
BRANCH  72  75
ATOM     75  C   UNL A   1      30.429  29.575  23.989  1.00  0.00     0.188 C 
BRANCH  75  76
ATOM     76  C   UNL A   1      29.467  30.476  23.281  1.00  0.00     0.020 A 
ATOM     77  C   UNL A   1      28.440  31.226  23.827  1.00  0.00     0.016 A 
ATOM     78  S   UNL A   1      29.466  30.581  21.571  1.00  0.00    -0.148 S 
ATOM     79  C   UNL A   1      27.665  31.894  22.835  1.00  0.00     0.012 A 
ATOM     80  C   UNL A   1      28.123  31.634  21.564  1.00  0.00     0.065 A 
ENDBRANCH  75  76
ENDBRANCH  72  75
ENDBRANCH  70  72
ENDBRANCH  63  65
ENDBRANCH  62  63
ENDBRANCH  61  62
ENDBRANCH  60  61
ENDBRANCH  59  60
ENDBRANCH   1  59
TORSDOF 20
ENDMDL
MODEL 3
REMARK VINA RESULT:      -7.2      4.611      7.642
REMARK SMILES O=C(OCCOCCOCCOC(=O)c1ccc(S(=O)(=O)Cc2cccs2)c(F)c1)c1ccc(-c2c3nc(c(-c4ccccc4)c4ccc([nH]4)c(-c4ccccc4)c4nc(c(-c5ccccc5)c5ccc2[nH]5)C=C4)C=C3)cc1
REMARK SMILES IDX 8 1 7 2 6 3 5 4 4 5 3 6 2 7 1 8 31 9 32 10 78 11 33 12 77 13
REMARK SMILES IDX 34 14 35 15 36 16 71 17 37 18 76 19 70 20 72 21 38 22 75 23
REMARK SMILES IDX 69 24 68 25 39 27 61 28 46 29 60 30 47 31 50 32 59 33 73 34
REMARK SMILES IDX 48 35 49 36 58 38 74 39 51 40 40 41 41 42 45 43 42 44 44 45
REMARK SMILES IDX 43 46 62 47 63 48 67 49 64 50 66 51 65 52 52 53 53 54 57 55
REMARK SMILES IDX 54 56 56 57 55 58 9 59 10 60 11 61 12 62 13 63 14 64 15 65
REMARK SMILES IDX 16 66 30 67 17 68 28 69 18 70 29 71 19 72 20 73 21 74 22 75
REMARK SMILES IDX 23 76 24 77 27 78 25 79 26 80
REMARK H PARENT 72 26 50 37
REMARK Flexibility Score: inf
ROOT
ATOM      1  C   UNL A   1      34.533  34.751  30.257  1.00  0.00     0.188 C 
ENDROOT
BRANCH   1   2
ATOM      2  C   UNL A   1      33.372  35.121  31.185  1.00  0.00     0.188 C 
BRANCH   2   3
ATOM      3  O   UNL A   1      33.796  35.976  32.257  1.00  0.00    -0.376 OA
BRANCH   3   4
ATOM      4  C   UNL A   1      34.802  35.386  33.092  1.00  0.00     0.202 C 
BRANCH   4   5
ATOM      5  C   UNL A   1      34.440  34.005  33.663  1.00  0.00     0.261 C 
BRANCH   5   6
ATOM      6  O   UNL A   1      35.222  32.946  33.088  1.00  0.00    -0.460 OA
BRANCH   6   7
ATOM      7  C   UNL A   1      36.383  32.414  33.547  1.00  0.00     0.338 C 
ATOM      8  O   UNL A   1      36.620  32.475  34.753  1.00  0.00    -0.246 OA
BRANCH   7   9
ATOM      9  C   UNL A   1      37.395  31.738  32.674  1.00  0.00     0.060 A 
ATOM     10  C   UNL A   1      38.337  30.807  33.108  1.00  0.00     0.016 A 
ATOM     11  C   UNL A   1      37.358  32.033  31.298  1.00  0.00     0.016 A 
ATOM     12  C   UNL A   1      39.287  30.276  32.249  1.00  0.00     0.010 A 
ATOM     13  C   UNL A   1      38.272  31.452  30.410  1.00  0.00     0.010 A 
ATOM     14  C   UNL A   1      39.267  30.597  30.896  1.00  0.00    -0.014 A 
BRANCH  14  15
ATOM     15  C   UNL A   1      40.377  30.114  30.053  1.00  0.00     0.031 A 
ATOM     16  C   UNL A   1      41.585  30.985  29.893  1.00  0.00     0.074 A 
ATOM     17  C   UNL A   1      40.363  28.858  29.574  1.00  0.00     0.049 A 
ATOM     18  N   UNL A   1      42.670  30.769  29.202  1.00  0.00    -0.248 NA
ATOM     19  C   UNL A   1      41.588  32.252  30.644  1.00  0.00     0.031 C 
ATOM     20  C   UNL A   1      39.310  27.874  29.825  1.00  0.00     0.029 A 
ATOM     21  N   UNL A   1      41.263  28.182  28.795  1.00  0.00    -0.354 N 
ATOM     22  C   UNL A   1      43.482  31.870  29.431  1.00  0.00     0.074 A 
ATOM     23  C   UNL A   1      42.761  32.765  30.305  1.00  0.00     0.031 C 
ATOM     24  C   UNL A   1      39.603  26.733  29.185  1.00  0.00     0.029 A 
ATOM     25  C   UNL A   1      40.842  26.921  28.444  1.00  0.00     0.049 A 
ATOM     26  H   UNL A   1      42.127  28.562  28.513  1.00  0.00     0.167 HD
ATOM     27  C   UNL A   1      44.724  32.105  28.953  1.00  0.00     0.031 A 
ATOM     28  C   UNL A   1      41.380  26.034  27.590  1.00  0.00     0.031 A 
ATOM     29  C   UNL A   1      45.414  31.208  28.067  1.00  0.00     0.049 A 
ATOM     30  C   UNL A   1      42.681  26.395  26.935  1.00  0.00     0.074 A 
ATOM     31  C   UNL A   1      46.651  31.362  27.470  1.00  0.00     0.029 A 
ATOM     32  N   UNL A   1      44.911  29.983  27.648  1.00  0.00    -0.354 N 
ATOM     33  N   UNL A   1      43.426  27.460  27.120  1.00  0.00    -0.248 NA
ATOM     34  C   UNL A   1      43.223  25.433  25.969  1.00  0.00     0.031 C 
ATOM     35  C   UNL A   1      46.874  30.252  26.648  1.00  0.00     0.029 A 
ATOM     36  C   UNL A   1      45.801  29.381  26.777  1.00  0.00     0.049 A 
ATOM     37  H   UNL A   1      44.049  29.600  27.930  1.00  0.00     0.167 HD
ATOM     38  C   UNL A   1      44.541  27.284  26.316  1.00  0.00     0.074 A 
ATOM     39  C   UNL A   1      44.379  26.003  25.654  1.00  0.00     0.031 C 
ATOM     40  C   UNL A   1      45.607  28.103  26.143  1.00  0.00     0.031 A 
BRANCH  27  41
ATOM     41  C   UNL A   1      45.365  33.408  29.329  1.00  0.00    -0.014 A 
ATOM     42  C   UNL A   1      46.504  33.457  30.148  1.00  0.00     0.009 A 
ATOM     43  C   UNL A   1      44.801  34.610  28.874  1.00  0.00     0.009 A 
ATOM     44  C   UNL A   1      47.047  34.687  30.528  1.00  0.00     0.001 A 
ATOM     45  C   UNL A   1      45.359  35.836  29.238  1.00  0.00     0.001 A 
ATOM     46  C   UNL A   1      46.475  35.875  30.072  1.00  0.00     0.000 A 
ENDBRANCH  27  41
BRANCH  28  47
ATOM     47  C   UNL A   1      40.669  24.769  27.265  1.00  0.00    -0.014 A 
ATOM     48  C   UNL A   1      39.525  24.763  26.454  1.00  0.00     0.009 A 
ATOM     49  C   UNL A   1      41.128  23.551  27.794  1.00  0.00     0.009 A 
ATOM     50  C   UNL A   1      38.841  23.569  26.204  1.00  0.00     0.001 A 
ATOM     51  C   UNL A   1      40.461  22.356  27.518  1.00  0.00     0.001 A 
ATOM     52  C   UNL A   1      39.310  22.367  26.734  1.00  0.00     0.000 A 
ENDBRANCH  28  47
BRANCH  40  53
ATOM     53  C   UNL A   1      46.693  27.608  25.238  1.00  0.00    -0.014 A 
ATOM     54  C   UNL A   1      46.767  28.017  23.899  1.00  0.00     0.009 A 
ATOM     55  C   UNL A   1      47.676  26.747  25.749  1.00  0.00     0.009 A 
ATOM     56  C   UNL A   1      47.792  27.547  23.078  1.00  0.00     0.001 A 
ATOM     57  C   UNL A   1      48.716  26.302  24.935  1.00  0.00     0.001 A 
ATOM     58  C   UNL A   1      48.768  26.695  23.598  1.00  0.00     0.000 A 
ENDBRANCH  40  53
ENDBRANCH  14  15
ENDBRANCH   7   9
ENDBRANCH   6   7
ENDBRANCH   5   6
ENDBRANCH   4   5
ENDBRANCH   3   4
ENDBRANCH   2   3
ENDBRANCH   1   2
BRANCH   1  59
ATOM     59  O   UNL A   1      34.512  33.423  29.735  1.00  0.00    -0.376 OA
BRANCH  59  60
ATOM     60  C   UNL A   1      34.316  33.283  28.332  1.00  0.00     0.202 C 
BRANCH  60  61
ATOM     61  C   UNL A   1      32.955  32.748  27.868  1.00  0.00     0.261 C 
BRANCH  61  62
ATOM     62  O   UNL A   1      32.982  31.446  27.250  1.00  0.00    -0.460 OA
BRANCH  62  63
ATOM     63  C   UNL A   1      31.895  31.167  26.494  1.00  0.00     0.338 C 
ATOM     64  O   UNL A   1      31.021  31.957  26.149  1.00  0.00    -0.246 OA
BRANCH  63  65
ATOM     65  C   UNL A   1      31.772  29.728  26.175  1.00  0.00     0.063 A 
ATOM     66  C   UNL A   1      31.858  28.840  27.255  1.00  0.00     0.017 A 
ATOM     67  C   UNL A   1      31.486  29.240  24.896  1.00  0.00     0.056 A 
ATOM     68  C   UNL A   1      31.620  27.479  27.071  1.00  0.00     0.024 A 
ATOM     69  C   UNL A   1      31.252  27.870  24.720  1.00  0.00     0.142 A 
ATOM     70  C   UNL A   1      31.291  26.995  25.800  1.00  0.00     0.103 A 
ATOM     71  F   UNL A   1      31.029  27.425  23.478  1.00  0.00    -0.206 F 
BRANCH  70  72
ATOM     72  S   UNL A   1      30.980  25.262  25.641  1.00  0.00     0.186 S 
ATOM     73  O   UNL A   1      30.255  24.886  26.842  1.00  0.00    -0.223 OA
ATOM     74  O   UNL A   1      30.330  25.084  24.350  1.00  0.00    -0.223 OA
BRANCH  72  75
ATOM     75  C   UNL A   1      32.495  24.337  25.629  1.00  0.00     0.188 C 
BRANCH  75  76
ATOM     76  C   UNL A   1      32.604  23.413  24.457  1.00  0.00     0.020 A 
ATOM     77  C   UNL A   1      33.123  23.682  23.203  1.00  0.00     0.016 A 
ATOM     78  S   UNL A   1      31.930  21.839  24.522  1.00  0.00    -0.148 S 
ATOM     79  C   UNL A   1      32.974  22.587  22.305  1.00  0.00     0.012 A 
ATOM     80  C   UNL A   1      32.348  21.516  22.899  1.00  0.00     0.065 A 
ENDBRANCH  75  76
ENDBRANCH  72  75
ENDBRANCH  70  72
ENDBRANCH  63  65
ENDBRANCH  62  63
ENDBRANCH  61  62
ENDBRANCH  60  61
ENDBRANCH  59  60
ENDBRANCH   1  59
TORSDOF 20
ENDMDL
