MODEL 1
REMARK VINA RESULT:      -9.7      0.000      0.000
REMARK SMILES Cc1cscc1-c1ncc(C(=O)OCCOCCOCCOC(=O)c2ccc(-c3c4nc(c(-c5ccccc5)c5ccc([nH]5)c(-c5ccccc5)c5nc(c(-c6ccccc6)c6ccc3[nH]6)C=C5)C=C4)cc2)c(=O)[nH]1
REMARK SMILES IDX 18 1 17 2 16 3 15 4 14 5 13 6 11 7 12 8 10 9 7 10 8 11 75 12
REMARK SMILES IDX 9 13 73 14 74 16 6 17 1 18 2 19 3 20 4 21 5 22 19 23 20 24
REMARK SMILES IDX 21 25 22 26 23 27 24 28 25 29 26 30 72 31 27 32 71 33 28 34
REMARK SMILES IDX 29 35 30 36 65 37 31 38 70 39 64 40 66 41 32 42 69 43 63 44
REMARK SMILES IDX 62 45 33 47 55 48 40 49 54 50 41 51 44 52 53 53 67 54 42 55
REMARK SMILES IDX 43 56 52 58 68 59 45 60 34 61 35 62 39 63 36 64 38 65 37 66
REMARK SMILES IDX 56 67 57 68 61 69 58 70 60 71 59 72 46 73 47 74 51 75 48 76
REMARK SMILES IDX 50 77 49 78
REMARK H PARENT 75 15 66 46 44 57
REMARK Flexibility Score: inf
ROOT
ATOM      1  C   UNL A   1      36.718  22.624  23.525  1.00  0.00     0.188 C 
ENDROOT
BRANCH   1   2
ATOM      2  C   UNL A   1      35.312  23.143  23.157  1.00  0.00     0.188 C 
BRANCH   2   3
ATOM      3  O   UNL A   1      34.827  24.355  23.698  1.00  0.00    -0.376 OA
BRANCH   3   4
ATOM      4  C   UNL A   1      33.484  24.462  24.139  1.00  0.00     0.202 C 
BRANCH   4   5
ATOM      5  C   UNL A   1      33.084  25.220  25.415  1.00  0.00     0.261 C 
BRANCH   5   6
ATOM      6  O   UNL A   1      33.194  24.481  26.637  1.00  0.00    -0.459 OA
BRANCH   6   7
ATOM      7  C   UNL A   1      32.251  23.528  26.835  1.00  0.00     0.345 C 
ATOM      8  O   UNL A   1      31.137  23.711  27.308  1.00  0.00    -0.246 OA
BRANCH   7   9
ATOM      9  C   UNL A   1      32.648  22.251  26.228  1.00  0.00     0.143 A 
ATOM     10  C   UNL A   1      33.041  19.771  25.168  1.00  0.00     0.141 A 
ATOM     11  N   UNL A   1      31.910  20.351  24.928  1.00  0.00    -0.237 NA
ATOM     12  N   UNL A   1      34.080  20.377  25.820  1.00  0.00    -0.306 N 
ATOM     13  C   UNL A   1      31.736  21.592  25.495  1.00  0.00     0.135 A 
ATOM     14  C   UNL A   1      33.975  21.629  26.361  1.00  0.00     0.265 A 
ATOM     15  H   UNL A   1      34.934  19.894  25.902  1.00  0.00     0.171 HD
ATOM     16  O   UNL A   1      34.913  22.154  26.950  1.00  0.00    -0.269 OA
BRANCH  10  17
ATOM     17  C   UNL A   1      33.213  18.369  24.830  1.00  0.00     0.031 A 
ATOM     18  C   UNL A   1      32.564  18.379  22.298  1.00  0.00     0.046 C 
ATOM     19  C   UNL A   1      32.971  17.707  23.568  1.00  0.00    -0.029 A 
ATOM     20  C   UNL A   1      33.171  16.340  23.678  1.00  0.00     0.069 A 
ATOM     21  S   UNL A   1      33.643  15.854  25.242  1.00  0.00    -0.151 S 
ATOM     22  C   UNL A   1      33.585  17.460  25.806  1.00  0.00     0.077 A 
ENDBRANCH  10  17
ENDBRANCH   7   9
ENDBRANCH   6   7
ENDBRANCH   5   6
ENDBRANCH   4   5
ENDBRANCH   3   4
ENDBRANCH   2   3
ENDBRANCH   1   2
BRANCH   1  23
ATOM     23  O   UNL A   1      36.829  21.459  24.302  1.00  0.00    -0.376 OA
BRANCH  23  24
ATOM     24  C   UNL A   1      37.943  21.255  25.153  1.00  0.00     0.202 C 
BRANCH  24  25
ATOM     25  C   UNL A   1      38.766  19.957  25.270  1.00  0.00     0.261 C 
BRANCH  25  26
ATOM     26  O   UNL A   1      39.598  19.784  26.419  1.00  0.00    -0.460 OA
BRANCH  26  27
ATOM     27  C   UNL A   1      40.928  19.677  26.177  1.00  0.00     0.338 C 
ATOM     28  O   UNL A   1      41.510  18.778  25.591  1.00  0.00    -0.246 OA
BRANCH  27  29
ATOM     29  C   UNL A   1      41.575  20.932  26.595  1.00  0.00     0.060 A 
ATOM     30  C   UNL A   1      41.879  21.129  27.950  1.00  0.00     0.016 A 
ATOM     31  C   UNL A   1      41.886  21.905  25.646  1.00  0.00     0.016 A 
ATOM     32  C   UNL A   1      42.519  22.300  28.358  1.00  0.00     0.010 A 
ATOM     33  C   UNL A   1      42.498  23.088  26.061  1.00  0.00     0.010 A 
ATOM     34  C   UNL A   1      42.811  23.296  27.418  1.00  0.00    -0.014 A 
BRANCH  34  35
ATOM     35  C   UNL A   1      43.330  24.614  27.846  1.00  0.00     0.031 A 
ATOM     36  C   UNL A   1      42.354  25.675  28.265  1.00  0.00     0.074 A 
ATOM     37  C   UNL A   1      44.648  24.879  27.827  1.00  0.00     0.049 A 
ATOM     38  N   UNL A   1      42.566  26.933  28.550  1.00  0.00    -0.248 NA
ATOM     39  C   UNL A   1      40.948  25.257  28.371  1.00  0.00     0.031 C 
ATOM     40  C   UNL A   1      45.702  23.919  27.505  1.00  0.00     0.029 A 
ATOM     41  N   UNL A   1      45.319  26.051  28.072  1.00  0.00    -0.354 N 
ATOM     42  C   UNL A   1      41.320  27.462  28.858  1.00  0.00     0.074 A 
ATOM     43  C   UNL A   1      40.355  26.395  28.698  1.00  0.00     0.031 C 
ATOM     44  C   UNL A   1      46.890  24.546  27.560  1.00  0.00     0.029 A 
ATOM     45  C   UNL A   1      46.674  25.958  27.870  1.00  0.00     0.049 A 
ATOM     46  H   UNL A   1      44.872  26.878  28.363  1.00  0.00     0.167 HD
ATOM     47  C   UNL A   1      41.007  28.723  29.240  1.00  0.00     0.031 A 
ATOM     48  C   UNL A   1      47.625  26.913  27.901  1.00  0.00     0.031 A 
ATOM     49  C   UNL A   1      41.963  29.791  29.361  1.00  0.00     0.049 A 
ATOM     50  C   UNL A   1      47.234  28.338  28.191  1.00  0.00     0.074 A 
ATOM     51  C   UNL A   1      41.746  31.104  29.741  1.00  0.00     0.029 A 
ATOM     52  N   UNL A   1      43.316  29.673  29.084  1.00  0.00    -0.354 N 
ATOM     53  N   UNL A   1      46.057  28.829  28.500  1.00  0.00    -0.248 NA
ATOM     54  C   UNL A   1      48.305  29.345  28.129  1.00  0.00     0.031 C 
ATOM     55  C   UNL A   1      42.956  31.796  29.627  1.00  0.00     0.029 A 
ATOM     56  C   UNL A   1      43.941  30.898  29.244  1.00  0.00     0.049 A 
ATOM     57  H   UNL A   1      43.767  28.840  28.814  1.00  0.00     0.167 HD
ATOM     58  C   UNL A   1      46.252  30.191  28.696  1.00  0.00     0.074 A 
ATOM     59  C   UNL A   1      47.661  30.448  28.485  1.00  0.00     0.031 C 
ATOM     60  C   UNL A   1      45.345  31.143  29.027  1.00  0.00     0.031 A 
BRANCH  47  61
ATOM     61  C   UNL A   1      39.555  29.019  29.501  1.00  0.00    -0.014 A 
ATOM     62  C   UNL A   1      38.974  28.780  30.756  1.00  0.00     0.009 A 
ATOM     63  C   UNL A   1      38.758  29.547  28.474  1.00  0.00     0.009 A 
ATOM     64  C   UNL A   1      37.613  29.018  30.963  1.00  0.00     0.001 A 
ATOM     65  C   UNL A   1      37.406  29.818  28.693  1.00  0.00     0.001 A 
ATOM     66  C   UNL A   1      36.832  29.540  29.932  1.00  0.00     0.000 A 
ENDBRANCH  47  61
BRANCH  48  67
ATOM     67  C   UNL A   1      49.044  26.562  27.623  1.00  0.00    -0.014 A 
ATOM     68  C   UNL A   1      49.908  26.222  28.674  1.00  0.00     0.009 A 
ATOM     69  C   UNL A   1      49.546  26.583  26.312  1.00  0.00     0.009 A 
ATOM     70  C   UNL A   1      51.250  25.928  28.421  1.00  0.00     0.001 A 
ATOM     71  C   UNL A   1      50.881  26.258  26.058  1.00  0.00     0.001 A 
ATOM     72  C   UNL A   1      51.734  25.940  27.113  1.00  0.00     0.000 A 
ENDBRANCH  48  67
BRANCH  60  73
ATOM     73  C   UNL A   1      45.845  32.550  29.211  1.00  0.00    -0.014 A 
ATOM     74  C   UNL A   1      45.840  33.471  28.152  1.00  0.00     0.009 A 
ATOM     75  C   UNL A   1      46.264  32.978  30.481  1.00  0.00     0.009 A 
ATOM     76  C   UNL A   1      46.266  34.786  28.357  1.00  0.00     0.001 A 
ATOM     77  C   UNL A   1      46.659  34.300  30.690  1.00  0.00     0.001 A 
ATOM     78  C   UNL A   1      46.667  35.201  29.627  1.00  0.00     0.000 A 
ENDBRANCH  60  73
ENDBRANCH  34  35
ENDBRANCH  27  29
ENDBRANCH  26  27
ENDBRANCH  25  26
ENDBRANCH  24  25
ENDBRANCH  23  24
ENDBRANCH   1  23
TORSDOF 18
ENDMDL
MODEL 2
REMARK VINA RESULT:      -9.5      1.457      6.212
REMARK SMILES Cc1cscc1-c1ncc(C(=O)OCCOCCOCCOC(=O)c2ccc(-c3c4nc(c(-c5ccccc5)c5ccc([nH]5)c(-c5ccccc5)c5nc(c(-c6ccccc6)c6ccc3[nH]6)C=C5)C=C4)cc2)c(=O)[nH]1
REMARK SMILES IDX 18 1 17 2 16 3 15 4 14 5 13 6 11 7 12 8 10 9 7 10 8 11 75 12
REMARK SMILES IDX 9 13 73 14 74 16 6 17 1 18 2 19 3 20 4 21 5 22 19 23 20 24
REMARK SMILES IDX 21 25 22 26 23 27 24 28 25 29 26 30 72 31 27 32 71 33 28 34
REMARK SMILES IDX 29 35 30 36 65 37 31 38 70 39 64 40 66 41 32 42 69 43 63 44
REMARK SMILES IDX 62 45 33 47 55 48 40 49 54 50 41 51 44 52 53 53 67 54 42 55
REMARK SMILES IDX 43 56 52 58 68 59 45 60 34 61 35 62 39 63 36 64 38 65 37 66
REMARK SMILES IDX 56 67 57 68 61 69 58 70 60 71 59 72 46 73 47 74 51 75 48 76
REMARK SMILES IDX 50 77 49 78
REMARK H PARENT 75 15 66 46 44 57
REMARK Flexibility Score: inf
ROOT
ATOM      1  C   UNL A   1      38.492  22.547  26.043  1.00  0.00     0.188 C 
ENDROOT
BRANCH   1   2
ATOM      2  C   UNL A   1      37.388  23.622  26.125  1.00  0.00     0.188 C 
BRANCH   2   3
ATOM      3  O   UNL A   1      36.389  23.707  25.129  1.00  0.00    -0.376 OA
BRANCH   3   4
ATOM      4  C   UNL A   1      35.207  24.456  25.354  1.00  0.00     0.202 C 
BRANCH   4   5
ATOM      5  C   UNL A   1      34.215  24.803  24.232  1.00  0.00     0.261 C 
BRANCH   5   6
ATOM      6  O   UNL A   1      33.742  23.696  23.456  1.00  0.00    -0.459 OA
BRANCH   6   7
ATOM      7  C   UNL A   1      32.494  23.257  23.755  1.00  0.00     0.345 C 
ATOM      8  O   UNL A   1      31.465  23.912  23.663  1.00  0.00    -0.246 OA
BRANCH   7   9
ATOM      9  C   UNL A   1      32.488  21.814  24.025  1.00  0.00     0.143 A 
ATOM     10  C   UNL A   1      32.765  19.200  24.746  1.00  0.00     0.141 A 
ATOM     11  N   UNL A   1      32.939  20.095  25.664  1.00  0.00    -0.237 NA
ATOM     12  N   UNL A   1      32.342  19.488  23.477  1.00  0.00    -0.306 N 
ATOM     13  C   UNL A   1      32.812  21.404  25.262  1.00  0.00     0.135 A 
ATOM     14  C   UNL A   1      32.155  20.772  23.041  1.00  0.00     0.265 A 
ATOM     15  H   UNL A   1      32.167  18.745  22.856  1.00  0.00     0.171 HD
ATOM     16  O   UNL A   1      31.785  21.013  21.898  1.00  0.00    -0.269 OA
BRANCH  10  17
ATOM     17  C   UNL A   1      33.127  17.819  25.013  1.00  0.00     0.031 A 
ATOM     18  C   UNL A   1      35.695  17.871  24.533  1.00  0.00     0.046 C 
ATOM     19  C   UNL A   1      34.419  17.183  24.889  1.00  0.00    -0.029 A 
ATOM     20  C   UNL A   1      34.331  15.825  25.152  1.00  0.00     0.069 A 
ATOM     21  S   UNL A   1      32.752  15.318  25.544  1.00  0.00    -0.151 S 
ATOM     22  C   UNL A   1      32.151  16.901  25.366  1.00  0.00     0.077 A 
ENDBRANCH  10  17
ENDBRANCH   7   9
ENDBRANCH   6   7
ENDBRANCH   5   6
ENDBRANCH   4   5
ENDBRANCH   3   4
ENDBRANCH   2   3
ENDBRANCH   1   2
BRANCH   1  23
ATOM     23  O   UNL A   1      38.438  21.596  25.011  1.00  0.00    -0.376 OA
BRANCH  23  24
ATOM     24  C   UNL A   1      38.274  20.218  25.300  1.00  0.00     0.202 C 
BRANCH  24  25
ATOM     25  C   UNL A   1      39.339  19.291  25.917  1.00  0.00     0.261 C 
BRANCH  25  26
ATOM     26  O   UNL A   1      40.668  19.346  25.396  1.00  0.00    -0.460 OA
BRANCH  26  27
ATOM     27  C   UNL A   1      41.662  19.433  26.315  1.00  0.00     0.338 C 
ATOM     28  O   UNL A   1      42.389  18.537  26.716  1.00  0.00    -0.246 OA
BRANCH  27  29
ATOM     29  C   UNL A   1      41.855  20.853  26.652  1.00  0.00     0.060 A 
ATOM     30  C   UNL A   1      42.137  21.769  25.629  1.00  0.00     0.016 A 
ATOM     31  C   UNL A   1      41.748  21.275  27.977  1.00  0.00     0.016 A 
ATOM     32  C   UNL A   1      42.294  23.123  25.927  1.00  0.00     0.010 A 
ATOM     33  C   UNL A   1      41.935  22.625  28.277  1.00  0.00     0.010 A 
ATOM     34  C   UNL A   1      42.216  23.554  27.257  1.00  0.00    -0.014 A 
BRANCH  34  35
ATOM     35  C   UNL A   1      42.547  24.950  27.623  1.00  0.00     0.031 A 
ATOM     36  C   UNL A   1      43.989  25.330  27.793  1.00  0.00     0.074 A 
ATOM     37  C   UNL A   1      41.580  25.858  27.838  1.00  0.00     0.049 A 
ATOM     38  N   UNL A   1      44.507  26.447  28.233  1.00  0.00    -0.248 NA
ATOM     39  C   UNL A   1      44.979  24.308  27.419  1.00  0.00     0.031 C 
ATOM     40  C   UNL A   1      40.148  25.635  27.644  1.00  0.00     0.029 A 
ATOM     41  N   UNL A   1      41.664  27.152  28.287  1.00  0.00    -0.354 N 
ATOM     42  C   UNL A   1      45.883  26.259  28.201  1.00  0.00     0.074 A 
ATOM     43  C   UNL A   1      46.116  24.912  27.724  1.00  0.00     0.031 C 
ATOM     44  C   UNL A   1      39.486  26.754  27.984  1.00  0.00     0.029 A 
ATOM     45  C   UNL A   1      40.441  27.750  28.467  1.00  0.00     0.049 A 
ATOM     46  H   UNL A   1      42.519  27.607  28.463  1.00  0.00     0.167 HD
ATOM     47  C   UNL A   1      46.864  27.130  28.538  1.00  0.00     0.031 A 
ATOM     48  C   UNL A   1      40.130  28.951  28.993  1.00  0.00     0.031 A 
ATOM     49  C   UNL A   1      46.628  28.454  29.049  1.00  0.00     0.049 A 
ATOM     50  C   UNL A   1      41.232  29.849  29.492  1.00  0.00     0.074 A 
ATOM     51  C   UNL A   1      47.554  29.414  29.419  1.00  0.00     0.029 A 
ATOM     52  N   UNL A   1      45.374  28.999  29.279  1.00  0.00    -0.354 N 
ATOM     53  N   UNL A   1      42.531  29.674  29.441  1.00  0.00    -0.248 NA
ATOM     54  C   UNL A   1      40.821  31.109  30.129  1.00  0.00     0.031 C 
ATOM     55  C   UNL A   1      46.860  30.511  29.938  1.00  0.00     0.029 A 
ATOM     56  C   UNL A   1      45.500  30.265  29.825  1.00  0.00     0.049 A 
ATOM     57  H   UNL A   1      44.519  28.551  29.082  1.00  0.00     0.167 HD
ATOM     58  C   UNL A   1      43.091  30.812  30.012  1.00  0.00     0.074 A 
ATOM     59  C   UNL A   1      41.992  31.676  30.389  1.00  0.00     0.031 C 
ATOM     60  C   UNL A   1      44.398  31.114  30.201  1.00  0.00     0.031 A 
BRANCH  47  61
ATOM     61  C   UNL A   1      48.283  26.645  28.412  1.00  0.00    -0.014 A 
ATOM     62  C   UNL A   1      49.015  26.828  27.229  1.00  0.00     0.009 A 
ATOM     63  C   UNL A   1      48.895  26.000  29.497  1.00  0.00     0.009 A 
ATOM     64  C   UNL A   1      50.315  26.329  27.118  1.00  0.00     0.001 A 
ATOM     65  C   UNL A   1      50.207  25.533  29.395  1.00  0.00     0.001 A 
ATOM     66  C   UNL A   1      50.910  25.685  28.202  1.00  0.00     0.000 A 
ENDBRANCH  47  61
BRANCH  48  67
ATOM     67  C   UNL A   1      38.707  29.371  29.103  1.00  0.00    -0.014 A 
ATOM     68  C   UNL A   1      38.072  30.010  28.027  1.00  0.00     0.009 A 
ATOM     69  C   UNL A   1      37.982  29.154  30.285  1.00  0.00     0.009 A 
ATOM     70  C   UNL A   1      36.748  30.439  28.139  1.00  0.00     0.001 A 
ATOM     71  C   UNL A   1      36.648  29.557  30.384  1.00  0.00     0.001 A 
ATOM     72  C   UNL A   1      36.034  30.206  29.315  1.00  0.00     0.000 A 
ENDBRANCH  48  67
BRANCH  60  73
ATOM     73  C   UNL A   1      44.723  32.447  30.819  1.00  0.00    -0.014 A 
ATOM     74  C   UNL A   1      44.760  33.620  30.049  1.00  0.00     0.009 A 
ATOM     75  C   UNL A   1      44.929  32.539  32.205  1.00  0.00     0.009 A 
ATOM     76  C   UNL A   1      45.018  34.853  30.651  1.00  0.00     0.001 A 
ATOM     77  C   UNL A   1      45.155  33.777  32.809  1.00  0.00     0.001 A 
ATOM     78  C   UNL A   1      45.207  34.932  32.032  1.00  0.00     0.000 A 
ENDBRANCH  60  73
ENDBRANCH  34  35
ENDBRANCH  27  29
ENDBRANCH  26  27
ENDBRANCH  25  26
ENDBRANCH  24  25
ENDBRANCH  23  24
ENDBRANCH   1  23
TORSDOF 18
ENDMDL
MODEL 3
REMARK VINA RESULT:      -9.5      3.099      4.818
REMARK SMILES Cc1cscc1-c1ncc(C(=O)OCCOCCOCCOC(=O)c2ccc(-c3c4nc(c(-c5ccccc5)c5ccc([nH]5)c(-c5ccccc5)c5nc(c(-c6ccccc6)c6ccc3[nH]6)C=C5)C=C4)cc2)c(=O)[nH]1
REMARK SMILES IDX 18 1 17 2 16 3 15 4 14 5 13 6 11 7 12 8 10 9 7 10 8 11 75 12
REMARK SMILES IDX 9 13 73 14 74 16 6 17 1 18 2 19 3 20 4 21 5 22 19 23 20 24
REMARK SMILES IDX 21 25 22 26 23 27 24 28 25 29 26 30 72 31 27 32 71 33 28 34
REMARK SMILES IDX 29 35 30 36 65 37 31 38 70 39 64 40 66 41 32 42 69 43 63 44
REMARK SMILES IDX 62 45 33 47 55 48 40 49 54 50 41 51 44 52 53 53 67 54 42 55
REMARK SMILES IDX 43 56 52 58 68 59 45 60 34 61 35 62 39 63 36 64 38 65 37 66
REMARK SMILES IDX 56 67 57 68 61 69 58 70 60 71 59 72 46 73 47 74 51 75 48 76
REMARK SMILES IDX 50 77 49 78
REMARK H PARENT 75 15 66 46 44 57
REMARK Flexibility Score: inf
ROOT
ATOM      1  C   UNL A   1      36.777  22.032  25.221  1.00  0.00     0.188 C 
ENDROOT
BRANCH   1   2
ATOM      2  C   UNL A   1      36.103  23.420  25.198  1.00  0.00     0.188 C 
BRANCH   2   3
ATOM      3  O   UNL A   1      35.132  23.734  24.222  1.00  0.00    -0.376 OA
BRANCH   3   4
ATOM      4  C   UNL A   1      34.206  24.786  24.437  1.00  0.00     0.202 C 
BRANCH   4   5
ATOM      5  C   UNL A   1      33.357  24.902  25.713  1.00  0.00     0.261 C 
BRANCH   5   6
ATOM      6  O   UNL A   1      32.005  24.442  25.603  1.00  0.00    -0.459 OA
BRANCH   6   7
ATOM      7  C   UNL A   1      31.632  23.492  26.495  1.00  0.00     0.345 C 
ATOM      8  O   UNL A   1      30.780  23.620  27.364  1.00  0.00    -0.246 OA
BRANCH   7   9
ATOM      9  C   UNL A   1      32.240  22.193  26.174  1.00  0.00     0.143 A 
ATOM     10  C   UNL A   1      33.027  19.675  25.491  1.00  0.00     0.141 A 
ATOM     11  N   UNL A   1      32.124  20.239  24.756  1.00  0.00    -0.237 NA
ATOM     12  N   UNL A   1      33.681  20.312  26.510  1.00  0.00    -0.306 N 
ATOM     13  C   UNL A   1      31.735  21.501  25.141  1.00  0.00     0.135 A 
ATOM     14  C   UNL A   1      33.365  21.585  26.902  1.00  0.00     0.265 A 
ATOM     15  H   UNL A   1      34.405  19.837  26.979  1.00  0.00     0.171 HD
ATOM     16  O   UNL A   1      33.954  22.137  27.822  1.00  0.00    -0.269 OA
BRANCH  10  17
ATOM     17  C   UNL A   1      33.312  18.262  25.318  1.00  0.00     0.031 A 
ATOM     18  C   UNL A   1      35.794  18.347  24.504  1.00  0.00     0.046 C 
ATOM     19  C   UNL A   1      34.525  17.637  24.842  1.00  0.00    -0.029 A 
ATOM     20  C   UNL A   1      34.368  16.264  24.736  1.00  0.00     0.069 A 
ATOM     21  S   UNL A   1      32.818  15.728  25.199  1.00  0.00    -0.151 S 
ATOM     22  C   UNL A   1      32.323  17.320  25.547  1.00  0.00     0.077 A 
ENDBRANCH  10  17
ENDBRANCH   7   9
ENDBRANCH   6   7
ENDBRANCH   5   6
ENDBRANCH   4   5
ENDBRANCH   3   4
ENDBRANCH   2   3
ENDBRANCH   1   2
BRANCH   1  23
ATOM     23  O   UNL A   1      38.082  21.919  25.728  1.00  0.00    -0.376 OA
BRANCH  23  24
ATOM     24  C   UNL A   1      38.718  23.021  26.351  1.00  0.00     0.202 C 
BRANCH  24  25
ATOM     25  C   UNL A   1      40.010  22.962  27.191  1.00  0.00     0.261 C 
BRANCH  25  26
ATOM     26  O   UNL A   1      40.982  23.993  27.009  1.00  0.00    -0.460 OA
BRANCH  26  27
ATOM     27  C   UNL A   1      42.087  23.647  26.304  1.00  0.00     0.338 C 
ATOM     28  O   UNL A   1      42.244  22.663  25.597  1.00  0.00    -0.246 OA
BRANCH  27  29
ATOM     29  C   UNL A   1      43.052  24.756  26.384  1.00  0.00     0.060 A 
ATOM     30  C   UNL A   1      43.515  25.350  25.201  1.00  0.00     0.016 A 
ATOM     31  C   UNL A   1      43.489  25.211  27.627  1.00  0.00     0.016 A 
ATOM     32  C   UNL A   1      44.406  26.422  25.260  1.00  0.00     0.010 A 
ATOM     33  C   UNL A   1      44.404  26.263  27.683  1.00  0.00     0.010 A 
ATOM     34  C   UNL A   1      44.873  26.869  26.501  1.00  0.00    -0.014 A 
BRANCH  34  35
ATOM     35  C   UNL A   1      45.946  27.885  26.588  1.00  0.00     0.031 A 
ATOM     36  C   UNL A   1      45.563  29.334  26.677  1.00  0.00     0.074 A 
ATOM     37  C   UNL A   1      47.241  27.530  26.549  1.00  0.00     0.049 A 
ATOM     38  N   UNL A   1      46.322  30.398  26.630  1.00  0.00    -0.248 NA
ATOM     39  C   UNL A   1      44.129  29.618  26.837  1.00  0.00     0.031 C 
ATOM     40  C   UNL A   1      47.745  26.158  26.528  1.00  0.00     0.029 A 
ATOM     41  N   UNL A   1      48.372  28.308  26.502  1.00  0.00    -0.354 N 
ATOM     42  C   UNL A   1      45.458  31.478  26.742  1.00  0.00     0.074 A 
ATOM     43  C   UNL A   1      44.117  30.942  26.832  1.00  0.00     0.031 C 
ATOM     44  C   UNL A   1      49.088  26.191  26.461  1.00  0.00     0.029 A 
ATOM     45  C   UNL A   1      49.531  27.582  26.382  1.00  0.00     0.049 A 
ATOM     46  H   UNL A   1      48.352  29.291  26.549  1.00  0.00     0.167 HD
ATOM     47  C   UNL A   1      45.755  32.800  26.769  1.00  0.00     0.031 A 
ATOM     48  C   UNL A   1      50.800  27.995  26.196  1.00  0.00     0.031 A 
ATOM     49  C   UNL A   1      47.086  33.332  26.640  1.00  0.00     0.049 A 
ATOM     50  C   UNL A   1      51.090  29.469  26.087  1.00  0.00     0.074 A 
ATOM     51  C   UNL A   1      47.491  34.655  26.655  1.00  0.00     0.029 A 
ATOM     52  N   UNL A   1      48.226  32.566  26.454  1.00  0.00    -0.354 N 
ATOM     53  N   UNL A   1      50.272  30.487  26.214  1.00  0.00    -0.248 NA
ATOM     54  C   UNL A   1      52.482  29.851  25.803  1.00  0.00     0.031 C 
ATOM     55  C   UNL A   1      48.867  34.691  26.408  1.00  0.00     0.029 A 
ATOM     56  C   UNL A   1      49.330  33.388  26.311  1.00  0.00     0.049 A 
ATOM     57  H   UNL A   1      48.248  31.582  26.429  1.00  0.00     0.167 HD
ATOM     58  C   UNL A   1      51.053  31.626  26.053  1.00  0.00     0.074 A 
ATOM     59  C   UNL A   1      52.411  31.175  25.834  1.00  0.00     0.031 C 
ATOM     60  C   UNL A   1      50.678  32.928  26.088  1.00  0.00     0.031 A 
BRANCH  47  61
ATOM     61  C   UNL A   1      44.601  33.758  26.889  1.00  0.00    -0.014 A 
ATOM     62  C   UNL A   1      44.127  34.179  28.142  1.00  0.00     0.009 A 
ATOM     63  C   UNL A   1      43.983  34.250  25.730  1.00  0.00     0.009 A 
ATOM     64  C   UNL A   1      43.025  35.032  28.231  1.00  0.00     0.001 A 
ATOM     65  C   UNL A   1      42.903  35.132  25.821  1.00  0.00     0.001 A 
ATOM     66  C   UNL A   1      42.417  35.510  27.071  1.00  0.00     0.000 A 
ENDBRANCH  47  61
BRANCH  48  67
ATOM     67  C   UNL A   1      51.899  27.000  26.072  1.00  0.00    -0.014 A 
ATOM     68  C   UNL A   1      52.704  26.692  27.179  1.00  0.00     0.009 A 
ATOM     69  C   UNL A   1      52.160  26.366  24.847  1.00  0.00     0.009 A 
ATOM     70  C   UNL A   1      53.759  25.785  27.057  1.00  0.00     0.001 A 
ATOM     71  C   UNL A   1      53.197  25.437  24.736  1.00  0.00     0.001 A 
ATOM     72  C   UNL A   1      54.001  25.153  25.838  1.00  0.00     0.000 A 
ENDBRANCH  48  67
BRANCH  60  73
ATOM     73  C   UNL A   1      51.751  33.968  25.915  1.00  0.00    -0.014 A 
ATOM     74  C   UNL A   1      52.057  34.500  24.653  1.00  0.00     0.009 A 
ATOM     75  C   UNL A   1      52.420  34.472  27.043  1.00  0.00     0.009 A 
ATOM     76  C   UNL A   1      53.025  35.498  24.521  1.00  0.00     0.001 A 
ATOM     77  C   UNL A   1      53.364  35.491  26.913  1.00  0.00     0.001 A 
ATOM     78  C   UNL A   1      53.672  35.999  25.652  1.00  0.00     0.000 A 
ENDBRANCH  60  73
ENDBRANCH  34  35
ENDBRANCH  27  29
ENDBRANCH  26  27
ENDBRANCH  25  26
ENDBRANCH  24  25
ENDBRANCH  23  24
ENDBRANCH   1  23
TORSDOF 18
ENDMDL
