MODEL 1
REMARK VINA RESULT:      -9.1      0.000      0.000
REMARK SMILES COc1ccc([C@H]2O[C@@H]2C(=O)OCCOCCOCCOC(=O)c2ccc(-c3c4nc(c(-c5ccccc5)c5ccc([nH]5)c(-c5ccccc5)c5nc(c(-c6ccccc6)c6ccc3[nH]6)C=C5)C=C4)cc2)cc1Oc1ccccc1
REMARK SMILES IDX 16 1 15 2 14 3 13 4 12 5 10 6 11 7 9 8 7 9 8 10 6 11 3 12
REMARK SMILES IDX 4 13 73 14 5 15 72 16 2 17 1 18 74 19 75 20 76 21 80 22
REMARK SMILES IDX 77 23 79 24 78 25 17 26 18 27 19 28 20 29 21 30 22 31 23 32
REMARK SMILES IDX 24 33 25 34 71 35 26 36 70 37 27 38 28 39 29 40 64 41 30 42
REMARK SMILES IDX 69 43 63 44 65 45 31 46 68 47 62 48 61 49 32 51 54 52 39 53
REMARK SMILES IDX 53 54 40 55 43 56 52 57 66 58 41 59 42 60 51 62 67 63 44 64
REMARK SMILES IDX 33 65 34 66 38 67 35 68 37 69 36 70 55 71 56 72 60 73 57 74
REMARK SMILES IDX 59 75 58 76 45 77 46 78 50 79 47 80 49 81 48 82
REMARK H PARENT 65 50 43 61
REMARK Flexibility Score: inf
ROOT
ATOM      1  C   UNL A   1      36.847  20.401  25.078  1.00  0.00     0.188 C 
ENDROOT
BRANCH   1   2
ATOM      2  O   UNL A   1      35.437  20.593  25.096  1.00  0.00    -0.376 OA
BRANCH   2   3
ATOM      3  C   UNL A   1      34.840  21.337  26.155  1.00  0.00     0.202 C 
BRANCH   3   4
ATOM      4  C   UNL A   1      33.972  22.566  25.832  1.00  0.00     0.261 C 
BRANCH   4   5
ATOM      5  O   UNL A   1      33.750  22.787  24.427  1.00  0.00    -0.461 OA
BRANCH   5   6
ATOM      6  C   UNL A   1      32.499  22.480  23.978  1.00  0.00     0.338 C 
ATOM      7  O   UNL A   1      31.907  21.442  24.201  1.00  0.00    -0.249 OA
BRANCH   6   8
ATOM      8  C   UNL A   1      31.844  23.629  23.276  1.00  0.00     0.262 C 
ATOM      9  C   UNL A   1      31.161  24.679  24.138  1.00  0.00     0.190 C 
ATOM     10  O   UNL A   1      30.427  23.639  23.442  1.00  0.00    -0.352 OA
BRANCH   9  11
ATOM     11  C   UNL A   1      30.715  26.079  23.770  1.00  0.00    -0.012 A 
ATOM     12  C   UNL A   1      29.625  28.678  23.395  1.00  0.00     0.161 A 
ATOM     13  C   UNL A   1      28.818  27.548  23.283  1.00  0.00     0.051 A 
ATOM     14  C   UNL A   1      30.983  28.542  23.721  1.00  0.00     0.169 A 
ATOM     15  C   UNL A   1      29.359  26.278  23.463  1.00  0.00     0.010 A 
ATOM     16  C   UNL A   1      31.516  27.236  23.877  1.00  0.00     0.057 A 
BRANCH  12  17
ATOM     17  O   UNL A   1      28.972  29.877  23.310  1.00  0.00    -0.493 OA
ATOM     18  C   UNL A   1      27.560  29.700  23.238  1.00  0.00     0.278 C 
ENDBRANCH  12  17
BRANCH  14  19
ATOM     19  O   UNL A   1      31.913  29.553  23.911  1.00  0.00    -0.453 OA
BRANCH  19  20
ATOM     20  C   UNL A   1      32.546  29.705  25.123  1.00  0.00     0.127 A 
ATOM     21  C   UNL A   1      33.692  28.940  25.359  1.00  0.00     0.047 A 
ATOM     22  C   UNL A   1      32.054  30.546  26.126  1.00  0.00     0.047 A 
ATOM     23  C   UNL A   1      34.403  29.093  26.552  1.00  0.00     0.004 A 
ATOM     24  C   UNL A   1      32.777  30.710  27.311  1.00  0.00     0.004 A 
ATOM     25  C   UNL A   1      33.956  29.993  27.519  1.00  0.00     0.000 A 
ENDBRANCH  19  20
ENDBRANCH  14  19
ENDBRANCH   9  11
ENDBRANCH   6   8
ENDBRANCH   5   6
ENDBRANCH   4   5
ENDBRANCH   3   4
ENDBRANCH   2   3
ENDBRANCH   1   2
BRANCH   1  26
ATOM     26  C   UNL A   1      37.784  21.572  25.448  1.00  0.00     0.188 C 
BRANCH  26  27
ATOM     27  O   UNL A   1      39.144  21.212  25.514  1.00  0.00    -0.376 OA
BRANCH  27  28
ATOM     28  C   UNL A   1      39.961  21.807  26.511  1.00  0.00     0.202 C 
BRANCH  28  29
ATOM     29  C   UNL A   1      41.497  21.655  26.540  1.00  0.00     0.261 C 
BRANCH  29  30
ATOM     30  O   UNL A   1      42.277  22.781  26.965  1.00  0.00    -0.460 OA
BRANCH  30  31
ATOM     31  C   UNL A   1      43.582  22.782  26.613  1.00  0.00     0.338 C 
ATOM     32  O   UNL A   1      44.231  21.845  26.184  1.00  0.00    -0.246 OA
BRANCH  31  33
ATOM     33  C   UNL A   1      44.072  24.175  26.647  1.00  0.00     0.060 A 
ATOM     34  C   UNL A   1      44.136  24.896  25.446  1.00  0.00     0.016 A 
ATOM     35  C   UNL A   1      44.510  24.748  27.843  1.00  0.00     0.016 A 
ATOM     36  C   UNL A   1      44.681  26.179  25.430  1.00  0.00     0.010 A 
ATOM     37  C   UNL A   1      45.077  26.027  27.822  1.00  0.00     0.010 A 
ATOM     38  C   UNL A   1      45.203  26.729  26.608  1.00  0.00    -0.014 A 
BRANCH  38  39
ATOM     39  C   UNL A   1      46.071  27.928  26.524  1.00  0.00     0.031 A 
ATOM     40  C   UNL A   1      47.547  27.725  26.307  1.00  0.00     0.074 A 
ATOM     41  C   UNL A   1      45.565  29.171  26.591  1.00  0.00     0.049 A 
ATOM     42  N   UNL A   1      48.505  28.612  26.210  1.00  0.00    -0.248 NA
ATOM     43  C   UNL A   1      48.005  26.331  26.190  1.00  0.00     0.031 C 
ATOM     44  C   UNL A   1      44.150  29.504  26.749  1.00  0.00     0.029 A 
ATOM     45  N   UNL A   1      46.195  30.388  26.532  1.00  0.00    -0.354 N 
ATOM     46  C   UNL A   1      49.674  27.884  26.025  1.00  0.00     0.074 A 
ATOM     47  C   UNL A   1      49.314  26.485  26.064  1.00  0.00     0.031 C 
ATOM     48  C   UNL A   1      44.021  30.842  26.778  1.00  0.00     0.029 A 
ATOM     49  C   UNL A   1      45.343  31.456  26.670  1.00  0.00     0.049 A 
ATOM     50  H   UNL A   1      47.166  30.486  26.403  1.00  0.00     0.167 HD
ATOM     51  C   UNL A   1      50.935  28.337  25.830  1.00  0.00     0.031 A 
ATOM     52  C   UNL A   1      45.606  32.776  26.719  1.00  0.00     0.031 A 
ATOM     53  C   UNL A   1      51.298  29.729  25.805  1.00  0.00     0.049 A 
ATOM     54  C   UNL A   1      47.028  33.254  26.577  1.00  0.00     0.074 A 
ATOM     55  C   UNL A   1      52.548  30.291  25.610  1.00  0.00     0.029 A 
ATOM     56  N   UNL A   1      50.411  30.778  25.985  1.00  0.00    -0.354 N 
ATOM     57  N   UNL A   1      48.123  32.559  26.384  1.00  0.00    -0.248 NA
ATOM     58  C   UNL A   1      47.245  34.707  26.642  1.00  0.00     0.031 C 
ATOM     59  C   UNL A   1      52.427  31.679  25.733  1.00  0.00     0.029 A 
ATOM     60  C   UNL A   1      51.089  31.984  25.930  1.00  0.00     0.049 A 
ATOM     61  H   UNL A   1      49.442  30.680  26.131  1.00  0.00     0.167 HD
ATOM     62  C   UNL A   1      49.149  33.489  26.263  1.00  0.00     0.074 A 
ATOM     63  C   UNL A   1      48.543  34.798  26.392  1.00  0.00     0.031 C 
ATOM     64  C   UNL A   1      50.473  33.281  26.057  1.00  0.00     0.031 A 
BRANCH  51  65
ATOM     65  C   UNL A   1      52.020  27.308  25.670  1.00  0.00    -0.014 A 
ATOM     66  C   UNL A   1      52.726  26.809  26.777  1.00  0.00     0.009 A 
ATOM     67  C   UNL A   1      52.329  26.818  24.392  1.00  0.00     0.009 A 
ATOM     68  C   UNL A   1      53.744  25.868  26.601  1.00  0.00     0.001 A 
ATOM     69  C   UNL A   1      53.324  25.855  24.223  1.00  0.00     0.001 A 
ATOM     70  C   UNL A   1      54.038  25.389  25.325  1.00  0.00     0.000 A 
ENDBRANCH  51  65
BRANCH  52  71
ATOM     71  C   UNL A   1      44.502  33.752  26.922  1.00  0.00    -0.014 A 
ATOM     72  C   UNL A   1      43.842  34.329  25.826  1.00  0.00     0.009 A 
ATOM     73  C   UNL A   1      44.126  34.140  28.218  1.00  0.00     0.009 A 
ATOM     74  C   UNL A   1      42.853  35.296  26.022  1.00  0.00     0.001 A 
ATOM     75  C   UNL A   1      43.114  35.083  28.412  1.00  0.00     0.001 A 
ATOM     76  C   UNL A   1      42.488  35.669  27.314  1.00  0.00     0.000 A 
ENDBRANCH  52  71
BRANCH  64  77
ATOM     77  C   UNL A   1      51.347  34.496  25.896  1.00  0.00    -0.014 A 
ATOM     78  C   UNL A   1      52.023  35.072  26.983  1.00  0.00     0.009 A 
ATOM     79  C   UNL A   1      51.513  35.061  24.620  1.00  0.00     0.009 A 
ATOM     80  C   UNL A   1      52.804  36.216  26.804  1.00  0.00     0.001 A 
ATOM     81  C   UNL A   1      52.322  36.182  24.438  1.00  0.00     0.001 A 
ATOM     82  C   UNL A   1      52.956  36.767  25.532  1.00  0.00     0.000 A 
ENDBRANCH  64  77
ENDBRANCH  38  39
ENDBRANCH  31  33
ENDBRANCH  30  31
ENDBRANCH  29  30
ENDBRANCH  28  29
ENDBRANCH  27  28
ENDBRANCH  26  27
ENDBRANCH   1  26
TORSDOF 21
ENDMDL
MODEL 2
REMARK VINA RESULT:      -8.7      3.415      9.159
REMARK SMILES COc1ccc([C@H]2O[C@@H]2C(=O)OCCOCCOCCOC(=O)c2ccc(-c3c4nc(c(-c5ccccc5)c5ccc([nH]5)c(-c5ccccc5)c5nc(c(-c6ccccc6)c6ccc3[nH]6)C=C5)C=C4)cc2)cc1Oc1ccccc1
REMARK SMILES IDX 16 1 15 2 14 3 13 4 12 5 10 6 11 7 9 8 7 9 8 10 6 11 3 12
REMARK SMILES IDX 4 13 73 14 5 15 72 16 2 17 1 18 74 19 75 20 76 21 80 22
REMARK SMILES IDX 77 23 79 24 78 25 17 26 18 27 19 28 20 29 21 30 22 31 23 32
REMARK SMILES IDX 24 33 25 34 71 35 26 36 70 37 27 38 28 39 29 40 64 41 30 42
REMARK SMILES IDX 69 43 63 44 65 45 31 46 68 47 62 48 61 49 32 51 54 52 39 53
REMARK SMILES IDX 53 54 40 55 43 56 52 57 66 58 41 59 42 60 51 62 67 63 44 64
REMARK SMILES IDX 33 65 34 66 38 67 35 68 37 69 36 70 55 71 56 72 60 73 57 74
REMARK SMILES IDX 59 75 58 76 45 77 46 78 50 79 47 80 49 81 48 82
REMARK H PARENT 65 50 43 61
REMARK Flexibility Score: inf
ROOT
ATOM      1  C   UNL A   1      33.745  29.894  26.692  1.00  0.00     0.188 C 
ENDROOT
BRANCH   1   2
ATOM      2  O   UNL A   1      32.561  29.535  27.395  1.00  0.00    -0.376 OA
BRANCH   2   3
ATOM      3  C   UNL A   1      31.740  28.480  26.901  1.00  0.00     0.202 C 
BRANCH   3   4
ATOM      4  C   UNL A   1      32.052  27.843  25.535  1.00  0.00     0.261 C 
BRANCH   4   5
ATOM      5  O   UNL A   1      30.956  27.867  24.602  1.00  0.00    -0.461 OA
BRANCH   5   6
ATOM      6  C   UNL A   1      30.993  26.909  23.632  1.00  0.00     0.338 C 
ATOM      7  O   UNL A   1      30.756  27.092  22.453  1.00  0.00    -0.249 OA
BRANCH   6   8
ATOM      8  C   UNL A   1      31.501  25.596  24.141  1.00  0.00     0.262 C 
ATOM      9  C   UNL A   1      32.679  24.970  23.412  1.00  0.00     0.190 C 
ATOM     10  O   UNL A   1      31.311  24.533  23.209  1.00  0.00    -0.352 OA
BRANCH   9  11
ATOM     11  C   UNL A   1      33.605  23.860  23.862  1.00  0.00    -0.012 A 
ATOM     12  C   UNL A   1      35.434  22.016  25.020  1.00  0.00     0.161 A 
ATOM     13  C   UNL A   1      35.870  23.263  24.577  1.00  0.00     0.051 A 
ATOM     14  C   UNL A   1      34.079  21.670  24.921  1.00  0.00     0.169 A 
ATOM     15  C   UNL A   1      34.970  24.159  24.006  1.00  0.00     0.010 A 
ATOM     16  C   UNL A   1      33.185  22.592  24.315  1.00  0.00     0.057 A 
BRANCH  12  17
ATOM     17  O   UNL A   1      36.375  21.260  25.664  1.00  0.00    -0.493 OA
ATOM     18  C   UNL A   1      37.403  20.835  24.774  1.00  0.00     0.278 C 
ENDBRANCH  12  17
BRANCH  14  19
ATOM     19  O   UNL A   1      33.471  20.498  25.347  1.00  0.00    -0.453 OA
BRANCH  19  20
ATOM     20  C   UNL A   1      33.535  19.356  24.580  1.00  0.00     0.127 A 
ATOM     21  C   UNL A   1      32.522  19.148  23.639  1.00  0.00     0.047 A 
ATOM     22  C   UNL A   1      34.534  18.394  24.749  1.00  0.00     0.047 A 
ATOM     23  C   UNL A   1      32.566  18.032  22.799  1.00  0.00     0.004 A 
ATOM     24  C   UNL A   1      34.585  17.289  23.896  1.00  0.00     0.004 A 
ATOM     25  C   UNL A   1      33.609  17.113  22.914  1.00  0.00     0.000 A 
ENDBRANCH  19  20
ENDBRANCH  14  19
ENDBRANCH   9  11
ENDBRANCH   6   8
ENDBRANCH   5   6
ENDBRANCH   4   5
ENDBRANCH   3   4
ENDBRANCH   2   3
ENDBRANCH   1   2
BRANCH   1  26
ATOM     26  C   UNL A   1      35.034  30.217  27.480  1.00  0.00     0.188 C 
BRANCH  26  27
ATOM     27  O   UNL A   1      34.811  30.966  28.653  1.00  0.00    -0.376 OA
BRANCH  27  28
ATOM     28  C   UNL A   1      35.874  31.115  29.581  1.00  0.00     0.202 C 
BRANCH  28  29
ATOM     29  C   UNL A   1      36.017  30.237  30.843  1.00  0.00     0.261 C 
BRANCH  29  30
ATOM     30  O   UNL A   1      37.278  30.242  31.526  1.00  0.00    -0.460 OA
BRANCH  30  31
ATOM     31  C   UNL A   1      37.773  31.450  31.877  1.00  0.00     0.338 C 
ATOM     32  O   UNL A   1      37.281  32.254  32.647  1.00  0.00    -0.246 OA
BRANCH  31  33
ATOM     33  C   UNL A   1      39.133  31.575  31.315  1.00  0.00     0.060 A 
ATOM     34  C   UNL A   1      40.144  32.126  32.115  1.00  0.00     0.016 A 
ATOM     35  C   UNL A   1      39.398  31.201  29.995  1.00  0.00     0.016 A 
ATOM     36  C   UNL A   1      41.414  32.345  31.583  1.00  0.00     0.010 A 
ATOM     37  C   UNL A   1      40.666  31.442  29.457  1.00  0.00     0.010 A 
ATOM     38  C   UNL A   1      41.666  32.053  30.237  1.00  0.00    -0.014 A 
BRANCH  38  39
ATOM     39  C   UNL A   1      42.889  32.592  29.596  1.00  0.00     0.031 A 
ATOM     40  C   UNL A   1      42.884  34.028  29.142  1.00  0.00     0.074 A 
ATOM     41  C   UNL A   1      43.999  31.847  29.458  1.00  0.00     0.049 A 
ATOM     42  N   UNL A   1      43.825  34.719  28.551  1.00  0.00    -0.248 NA
ATOM     43  C   UNL A   1      41.644  34.785  29.384  1.00  0.00     0.031 C 
ATOM     44  C   UNL A   1      44.151  30.461  29.900  1.00  0.00     0.029 A 
ATOM     45  N   UNL A   1      45.213  32.161  28.902  1.00  0.00    -0.354 N 
ATOM     46  C   UNL A   1      43.290  35.985  28.348  1.00  0.00     0.074 A 
ATOM     47  C   UNL A   1      41.932  35.957  28.840  1.00  0.00     0.031 C 
ATOM     48  C   UNL A   1      45.392  30.043  29.593  1.00  0.00     0.029 A 
ATOM     49  C   UNL A   1      46.108  31.120  28.910  1.00  0.00     0.049 A 
ATOM     50  H   UNL A   1      45.423  33.049  28.533  1.00  0.00     0.167 HD
ATOM     51  C   UNL A   1      43.878  37.079  27.808  1.00  0.00     0.031 A 
ATOM     52  C   UNL A   1      47.356  31.043  28.409  1.00  0.00     0.031 A 
ATOM     53  C   UNL A   1      45.225  37.106  27.304  1.00  0.00     0.049 A 
ATOM     54  C   UNL A   1      47.963  32.251  27.743  1.00  0.00     0.074 A 
ATOM     55  C   UNL A   1      45.915  38.166  26.741  1.00  0.00     0.029 A 
ATOM     56  N   UNL A   1      46.086  36.020  27.297  1.00  0.00    -0.354 N 
ATOM     57  N   UNL A   1      47.456  33.448  27.573  1.00  0.00    -0.248 NA
ATOM     58  C   UNL A   1      49.326  32.097  27.215  1.00  0.00     0.031 C 
ATOM     59  C   UNL A   1      47.172  37.705  26.340  1.00  0.00     0.029 A 
ATOM     60  C   UNL A   1      47.292  36.377  26.720  1.00  0.00     0.049 A 
ATOM     61  H   UNL A   1      45.871  35.126  27.652  1.00  0.00     0.167 HD
ATOM     62  C   UNL A   1      48.450  34.200  26.958  1.00  0.00     0.074 A 
ATOM     63  C   UNL A   1      49.594  33.326  26.798  1.00  0.00     0.031 C 
ATOM     64  C   UNL A   1      48.425  35.498  26.568  1.00  0.00     0.031 A 
BRANCH  51  65
ATOM     65  C   UNL A   1      43.045  38.327  27.700  1.00  0.00    -0.014 A 
ATOM     66  C   UNL A   1      43.058  39.306  28.707  1.00  0.00     0.009 A 
ATOM     67  C   UNL A   1      42.249  38.534  26.564  1.00  0.00     0.009 A 
ATOM     68  C   UNL A   1      42.259  40.447  28.594  1.00  0.00     0.001 A 
ATOM     69  C   UNL A   1      41.478  39.690  26.439  1.00  0.00     0.001 A 
ATOM     70  C   UNL A   1      41.475  40.640  27.458  1.00  0.00     0.000 A 
ENDBRANCH  51  65
BRANCH  52  71
ATOM     71  C   UNL A   1      48.123  29.772  28.502  1.00  0.00    -0.014 A 
ATOM     72  C   UNL A   1      48.061  28.817  27.475  1.00  0.00     0.009 A 
ATOM     73  C   UNL A   1      48.897  29.491  29.640  1.00  0.00     0.009 A 
ATOM     74  C   UNL A   1      48.730  27.597  27.600  1.00  0.00     0.001 A 
ATOM     75  C   UNL A   1      49.590  28.284  29.748  1.00  0.00     0.001 A 
ATOM     76  C   UNL A   1      49.497  27.333  28.733  1.00  0.00     0.000 A 
ENDBRANCH  52  71
BRANCH  64  77
ATOM     77  C   UNL A   1      49.689  36.071  25.986  1.00  0.00    -0.014 A 
ATOM     78  C   UNL A   1      49.941  36.058  24.605  1.00  0.00     0.009 A 
ATOM     79  C   UNL A   1      50.638  36.655  26.841  1.00  0.00     0.009 A 
ATOM     80  C   UNL A   1      51.138  36.573  24.100  1.00  0.00     0.001 A 
ATOM     81  C   UNL A   1      51.816  37.201  26.331  1.00  0.00     0.001 A 
ATOM     82  C   UNL A   1      52.071  37.147  24.962  1.00  0.00     0.000 A 
ENDBRANCH  64  77
ENDBRANCH  38  39
ENDBRANCH  31  33
ENDBRANCH  30  31
ENDBRANCH  29  30
ENDBRANCH  28  29
ENDBRANCH  27  28
ENDBRANCH  26  27
ENDBRANCH   1  26
TORSDOF 21
ENDMDL
MODEL 3
REMARK VINA RESULT:      -8.5      6.306     12.133
REMARK SMILES COc1ccc([C@H]2O[C@@H]2C(=O)OCCOCCOCCOC(=O)c2ccc(-c3c4nc(c(-c5ccccc5)c5ccc([nH]5)c(-c5ccccc5)c5nc(c(-c6ccccc6)c6ccc3[nH]6)C=C5)C=C4)cc2)cc1Oc1ccccc1
REMARK SMILES IDX 16 1 15 2 14 3 13 4 12 5 10 6 11 7 9 8 7 9 8 10 6 11 3 12
REMARK SMILES IDX 4 13 73 14 5 15 72 16 2 17 1 18 74 19 75 20 76 21 80 22
REMARK SMILES IDX 77 23 79 24 78 25 17 26 18 27 19 28 20 29 21 30 22 31 23 32
REMARK SMILES IDX 24 33 25 34 71 35 26 36 70 37 27 38 28 39 29 40 64 41 30 42
REMARK SMILES IDX 69 43 63 44 65 45 31 46 68 47 62 48 61 49 32 51 54 52 39 53
REMARK SMILES IDX 53 54 40 55 43 56 52 57 66 58 41 59 42 60 51 62 67 63 44 64
REMARK SMILES IDX 33 65 34 66 38 67 35 68 37 69 36 70 55 71 56 72 60 73 57 74
REMARK SMILES IDX 59 75 58 76 45 77 46 78 50 79 47 80 49 81 48 82
REMARK H PARENT 65 50 43 61
REMARK Flexibility Score: inf
ROOT
ATOM      1  C   UNL A   1      46.928  35.178  35.244  1.00  0.00     0.188 C 
ENDROOT
BRANCH   1   2
ATOM      2  O   UNL A   1      45.932  35.841  36.013  1.00  0.00    -0.376 OA
BRANCH   2   3
ATOM      3  C   UNL A   1      44.591  35.896  35.535  1.00  0.00     0.202 C 
BRANCH   3   4
ATOM      4  C   UNL A   1      43.576  34.828  35.977  1.00  0.00     0.261 C 
BRANCH   4   5
ATOM      5  O   UNL A   1      43.800  33.522  35.414  1.00  0.00    -0.461 OA
BRANCH   5   6
ATOM      6  C   UNL A   1      43.442  33.381  34.105  1.00  0.00     0.338 C 
ATOM      7  O   UNL A   1      44.137  32.893  33.235  1.00  0.00    -0.249 OA
BRANCH   6   8
ATOM      8  C   UNL A   1      42.018  33.770  33.855  1.00  0.00     0.262 C 
ATOM      9  C   UNL A   1      41.078  32.692  33.339  1.00  0.00     0.190 C 
ATOM     10  O   UNL A   1      41.663  33.700  32.475  1.00  0.00    -0.352 OA
BRANCH   9  11
ATOM     11  C   UNL A   1      39.564  32.676  33.305  1.00  0.00    -0.012 A 
ATOM     12  C   UNL A   1      36.740  32.850  33.593  1.00  0.00     0.161 A 
ATOM     13  C   UNL A   1      37.507  32.158  34.529  1.00  0.00     0.051 A 
ATOM     14  C   UNL A   1      37.362  33.491  32.511  1.00  0.00     0.169 A 
ATOM     15  C   UNL A   1      38.889  32.073  34.379  1.00  0.00     0.010 A 
ATOM     16  C   UNL A   1      38.770  33.370  32.368  1.00  0.00     0.057 A 
BRANCH  12  17
ATOM     17  O   UNL A   1      35.411  32.966  33.894  1.00  0.00    -0.493 OA
ATOM     18  C   UNL A   1      35.165  34.072  34.757  1.00  0.00     0.278 C 
ENDBRANCH  12  17
BRANCH  14  19
ATOM     19  O   UNL A   1      36.761  34.250  31.519  1.00  0.00    -0.453 OA
BRANCH  19  20
ATOM     20  C   UNL A   1      36.312  33.661  30.359  1.00  0.00     0.127 A 
ATOM     21  C   UNL A   1      34.939  33.424  30.240  1.00  0.00     0.047 A 
ATOM     22  C   UNL A   1      37.178  33.252  29.342  1.00  0.00     0.047 A 
ATOM     23  C   UNL A   1      34.424  32.875  29.063  1.00  0.00     0.004 A 
ATOM     24  C   UNL A   1      36.658  32.720  28.159  1.00  0.00     0.004 A 
ATOM     25  C   UNL A   1      35.281  32.542  28.014  1.00  0.00     0.000 A 
ENDBRANCH  19  20
ENDBRANCH  14  19
ENDBRANCH   9  11
ENDBRANCH   6   8
ENDBRANCH   5   6
ENDBRANCH   4   5
ENDBRANCH   3   4
ENDBRANCH   2   3
ENDBRANCH   1   2
BRANCH   1  26
ATOM     26  C   UNL A   1      46.870  35.238  33.702  1.00  0.00     0.188 C 
BRANCH  26  27
ATOM     27  O   UNL A   1      47.565  36.331  33.148  1.00  0.00    -0.376 OA
BRANCH  27  28
ATOM     28  C   UNL A   1      46.957  37.068  32.099  1.00  0.00     0.202 C 
BRANCH  28  29
ATOM     29  C   UNL A   1      47.654  37.338  30.747  1.00  0.00     0.261 C 
BRANCH  29  30
ATOM     30  O   UNL A   1      47.935  36.217  29.899  1.00  0.00    -0.460 OA
BRANCH  30  31
ATOM     31  C   UNL A   1      47.299  36.186  28.706  1.00  0.00     0.338 C 
ATOM     32  O   UNL A   1      47.527  36.876  27.730  1.00  0.00    -0.246 OA
BRANCH  31  33
ATOM     33  C   UNL A   1      46.384  35.026  28.698  1.00  0.00     0.060 A 
ATOM     34  C   UNL A   1      46.476  34.089  29.737  1.00  0.00     0.016 A 
ATOM     35  C   UNL A   1      45.480  34.837  27.650  1.00  0.00     0.016 A 
ATOM     36  C   UNL A   1      45.693  32.936  29.709  1.00  0.00     0.010 A 
ATOM     37  C   UNL A   1      44.710  33.669  27.612  1.00  0.00     0.010 A 
ATOM     38  C   UNL A   1      44.846  32.696  28.620  1.00  0.00    -0.014 A 
BRANCH  38  39
ATOM     39  C   UNL A   1      44.281  31.338  28.429  1.00  0.00     0.031 A 
ATOM     40  C   UNL A   1      45.099  30.326  27.672  1.00  0.00     0.074 A 
ATOM     41  C   UNL A   1      43.093  30.989  28.950  1.00  0.00     0.049 A 
ATOM     42  N   UNL A   1      44.817  29.084  27.370  1.00  0.00    -0.248 NA
ATOM     43  C   UNL A   1      46.413  30.779  27.185  1.00  0.00     0.031 C 
ATOM     44  C   UNL A   1      42.226  31.859  29.744  1.00  0.00     0.029 A 
ATOM     45  N   UNL A   1      42.412  29.800  28.885  1.00  0.00    -0.354 N 
ATOM     46  C   UNL A   1      45.913  28.612  26.657  1.00  0.00     0.074 A 
ATOM     47  C   UNL A   1      46.846  29.710  26.536  1.00  0.00     0.031 C 
ATOM     48  C   UNL A   1      41.123  31.171  30.090  1.00  0.00     0.029 A 
ATOM     49  C   UNL A   1      41.195  29.827  29.519  1.00  0.00     0.049 A 
ATOM     50  H   UNL A   1      42.764  29.002  28.427  1.00  0.00     0.167 HD
ATOM     51  C   UNL A   1      46.131  27.374  26.154  1.00  0.00     0.031 A 
ATOM     52  C   UNL A   1      40.243  28.879  29.613  1.00  0.00     0.031 A 
ATOM     53  C   UNL A   1      45.197  26.284  26.260  1.00  0.00     0.049 A 
ATOM     54  C   UNL A   1      40.474  27.531  28.979  1.00  0.00     0.074 A 
ATOM     55  C   UNL A   1      45.326  24.989  25.788  1.00  0.00     0.029 A 
ATOM     56  N   UNL A   1      43.960  26.364  26.879  1.00  0.00    -0.354 N 
ATOM     57  N   UNL A   1      41.521  27.090  28.324  1.00  0.00    -0.248 NA
ATOM     58  C   UNL A   1      39.393  26.544  29.116  1.00  0.00     0.031 C 
ATOM     59  C   UNL A   1      44.141  24.303  26.068  1.00  0.00     0.029 A 
ATOM     60  C   UNL A   1      43.304  25.148  26.781  1.00  0.00     0.049 A 
ATOM     61  H   UNL A   1      43.600  27.166  27.323  1.00  0.00     0.167 HD
ATOM     62  C   UNL A   1      41.243  25.765  28.008  1.00  0.00     0.074 A 
ATOM     63  C   UNL A   1      39.934  25.472  28.556  1.00  0.00     0.031 C 
ATOM     64  C   UNL A   1      42.003  24.868  27.333  1.00  0.00     0.031 A 
BRANCH  51  65
ATOM     65  C   UNL A   1      47.416  27.149  25.406  1.00  0.00    -0.014 A 
ATOM     66  C   UNL A   1      48.556  26.634  26.046  1.00  0.00     0.009 A 
ATOM     67  C   UNL A   1      47.482  27.442  24.036  1.00  0.00     0.009 A 
ATOM     68  C   UNL A   1      49.745  26.454  25.334  1.00  0.00     0.001 A 
ATOM     69  C   UNL A   1      48.661  27.230  23.321  1.00  0.00     0.001 A 
ATOM     70  C   UNL A   1      49.794  26.746  23.972  1.00  0.00     0.000 A 
ENDBRANCH  51  65
BRANCH  52  71
ATOM     71  C   UNL A   1      38.970  29.164  30.327  1.00  0.00    -0.014 A 
ATOM     72  C   UNL A   1      38.887  29.048  31.724  1.00  0.00     0.009 A 
ATOM     73  C   UNL A   1      37.816  29.521  29.609  1.00  0.00     0.009 A 
ATOM     74  C   UNL A   1      37.671  29.251  32.381  1.00  0.00     0.001 A 
ATOM     75  C   UNL A   1      36.610  29.755  30.273  1.00  0.00     0.001 A 
ATOM     76  C   UNL A   1      36.536  29.608  31.657  1.00  0.00     0.000 A 
ENDBRANCH  52  71
BRANCH  64  77
ATOM     77  C   UNL A   1      41.467  23.467  27.201  1.00  0.00    -0.014 A 
ATOM     78  C   UNL A   1      40.540  23.119  26.207  1.00  0.00     0.009 A 
ATOM     79  C   UNL A   1      41.920  22.471  28.081  1.00  0.00     0.009 A 
ATOM     80  C   UNL A   1      40.041  21.816  26.129  1.00  0.00     0.001 A 
ATOM     81  C   UNL A   1      41.448  21.163  27.980  1.00  0.00     0.001 A 
ATOM     82  C   UNL A   1      40.498  20.839  27.012  1.00  0.00     0.000 A 
ENDBRANCH  64  77
ENDBRANCH  38  39
ENDBRANCH  31  33
ENDBRANCH  30  31
ENDBRANCH  29  30
ENDBRANCH  28  29
ENDBRANCH  27  28
ENDBRANCH  26  27
ENDBRANCH   1  26
TORSDOF 21
ENDMDL
