MODEL 1
REMARK VINA RESULT:     -10.2      0.000      0.000
REMARK SMILES Cc1ncccc1Oc1ccc(C(=O)OCCOCCOCCOC(=O)c2ccc(-c3c4nc(c(-c5ccccc5)c5ccc([nH]5)c(-c5ccccc5)c5nc(c(-c6ccccc6)c6ccc3[nH]6)C=C5)C=C4)cc2)cc1Cl
REMARK SMILES IDX 19 1 18 2 17 3 16 4 15 5 13 6 14 7 12 8 9 9 10 10 76 11
REMARK SMILES IDX 11 12 75 13 77 14 8 15 7 16 1 17 2 18 3 19 4 20 6 21 5 22
REMARK SMILES IDX 20 23 21 24 22 25 23 26 24 27 25 28 26 29 27 30 28 31 74 32
REMARK SMILES IDX 29 33 73 34 30 35 31 36 32 37 67 38 33 39 72 40 66 41 68 42
REMARK SMILES IDX 34 43 71 44 65 45 64 46 35 48 57 49 42 50 56 51 43 52 46 53
REMARK SMILES IDX 55 54 69 55 44 56 45 57 54 59 70 60 47 61 36 62 37 63 41 64
REMARK SMILES IDX 38 65 40 66 39 67 58 68 59 69 63 70 60 71 62 72 61 73 48 74
REMARK SMILES IDX 49 75 53 76 50 77 52 78 51 79
REMARK H PARENT 68 47 46 58
REMARK Flexibility Score: inf
ROOT
ATOM      1  C   UNL A   1      40.707  20.856  26.649  1.00  0.00     0.188 C 
ENDROOT
BRANCH   1   2
ATOM      2  O   UNL A   1      39.870  21.596  25.786  1.00  0.00    -0.376 OA
BRANCH   2   3
ATOM      3  C   UNL A   1      38.462  21.420  25.802  1.00  0.00     0.202 C 
BRANCH   3   4
ATOM      4  C   UNL A   1      37.460  22.536  25.475  1.00  0.00     0.261 C 
BRANCH   4   5
ATOM      5  O   UNL A   1      36.697  22.337  24.281  1.00  0.00    -0.460 OA
BRANCH   5   6
ATOM      6  C   UNL A   1      35.435  21.897  24.489  1.00  0.00     0.338 C 
ATOM      7  O   UNL A   1      35.085  20.756  24.749  1.00  0.00    -0.246 OA
BRANCH   6   8
ATOM      8  C   UNL A   1      34.493  23.032  24.551  1.00  0.00     0.061 A 
ATOM      9  C   UNL A   1      33.059  25.365  24.873  1.00  0.00     0.146 A 
ATOM     10  C   UNL A   1      34.053  25.315  23.895  1.00  0.00     0.049 A 
ATOM     11  C   UNL A   1      32.630  24.202  25.525  1.00  0.00     0.084 A 
ATOM     12  C   UNL A   1      34.788  24.145  23.749  1.00  0.00     0.019 A 
ATOM     13  C   UNL A   1      33.365  23.027  25.381  1.00  0.00     0.040 A 
ATOM     14  Cl  UNL A   1      31.282  24.219  26.599  1.00  0.00    -0.080 Cl
BRANCH   9  15
ATOM     15  O   UNL A   1      32.586  26.605  25.203  1.00  0.00    -0.454 OA
BRANCH  15  16
ATOM     16  C   UNL A   1      31.817  27.292  24.280  1.00  0.00     0.148 A 
ATOM     17  C   UNL A   1      33.532  28.817  23.062  1.00  0.00     0.071 C 
ATOM     18  C   UNL A   1      32.161  28.280  23.339  1.00  0.00     0.080 A 
ATOM     19  N   UNL A   1      31.224  28.883  22.553  1.00  0.00    -0.258 NA
ATOM     20  C   UNL A   1      29.941  28.492  22.657  1.00  0.00     0.111 A 
ATOM     21  C   UNL A   1      30.473  26.894  24.326  1.00  0.00     0.050 A 
ATOM     22  C   UNL A   1      29.522  27.495  23.509  1.00  0.00     0.024 A 
ENDBRANCH  15  16
ENDBRANCH   9  15
ENDBRANCH   6   8
ENDBRANCH   5   6
ENDBRANCH   4   5
ENDBRANCH   3   4
ENDBRANCH   2   3
ENDBRANCH   1   2
BRANCH   1  23
ATOM     23  C   UNL A   1      41.279  19.496  26.202  1.00  0.00     0.188 C 
BRANCH  23  24
ATOM     24  O   UNL A   1      42.265  19.436  25.201  1.00  0.00    -0.376 OA
BRANCH  24  25
ATOM     25  C   UNL A   1      43.624  19.672  25.530  1.00  0.00     0.202 C 
BRANCH  25  26
ATOM     26  C   UNL A   1      44.341  21.026  25.381  1.00  0.00     0.261 C 
BRANCH  26  27
ATOM     27  O   UNL A   1      43.774  22.154  26.051  1.00  0.00    -0.460 OA
BRANCH  27  28
ATOM     28  C   UNL A   1      43.846  23.329  25.379  1.00  0.00     0.338 C 
ATOM     29  O   UNL A   1      44.187  23.505  24.216  1.00  0.00    -0.246 OA
BRANCH  28  30
ATOM     30  C   UNL A   1      43.271  24.391  26.218  1.00  0.00     0.060 A 
ATOM     31  C   UNL A   1      43.726  25.710  26.071  1.00  0.00     0.016 A 
ATOM     32  C   UNL A   1      42.301  24.070  27.166  1.00  0.00     0.016 A 
ATOM     33  C   UNL A   1      43.208  26.722  26.880  1.00  0.00     0.010 A 
ATOM     34  C   UNL A   1      41.808  25.078  27.994  1.00  0.00     0.010 A 
ATOM     35  C   UNL A   1      42.273  26.400  27.868  1.00  0.00    -0.014 A 
BRANCH  35  36
ATOM     36  C   UNL A   1      41.893  27.385  28.905  1.00  0.00     0.031 A 
ATOM     37  C   UNL A   1      42.646  27.374  30.203  1.00  0.00     0.074 A 
ATOM     38  C   UNL A   1      40.850  28.213  28.732  1.00  0.00     0.049 A 
ATOM     39  N   UNL A   1      42.377  27.988  31.325  1.00  0.00    -0.248 NA
ATOM     40  C   UNL A   1      43.857  26.539  30.240  1.00  0.00     0.031 C 
ATOM     41  C   UNL A   1      40.069  28.348  27.505  1.00  0.00     0.029 A 
ATOM     42  N   UNL A   1      40.246  29.070  29.618  1.00  0.00    -0.354 N 
ATOM     43  C   UNL A   1      43.365  27.586  32.213  1.00  0.00     0.074 A 
ATOM     44  C   UNL A   1      44.229  26.668  31.504  1.00  0.00     0.031 C 
ATOM     45  C   UNL A   1      39.060  29.208  27.728  1.00  0.00     0.029 A 
ATOM     46  C   UNL A   1      39.099  29.641  29.124  1.00  0.00     0.049 A 
ATOM     47  H   UNL A   1      40.600  29.258  30.518  1.00  0.00     0.167 HD
ATOM     48  C   UNL A   1      43.530  27.940  33.510  1.00  0.00     0.031 A 
ATOM     49  C   UNL A   1      38.161  30.384  29.743  1.00  0.00     0.031 A 
ATOM     50  C   UNL A   1      42.650  28.831  34.216  1.00  0.00     0.049 A 
ATOM     51  C   UNL A   1      38.317  30.712  31.205  1.00  0.00     0.074 A 
ATOM     52  C   UNL A   1      42.744  29.280  35.521  1.00  0.00     0.029 A 
ATOM     53  N   UNL A   1      41.501  29.394  33.679  1.00  0.00    -0.354 N 
ATOM     54  N   UNL A   1      39.271  30.357  32.033  1.00  0.00    -0.248 NA
ATOM     55  C   UNL A   1      37.272  31.544  31.817  1.00  0.00     0.031 C 
ATOM     56  C   UNL A   1      41.613  30.056  35.795  1.00  0.00     0.029 A 
ATOM     57  C   UNL A   1      40.857  30.155  34.638  1.00  0.00     0.049 A 
ATOM     58  H   UNL A   1      41.191  29.269  32.753  1.00  0.00     0.167 HD
ATOM     59  C   UNL A   1      38.957  30.946  33.253  1.00  0.00     0.074 A 
ATOM     60  C   UNL A   1      37.727  31.685  33.055  1.00  0.00     0.031 C 
ATOM     61  C   UNL A   1      39.633  30.888  34.427  1.00  0.00     0.031 A 
BRANCH  48  62
ATOM     62  C   UNL A   1      44.667  27.300  34.256  1.00  0.00    -0.014 A 
ATOM     63  C   UNL A   1      45.902  27.947  34.420  1.00  0.00     0.009 A 
ATOM     64  C   UNL A   1      44.499  26.016  34.799  1.00  0.00     0.009 A 
ATOM     65  C   UNL A   1      46.960  27.301  35.065  1.00  0.00     0.001 A 
ATOM     66  C   UNL A   1      45.545  25.386  35.474  1.00  0.00     0.001 A 
ATOM     67  C   UNL A   1      46.780  26.022  35.592  1.00  0.00     0.000 A 
ENDBRANCH  48  62
BRANCH  49  68
ATOM     68  C   UNL A   1      36.965  30.833  28.982  1.00  0.00    -0.014 A 
ATOM     69  C   UNL A   1      35.942  29.930  28.657  1.00  0.00     0.009 A 
ATOM     70  C   UNL A   1      36.831  32.178  28.599  1.00  0.00     0.009 A 
ATOM     71  C   UNL A   1      34.815  30.363  27.955  1.00  0.00     0.001 A 
ATOM     72  C   UNL A   1      35.690  32.613  27.922  1.00  0.00     0.001 A 
ATOM     73  C   UNL A   1      34.685  31.706  27.596  1.00  0.00     0.000 A 
ENDBRANCH  49  68
BRANCH  61  74
ATOM     74  C   UNL A   1      39.096  31.682  35.587  1.00  0.00    -0.014 A 
ATOM     75  C   UNL A   1      39.380  33.046  35.741  1.00  0.00     0.009 A 
ATOM     76  C   UNL A   1      38.218  31.064  36.493  1.00  0.00     0.009 A 
ATOM     77  C   UNL A   1      38.808  33.772  36.790  1.00  0.00     0.001 A 
ATOM     78  C   UNL A   1      37.625  31.797  37.522  1.00  0.00     0.001 A 
ATOM     79  C   UNL A   1      37.925  33.150  37.673  1.00  0.00     0.000 A 
ENDBRANCH  61  74
ENDBRANCH  35  36
ENDBRANCH  28  30
ENDBRANCH  27  28
ENDBRANCH  26  27
ENDBRANCH  25  26
ENDBRANCH  24  25
ENDBRANCH  23  24
ENDBRANCH   1  23
TORSDOF 19
ENDMDL
MODEL 2
REMARK VINA RESULT:     -10.0      3.546      8.863
REMARK SMILES Cc1ncccc1Oc1ccc(C(=O)OCCOCCOCCOC(=O)c2ccc(-c3c4nc(c(-c5ccccc5)c5ccc([nH]5)c(-c5ccccc5)c5nc(c(-c6ccccc6)c6ccc3[nH]6)C=C5)C=C4)cc2)cc1Cl
REMARK SMILES IDX 19 1 18 2 17 3 16 4 15 5 13 6 14 7 12 8 9 9 10 10 76 11
REMARK SMILES IDX 11 12 75 13 77 14 8 15 7 16 1 17 2 18 3 19 4 20 6 21 5 22
REMARK SMILES IDX 20 23 21 24 22 25 23 26 24 27 25 28 26 29 27 30 28 31 74 32
REMARK SMILES IDX 29 33 73 34 30 35 31 36 32 37 67 38 33 39 72 40 66 41 68 42
REMARK SMILES IDX 34 43 71 44 65 45 64 46 35 48 57 49 42 50 56 51 43 52 46 53
REMARK SMILES IDX 55 54 69 55 44 56 45 57 54 59 70 60 47 61 36 62 37 63 41 64
REMARK SMILES IDX 38 65 40 66 39 67 58 68 59 69 63 70 60 71 62 72 61 73 48 74
REMARK SMILES IDX 49 75 53 76 50 77 52 78 51 79
REMARK H PARENT 68 47 46 58
REMARK Flexibility Score: inf
ROOT
ATOM      1  C   UNL A   1      34.322  29.291  27.162  1.00  0.00     0.188 C 
ENDROOT
BRANCH   1   2
ATOM      2  O   UNL A   1      33.766  28.257  26.378  1.00  0.00    -0.376 OA
BRANCH   2   3
ATOM      3  C   UNL A   1      33.773  28.329  24.960  1.00  0.00     0.202 C 
BRANCH   3   4
ATOM      4  C   UNL A   1      32.548  28.718  24.121  1.00  0.00     0.261 C 
BRANCH   4   5
ATOM      5  O   UNL A   1      32.502  28.147  22.811  1.00  0.00    -0.460 OA
BRANCH   5   6
ATOM      6  C   UNL A   1      31.340  27.522  22.512  1.00  0.00     0.338 C 
ATOM      7  O   UNL A   1      30.349  28.015  21.997  1.00  0.00    -0.246 OA
BRANCH   6   8
ATOM      8  C   UNL A   1      31.466  26.066  22.720  1.00  0.00     0.061 A 
ATOM      9  C   UNL A   1      31.724  23.445  23.535  1.00  0.00     0.146 A 
ATOM     10  C   UNL A   1      30.497  24.086  23.708  1.00  0.00     0.049 A 
ATOM     11  C   UNL A   1      32.737  24.023  22.761  1.00  0.00     0.084 A 
ATOM     12  C   UNL A   1      30.376  25.413  23.315  1.00  0.00     0.019 A 
ATOM     13  C   UNL A   1      32.619  25.355  22.365  1.00  0.00     0.040 A 
ATOM     14  Cl  UNL A   1      34.185  23.166  22.387  1.00  0.00    -0.080 Cl
BRANCH   9  15
ATOM     15  O   UNL A   1      31.903  22.270  24.212  1.00  0.00    -0.454 OA
BRANCH  15  16
ATOM     16  C   UNL A   1      32.350  22.317  25.521  1.00  0.00     0.148 A 
ATOM     17  C   UNL A   1      30.228  22.966  26.874  1.00  0.00     0.071 C 
ATOM     18  C   UNL A   1      31.680  22.635  26.717  1.00  0.00     0.080 A 
ATOM     19  N   UNL A   1      32.331  22.681  27.915  1.00  0.00    -0.258 NA
ATOM     20  C   UNL A   1      33.641  22.378  27.954  1.00  0.00     0.111 A 
ATOM     21  C   UNL A   1      33.706  21.974  25.619  1.00  0.00     0.050 A 
ATOM     22  C   UNL A   1      34.363  22.003  26.844  1.00  0.00     0.024 A 
ENDBRANCH  15  16
ENDBRANCH   9  15
ENDBRANCH   6   8
ENDBRANCH   5   6
ENDBRANCH   4   5
ENDBRANCH   3   4
ENDBRANCH   2   3
ENDBRANCH   1   2
BRANCH   1  23
ATOM     23  C   UNL A   1      33.594  30.643  27.298  1.00  0.00     0.188 C 
BRANCH  23  24
ATOM     24  O   UNL A   1      32.241  30.760  26.928  1.00  0.00    -0.376 OA
BRANCH  24  25
ATOM     25  C   UNL A   1      31.632  32.039  26.865  1.00  0.00     0.202 C 
BRANCH  25  26
ATOM     26  C   UNL A   1      32.360  33.371  27.119  1.00  0.00     0.261 C 
BRANCH  26  27
ATOM     27  O   UNL A   1      32.146  34.014  28.379  1.00  0.00    -0.460 OA
BRANCH  27  28
ATOM     28  C   UNL A   1      33.078  34.931  28.731  1.00  0.00     0.338 C 
ATOM     29  O   UNL A   1      32.937  36.145  28.819  1.00  0.00    -0.246 OA
BRANCH  28  30
ATOM     30  C   UNL A   1      34.289  34.229  29.181  1.00  0.00     0.060 A 
ATOM     31  C   UNL A   1      34.190  33.260  30.192  1.00  0.00     0.016 A 
ATOM     32  C   UNL A   1      35.521  34.550  28.617  1.00  0.00     0.016 A 
ATOM     33  C   UNL A   1      35.335  32.606  30.646  1.00  0.00     0.010 A 
ATOM     34  C   UNL A   1      36.668  33.917  29.094  1.00  0.00     0.010 A 
ATOM     35  C   UNL A   1      36.582  32.959  30.122  1.00  0.00    -0.014 A 
BRANCH  35  36
ATOM     36  C   UNL A   1      37.834  32.480  30.748  1.00  0.00     0.031 A 
ATOM     37  C   UNL A   1      38.511  31.280  30.154  1.00  0.00     0.074 A 
ATOM     38  C   UNL A   1      38.315  33.046  31.867  1.00  0.00     0.049 A 
ATOM     39  N   UNL A   1      39.489  30.557  30.630  1.00  0.00    -0.248 NA
ATOM     40  C   UNL A   1      37.995  30.826  28.852  1.00  0.00     0.031 C 
ATOM     41  C   UNL A   1      37.774  34.239  32.514  1.00  0.00     0.029 A 
ATOM     42  N   UNL A   1      39.351  32.657  32.679  1.00  0.00    -0.354 N 
ATOM     43  C   UNL A   1      39.684  29.541  29.704  1.00  0.00     0.074 A 
ATOM     44  C   UNL A   1      38.715  29.734  28.648  1.00  0.00     0.031 C 
ATOM     45  C   UNL A   1      38.458  34.462  33.649  1.00  0.00     0.029 A 
ATOM     46  C   UNL A   1      39.448  33.400  33.829  1.00  0.00     0.049 A 
ATOM     47  H   UNL A   1      39.964  31.918  32.459  1.00  0.00     0.167 HD
ATOM     48  C   UNL A   1      40.582  28.528  29.739  1.00  0.00     0.031 A 
ATOM     49  C   UNL A   1      40.211  33.214  34.924  1.00  0.00     0.031 A 
ATOM     50  C   UNL A   1      41.524  28.327  30.807  1.00  0.00     0.049 A 
ATOM     51  C   UNL A   1      41.154  32.042  34.982  1.00  0.00     0.074 A 
ATOM     52  C   UNL A   1      42.497  27.351  30.923  1.00  0.00     0.029 A 
ATOM     53  N   UNL A   1      41.594  29.106  31.952  1.00  0.00    -0.354 N 
ATOM     54  N   UNL A   1      41.359  31.102  34.090  1.00  0.00    -0.248 NA
ATOM     55  C   UNL A   1      41.975  31.906  36.194  1.00  0.00     0.031 C 
ATOM     56  C   UNL A   1      43.108  27.496  32.173  1.00  0.00     0.029 A 
ATOM     57  C   UNL A   1      42.570  28.610  32.799  1.00  0.00     0.049 A 
ATOM     58  H   UNL A   1      41.034  29.894  32.135  1.00  0.00     0.167 HD
ATOM     59  C   UNL A   1      42.351  30.283  34.619  1.00  0.00     0.074 A 
ATOM     60  C   UNL A   1      42.709  30.840  35.907  1.00  0.00     0.031 C 
ATOM     61  C   UNL A   1      42.919  29.176  34.079  1.00  0.00     0.031 A 
BRANCH  48  62
ATOM     62  C   UNL A   1      40.531  27.528  28.617  1.00  0.00    -0.014 A 
ATOM     63  C   UNL A   1      39.747  26.366  28.696  1.00  0.00     0.009 A 
ATOM     64  C   UNL A   1      41.294  27.752  27.460  1.00  0.00     0.009 A 
ATOM     65  C   UNL A   1      39.769  25.426  27.664  1.00  0.00     0.001 A 
ATOM     66  C   UNL A   1      41.288  26.828  26.414  1.00  0.00     0.001 A 
ATOM     67  C   UNL A   1      40.538  25.659  26.523  1.00  0.00     0.000 A 
ENDBRANCH  48  62
BRANCH  49  68
ATOM     68  C   UNL A   1      40.076  34.146  36.075  1.00  0.00    -0.014 A 
ATOM     69  C   UNL A   1      39.160  33.886  37.105  1.00  0.00     0.009 A 
ATOM     70  C   UNL A   1      40.886  35.291  36.160  1.00  0.00     0.009 A 
ATOM     71  C   UNL A   1      39.051  34.759  38.190  1.00  0.00     0.001 A 
ATOM     72  C   UNL A   1      40.795  36.145  37.260  1.00  0.00     0.001 A 
ATOM     73  C   UNL A   1      39.874  35.882  38.272  1.00  0.00     0.000 A 
ENDBRANCH  49  68
BRANCH  61  74
ATOM     74  C   UNL A   1      44.027  28.509  34.848  1.00  0.00    -0.014 A 
ATOM     75  C   UNL A   1      43.778  27.449  35.731  1.00  0.00     0.009 A 
ATOM     76  C   UNL A   1      45.357  28.899  34.613  1.00  0.00     0.009 A 
ATOM     77  C   UNL A   1      44.837  26.805  36.377  1.00  0.00     0.001 A 
ATOM     78  C   UNL A   1      46.414  28.234  35.235  1.00  0.00     0.001 A 
ATOM     79  C   UNL A   1      46.153  27.191  36.121  1.00  0.00     0.000 A 
ENDBRANCH  61  74
ENDBRANCH  35  36
ENDBRANCH  28  30
ENDBRANCH  27  28
ENDBRANCH  26  27
ENDBRANCH  25  26
ENDBRANCH  24  25
ENDBRANCH  23  24
ENDBRANCH   1  23
TORSDOF 19
ENDMDL
MODEL 3
REMARK VINA RESULT:      -9.8      4.242      9.345
REMARK SMILES Cc1ncccc1Oc1ccc(C(=O)OCCOCCOCCOC(=O)c2ccc(-c3c4nc(c(-c5ccccc5)c5ccc([nH]5)c(-c5ccccc5)c5nc(c(-c6ccccc6)c6ccc3[nH]6)C=C5)C=C4)cc2)cc1Cl
REMARK SMILES IDX 19 1 18 2 17 3 16 4 15 5 13 6 14 7 12 8 9 9 10 10 76 11
REMARK SMILES IDX 11 12 75 13 77 14 8 15 7 16 1 17 2 18 3 19 4 20 6 21 5 22
REMARK SMILES IDX 20 23 21 24 22 25 23 26 24 27 25 28 26 29 27 30 28 31 74 32
REMARK SMILES IDX 29 33 73 34 30 35 31 36 32 37 67 38 33 39 72 40 66 41 68 42
REMARK SMILES IDX 34 43 71 44 65 45 64 46 35 48 57 49 42 50 56 51 43 52 46 53
REMARK SMILES IDX 55 54 69 55 44 56 45 57 54 59 70 60 47 61 36 62 37 63 41 64
REMARK SMILES IDX 38 65 40 66 39 67 58 68 59 69 63 70 60 71 62 72 61 73 48 74
REMARK SMILES IDX 49 75 53 76 50 77 52 78 51 79
REMARK H PARENT 68 47 46 58
REMARK Flexibility Score: inf
ROOT
ATOM      1  C   UNL A   1      31.098  29.060  24.828  1.00  0.00     0.188 C 
ENDROOT
BRANCH   1   2
ATOM      2  O   UNL A   1      30.331  29.101  23.643  1.00  0.00    -0.376 OA
BRANCH   2   3
ATOM      3  C   UNL A   1      30.277  27.986  22.767  1.00  0.00     0.202 C 
BRANCH   3   4
ATOM      4  C   UNL A   1      31.052  26.682  22.999  1.00  0.00     0.261 C 
BRANCH   4   5
ATOM      5  O   UNL A   1      31.545  26.048  21.816  1.00  0.00    -0.460 OA
BRANCH   5   6
ATOM      6  C   UNL A   1      32.893  25.943  21.756  1.00  0.00     0.338 C 
ATOM      7  O   UNL A   1      33.670  26.727  21.235  1.00  0.00    -0.246 OA
BRANCH   6   8
ATOM      8  C   UNL A   1      33.362  24.816  22.585  1.00  0.00     0.061 A 
ATOM      9  C   UNL A   1      33.830  22.702  24.292  1.00  0.00     0.146 A 
ATOM     10  C   UNL A   1      33.114  22.473  23.116  1.00  0.00     0.049 A 
ATOM     11  C   UNL A   1      34.500  23.914  24.504  1.00  0.00     0.084 A 
ATOM     12  C   UNL A   1      32.862  23.543  22.269  1.00  0.00     0.019 A 
ATOM     13  C   UNL A   1      34.249  24.990  23.655  1.00  0.00     0.040 A 
ATOM     14  Cl  UNL A   1      35.536  24.143  25.862  1.00  0.00    -0.080 Cl
BRANCH   9  15
ATOM     15  O   UNL A   1      33.783  21.718  25.240  1.00  0.00    -0.454 OA
BRANCH  15  16
ATOM     16  C   UNL A   1      34.423  20.516  24.986  1.00  0.00     0.148 A 
ATOM     17  C   UNL A   1      32.479  18.893  24.406  1.00  0.00     0.071 C 
ATOM     18  C   UNL A   1      33.914  19.250  24.644  1.00  0.00     0.080 A 
ATOM     19  N   UNL A   1      34.726  18.165  24.495  1.00  0.00    -0.258 NA
ATOM     20  C   UNL A   1      36.054  18.323  24.645  1.00  0.00     0.111 A 
ATOM     21  C   UNL A   1      35.816  20.638  25.097  1.00  0.00     0.050 A 
ATOM     22  C   UNL A   1      36.644  19.534  24.925  1.00  0.00     0.024 A 
ENDBRANCH  15  16
ENDBRANCH   9  15
ENDBRANCH   6   8
ENDBRANCH   5   6
ENDBRANCH   4   5
ENDBRANCH   3   4
ENDBRANCH   2   3
ENDBRANCH   1   2
BRANCH   1  23
ATOM     23  C   UNL A   1      32.625  29.264  24.774  1.00  0.00     0.188 C 
BRANCH  23  24
ATOM     24  O   UNL A   1      33.475  28.468  25.563  1.00  0.00    -0.376 OA
BRANCH  24  25
ATOM     25  C   UNL A   1      34.021  28.989  26.764  1.00  0.00     0.202 C 
BRANCH  25  26
ATOM     26  C   UNL A   1      33.720  30.388  27.331  1.00  0.00     0.261 C 
BRANCH  26  27
ATOM     27  O   UNL A   1      34.819  31.287  27.495  1.00  0.00    -0.460 OA
BRANCH  27  28
ATOM     28  C   UNL A   1      35.316  31.377  28.752  1.00  0.00     0.338 C 
ATOM     29  O   UNL A   1      34.801  31.918  29.723  1.00  0.00    -0.246 OA
BRANCH  28  30
ATOM     30  C   UNL A   1      36.531  30.553  28.841  1.00  0.00     0.060 A 
ATOM     31  C   UNL A   1      36.879  29.966  30.068  1.00  0.00     0.016 A 
ATOM     32  C   UNL A   1      37.335  30.387  27.715  1.00  0.00     0.016 A 
ATOM     33  C   UNL A   1      38.043  29.204  30.172  1.00  0.00     0.010 A 
ATOM     34  C   UNL A   1      38.514  29.651  27.830  1.00  0.00     0.010 A 
ATOM     35  C   UNL A   1      38.881  29.075  29.060  1.00  0.00    -0.014 A 
BRANCH  35  36
ATOM     36  C   UNL A   1      40.238  28.499  29.193  1.00  0.00     0.031 A 
ATOM     37  C   UNL A   1      41.368  29.420  29.549  1.00  0.00     0.074 A 
ATOM     38  C   UNL A   1      40.475  27.205  28.923  1.00  0.00     0.049 A 
ATOM     39  N   UNL A   1      42.656  29.202  29.527  1.00  0.00    -0.248 NA
ATOM     40  C   UNL A   1      40.987  30.778  29.969  1.00  0.00     0.031 C 
ATOM     41  C   UNL A   1      39.460  26.204  28.609  1.00  0.00     0.029 A 
ATOM     42  N   UNL A   1      41.664  26.526  28.830  1.00  0.00    -0.354 N 
ATOM     43  C   UNL A   1      43.242  30.405  29.896  1.00  0.00     0.074 A 
ATOM     44  C   UNL A   1      42.170  31.350  30.122  1.00  0.00     0.031 C 
ATOM     45  C   UNL A   1      40.072  25.044  28.317  1.00  0.00     0.029 A 
ATOM     46  C   UNL A   1      41.521  25.239  28.376  1.00  0.00     0.049 A 
ATOM     47  H   UNL A   1      42.535  26.922  29.067  1.00  0.00     0.167 HD
ATOM     48  C   UNL A   1      44.558  30.700  30.020  1.00  0.00     0.031 A 
ATOM     49  C   UNL A   1      42.451  24.339  28.000  1.00  0.00     0.031 A 
ATOM     50  C   UNL A   1      45.618  29.763  29.765  1.00  0.00     0.049 A 
ATOM     51  C   UNL A   1      43.910  24.704  28.074  1.00  0.00     0.074 A 
ATOM     52  C   UNL A   1      46.982  29.951  29.892  1.00  0.00     0.029 A 
ATOM     53  N   UNL A   1      45.430  28.465  29.312  1.00  0.00    -0.354 N 
ATOM     54  N   UNL A   1      44.461  25.832  28.455  1.00  0.00    -0.248 NA
ATOM     55  C   UNL A   1      44.876  23.672  27.672  1.00  0.00     0.031 C 
ATOM     56  C   UNL A   1      47.623  28.790  29.446  1.00  0.00     0.029 A 
ATOM     57  C   UNL A   1      46.656  27.852  29.117  1.00  0.00     0.049 A 
ATOM     58  H   UNL A   1      44.556  28.043  29.152  1.00  0.00     0.167 HD
ATOM     59  C   UNL A   1      45.835  25.635  28.366  1.00  0.00     0.074 A 
ATOM     60  C   UNL A   1      46.033  24.278  27.901  1.00  0.00     0.031 C 
ATOM     61  C   UNL A   1      46.839  26.499  28.656  1.00  0.00     0.031 A 
BRANCH  48  62
ATOM     62  C   UNL A   1      44.911  32.116  30.382  1.00  0.00    -0.014 A 
ATOM     63  C   UNL A   1      45.057  32.524  31.717  1.00  0.00     0.009 A 
ATOM     64  C   UNL A   1      45.093  33.063  29.361  1.00  0.00     0.009 A 
ATOM     65  C   UNL A   1      45.325  33.860  32.024  1.00  0.00     0.001 A 
ATOM     66  C   UNL A   1      45.396  34.390  29.668  1.00  0.00     0.001 A 
ATOM     67  C   UNL A   1      45.496  34.791  30.999  1.00  0.00     0.000 A 
ENDBRANCH  48  62
BRANCH  49  68
ATOM     68  C   UNL A   1      42.018  23.015  27.479  1.00  0.00    -0.014 A 
ATOM     69  C   UNL A   1      41.947  22.777  26.099  1.00  0.00     0.009 A 
ATOM     70  C   UNL A   1      41.698  21.973  28.365  1.00  0.00     0.009 A 
ATOM     71  C   UNL A   1      41.553  21.526  25.617  1.00  0.00     0.001 A 
ATOM     72  C   UNL A   1      41.333  20.716  27.881  1.00  0.00     0.001 A 
ATOM     73  C   UNL A   1      41.256  20.494  26.507  1.00  0.00     0.000 A 
ENDBRANCH  49  68
BRANCH  61  74
ATOM     74  C   UNL A   1      48.253  26.000  28.529  1.00  0.00    -0.014 A 
ATOM     75  C   UNL A   1      48.870  25.840  27.280  1.00  0.00     0.009 A 
ATOM     76  C   UNL A   1      49.006  25.768  29.693  1.00  0.00     0.009 A 
ATOM     77  C   UNL A   1      50.207  25.442  27.199  1.00  0.00     0.001 A 
ATOM     78  C   UNL A   1      50.349  25.401  29.611  1.00  0.00     0.001 A 
ATOM     79  C   UNL A   1      50.947  25.232  28.363  1.00  0.00     0.000 A 
ENDBRANCH  61  74
ENDBRANCH  35  36
ENDBRANCH  28  30
ENDBRANCH  27  28
ENDBRANCH  26  27
ENDBRANCH  25  26
ENDBRANCH  24  25
ENDBRANCH  23  24
ENDBRANCH   1  23
TORSDOF 19
ENDMDL
