MODEL 1
REMARK VINA RESULT:      -9.1      0.000      0.000
REMARK SMILES Cc1ccccc1C(=O)Nc1cc(C(=O)OCCOCCOCCOC(=O)c2ccc(-c3c4nc(c(-c5ccccc5)c5ccc([nH]5)c(-c5ccccc5)c5nc(c(-c6ccccc6)c6ccc3[nH]6)C=C5)C=C4)cc2)ccc1N1CC[NH+](CC(=O)Nc2ccc(F)cc2)CC1
REMARK SMILES IDX 20 1 19 2 18 3 17 4 16 5 14 6 15 7 13 8 11 9 12 10 78 11
REMARK SMILES IDX 77 12 76 13 10 14 8 15 9 16 7 18 1 19 2 20 3 21 4 22 6 23
REMARK SMILES IDX 5 24 79 25 80 26 95 27 81 28 94 29 82 30 83 32 84 33 85 34
REMARK SMILES IDX 86 35 87 37 88 38 93 39 89 40 92 41 90 42 91 43 21 44 22 45
REMARK SMILES IDX 23 46 24 47 25 48 26 49 27 50 28 51 29 52 75 53 30 54 74 55
REMARK SMILES IDX 31 56 32 57 33 58 68 59 34 60 73 61 67 62 69 63 35 64 72 65
REMARK SMILES IDX 66 66 65 67 36 69 58 70 43 71 57 72 44 73 47 74 56 75 70 76
REMARK SMILES IDX 45 77 46 78 55 80 71 81 48 82 37 83 38 84 42 85 39 86 41 87
REMARK SMILES IDX 40 88 59 89 60 90 64 91 61 92 63 93 62 94 49 95 50 96 54 97
REMARK SMILES IDX 51 98 53 99 52 100
REMARK H PARENT 10 17 82 31 86 36 69 68 47 79
REMARK Flexibility Score: inf
ROOT
ATOM      1  C   UNL A   1      44.183  17.795  26.235  1.00  0.00     0.188 C 
ENDROOT
BRANCH   1   2
ATOM      2  O   UNL A   1      44.852  18.207  25.062  1.00  0.00    -0.376 OA
BRANCH   2   3
ATOM      3  C   UNL A   1      45.885  19.129  25.334  1.00  0.00     0.202 C 
BRANCH   3   4
ATOM      4  C   UNL A   1      46.060  20.450  24.534  1.00  0.00     0.261 C 
BRANCH   4   5
ATOM      5  O   UNL A   1      44.973  21.594  24.389  1.00  0.00    -0.460 OA
BRANCH   5   6
ATOM      6  C   UNL A   1      44.474  22.901  24.651  1.00  0.00     0.338 C 
ATOM      7  O   UNL A   1      43.564  23.189  23.853  1.00  0.00    -0.246 OA
BRANCH   6   8
ATOM      8  C   UNL A   1      44.813  24.227  25.670  1.00  0.00     0.062 A 
ATOM      9  C   UNL A   1      46.288  26.170  26.544  1.00  0.00     0.065 A 
ATOM     10  C   UNL A   1      45.455  25.532  25.547  1.00  0.00     0.044 A 
ATOM     11  C   UNL A   1      46.371  25.525  27.818  1.00  0.00     0.061 A 
ATOM     12  C   UNL A   1      45.436  24.480  28.025  1.00  0.00     0.029 A 
ATOM     13  C   UNL A   1      44.704  23.851  27.003  1.00  0.00     0.018 A 
BRANCH   9  14
ATOM     14  N   UNL A   1      47.237  27.233  26.262  1.00  0.00    -0.320 N 
ATOM     15  C   UNL A   1      47.682  28.558  26.464  1.00  0.00     0.255 C 
ATOM     16  O   UNL A   1      48.779  28.795  25.920  1.00  0.00    -0.269 OA
ATOM     17  H   UNL A   1      47.880  26.842  25.627  1.00  0.00     0.170 HD
BRANCH  15  18
ATOM     18  C   UNL A   1      47.102  29.797  27.155  1.00  0.00     0.043 A 
ATOM     19  C   UNL A   1      49.120  29.944  29.120  1.00  0.00     0.045 C 
ATOM     20  C   UNL A   1      47.645  30.092  28.871  1.00  0.00    -0.038 A 
ATOM     21  C   UNL A   1      46.387  30.498  30.210  1.00  0.00     0.004 A 
ATOM     22  C   UNL A   1      44.570  30.628  29.795  1.00  0.00     0.000 A 
ATOM     23  C   UNL A   1      45.312  30.051  26.700  1.00  0.00     0.014 A 
ATOM     24  C   UNL A   1      44.013  30.393  28.035  1.00  0.00     0.001 A 
ENDBRANCH  15  18
ENDBRANCH   9  14
BRANCH  11  25
ATOM     25  N   UNL A   1      47.310  25.788  28.837  1.00  0.00    -0.359 N 
ATOM     26  C   UNL A   1      48.698  25.213  28.723  1.00  0.00     0.178 C 
ATOM     27  C   UNL A   1      46.954  26.053  30.231  1.00  0.00     0.178 C 
ATOM     28  C   UNL A   1      49.748  25.714  29.772  1.00  0.00     0.284 C 
ATOM     29  C   UNL A   1      48.039  26.933  30.871  1.00  0.00     0.284 C 
ATOM     30  N   UNL A   1      49.284  26.206  31.077  1.00  0.00    -0.324 N 
ATOM     31  H   UNL A   1      50.001  26.843  31.424  1.00  0.00     0.348 HD
BRANCH  30  32
ATOM     32  C   UNL A   1      49.290  25.262  32.214  1.00  0.00     0.364 C 
BRANCH  32  33
ATOM     33  C   UNL A   1      49.117  25.823  33.623  1.00  0.00     0.279 C 
ATOM     34  O   UNL A   1      49.763  26.828  33.955  1.00  0.00    -0.268 OA
ATOM     35  N   UNL A   1      48.281  25.317  34.584  1.00  0.00    -0.321 N 
ATOM     36  H   UNL A   1      48.131  25.968  35.308  1.00  0.00     0.170 HD
BRANCH  35  37
ATOM     37  C   UNL A   1      47.575  24.115  34.819  1.00  0.00     0.041 A 
ATOM     38  C   UNL A   1      46.296  24.259  35.392  1.00  0.00     0.029 A 
ATOM     39  C   UNL A   1      48.062  22.822  34.650  1.00  0.00     0.029 A 
ATOM     40  C   UNL A   1      45.573  23.155  35.860  1.00  0.00     0.041 A 
ATOM     41  C   UNL A   1      47.366  21.715  35.166  1.00  0.00     0.041 A 
ATOM     42  C   UNL A   1      46.131  21.892  35.773  1.00  0.00     0.123 A 
ATOM     43  F   UNL A   1      45.472  20.836  36.265  1.00  0.00    -0.207 F 
ENDBRANCH  35  37
ENDBRANCH  32  33
ENDBRANCH  30  32
ENDBRANCH  11  25
ENDBRANCH   6   8
ENDBRANCH   5   6
ENDBRANCH   4   5
ENDBRANCH   3   4
ENDBRANCH   2   3
ENDBRANCH   1   2
BRANCH   1  44
ATOM     44  C   UNL A   1      42.703  18.173  26.165  1.00  0.00     0.188 C 
BRANCH  44  45
ATOM     45  O   UNL A   1      42.342  19.222  27.065  1.00  0.00    -0.376 OA
BRANCH  45  46
ATOM     46  C   UNL A   1      42.534  20.551  26.583  1.00  0.00     0.202 C 
BRANCH  46  47
ATOM     47  C   UNL A   1      41.758  21.551  27.449  1.00  0.00     0.261 C 
BRANCH  47  48
ATOM     48  O   UNL A   1      41.509  22.779  26.735  1.00  0.00    -0.460 OA
BRANCH  48  49
ATOM     49  C   UNL A   1      40.203  23.159  26.687  1.00  0.00     0.338 C 
ATOM     50  O   UNL A   1      39.257  22.413  26.497  1.00  0.00    -0.246 OA
BRANCH  49  51
ATOM     51  C   UNL A   1      40.148  24.648  26.645  1.00  0.00     0.060 A 
ATOM     52  C   UNL A   1      41.265  25.360  26.254  1.00  0.00     0.016 A 
ATOM     53  C   UNL A   1      39.119  25.333  27.293  1.00  0.00     0.016 A 
ATOM     54  C   UNL A   1      41.420  26.669  26.727  1.00  0.00     0.010 A 
ATOM     55  C   UNL A   1      39.395  26.548  27.913  1.00  0.00     0.010 A 
ATOM     56  C   UNL A   1      40.641  27.173  27.775  1.00  0.00    -0.014 A 
BRANCH  56  57
ATOM     57  C   UNL A   1      40.858  28.321  28.750  1.00  0.00     0.031 A 
ATOM     58  C   UNL A   1      41.833  27.947  29.803  1.00  0.00     0.074 A 
ATOM     59  C   UNL A   1      40.180  29.480  29.178  1.00  0.00     0.049 A 
ATOM     60  N   UNL A   1      41.777  28.603  30.888  1.00  0.00    -0.248 NA
ATOM     61  C   UNL A   1      42.687  26.805  29.829  1.00  0.00     0.031 C 
ATOM     62  C   UNL A   1      40.829  30.720  29.689  1.00  0.00     0.029 A 
ATOM     63  N   UNL A   1      38.866  29.958  29.161  1.00  0.00    -0.354 N 
ATOM     64  C   UNL A   1      42.595  28.239  31.996  1.00  0.00     0.074 A 
ATOM     65  C   UNL A   1      43.261  26.990  31.020  1.00  0.00     0.031 C 
ATOM     66  C   UNL A   1      39.913  31.604  30.149  1.00  0.00     0.029 A 
ATOM     67  C   UNL A   1      38.597  31.098  29.871  1.00  0.00     0.049 A 
ATOM     68  H   UNL A   1      38.159  29.494  28.657  1.00  0.00     0.167 HD
ATOM     69  C   UNL A   1      42.759  28.924  33.729  1.00  0.00     0.031 A 
ATOM     70  C   UNL A   1      37.382  31.588  30.215  1.00  0.00     0.031 A 
ATOM     71  C   UNL A   1      41.986  30.302  34.483  1.00  0.00     0.049 A 
ATOM     72  C   UNL A   1      37.340  31.957  31.678  1.00  0.00     0.074 A 
ATOM     73  C   UNL A   1      42.248  31.692  34.332  1.00  0.00     0.029 A 
ATOM     74  N   UNL A   1      40.719  30.298  35.084  1.00  0.00    -0.354 N 
ATOM     75  N   UNL A   1      38.340  31.800  32.508  1.00  0.00    -0.248 NA
ATOM     76  C   UNL A   1      36.121  32.423  32.340  1.00  0.00     0.031 C 
ATOM     77  C   UNL A   1      41.027  32.398  34.392  1.00  0.00     0.029 A 
ATOM     78  C   UNL A   1      40.051  31.492  34.740  1.00  0.00     0.049 A 
ATOM     79  H   UNL A   1      40.356  29.581  35.651  1.00  0.00     0.167 HD
ATOM     80  C   UNL A   1      37.878  31.983  33.792  1.00  0.00     0.074 A 
ATOM     81  C   UNL A   1      36.504  32.432  33.626  1.00  0.00     0.031 C 
ATOM     82  C   UNL A   1      38.622  31.710  34.909  1.00  0.00     0.031 A 
BRANCH  69  83
ATOM     83  C   UNL A   1      44.101  28.886  34.953  1.00  0.00    -0.014 A 
ATOM     84  C   UNL A   1      45.366  29.346  34.482  1.00  0.00     0.009 A 
ATOM     85  C   UNL A   1      44.188  28.139  36.149  1.00  0.00     0.009 A 
ATOM     86  C   UNL A   1      46.603  28.949  34.999  1.00  0.00     0.001 A 
ATOM     87  C   UNL A   1      45.436  27.666  36.629  1.00  0.00     0.001 A 
ATOM     88  C   UNL A   1      46.637  28.043  36.033  1.00  0.00     0.000 A 
ENDBRANCH  69  83
BRANCH  70  89
ATOM     89  C   UNL A   1      36.210  31.203  29.358  1.00  0.00    -0.014 A 
ATOM     90  C   UNL A   1      35.415  32.245  28.823  1.00  0.00     0.009 A 
ATOM     91  C   UNL A   1      35.968  29.908  28.885  1.00  0.00     0.009 A 
ATOM     92  C   UNL A   1      34.484  32.016  27.797  1.00  0.00     0.001 A 
ATOM     93  C   UNL A   1      35.031  29.680  27.856  1.00  0.00     0.001 A 
ATOM     94  C   UNL A   1      34.317  30.736  27.290  1.00  0.00     0.000 A 
ENDBRANCH  70  89
BRANCH  82  95
ATOM     95  C   UNL A   1      38.105  31.788  36.309  1.00  0.00    -0.014 A 
ATOM     96  C   UNL A   1      37.797  30.679  37.103  1.00  0.00     0.009 A 
ATOM     97  C   UNL A   1      38.032  33.064  36.907  1.00  0.00     0.009 A 
ATOM     98  C   UNL A   1      37.393  30.849  38.431  1.00  0.00     0.001 A 
ATOM     99  C   UNL A   1      37.681  33.232  38.240  1.00  0.00     0.001 A 
ATOM    100  C   UNL A   1      37.349  32.121  39.001  1.00  0.00     0.000 A 
ENDBRANCH  82  95
ENDBRANCH  56  57
ENDBRANCH  49  51
ENDBRANCH  48  49
ENDBRANCH  47  48
ENDBRANCH  46  47
ENDBRANCH  45  46
ENDBRANCH  44  45
ENDBRANCH   1  44
TORSDOF 23
ENDMDL
MODEL 2
REMARK VINA RESULT:      -7.4      8.329     13.735
REMARK SMILES Cc1ccccc1C(=O)Nc1cc(C(=O)OCCOCCOCCOC(=O)c2ccc(-c3c4nc(c(-c5ccccc5)c5ccc([nH]5)c(-c5ccccc5)c5nc(c(-c6ccccc6)c6ccc3[nH]6)C=C5)C=C4)cc2)ccc1N1CC[NH+](CC(=O)Nc2ccc(F)cc2)CC1
REMARK SMILES IDX 20 1 19 2 18 3 17 4 16 5 14 6 15 7 13 8 11 9 12 10 78 11
REMARK SMILES IDX 77 12 76 13 10 14 8 15 9 16 7 18 1 19 2 20 3 21 4 22 6 23
REMARK SMILES IDX 5 24 79 25 80 26 95 27 81 28 94 29 82 30 83 32 84 33 85 34
REMARK SMILES IDX 86 35 87 37 88 38 93 39 89 40 92 41 90 42 91 43 21 44 22 45
REMARK SMILES IDX 23 46 24 47 25 48 26 49 27 50 28 51 29 52 75 53 30 54 74 55
REMARK SMILES IDX 31 56 32 57 33 58 68 59 34 60 73 61 67 62 69 63 35 64 72 65
REMARK SMILES IDX 66 66 65 67 36 69 58 70 43 71 57 72 44 73 47 74 56 75 70 76
REMARK SMILES IDX 45 77 46 78 55 80 71 81 48 82 37 83 38 84 42 85 39 86 41 87
REMARK SMILES IDX 40 88 59 89 60 90 64 91 61 92 63 93 62 94 49 95 50 96 54 97
REMARK SMILES IDX 51 98 53 99 52 100
REMARK H PARENT 10 17 82 31 86 36 69 68 47 79
REMARK Flexibility Score: inf
ROOT
ATOM      1  C   UNL A   1      42.944  26.936  27.934  1.00  0.00     0.188 C 
ENDROOT
BRANCH   1   2
ATOM      2  O   UNL A   1      42.940  27.162  29.327  1.00  0.00    -0.376 OA
BRANCH   2   3
ATOM      3  C   UNL A   1      42.663  28.507  29.648  1.00  0.00     0.202 C 
BRANCH   3   4
ATOM      4  C   UNL A   1      41.798  28.915  30.873  1.00  0.00     0.261 C 
BRANCH   4   5
ATOM      5  O   UNL A   1      40.249  29.250  30.839  1.00  0.00    -0.460 OA
BRANCH   5   6
ATOM      6  C   UNL A   1      39.153  30.130  30.612  1.00  0.00     0.338 C 
ATOM      7  O   UNL A   1      38.690  30.537  31.693  1.00  0.00    -0.246 OA
BRANCH   6   8
ATOM      8  C   UNL A   1      38.225  30.720  29.308  1.00  0.00     0.062 A 
ATOM      9  C   UNL A   1      36.137  31.840  28.259  1.00  0.00     0.065 A 
ATOM     10  C   UNL A   1      37.350  31.859  29.049  1.00  0.00     0.044 A 
ATOM     11  C   UNL A   1      35.849  30.628  27.555  1.00  0.00     0.061 A 
ATOM     12  C   UNL A   1      36.908  29.687  27.519  1.00  0.00     0.029 A 
ATOM     13  C   UNL A   1      38.033  29.720  28.362  1.00  0.00     0.018 A 
BRANCH   9  14
ATOM     14  N   UNL A   1      35.081  32.833  28.353  1.00  0.00    -0.320 N 
ATOM     15  C   UNL A   1      34.245  33.655  29.139  1.00  0.00     0.255 C 
ATOM     16  O   UNL A   1      33.562  34.450  28.463  1.00  0.00    -0.269 OA
ATOM     17  H   UNL A   1      34.827  33.027  27.421  1.00  0.00     0.170 HD
BRANCH  15  18
ATOM     18  C   UNL A   1      33.940  33.765  30.637  1.00  0.00     0.043 A 
ATOM     19  C   UNL A   1      33.065  36.443  30.511  1.00  0.00     0.045 C 
ATOM     20  C   UNL A   1      33.853  35.453  31.322  1.00  0.00    -0.038 A 
ATOM     21  C   UNL A   1      34.759  35.880  32.915  1.00  0.00     0.004 A 
ATOM     22  C   UNL A   1      35.737  34.576  33.829  1.00  0.00     0.000 A 
ATOM     23  C   UNL A   1      34.802  32.423  31.604  1.00  0.00     0.014 A 
ATOM     24  C   UNL A   1      35.778  32.835  33.174  1.00  0.00     0.001 A 
ENDBRANCH  15  18
ENDBRANCH   9  14
BRANCH  11  25
ATOM     25  N   UNL A   1      34.622  30.270  26.959  1.00  0.00    -0.359 N 
ATOM     26  C   UNL A   1      33.336  30.580  27.681  1.00  0.00     0.178 C 
ATOM     27  C   UNL A   1      34.457  29.152  26.030  1.00  0.00     0.178 C 
ATOM     28  C   UNL A   1      32.013  30.352  26.875  1.00  0.00     0.284 C 
ATOM     29  C   UNL A   1      33.279  29.446  25.089  1.00  0.00     0.284 C 
ATOM     30  N   UNL A   1      31.997  29.376  25.777  1.00  0.00    -0.324 N 
ATOM     31  H   UNL A   1      31.249  29.657  25.142  1.00  0.00     0.348 HD
BRANCH  30  32
ATOM     32  C   UNL A   1      31.505  28.013  26.069  1.00  0.00     0.364 C 
BRANCH  32  33
ATOM     33  C   UNL A   1      31.014  27.153  24.908  1.00  0.00     0.279 C 
ATOM     34  O   UNL A   1      30.335  27.681  24.013  1.00  0.00    -0.268 OA
ATOM     35  N   UNL A   1      31.269  25.817  24.742  1.00  0.00    -0.321 N 
ATOM     36  H   UNL A   1      31.087  25.529  23.818  1.00  0.00     0.170 HD
BRANCH  35  37
ATOM     37  C   UNL A   1      31.722  24.740  25.538  1.00  0.00     0.041 A 
ATOM     38  C   UNL A   1      33.086  24.773  25.892  1.00  0.00     0.029 A 
ATOM     39  C   UNL A   1      30.992  23.612  25.898  1.00  0.00     0.029 A 
ATOM     40  C   UNL A   1      33.712  23.679  26.503  1.00  0.00     0.041 A 
ATOM     41  C   UNL A   1      31.625  22.490  26.462  1.00  0.00     0.041 A 
ATOM     42  C   UNL A   1      32.981  22.531  26.752  1.00  0.00     0.123 A 
ATOM     43  F   UNL A   1      33.582  21.461  27.287  1.00  0.00    -0.207 F 
ENDBRANCH  35  37
ENDBRANCH  32  33
ENDBRANCH  30  32
ENDBRANCH  11  25
ENDBRANCH   6   8
ENDBRANCH   5   6
ENDBRANCH   4   5
ENDBRANCH   3   4
ENDBRANCH   2   3
ENDBRANCH   1   2
BRANCH   1  44
ATOM     44  C   UNL A   1      43.721  28.040  27.216  1.00  0.00     0.188 C 
BRANCH  44  45
ATOM     45  O   UNL A   1      45.098  27.722  27.009  1.00  0.00    -0.376 OA
BRANCH  45  46
ATOM     46  C   UNL A   1      46.039  28.679  27.493  1.00  0.00     0.202 C 
BRANCH  46  47
ATOM     47  C   UNL A   1      46.347  29.720  26.409  1.00  0.00     0.261 C 
BRANCH  47  48
ATOM     48  O   UNL A   1      46.304  31.060  26.942  1.00  0.00    -0.460 OA
BRANCH  48  49
ATOM     49  C   UNL A   1      45.219  31.791  26.565  1.00  0.00     0.338 C 
ATOM     50  O   UNL A   1      44.147  31.332  26.209  1.00  0.00    -0.246 OA
BRANCH  49  51
ATOM     51  C   UNL A   1      45.641  33.213  26.414  1.00  0.00     0.060 A 
ATOM     52  C   UNL A   1      46.601  33.732  27.261  1.00  0.00     0.016 A 
ATOM     53  C   UNL A   1      44.867  34.100  25.666  1.00  0.00     0.016 A 
ATOM     54  C   UNL A   1      46.596  35.110  27.508  1.00  0.00     0.010 A 
ATOM     55  C   UNL A   1      44.753  35.423  26.084  1.00  0.00     0.010 A 
ATOM     56  C   UNL A   1      45.512  35.921  27.150  1.00  0.00    -0.014 A 
BRANCH  56  57
ATOM     57  C   UNL A   1      45.042  37.279  27.652  1.00  0.00     0.031 A 
ATOM     58  C   UNL A   1      45.726  38.379  26.929  1.00  0.00     0.074 A 
ATOM     59  C   UNL A   1      44.441  37.824  28.803  1.00  0.00     0.049 A 
ATOM     60  N   UNL A   1      45.773  39.502  27.518  1.00  0.00    -0.248 NA
ATOM     61  C   UNL A   1      46.522  38.279  25.750  1.00  0.00     0.031 C 
ATOM     62  C   UNL A   1      43.566  39.030  28.833  1.00  0.00     0.029 A 
ATOM     63  N   UNL A   1      44.285  37.457  30.144  1.00  0.00    -0.354 N 
ATOM     64  C   UNL A   1      46.508  40.584  26.953  1.00  0.00     0.074 A 
ATOM     65  C   UNL A   1      46.894  39.555  25.630  1.00  0.00     0.031 C 
ATOM     66  C   UNL A   1      43.255  39.385  30.101  1.00  0.00     0.029 A 
ATOM     67  C   UNL A   1      43.773  38.394  31.002  1.00  0.00     0.049 A 
ATOM     68  H   UNL A   1      44.534  36.559  30.461  1.00  0.00     0.167 HD
ATOM     69  C   UNL A   1      46.833  42.332  27.532  1.00  0.00     0.031 A 
ATOM     70  C   UNL A   1      43.780  38.363  32.357  1.00  0.00     0.031 A 
ATOM     71  C   UNL A   1      46.243  43.192  28.938  1.00  0.00     0.049 A 
ATOM     72  C   UNL A   1      44.262  39.675  32.926  1.00  0.00     0.074 A 
ATOM     73  C   UNL A   1      44.966  43.767  29.188  1.00  0.00     0.029 A 
ATOM     74  N   UNL A   1      46.805  43.138  30.222  1.00  0.00    -0.354 N 
ATOM     75  N   UNL A   1      44.645  40.698  32.204  1.00  0.00    -0.248 NA
ATOM     76  C   UNL A   1      44.460  39.888  34.361  1.00  0.00     0.031 C 
ATOM     77  C   UNL A   1      44.646  43.596  30.553  1.00  0.00     0.029 A 
ATOM     78  C   UNL A   1      45.764  43.082  31.170  1.00  0.00     0.049 A 
ATOM     79  H   UNL A   1      47.768  43.138  30.426  1.00  0.00     0.167 HD
ATOM     80  C   UNL A   1      45.264  41.611  33.027  1.00  0.00     0.074 A 
ATOM     81  C   UNL A   1      45.064  41.086  34.370  1.00  0.00     0.031 C 
ATOM     82  C   UNL A   1      45.943  42.707  32.566  1.00  0.00     0.031 A 
BRANCH  69  83
ATOM     83  C   UNL A   1      47.263  43.866  26.656  1.00  0.00    -0.014 A 
ATOM     84  C   UNL A   1      46.316  44.294  25.680  1.00  0.00     0.009 A 
ATOM     85  C   UNL A   1      48.526  44.482  26.516  1.00  0.00     0.009 A 
ATOM     86  C   UNL A   1      46.619  45.075  24.561  1.00  0.00     0.001 A 
ATOM     87  C   UNL A   1      48.863  45.206  25.344  1.00  0.00     0.001 A 
ATOM     88  C   UNL A   1      47.920  45.471  24.354  1.00  0.00     0.000 A 
ENDBRANCH  69  83
BRANCH  70  89
ATOM     89  C   UNL A   1      43.864  37.019  33.020  1.00  0.00    -0.014 A 
ATOM     90  C   UNL A   1      42.651  36.340  33.290  1.00  0.00     0.009 A 
ATOM     91  C   UNL A   1      45.052  36.299  33.205  1.00  0.00     0.009 A 
ATOM     92  C   UNL A   1      42.623  34.981  33.640  1.00  0.00     0.001 A 
ATOM     93  C   UNL A   1      45.020  34.935  33.559  1.00  0.00     0.001 A 
ATOM     94  C   UNL A   1      43.809  34.269  33.742  1.00  0.00     0.000 A 
ENDBRANCH  70  89
BRANCH  82  95
ATOM     95  C   UNL A   1      46.721  43.646  33.430  1.00  0.00    -0.014 A 
ATOM     96  C   UNL A   1      46.153  44.523  34.359  1.00  0.00     0.009 A 
ATOM     97  C   UNL A   1      48.129  43.559  33.384  1.00  0.00     0.009 A 
ATOM     98  C   UNL A   1      46.967  45.309  35.180  1.00  0.00     0.001 A 
ATOM     99  C   UNL A   1      48.938  44.301  34.234  1.00  0.00     0.001 A 
ATOM    100  C   UNL A   1      48.355  45.189  35.126  1.00  0.00     0.000 A 
ENDBRANCH  82  95
ENDBRANCH  56  57
ENDBRANCH  49  51
ENDBRANCH  48  49
ENDBRANCH  47  48
ENDBRANCH  46  47
ENDBRANCH  45  46
ENDBRANCH  44  45
ENDBRANCH   1  44
TORSDOF 23
ENDMDL
MODEL 3
REMARK VINA RESULT:      -7.3      9.010     16.942
REMARK SMILES Cc1ccccc1C(=O)Nc1cc(C(=O)OCCOCCOCCOC(=O)c2ccc(-c3c4nc(c(-c5ccccc5)c5ccc([nH]5)c(-c5ccccc5)c5nc(c(-c6ccccc6)c6ccc3[nH]6)C=C5)C=C4)cc2)ccc1N1CC[NH+](CC(=O)Nc2ccc(F)cc2)CC1
REMARK SMILES IDX 20 1 19 2 18 3 17 4 16 5 14 6 15 7 13 8 11 9 12 10 78 11
REMARK SMILES IDX 77 12 76 13 10 14 8 15 9 16 7 18 1 19 2 20 3 21 4 22 6 23
REMARK SMILES IDX 5 24 79 25 80 26 95 27 81 28 94 29 82 30 83 32 84 33 85 34
REMARK SMILES IDX 86 35 87 37 88 38 93 39 89 40 92 41 90 42 91 43 21 44 22 45
REMARK SMILES IDX 23 46 24 47 25 48 26 49 27 50 28 51 29 52 75 53 30 54 74 55
REMARK SMILES IDX 31 56 32 57 33 58 68 59 34 60 73 61 67 62 69 63 35 64 72 65
REMARK SMILES IDX 66 66 65 67 36 69 58 70 43 71 57 72 44 73 47 74 56 75 70 76
REMARK SMILES IDX 45 77 46 78 55 80 71 81 48 82 37 83 38 84 42 85 39 86 41 87
REMARK SMILES IDX 40 88 59 89 60 90 64 91 61 92 63 93 62 94 49 95 50 96 54 97
REMARK SMILES IDX 51 98 53 99 52 100
REMARK H PARENT 10 17 82 31 86 36 69 68 47 79
REMARK Flexibility Score: inf
ROOT
ATOM      1  C   UNL A   1      45.262  31.659  43.846  1.00  0.00     0.188 C 
ENDROOT
BRANCH   1   2
ATOM      2  O   UNL A   1      45.348  30.305  44.234  1.00  0.00    -0.376 OA
BRANCH   2   3
ATOM      3  C   UNL A   1      44.915  29.430  43.216  1.00  0.00     0.202 C 
BRANCH   3   4
ATOM      4  C   UNL A   1      43.412  29.153  42.934  1.00  0.00     0.261 C 
BRANCH   4   5
ATOM      5  O   UNL A   1      42.368  30.203  42.370  1.00  0.00    -0.460 OA
BRANCH   5   6
ATOM      6  C   UNL A   1      41.540  31.355  42.501  1.00  0.00     0.338 C 
ATOM      7  O   UNL A   1      41.575  31.786  43.667  1.00  0.00    -0.246 OA
BRANCH   6   8
ATOM      8  C   UNL A   1      40.444  32.265  41.563  1.00  0.00     0.062 A 
ATOM      9  C   UNL A   1      38.298  32.575  40.144  1.00  0.00     0.065 A 
ATOM     10  C   UNL A   1      38.997  32.347  41.391  1.00  0.00     0.044 A 
ATOM     11  C   UNL A   1      39.104  32.889  39.005  1.00  0.00     0.061 A 
ATOM     12  C   UNL A   1      40.462  33.181  39.291  1.00  0.00     0.029 A 
ATOM     13  C   UNL A   1      41.106  32.872  40.502  1.00  0.00     0.018 A 
BRANCH   9  14
ATOM     14  N   UNL A   1      36.903  32.242  39.912  1.00  0.00    -0.320 N 
ATOM     15  C   UNL A   1      35.533  32.509  40.123  1.00  0.00     0.255 C 
ATOM     16  O   UNL A   1      34.782  31.793  39.432  1.00  0.00    -0.269 OA
ATOM     17  H   UNL A   1      36.922  31.451  39.327  1.00  0.00     0.170 HD
BRANCH  15  18
ATOM     18  C   UNL A   1      34.746  33.444  41.048  1.00  0.00     0.043 A 
ATOM     19  C   UNL A   1      35.799  32.369  43.434  1.00  0.00     0.045 C 
ATOM     20  C   UNL A   1      34.554  32.897  42.777  1.00  0.00    -0.038 A 
ATOM     21  C   UNL A   1      32.869  32.959  43.613  1.00  0.00     0.004 A 
ATOM     22  C   UNL A   1      31.377  33.606  42.691  1.00  0.00     0.000 A 
ATOM     23  C   UNL A   1      33.297  34.213  40.160  1.00  0.00     0.014 A 
ATOM     24  C   UNL A   1      31.576  34.228  40.949  1.00  0.00     0.001 A 
ENDBRANCH  15  18
ENDBRANCH   9  14
BRANCH  11  25
ATOM     25  N   UNL A   1      38.697  32.881  37.655  1.00  0.00    -0.359 N 
ATOM     26  C   UNL A   1      38.782  31.596  36.871  1.00  0.00     0.178 C 
ATOM     27  C   UNL A   1      38.748  34.048  36.775  1.00  0.00     0.178 C 
ATOM     28  C   UNL A   1      38.121  31.602  35.452  1.00  0.00     0.284 C 
ATOM     29  C   UNL A   1      37.665  33.915  35.694  1.00  0.00     0.284 C 
ATOM     30  N   UNL A   1      37.981  32.873  34.727  1.00  0.00    -0.324 N 
ATOM     31  H   UNL A   1      37.203  32.759  34.077  1.00  0.00     0.348 HD
BRANCH  30  32
ATOM     32  C   UNL A   1      39.019  33.220  33.732  1.00  0.00     0.364 C 
BRANCH  32  33
ATOM     33  C   UNL A   1      39.263  32.258  32.573  1.00  0.00     0.279 C 
ATOM     34  O   UNL A   1      40.318  31.605  32.545  1.00  0.00    -0.268 OA
ATOM     35  N   UNL A   1      38.400  32.028  31.534  1.00  0.00    -0.321 N 
ATOM     36  H   UNL A   1      38.631  31.201  31.053  1.00  0.00     0.170 HD
BRANCH  35  37
ATOM     37  C   UNL A   1      37.269  32.656  30.965  1.00  0.00     0.041 A 
ATOM     38  C   UNL A   1      36.067  32.519  31.686  1.00  0.00     0.029 A 
ATOM     39  C   UNL A   1      37.207  33.284  29.724  1.00  0.00     0.029 A 
ATOM     40  C   UNL A   1      34.837  32.915  31.145  1.00  0.00     0.041 A 
ATOM     41  C   UNL A   1      35.971  33.635  29.153  1.00  0.00     0.041 A 
ATOM     42  C   UNL A   1      34.796  33.439  29.865  1.00  0.00     0.123 A 
ATOM     43  F   UNL A   1      33.620  33.771  29.318  1.00  0.00    -0.207 F 
ENDBRANCH  35  37
ENDBRANCH  32  33
ENDBRANCH  30  32
ENDBRANCH  11  25
ENDBRANCH   6   8
ENDBRANCH   5   6
ENDBRANCH   4   5
ENDBRANCH   3   4
ENDBRANCH   2   3
ENDBRANCH   1   2
BRANCH   1  44
ATOM     44  C   UNL A   1      45.901  31.862  42.472  1.00  0.00     0.188 C 
BRANCH  44  45
ATOM     45  O   UNL A   1      45.006  32.415  41.505  1.00  0.00    -0.376 OA
BRANCH  45  46
ATOM     46  C   UNL A   1      45.347  32.189  40.139  1.00  0.00     0.202 C 
BRANCH  46  47
ATOM     47  C   UNL A   1      44.603  33.179  39.233  1.00  0.00     0.261 C 
BRANCH  47  48
ATOM     48  O   UNL A   1      44.233  34.373  39.953  1.00  0.00    -0.460 OA
BRANCH  48  49
ATOM     49  C   UNL A   1      43.498  35.267  39.239  1.00  0.00     0.338 C 
ATOM     50  O   UNL A   1      43.304  35.222  38.035  1.00  0.00    -0.246 OA
BRANCH  49  51
ATOM     51  C   UNL A   1      43.194  36.434  40.117  1.00  0.00     0.060 A 
ATOM     52  C   UNL A   1      43.893  36.598  41.297  1.00  0.00     0.016 A 
ATOM     53  C   UNL A   1      42.019  37.163  39.936  1.00  0.00     0.016 A 
ATOM     54  C   UNL A   1      43.280  37.297  42.343  1.00  0.00     0.010 A 
ATOM     55  C   UNL A   1      41.354  37.669  41.049  1.00  0.00     0.010 A 
ATOM     56  C   UNL A   1      41.911  37.593  42.331  1.00  0.00    -0.014 A 
BRANCH  56  57
ATOM     57  C   UNL A   1      40.926  37.919  43.445  1.00  0.00     0.031 A 
ATOM     58  C   UNL A   1      40.207  36.702  43.892  1.00  0.00     0.074 A 
ATOM     59  C   UNL A   1      40.231  39.041  43.937  1.00  0.00     0.049 A 
ATOM     60  N   UNL A   1      39.089  36.882  44.465  1.00  0.00    -0.248 NA
ATOM     61  C   UNL A   1      40.511  35.346  43.570  1.00  0.00     0.031 C 
ATOM     62  C   UNL A   1      39.796  39.235  45.349  1.00  0.00     0.029 A 
ATOM     63  N   UNL A   1      39.857  40.301  43.459  1.00  0.00    -0.354 N 
ATOM     64  C   UNL A   1      38.274  35.770  44.826  1.00  0.00     0.074 A 
ATOM     65  C   UNL A   1      39.502  34.741  44.200  1.00  0.00     0.031 C 
ATOM     66  C   UNL A   1      39.032  40.344  45.483  1.00  0.00     0.029 A 
ATOM     67  C   UNL A   1      38.999  41.042  44.228  1.00  0.00     0.049 A 
ATOM     68  H   UNL A   1      40.197  40.644  42.601  1.00  0.00     0.167 HD
ATOM     69  C   UNL A   1      36.590  35.642  45.629  1.00  0.00     0.031 A 
ATOM     70  C   UNL A   1      38.304  42.145  43.859  1.00  0.00     0.031 A 
ATOM     71  C   UNL A   1      35.535  36.887  46.262  1.00  0.00     0.049 A 
ATOM     72  C   UNL A   1      36.854  42.032  44.263  1.00  0.00     0.074 A 
ATOM     73  C   UNL A   1      35.621  37.629  47.473  1.00  0.00     0.029 A 
ATOM     74  N   UNL A   1      34.625  37.644  45.510  1.00  0.00    -0.354 N 
ATOM     75  N   UNL A   1      36.334  40.994  44.868  1.00  0.00    -0.248 NA
ATOM     76  C   UNL A   1      35.854  43.039  43.905  1.00  0.00     0.031 C 
ATOM     77  C   UNL A   1      35.177  38.948  47.235  1.00  0.00     0.029 A 
ATOM     78  C   UNL A   1      34.670  38.981  45.956  1.00  0.00     0.049 A 
ATOM     79  H   UNL A   1      34.051  37.300  44.789  1.00  0.00     0.167 HD
ATOM     80  C   UNL A   1      34.963  41.111  44.843  1.00  0.00     0.074 A 
ATOM     81  C   UNL A   1      34.719  42.434  44.289  1.00  0.00     0.031 C 
ATOM     82  C   UNL A   1      34.111  40.110  45.225  1.00  0.00     0.031 A 
BRANCH  69  83
ATOM     83  C   UNL A   1      35.772  34.330  46.584  1.00  0.00    -0.014 A 
ATOM     84  C   UNL A   1      36.629  33.287  47.044  1.00  0.00     0.009 A 
ATOM     85  C   UNL A   1      34.403  33.985  46.622  1.00  0.00     0.009 A 
ATOM     86  C   UNL A   1      36.221  31.978  47.312  1.00  0.00     0.001 A 
ATOM     87  C   UNL A   1      33.991  32.641  46.812  1.00  0.00     0.001 A 
ATOM     88  C   UNL A   1      34.903  31.635  47.121  1.00  0.00     0.000 A 
ENDBRANCH  69  83
BRANCH  70  89
ATOM     89  C   UNL A   1      38.853  42.966  42.728  1.00  0.00    -0.014 A 
ATOM     90  C   UNL A   1      39.301  44.276  43.023  1.00  0.00     0.009 A 
ATOM     91  C   UNL A   1      39.144  42.464  41.453  1.00  0.00     0.009 A 
ATOM     92  C   UNL A   1      40.081  45.015  42.119  1.00  0.00     0.001 A 
ATOM     93  C   UNL A   1      39.926  43.208  40.547  1.00  0.00     0.001 A 
ATOM     94  C   UNL A   1      40.421  44.466  40.891  1.00  0.00     0.000 A 
ENDBRANCH  70  89
BRANCH  82  95
ATOM     95  C   UNL A   1      32.623  40.169  45.098  1.00  0.00    -0.014 A 
ATOM     96  C   UNL A   1      31.880  39.459  44.149  1.00  0.00     0.009 A 
ATOM     97  C   UNL A   1      31.914  40.903  46.072  1.00  0.00     0.009 A 
ATOM     98  C   UNL A   1      30.483  39.517  44.156  1.00  0.00     0.001 A 
ATOM     99  C   UNL A   1      30.526  40.921  46.113  1.00  0.00     0.001 A 
ATOM    100  C   UNL A   1      29.809  40.235  45.143  1.00  0.00     0.000 A 
ENDBRANCH  82  95
ENDBRANCH  56  57
ENDBRANCH  49  51
ENDBRANCH  48  49
ENDBRANCH  47  48
ENDBRANCH  46  47
ENDBRANCH  45  46
ENDBRANCH  44  45
ENDBRANCH   1  44
TORSDOF 23
ENDMDL
