MODEL 1
REMARK VINA RESULT:     -10.2      0.000      0.000
REMARK SMILES CCn1c(N2CCC(C(=O)OCCOCCOCCOC(=O)c3ccc(-c4c5nc(c(-c6ccccc6)c6ccc([nH]6)c(-c6ccccc6)c6nc(c(-c7ccccc7)c7ccc4[nH]7)C=C6)C=C5)cc3)CC2)nc2cc(C)ccc21
REMARK SMILES IDX 15 1 14 2 13 3 12 4 11 5 9 6 10 7 8 8 5 9 6 10 72 11 7 12
REMARK SMILES IDX 71 13 4 14 3 15 80 16 73 17 74 18 79 19 75 20 78 21 76 22
REMARK SMILES IDX 77 23 2 24 1 25 16 26 17 27 18 28 19 29 20 30 21 31 22 32
REMARK SMILES IDX 23 33 24 34 70 35 25 36 69 37 26 38 27 39 28 40 63 41 29 42
REMARK SMILES IDX 68 43 62 44 64 45 30 46 67 47 61 48 60 49 31 51 53 52 38 53
REMARK SMILES IDX 52 54 39 55 42 56 51 57 65 58 40 59 41 60 50 62 66 63 43 64
REMARK SMILES IDX 32 65 33 66 37 67 34 68 36 69 35 70 54 71 55 72 59 73 56 74
REMARK SMILES IDX 58 75 57 76 44 77 45 78 49 79 46 80 48 81 47 82
REMARK H PARENT 64 50 42 61
REMARK Flexibility Score: inf
ROOT
ATOM      1  C   UNL A   1      33.072  33.883  27.854  1.00  0.00     0.188 C 
ENDROOT
BRANCH   1   2
ATOM      2  O   UNL A   1      31.811  33.289  27.608  1.00  0.00    -0.376 OA
BRANCH   2   3
ATOM      3  C   UNL A   1      31.562  32.717  26.331  1.00  0.00     0.202 C 
BRANCH   3   4
ATOM      4  C   UNL A   1      31.294  31.210  26.294  1.00  0.00     0.261 C 
BRANCH   4   5
ATOM      5  O   UNL A   1      32.127  30.470  27.223  1.00  0.00    -0.463 OA
BRANCH   5   6
ATOM      6  C   UNL A   1      33.041  29.666  26.639  1.00  0.00     0.309 C 
ATOM      7  O   UNL A   1      34.251  29.786  26.832  1.00  0.00    -0.252 OA
BRANCH   6   8
ATOM      8  C   UNL A   1      32.515  28.535  25.754  1.00  0.00     0.103 C 
ATOM      9  N   UNL A   1      31.935  25.895  24.726  1.00  0.00    -0.342 N 
ATOM     10  C   UNL A   1      32.148  27.003  23.792  1.00  0.00     0.120 C 
ATOM     11  C   UNL A   1      31.479  26.279  26.055  1.00  0.00     0.120 C 
ATOM     12  C   UNL A   1      33.053  28.109  24.384  1.00  0.00     0.037 C 
ATOM     13  C   UNL A   1      32.432  27.300  26.651  1.00  0.00     0.037 C 
BRANCH   9  14
ATOM     14  C   UNL A   1      32.759  24.828  24.637  1.00  0.00     0.206 A 
ATOM     15  N   UNL A   1      32.336  23.532  24.895  1.00  0.00    -0.310 N 
ATOM     16  C   UNL A   1      33.463  22.738  24.912  1.00  0.00     0.070 A 
ATOM     17  N   UNL A   1      34.027  24.870  24.322  1.00  0.00    -0.213 NA
ATOM     18  C   UNL A   1      34.487  23.605  24.526  1.00  0.00     0.091 A 
ATOM     19  C   UNL A   1      33.719  21.394  25.202  1.00  0.00     0.029 A 
ATOM     20  C   UNL A   1      35.799  23.134  24.402  1.00  0.00     0.034 A 
ATOM     21  C   UNL A   1      35.035  20.937  25.069  1.00  0.00     0.006 A 
ATOM     22  C   UNL A   1      36.070  21.785  24.667  1.00  0.00    -0.049 A 
ATOM     23  C   UNL A   1      37.475  21.282  24.533  1.00  0.00     0.044 C 
BRANCH  15  24
ATOM     24  C   UNL A   1      30.939  23.152  25.009  1.00  0.00     0.122 C 
ATOM     25  C   UNL A   1      30.422  22.652  26.347  1.00  0.00     0.028 C 
ENDBRANCH  15  24
ENDBRANCH   9  14
ENDBRANCH   6   8
ENDBRANCH   5   6
ENDBRANCH   4   5
ENDBRANCH   3   4
ENDBRANCH   2   3
ENDBRANCH   1   2
BRANCH   1  26
ATOM     26  C   UNL A   1      33.159  35.083  28.805  1.00  0.00     0.188 C 
BRANCH  26  27
ATOM     27  O   UNL A   1      34.140  35.165  29.816  1.00  0.00    -0.376 OA
BRANCH  27  28
ATOM     28  C   UNL A   1      34.111  34.172  30.827  1.00  0.00     0.202 C 
BRANCH  28  29
ATOM     29  C   UNL A   1      35.268  33.156  30.848  1.00  0.00     0.261 C 
BRANCH  29  30
ATOM     30  O   UNL A   1      35.208  32.234  29.742  1.00  0.00    -0.460 OA
BRANCH  30  31
ATOM     31  C   UNL A   1      36.193  32.365  28.803  1.00  0.00     0.338 C 
ATOM     32  O   UNL A   1      36.340  33.274  28.023  1.00  0.00    -0.246 OA
BRANCH  31  33
ATOM     33  C   UNL A   1      37.266  31.388  29.155  1.00  0.00     0.060 A 
ATOM     34  C   UNL A   1      38.492  31.774  29.707  1.00  0.00     0.016 A 
ATOM     35  C   UNL A   1      37.099  30.084  28.669  1.00  0.00     0.016 A 
ATOM     36  C   UNL A   1      39.565  30.870  29.727  1.00  0.00     0.010 A 
ATOM     37  C   UNL A   1      38.181  29.201  28.658  1.00  0.00     0.010 A 
ATOM     38  C   UNL A   1      39.427  29.588  29.174  1.00  0.00    -0.014 A 
BRANCH  38  39
ATOM     39  C   UNL A   1      40.401  28.518  29.456  1.00  0.00     0.031 A 
ATOM     40  C   UNL A   1      40.690  28.343  30.887  1.00  0.00     0.074 A 
ATOM     41  C   UNL A   1      41.062  27.683  28.628  1.00  0.00     0.049 A 
ATOM     42  N   UNL A   1      41.868  28.519  31.386  1.00  0.00    -0.248 NA
ATOM     43  C   UNL A   1      39.629  28.106  31.863  1.00  0.00     0.031 C 
ATOM     44  C   UNL A   1      41.356  27.868  27.222  1.00  0.00     0.029 A 
ATOM     45  N   UNL A   1      41.629  26.452  28.898  1.00  0.00    -0.354 N 
ATOM     46  C   UNL A   1      41.754  28.244  32.727  1.00  0.00     0.074 A 
ATOM     47  C   UNL A   1      40.339  28.113  32.993  1.00  0.00     0.031 C 
ATOM     48  C   UNL A   1      41.909  26.746  26.712  1.00  0.00     0.029 A 
ATOM     49  C   UNL A   1      41.990  25.739  27.760  1.00  0.00     0.049 A 
ATOM     50  H   UNL A   1      41.766  26.111  29.811  1.00  0.00     0.167 HD
ATOM     51  C   UNL A   1      42.853  27.944  33.465  1.00  0.00     0.031 A 
ATOM     52  C   UNL A   1      42.706  24.594  27.608  1.00  0.00     0.031 A 
ATOM     53  C   UNL A   1      44.080  28.389  32.845  1.00  0.00     0.049 A 
ATOM     54  C   UNL A   1      43.797  24.693  28.606  1.00  0.00     0.074 A 
ATOM     55  C   UNL A   1      44.556  29.615  32.416  1.00  0.00     0.029 A 
ATOM     56  N   UNL A   1      44.912  27.452  32.284  1.00  0.00    -0.354 N 
ATOM     57  N   UNL A   1      44.838  25.452  28.447  1.00  0.00    -0.248 NA
ATOM     58  C   UNL A   1      43.585  24.195  29.960  1.00  0.00     0.031 C 
ATOM     59  C   UNL A   1      45.379  29.338  31.286  1.00  0.00     0.029 A 
ATOM     60  C   UNL A   1      45.383  27.958  31.097  1.00  0.00     0.049 A 
ATOM     61  H   UNL A   1      45.132  26.571  32.664  1.00  0.00     0.167 HD
ATOM     62  C   UNL A   1      45.104  25.921  29.721  1.00  0.00     0.074 A 
ATOM     63  C   UNL A   1      44.407  25.011  30.620  1.00  0.00     0.031 C 
ATOM     64  C   UNL A   1      45.621  27.168  29.909  1.00  0.00     0.031 A 
BRANCH  51  65
ATOM     65  C   UNL A   1      42.799  26.950  34.587  1.00  0.00    -0.014 A 
ATOM     66  C   UNL A   1      42.201  27.237  35.832  1.00  0.00     0.009 A 
ATOM     67  C   UNL A   1      43.143  25.614  34.341  1.00  0.00     0.009 A 
ATOM     68  C   UNL A   1      41.983  26.254  36.795  1.00  0.00     0.001 A 
ATOM     69  C   UNL A   1      42.881  24.615  35.285  1.00  0.00     0.001 A 
ATOM     70  C   UNL A   1      42.307  24.936  36.513  1.00  0.00     0.000 A 
ENDBRANCH  51  65
BRANCH  52  71
ATOM     71  C   UNL A   1      42.043  23.264  27.477  1.00  0.00    -0.014 A 
ATOM     72  C   UNL A   1      42.767  22.067  27.367  1.00  0.00     0.009 A 
ATOM     73  C   UNL A   1      40.646  23.209  27.326  1.00  0.00     0.009 A 
ATOM     74  C   UNL A   1      42.119  20.865  27.061  1.00  0.00     0.001 A 
ATOM     75  C   UNL A   1      39.997  22.001  27.044  1.00  0.00     0.001 A 
ATOM     76  C   UNL A   1      40.735  20.831  26.901  1.00  0.00     0.000 A 
ENDBRANCH  52  71
BRANCH  64  77
ATOM     77  C   UNL A   1      46.179  27.886  28.699  1.00  0.00    -0.014 A 
ATOM     78  C   UNL A   1      45.296  28.546  27.834  1.00  0.00     0.009 A 
ATOM     79  C   UNL A   1      47.532  27.806  28.326  1.00  0.00     0.009 A 
ATOM     80  C   UNL A   1      45.751  29.104  26.635  1.00  0.00     0.001 A 
ATOM     81  C   UNL A   1      47.995  28.386  27.142  1.00  0.00     0.001 A 
ATOM     82  C   UNL A   1      47.100  29.027  26.291  1.00  0.00     0.000 A 
ENDBRANCH  64  77
ENDBRANCH  38  39
ENDBRANCH  31  33
ENDBRANCH  30  31
ENDBRANCH  29  30
ENDBRANCH  28  29
ENDBRANCH  27  28
ENDBRANCH  26  27
ENDBRANCH   1  26
TORSDOF 19
ENDMDL
MODEL 2
REMARK VINA RESULT:      -9.8      3.153      6.944
REMARK SMILES CCn1c(N2CCC(C(=O)OCCOCCOCCOC(=O)c3ccc(-c4c5nc(c(-c6ccccc6)c6ccc([nH]6)c(-c6ccccc6)c6nc(c(-c7ccccc7)c7ccc4[nH]7)C=C6)C=C5)cc3)CC2)nc2cc(C)ccc21
REMARK SMILES IDX 15 1 14 2 13 3 12 4 11 5 9 6 10 7 8 8 5 9 6 10 72 11 7 12
REMARK SMILES IDX 71 13 4 14 3 15 80 16 73 17 74 18 79 19 75 20 78 21 76 22
REMARK SMILES IDX 77 23 2 24 1 25 16 26 17 27 18 28 19 29 20 30 21 31 22 32
REMARK SMILES IDX 23 33 24 34 70 35 25 36 69 37 26 38 27 39 28 40 63 41 29 42
REMARK SMILES IDX 68 43 62 44 64 45 30 46 67 47 61 48 60 49 31 51 53 52 38 53
REMARK SMILES IDX 52 54 39 55 42 56 51 57 65 58 40 59 41 60 50 62 66 63 43 64
REMARK SMILES IDX 32 65 33 66 37 67 34 68 36 69 35 70 54 71 55 72 59 73 56 74
REMARK SMILES IDX 58 75 57 76 44 77 45 78 49 79 46 80 48 81 47 82
REMARK H PARENT 64 50 42 61
REMARK Flexibility Score: inf
ROOT
ATOM      1  C   UNL A   1      34.382  35.559  28.045  1.00  0.00     0.188 C 
ENDROOT
BRANCH   1   2
ATOM      2  O   UNL A   1      34.746  34.293  27.524  1.00  0.00    -0.376 OA
BRANCH   2   3
ATOM      3  C   UNL A   1      34.546  33.138  28.329  1.00  0.00     0.202 C 
BRANCH   3   4
ATOM      4  C   UNL A   1      35.335  31.886  27.940  1.00  0.00     0.261 C 
BRANCH   4   5
ATOM      5  O   UNL A   1      34.692  30.660  28.375  1.00  0.00    -0.463 OA
BRANCH   5   6
ATOM      6  C   UNL A   1      35.065  29.557  27.691  1.00  0.00     0.309 C 
ATOM      7  O   UNL A   1      36.241  29.217  27.571  1.00  0.00    -0.252 OA
BRANCH   6   8
ATOM      8  C   UNL A   1      33.952  28.688  27.105  1.00  0.00     0.103 C 
ATOM      9  N   UNL A   1      31.913  27.664  25.327  1.00  0.00    -0.342 N 
ATOM     10  C   UNL A   1      31.746  27.521  26.775  1.00  0.00     0.120 C 
ATOM     11  C   UNL A   1      33.290  27.790  24.867  1.00  0.00     0.120 C 
ATOM     12  C   UNL A   1      32.493  28.620  27.567  1.00  0.00     0.037 C 
ATOM     13  C   UNL A   1      33.975  28.932  25.596  1.00  0.00     0.037 C 
BRANCH   9  14
ATOM     14  C   UNL A   1      30.968  28.352  24.649  1.00  0.00     0.206 A 
ATOM     15  N   UNL A   1      29.911  27.730  23.999  1.00  0.00    -0.310 N 
ATOM     16  C   UNL A   1      29.273  28.698  23.254  1.00  0.00     0.070 A 
ATOM     17  N   UNL A   1      30.928  29.651  24.503  1.00  0.00    -0.213 NA
ATOM     18  C   UNL A   1      29.921  29.880  23.616  1.00  0.00     0.091 A 
ATOM     19  C   UNL A   1      28.223  28.699  22.329  1.00  0.00     0.029 A 
ATOM     20  C   UNL A   1      29.516  31.102  23.069  1.00  0.00     0.034 A 
ATOM     21  C   UNL A   1      27.826  29.930  21.794  1.00  0.00     0.006 A 
ATOM     22  C   UNL A   1      28.452  31.125  22.158  1.00  0.00    -0.049 A 
ATOM     23  C   UNL A   1      28.018  32.434  21.573  1.00  0.00     0.044 C 
BRANCH  15  24
ATOM     24  C   UNL A   1      29.551  26.338  24.206  1.00  0.00     0.122 C 
ATOM     25  C   UNL A   1      30.317  25.264  23.452  1.00  0.00     0.028 C 
ENDBRANCH  15  24
ENDBRANCH   9  14
ENDBRANCH   6   8
ENDBRANCH   5   6
ENDBRANCH   4   5
ENDBRANCH   3   4
ENDBRANCH   2   3
ENDBRANCH   1   2
BRANCH   1  26
ATOM     26  C   UNL A   1      33.235  35.645  29.058  1.00  0.00     0.188 C 
BRANCH  26  27
ATOM     27  O   UNL A   1      32.913  36.849  29.720  1.00  0.00    -0.376 OA
BRANCH  27  28
ATOM     28  C   UNL A   1      33.163  36.907  31.114  1.00  0.00     0.202 C 
BRANCH  28  29
ATOM     29  C   UNL A   1      32.728  35.695  31.957  1.00  0.00     0.261 C 
BRANCH  29  30
ATOM     30  O   UNL A   1      33.821  34.795  32.229  1.00  0.00    -0.460 OA
BRANCH  30  31
ATOM     31  C   UNL A   1      34.826  35.297  33.008  1.00  0.00     0.338 C 
ATOM     32  O   UNL A   1      34.710  35.959  34.010  1.00  0.00    -0.246 OA
BRANCH  31  33
ATOM     33  C   UNL A   1      36.077  34.577  32.626  1.00  0.00     0.060 A 
ATOM     34  C   UNL A   1      37.113  34.325  33.532  1.00  0.00     0.016 A 
ATOM     35  C   UNL A   1      36.288  34.388  31.253  1.00  0.00     0.016 A 
ATOM     36  C   UNL A   1      38.375  33.932  33.058  1.00  0.00     0.010 A 
ATOM     37  C   UNL A   1      37.556  34.033  30.786  1.00  0.00     0.010 A 
ATOM     38  C   UNL A   1      38.614  33.814  31.682  1.00  0.00    -0.014 A 
BRANCH  38  39
ATOM     39  C   UNL A   1      39.799  33.108  31.163  1.00  0.00     0.031 A 
ATOM     40  C   UNL A   1      39.539  31.710  30.788  1.00  0.00     0.074 A 
ATOM     41  C   UNL A   1      41.068  33.527  30.977  1.00  0.00     0.049 A 
ATOM     42  N   UNL A   1      40.125  30.714  31.366  1.00  0.00    -0.248 NA
ATOM     43  C   UNL A   1      38.485  31.350  29.843  1.00  0.00     0.031 C 
ATOM     44  C   UNL A   1      41.749  34.627  31.627  1.00  0.00     0.029 A 
ATOM     45  N   UNL A   1      42.041  33.023  30.134  1.00  0.00    -0.354 N 
ATOM     46  C   UNL A   1      39.653  29.585  30.740  1.00  0.00     0.074 A 
ATOM     47  C   UNL A   1      38.561  30.019  29.897  1.00  0.00     0.031 C 
ATOM     48  C   UNL A   1      42.963  34.818  31.067  1.00  0.00     0.029 A 
ATOM     49  C   UNL A   1      43.144  33.857  29.988  1.00  0.00     0.049 A 
ATOM     50  H   UNL A   1      41.961  32.153  29.680  1.00  0.00     0.167 HD
ATOM     51  C   UNL A   1      40.338  28.417  30.816  1.00  0.00     0.031 A 
ATOM     52  C   UNL A   1      44.349  33.655  29.395  1.00  0.00     0.031 A 
ATOM     53  C   UNL A   1      41.263  28.384  31.926  1.00  0.00     0.049 A 
ATOM     54  C   UNL A   1      44.712  32.260  29.739  1.00  0.00     0.074 A 
ATOM     55  C   UNL A   1      41.135  28.536  33.295  1.00  0.00     0.029 A 
ATOM     56  N   UNL A   1      42.608  28.488  31.667  1.00  0.00    -0.354 N 
ATOM     57  N   UNL A   1      45.147  31.908  30.911  1.00  0.00    -0.248 NA
ATOM     58  C   UNL A   1      44.281  31.167  28.877  1.00  0.00     0.031 C 
ATOM     59  C   UNL A   1      42.346  29.145  33.734  1.00  0.00     0.029 A 
ATOM     60  C   UNL A   1      43.162  29.311  32.617  1.00  0.00     0.049 A 
ATOM     61  H   UNL A   1      43.091  28.050  30.929  1.00  0.00     0.167 HD
ATOM     62  C   UNL A   1      44.589  30.658  31.110  1.00  0.00     0.074 A 
ATOM     63  C   UNL A   1      44.196  30.196  29.786  1.00  0.00     0.031 C 
ATOM     64  C   UNL A   1      44.234  30.247  32.361  1.00  0.00     0.031 A 
BRANCH  51  65
ATOM     65  C   UNL A   1      40.382  27.454  29.667  1.00  0.00    -0.014 A 
ATOM     66  C   UNL A   1      41.577  27.113  29.003  1.00  0.00     0.009 A 
ATOM     67  C   UNL A   1      39.249  26.683  29.372  1.00  0.00     0.009 A 
ATOM     68  C   UNL A   1      41.640  26.079  28.070  1.00  0.00     0.001 A 
ATOM     69  C   UNL A   1      39.318  25.613  28.473  1.00  0.00     0.001 A 
ATOM     70  C   UNL A   1      40.511  25.315  27.820  1.00  0.00     0.000 A 
ENDBRANCH  51  65
BRANCH  52  71
ATOM     71  C   UNL A   1      44.617  34.085  27.992  1.00  0.00    -0.014 A 
ATOM     72  C   UNL A   1      43.588  34.369  27.080  1.00  0.00     0.009 A 
ATOM     73  C   UNL A   1      45.940  34.082  27.517  1.00  0.00     0.009 A 
ATOM     74  C   UNL A   1      43.872  34.588  25.727  1.00  0.00     0.001 A 
ATOM     75  C   UNL A   1      46.225  34.325  26.168  1.00  0.00     0.001 A 
ATOM     76  C   UNL A   1      45.189  34.568  25.271  1.00  0.00     0.000 A 
ENDBRANCH  52  71
BRANCH  64  77
ATOM     77  C   UNL A   1      44.749  31.051  33.535  1.00  0.00    -0.014 A 
ATOM     78  C   UNL A   1      45.832  30.557  34.274  1.00  0.00     0.009 A 
ATOM     79  C   UNL A   1      44.102  32.208  34.005  1.00  0.00     0.009 A 
ATOM     80  C   UNL A   1      46.251  31.196  35.445  1.00  0.00     0.001 A 
ATOM     81  C   UNL A   1      44.536  32.865  35.159  1.00  0.00     0.001 A 
ATOM     82  C   UNL A   1      45.606  32.351  35.886  1.00  0.00     0.000 A 
ENDBRANCH  64  77
ENDBRANCH  38  39
ENDBRANCH  31  33
ENDBRANCH  30  31
ENDBRANCH  29  30
ENDBRANCH  28  29
ENDBRANCH  27  28
ENDBRANCH  26  27
ENDBRANCH   1  26
TORSDOF 19
ENDMDL
MODEL 3
REMARK VINA RESULT:      -9.8      2.729      6.123
REMARK SMILES CCn1c(N2CCC(C(=O)OCCOCCOCCOC(=O)c3ccc(-c4c5nc(c(-c6ccccc6)c6ccc([nH]6)c(-c6ccccc6)c6nc(c(-c7ccccc7)c7ccc4[nH]7)C=C6)C=C5)cc3)CC2)nc2cc(C)ccc21
REMARK SMILES IDX 15 1 14 2 13 3 12 4 11 5 9 6 10 7 8 8 5 9 6 10 72 11 7 12
REMARK SMILES IDX 71 13 4 14 3 15 80 16 73 17 74 18 79 19 75 20 78 21 76 22
REMARK SMILES IDX 77 23 2 24 1 25 16 26 17 27 18 28 19 29 20 30 21 31 22 32
REMARK SMILES IDX 23 33 24 34 70 35 25 36 69 37 26 38 27 39 28 40 63 41 29 42
REMARK SMILES IDX 68 43 62 44 64 45 30 46 67 47 61 48 60 49 31 51 53 52 38 53
REMARK SMILES IDX 52 54 39 55 42 56 51 57 65 58 40 59 41 60 50 62 66 63 43 64
REMARK SMILES IDX 32 65 33 66 37 67 34 68 36 69 35 70 54 71 55 72 59 73 56 74
REMARK SMILES IDX 58 75 57 76 44 77 45 78 49 79 46 80 48 81 47 82
REMARK H PARENT 64 50 42 61
REMARK Flexibility Score: inf
ROOT
ATOM      1  C   UNL A   1      34.206  36.405  28.437  1.00  0.00     0.188 C 
ENDROOT
BRANCH   1   2
ATOM      2  O   UNL A   1      34.618  35.162  27.897  1.00  0.00    -0.376 OA
BRANCH   2   3
ATOM      3  C   UNL A   1      34.365  33.976  28.639  1.00  0.00     0.202 C 
BRANCH   3   4
ATOM      4  C   UNL A   1      34.928  32.674  28.064  1.00  0.00     0.261 C 
BRANCH   4   5
ATOM      5  O   UNL A   1      34.021  31.553  28.223  1.00  0.00    -0.463 OA
BRANCH   5   6
ATOM      6  C   UNL A   1      34.321  30.477  27.465  1.00  0.00     0.309 C 
ATOM      7  O   UNL A   1      35.460  30.020  27.381  1.00  0.00    -0.252 OA
BRANCH   6   8
ATOM      8  C   UNL A   1      33.164  29.787  26.741  1.00  0.00     0.103 C 
ATOM      9  N   UNL A   1      31.372  27.746  25.747  1.00  0.00    -0.342 N 
ATOM     10  C   UNL A   1      31.645  28.927  24.927  1.00  0.00     0.120 C 
ATOM     11  C   UNL A   1      31.552  27.927  27.182  1.00  0.00     0.120 C 
ATOM     12  C   UNL A   1      33.027  29.552  25.233  1.00  0.00     0.037 C 
ATOM     13  C   UNL A   1      32.946  28.457  27.463  1.00  0.00     0.037 C 
BRANCH   9  14
ATOM     14  C   UNL A   1      31.681  26.535  25.232  1.00  0.00     0.206 A 
ATOM     15  N   UNL A   1      30.920  25.926  24.244  1.00  0.00    -0.310 N 
ATOM     16  C   UNL A   1      31.396  24.640  24.107  1.00  0.00     0.070 A 
ATOM     17  N   UNL A   1      32.694  25.791  25.591  1.00  0.00    -0.213 NA
ATOM     18  C   UNL A   1      32.512  24.606  24.944  1.00  0.00     0.091 A 
ATOM     19  C   UNL A   1      31.008  23.518  23.367  1.00  0.00     0.029 A 
ATOM     20  C   UNL A   1      33.284  23.443  25.044  1.00  0.00     0.034 A 
ATOM     21  C   UNL A   1      31.791  22.363  23.475  1.00  0.00     0.006 A 
ATOM     22  C   UNL A   1      32.923  22.317  24.292  1.00  0.00    -0.049 A 
ATOM     23  C   UNL A   1      33.750  21.072  24.400  1.00  0.00     0.044 C 
BRANCH  15  24
ATOM     24  C   UNL A   1      29.902  26.620  23.473  1.00  0.00     0.122 C 
ATOM     25  C   UNL A   1      28.465  26.592  23.965  1.00  0.00     0.028 C 
ENDBRANCH  15  24
ENDBRANCH   9  14
ENDBRANCH   6   8
ENDBRANCH   5   6
ENDBRANCH   4   5
ENDBRANCH   3   4
ENDBRANCH   2   3
ENDBRANCH   1   2
BRANCH   1  26
ATOM     26  C   UNL A   1      33.051  36.433  29.444  1.00  0.00     0.188 C 
BRANCH  26  27
ATOM     27  O   UNL A   1      32.918  37.463  30.399  1.00  0.00    -0.376 OA
BRANCH  27  28
ATOM     28  C   UNL A   1      33.407  37.201  31.704  1.00  0.00     0.202 C 
BRANCH  28  29
ATOM     29  C   UNL A   1      32.983  35.875  32.359  1.00  0.00     0.261 C 
BRANCH  29  30
ATOM     30  O   UNL A   1      34.030  34.884  32.319  1.00  0.00    -0.460 OA
BRANCH  30  31
ATOM     31  C   UNL A   1      35.070  35.081  33.185  1.00  0.00     0.338 C 
ATOM     32  O   UNL A   1      35.010  35.516  34.309  1.00  0.00    -0.246 OA
BRANCH  31  33
ATOM     33  C   UNL A   1      36.237  34.322  32.647  1.00  0.00     0.060 A 
ATOM     34  C   UNL A   1      37.092  33.570  33.460  1.00  0.00     0.016 A 
ATOM     35  C   UNL A   1      36.600  34.601  31.322  1.00  0.00     0.016 A 
ATOM     36  C   UNL A   1      38.332  33.140  32.961  1.00  0.00     0.010 A 
ATOM     37  C   UNL A   1      37.850  34.203  30.843  1.00  0.00     0.010 A 
ATOM     38  C   UNL A   1      38.734  33.480  31.661  1.00  0.00    -0.014 A 
BRANCH  38  39
ATOM     39  C   UNL A   1      39.857  32.795  30.997  1.00  0.00     0.031 A 
ATOM     40  C   UNL A   1      39.509  31.470  30.461  1.00  0.00     0.074 A 
ATOM     41  C   UNL A   1      41.136  33.177  30.802  1.00  0.00     0.049 A 
ATOM     42  N   UNL A   1      40.069  30.383  30.877  1.00  0.00    -0.248 NA
ATOM     43  C   UNL A   1      38.398  31.283  29.533  1.00  0.00     0.031 C 
ATOM     44  C   UNL A   1      41.900  34.153  31.552  1.00  0.00     0.029 A 
ATOM     45  N   UNL A   1      42.043  32.744  29.853  1.00  0.00    -0.354 N 
ATOM     46  C   UNL A   1      39.513  29.367  30.137  1.00  0.00     0.074 A 
ATOM     47  C   UNL A   1      38.408  29.955  29.413  1.00  0.00     0.031 C 
ATOM     48  C   UNL A   1      43.096  34.360  30.959  1.00  0.00     0.029 A 
ATOM     49  C   UNL A   1      43.179  33.540  29.759  1.00  0.00     0.049 A 
ATOM     50  H   UNL A   1      41.899  31.945  29.297  1.00  0.00     0.167 HD
ATOM     51  C   UNL A   1      40.141  28.169  30.029  1.00  0.00     0.031 A 
ATOM     52  C   UNL A   1      44.345  33.364  29.085  1.00  0.00     0.031 A 
ATOM     53  C   UNL A   1      41.111  27.951  31.078  1.00  0.00     0.049 A 
ATOM     54  C   UNL A   1      44.652  31.921  29.230  1.00  0.00     0.074 A 
ATOM     55  C   UNL A   1      41.052  27.931  32.459  1.00  0.00     0.029 A 
ATOM     56  N   UNL A   1      42.447  28.028  30.766  1.00  0.00    -0.354 N 
ATOM     57  N   UNL A   1      45.120  31.401  30.323  1.00  0.00    -0.248 NA
ATOM     58  C   UNL A   1      44.128  30.969  28.258  1.00  0.00     0.031 C 
ATOM     59  C   UNL A   1      42.311  28.422  32.910  1.00  0.00     0.029 A 
ATOM     60  C   UNL A   1      43.084  28.696  31.783  1.00  0.00     0.049 A 
ATOM     61  H   UNL A   1      42.873  27.668  29.954  1.00  0.00     0.167 HD
ATOM     62  C   UNL A   1      44.509  30.162  30.390  1.00  0.00     0.074 A 
ATOM     63  C   UNL A   1      44.035  29.893  29.039  1.00  0.00     0.031 C 
ATOM     64  C   UNL A   1      44.190  29.608  31.594  1.00  0.00     0.031 A 
BRANCH  51  65
ATOM     65  C   UNL A   1      40.084  27.363  28.766  1.00  0.00    -0.014 A 
ATOM     66  C   UNL A   1      40.782  27.727  27.596  1.00  0.00     0.009 A 
ATOM     67  C   UNL A   1      39.511  26.083  28.791  1.00  0.00     0.009 A 
ATOM     68  C   UNL A   1      40.881  26.878  26.495  1.00  0.00     0.001 A 
ATOM     69  C   UNL A   1      39.649  25.209  27.708  1.00  0.00     0.001 A 
ATOM     70  C   UNL A   1      40.329  25.608  26.560  1.00  0.00     0.000 A 
ENDBRANCH  51  65
BRANCH  52  71
ATOM     71  C   UNL A   1      44.571  33.959  27.736  1.00  0.00    -0.014 A 
ATOM     72  C   UNL A   1      43.538  34.127  26.801  1.00  0.00     0.009 A 
ATOM     73  C   UNL A   1      45.886  34.245  27.328  1.00  0.00     0.009 A 
ATOM     74  C   UNL A   1      43.819  34.515  25.487  1.00  0.00     0.001 A 
ATOM     75  C   UNL A   1      46.162  34.656  26.018  1.00  0.00     0.001 A 
ATOM     76  C   UNL A   1      45.129  34.781  25.095  1.00  0.00     0.000 A 
ENDBRANCH  52  71
BRANCH  64  77
ATOM     77  C   UNL A   1      44.796  30.229  32.834  1.00  0.00    -0.014 A 
ATOM     78  C   UNL A   1      45.906  29.614  33.428  1.00  0.00     0.009 A 
ATOM     79  C   UNL A   1      44.214  31.323  33.498  1.00  0.00     0.009 A 
ATOM     80  C   UNL A   1      46.412  30.074  34.647  1.00  0.00     0.001 A 
ATOM     81  C   UNL A   1      44.734  31.803  34.703  1.00  0.00     0.001 A 
ATOM     82  C   UNL A   1      45.829  31.170  35.283  1.00  0.00     0.000 A 
ENDBRANCH  64  77
ENDBRANCH  38  39
ENDBRANCH  31  33
ENDBRANCH  30  31
ENDBRANCH  29  30
ENDBRANCH  28  29
ENDBRANCH  27  28
ENDBRANCH  26  27
ENDBRANCH   1  26
TORSDOF 19
ENDMDL
