MODEL 1
REMARK VINA RESULT:      -9.2      0.000      0.000
REMARK SMILES O=C(/C=C/c1c(Cl)cccc1Cl)NCC(=O)OCCOCCOCCOC(=O)c1ccc(-c2c3nc(c(-c4ccccc4)c4ccc([nH]4)c(-c4ccccc4)c4nc(c(-c5ccccc5)c5ccc2[nH]5)C=C4)C=C3)cc1
REMARK SMILES IDX 21 1 20 2 19 3 18 4 17 5 15 6 16 7 14 8 13 9 1 10 2 11 3 13
REMARK SMILES IDX 4 14 5 15 6 16 11 17 7 18 8 19 10 20 12 21 9 22 22 23 23 24
REMARK SMILES IDX 24 25 25 26 26 27 27 28 28 29 29 30 30 31 76 32 31 33 75 34
REMARK SMILES IDX 32 35 33 36 34 37 69 38 35 39 74 40 68 41 70 42 36 43 73 44
REMARK SMILES IDX 67 45 66 46 37 48 59 49 44 50 58 51 45 52 48 53 57 54 71 55
REMARK SMILES IDX 46 56 47 57 56 59 72 60 49 61 38 62 39 63 43 64 40 65 42 66
REMARK SMILES IDX 41 67 60 68 61 69 65 70 62 71 64 72 63 73 50 74 51 75 55 76
REMARK SMILES IDX 52 77 54 78 53 79
REMARK H PARENT 13 12 70 47 48 58
REMARK Flexibility Score: inf
ROOT
ATOM      1  C   UNL A   1      34.288  36.092  28.406  1.00  0.00     0.188 C 
ENDROOT
BRANCH   1   2
ATOM      2  O   UNL A   1      34.562  34.728  28.127  1.00  0.00    -0.376 OA
BRANCH   2   3
ATOM      3  C   UNL A   1      33.459  33.830  28.003  1.00  0.00     0.202 C 
BRANCH   3   4
ATOM      4  C   UNL A   1      33.685  32.321  28.218  1.00  0.00     0.261 C 
BRANCH   4   5
ATOM      5  O   UNL A   1      34.720  31.745  27.387  1.00  0.00    -0.462 OA
BRANCH   5   6
ATOM      6  C   UNL A   1      34.714  30.390  27.268  1.00  0.00     0.325 C 
ATOM      7  O   UNL A   1      35.713  29.687  27.401  1.00  0.00    -0.250 OA
BRANCH   6   8
ATOM      8  C   UNL A   1      33.312  29.763  27.145  1.00  0.00     0.239 C 
BRANCH   8   9
ATOM      9  N   UNL A   1      33.090  28.331  26.970  1.00  0.00    -0.342 N 
ATOM     10  O   UNL A   1      33.650  28.308  24.762  1.00  0.00    -0.270 OA
ATOM     11  C   UNL A   1      33.310  27.710  25.776  1.00  0.00     0.244 C 
ATOM     12  H   UNL A   1      32.771  27.799  27.734  1.00  0.00     0.164 HD
BRANCH  11  13
ATOM     13  C   UNL A   1      33.208  26.220  25.755  1.00  0.00     0.072 C 
ATOM     14  C   UNL A   1      32.600  25.430  24.852  1.00  0.00     0.017 C 
BRANCH  14  15
ATOM     15  C   UNL A   1      32.649  23.947  24.952  1.00  0.00     0.012 A 
ATOM     16  C   UNL A   1      33.671  23.175  24.359  1.00  0.00     0.049 A 
ATOM     17  C   UNL A   1      31.649  23.246  25.658  1.00  0.00     0.049 A 
ATOM     18  Cl  UNL A   1      35.034  23.894  23.566  1.00  0.00    -0.084 Cl
ATOM     19  C   UNL A   1      33.648  21.772  24.411  1.00  0.00     0.021 A 
ATOM     20  C   UNL A   1      31.635  21.845  25.718  1.00  0.00     0.021 A 
ATOM     21  Cl  UNL A   1      30.368  24.059  26.487  1.00  0.00    -0.084 Cl
ATOM     22  C   UNL A   1      32.625  21.107  25.080  1.00  0.00     0.003 A 
ENDBRANCH  14  15
ENDBRANCH  11  13
ENDBRANCH   8   9
ENDBRANCH   6   8
ENDBRANCH   5   6
ENDBRANCH   4   5
ENDBRANCH   3   4
ENDBRANCH   2   3
ENDBRANCH   1   2
BRANCH   1  23
ATOM     23  C   UNL A   1      32.961  36.456  29.085  1.00  0.00     0.188 C 
BRANCH  23  24
ATOM     24  O   UNL A   1      33.023  36.929  30.402  1.00  0.00    -0.376 OA
BRANCH  24  25
ATOM     25  C   UNL A   1      33.027  36.042  31.504  1.00  0.00     0.202 C 
BRANCH  25  26
ATOM     26  C   UNL A   1      34.277  35.476  32.207  1.00  0.00     0.261 C 
BRANCH  26  27
ATOM     27  O   UNL A   1      35.065  34.494  31.527  1.00  0.00    -0.460 OA
BRANCH  27  28
ATOM     28  C   UNL A   1      35.011  33.229  32.008  1.00  0.00     0.338 C 
ATOM     29  O   UNL A   1      34.089  32.698  32.607  1.00  0.00    -0.246 OA
BRANCH  28  30
ATOM     30  C   UNL A   1      36.171  32.500  31.455  1.00  0.00     0.060 A 
ATOM     31  C   UNL A   1      36.943  31.698  32.310  1.00  0.00     0.016 A 
ATOM     32  C   UNL A   1      36.472  32.581  30.096  1.00  0.00     0.016 A 
ATOM     33  C   UNL A   1      38.012  30.961  31.804  1.00  0.00     0.010 A 
ATOM     34  C   UNL A   1      37.565  31.870  29.597  1.00  0.00     0.010 A 
ATOM     35  C   UNL A   1      38.347  31.069  30.449  1.00  0.00    -0.014 A 
BRANCH  35  36
ATOM     36  C   UNL A   1      39.607  30.481  29.937  1.00  0.00     0.031 A 
ATOM     37  C   UNL A   1      40.829  31.353  29.878  1.00  0.00     0.074 A 
ATOM     38  C   UNL A   1      39.663  29.209  29.508  1.00  0.00     0.049 A 
ATOM     39  N   UNL A   1      41.998  31.108  29.348  1.00  0.00    -0.248 NA
ATOM     40  C   UNL A   1      40.709  32.683  30.497  1.00  0.00     0.031 C 
ATOM     41  C   UNL A   1      38.571  28.240  29.572  1.00  0.00     0.029 A 
ATOM     42  N   UNL A   1      40.692  28.521  28.911  1.00  0.00    -0.354 N 
ATOM     43  C   UNL A   1      42.750  32.258  29.553  1.00  0.00     0.074 A 
ATOM     44  C   UNL A   1      41.898  33.207  30.237  1.00  0.00     0.031 C 
ATOM     45  C   UNL A   1      38.982  27.086  29.016  1.00  0.00     0.029 A 
ATOM     46  C   UNL A   1      40.346  27.253  28.516  1.00  0.00     0.049 A 
ATOM     47  H   UNL A   1      41.591  28.902  28.779  1.00  0.00     0.167 HD
ATOM     48  C   UNL A   1      44.033  32.503  29.200  1.00  0.00     0.031 A 
ATOM     49  C   UNL A   1      41.038  26.345  27.797  1.00  0.00     0.031 A 
ATOM     50  C   UNL A   1      44.870  31.570  28.497  1.00  0.00     0.049 A 
ATOM     51  C   UNL A   1      42.425  26.686  27.314  1.00  0.00     0.074 A 
ATOM     52  C   UNL A   1      46.186  31.724  28.099  1.00  0.00     0.029 A 
ATOM     53  N   UNL A   1      44.468  30.313  28.074  1.00  0.00    -0.354 N 
ATOM     54  N   UNL A   1      43.135  27.769  27.524  1.00  0.00    -0.248 NA
ATOM     55  C   UNL A   1      43.107  25.673  26.492  1.00  0.00     0.031 C 
ATOM     56  C   UNL A   1      46.560  30.586  27.376  1.00  0.00     0.029 A 
ATOM     57  C   UNL A   1      45.500  29.694  27.388  1.00  0.00     0.049 A 
ATOM     58  H   UNL A   1      43.581  29.918  28.236  1.00  0.00     0.167 HD
ATOM     59  C   UNL A   1      44.354  27.555  26.890  1.00  0.00     0.074 A 
ATOM     60  C   UNL A   1      44.293  26.234  26.299  1.00  0.00     0.031 C 
ATOM     61  C   UNL A   1      45.429  28.377  26.807  1.00  0.00     0.031 A 
BRANCH  48  62
ATOM     62  C   UNL A   1      44.592  33.860  29.530  1.00  0.00    -0.014 A 
ATOM     63  C   UNL A   1      44.449  34.944  28.650  1.00  0.00     0.009 A 
ATOM     64  C   UNL A   1      45.248  34.060  30.754  1.00  0.00     0.009 A 
ATOM     65  C   UNL A   1      44.987  36.192  28.974  1.00  0.00     0.001 A 
ATOM     66  C   UNL A   1      45.756  35.316  31.090  1.00  0.00     0.001 A 
ATOM     67  C   UNL A   1      45.635  36.377  30.194  1.00  0.00     0.000 A 
ENDBRANCH  48  62
BRANCH  49  68
ATOM     68  C   UNL A   1      40.424  25.036  27.453  1.00  0.00    -0.014 A 
ATOM     69  C   UNL A   1      40.928  23.845  27.998  1.00  0.00     0.009 A 
ATOM     70  C   UNL A   1      39.349  24.965  26.552  1.00  0.00     0.009 A 
ATOM     71  C   UNL A   1      40.387  22.611  27.628  1.00  0.00     0.001 A 
ATOM     72  C   UNL A   1      38.789  23.733  26.208  1.00  0.00     0.001 A 
ATOM     73  C   UNL A   1      39.314  22.556  26.739  1.00  0.00     0.000 A 
ENDBRANCH  49  68
BRANCH  61  74
ATOM     74  C   UNL A   1      46.648  27.863  26.090  1.00  0.00    -0.014 A 
ATOM     75  C   UNL A   1      46.753  27.912  24.692  1.00  0.00     0.009 A 
ATOM     76  C   UNL A   1      47.734  27.375  26.836  1.00  0.00     0.009 A 
ATOM     77  C   UNL A   1      47.911  27.458  24.054  1.00  0.00     0.001 A 
ATOM     78  C   UNL A   1      48.901  26.953  26.198  1.00  0.00     0.001 A 
ATOM     79  C   UNL A   1      48.985  26.986  24.808  1.00  0.00     0.000 A 
ENDBRANCH  61  74
ENDBRANCH  35  36
ENDBRANCH  28  30
ENDBRANCH  27  28
ENDBRANCH  26  27
ENDBRANCH  25  26
ENDBRANCH  24  25
ENDBRANCH  23  24
ENDBRANCH   1  23
TORSDOF 20
ENDMDL
MODEL 2
REMARK VINA RESULT:      -9.0      1.955      6.556
REMARK SMILES O=C(/C=C/c1c(Cl)cccc1Cl)NCC(=O)OCCOCCOCCOC(=O)c1ccc(-c2c3nc(c(-c4ccccc4)c4ccc([nH]4)c(-c4ccccc4)c4nc(c(-c5ccccc5)c5ccc2[nH]5)C=C4)C=C3)cc1
REMARK SMILES IDX 21 1 20 2 19 3 18 4 17 5 15 6 16 7 14 8 13 9 1 10 2 11 3 13
REMARK SMILES IDX 4 14 5 15 6 16 11 17 7 18 8 19 10 20 12 21 9 22 22 23 23 24
REMARK SMILES IDX 24 25 25 26 26 27 27 28 28 29 29 30 30 31 76 32 31 33 75 34
REMARK SMILES IDX 32 35 33 36 34 37 69 38 35 39 74 40 68 41 70 42 36 43 73 44
REMARK SMILES IDX 67 45 66 46 37 48 59 49 44 50 58 51 45 52 48 53 57 54 71 55
REMARK SMILES IDX 46 56 47 57 56 59 72 60 49 61 38 62 39 63 43 64 40 65 42 66
REMARK SMILES IDX 41 67 60 68 61 69 65 70 62 71 64 72 63 73 50 74 51 75 55 76
REMARK SMILES IDX 52 77 54 78 53 79
REMARK H PARENT 13 12 70 47 48 58
REMARK Flexibility Score: inf
ROOT
ATOM      1  C   UNL A   1      34.748  34.117  28.085  1.00  0.00     0.188 C 
ENDROOT
BRANCH   1   2
ATOM      2  O   UNL A   1      34.978  32.790  27.640  1.00  0.00    -0.376 OA
BRANCH   2   3
ATOM      3  C   UNL A   1      33.992  31.800  27.934  1.00  0.00     0.202 C 
BRANCH   3   4
ATOM      4  C   UNL A   1      33.864  30.567  27.019  1.00  0.00     0.261 C 
BRANCH   4   5
ATOM      5  O   UNL A   1      32.606  30.473  26.310  1.00  0.00    -0.462 OA
BRANCH   5   6
ATOM      6  C   UNL A   1      32.528  29.520  25.343  1.00  0.00     0.325 C 
ATOM      7  O   UNL A   1      31.595  29.428  24.548  1.00  0.00    -0.250 OA
BRANCH   6   8
ATOM      8  C   UNL A   1      33.799  28.665  25.180  1.00  0.00     0.239 C 
BRANCH   8   9
ATOM      9  N   UNL A   1      33.804  27.211  25.307  1.00  0.00    -0.342 N 
ATOM     10  O   UNL A   1      33.713  26.813  23.065  1.00  0.00    -0.270 OA
ATOM     11  C   UNL A   1      33.790  26.394  24.214  1.00  0.00     0.244 C 
ATOM     12  H   UNL A   1      33.818  26.807  26.204  1.00  0.00     0.164 HD
BRANCH  11  13
ATOM     13  C   UNL A   1      33.963  24.931  24.456  1.00  0.00     0.072 C 
ATOM     14  C   UNL A   1      34.218  23.954  23.567  1.00  0.00     0.017 C 
BRANCH  14  15
ATOM     15  C   UNL A   1      34.425  22.544  23.993  1.00  0.00     0.012 A 
ATOM     16  C   UNL A   1      33.416  21.562  23.902  1.00  0.00     0.049 A 
ATOM     17  C   UNL A   1      35.669  22.134  24.518  1.00  0.00     0.049 A 
ATOM     18  Cl  UNL A   1      31.879  21.879  23.167  1.00  0.00    -0.084 Cl
ATOM     19  C   UNL A   1      33.622  20.258  24.380  1.00  0.00     0.021 A 
ATOM     20  C   UNL A   1      35.875  20.827  24.984  1.00  0.00     0.021 A 
ATOM     21  Cl  UNL A   1      37.018  23.209  24.634  1.00  0.00    -0.084 Cl
ATOM     22  C   UNL A   1      34.847  19.893  24.931  1.00  0.00     0.003 A 
ENDBRANCH  14  15
ENDBRANCH  11  13
ENDBRANCH   8   9
ENDBRANCH   6   8
ENDBRANCH   5   6
ENDBRANCH   4   5
ENDBRANCH   3   4
ENDBRANCH   2   3
ENDBRANCH   1   2
BRANCH   1  23
ATOM     23  C   UNL A   1      33.838  34.345  29.300  1.00  0.00     0.188 C 
BRANCH  23  24
ATOM     24  O   UNL A   1      34.441  34.817  30.472  1.00  0.00    -0.376 OA
BRANCH  24  25
ATOM     25  C   UNL A   1      34.825  33.937  31.511  1.00  0.00     0.202 C 
BRANCH  25  26
ATOM     26  C   UNL A   1      36.185  33.222  31.637  1.00  0.00     0.261 C 
BRANCH  26  27
ATOM     27  O   UNL A   1      36.476  32.134  30.755  1.00  0.00    -0.460 OA
BRANCH  27  28
ATOM     28  C   UNL A   1      36.739  30.936  31.329  1.00  0.00     0.338 C 
ATOM     29  O   UNL A   1      36.009  30.285  32.062  1.00  0.00    -0.246 OA
BRANCH  28  30
ATOM     30  C   UNL A   1      37.973  30.414  30.710  1.00  0.00     0.060 A 
ATOM     31  C   UNL A   1      38.974  29.875  31.533  1.00  0.00     0.016 A 
ATOM     32  C   UNL A   1      38.125  30.423  29.324  1.00  0.00     0.016 A 
ATOM     33  C   UNL A   1      40.127  29.330  30.970  1.00  0.00     0.010 A 
ATOM     34  C   UNL A   1      39.296  29.910  28.763  1.00  0.00     0.010 A 
ATOM     35  C   UNL A   1      40.307  29.374  29.582  1.00  0.00    -0.014 A 
BRANCH  35  36
ATOM     36  C   UNL A   1      41.612  29.013  28.981  1.00  0.00     0.031 A 
ATOM     37  C   UNL A   1      41.825  27.594  28.537  1.00  0.00     0.074 A 
ATOM     38  C   UNL A   1      42.599  29.915  28.856  1.00  0.00     0.049 A 
ATOM     39  N   UNL A   1      42.915  27.011  28.112  1.00  0.00    -0.248 NA
ATOM     40  C   UNL A   1      40.645  26.714  28.583  1.00  0.00     0.031 C 
ATOM     41  C   UNL A   1      42.502  31.335  29.186  1.00  0.00     0.029 A 
ATOM     42  N   UNL A   1      43.894  29.755  28.427  1.00  0.00    -0.354 N 
ATOM     43  C   UNL A   1      42.560  25.693  27.858  1.00  0.00     0.074 A 
ATOM     44  C   UNL A   1      41.159  25.557  28.194  1.00  0.00     0.031 C 
ATOM     45  C   UNL A   1      43.695  31.914  28.967  1.00  0.00     0.029 A 
ATOM     46  C   UNL A   1      44.650  30.897  28.529  1.00  0.00     0.049 A 
ATOM     47  H   UNL A   1      44.248  28.903  28.082  1.00  0.00     0.167 HD
ATOM     48  C   UNL A   1      43.332  24.685  27.388  1.00  0.00     0.031 A 
ATOM     49  C   UNL A   1      45.970  31.089  28.329  1.00  0.00     0.031 A 
ATOM     50  C   UNL A   1      44.730  24.815  27.079  1.00  0.00     0.049 A 
ATOM     51  C   UNL A   1      46.834  29.924  27.919  1.00  0.00     0.074 A 
ATOM     52  C   UNL A   1      45.597  23.852  26.594  1.00  0.00     0.029 A 
ATOM     53  N   UNL A   1      45.469  25.976  27.239  1.00  0.00    -0.354 N 
ATOM     54  N   UNL A   1      46.489  28.684  27.666  1.00  0.00    -0.248 NA
ATOM     55  C   UNL A   1      48.273  30.188  27.766  1.00  0.00     0.031 C 
ATOM     56  C   UNL A   1      46.876  24.413  26.523  1.00  0.00     0.029 A 
ATOM     57  C   UNL A   1      46.790  25.746  26.895  1.00  0.00     0.049 A 
ATOM     58  H   UNL A   1      45.109  26.838  27.551  1.00  0.00     0.167 HD
ATOM     59  C   UNL A   1      47.659  28.031  27.295  1.00  0.00     0.074 A 
ATOM     60  C   UNL A   1      48.721  29.014  27.342  1.00  0.00     0.031 C 
ATOM     61  C   UNL A   1      47.838  26.733  26.943  1.00  0.00     0.031 A 
BRANCH  48  62
ATOM     62  C   UNL A   1      42.684  23.337  27.230  1.00  0.00    -0.014 A 
ATOM     63  C   UNL A   1      42.554  22.454  28.313  1.00  0.00     0.009 A 
ATOM     64  C   UNL A   1      42.173  22.957  25.979  1.00  0.00     0.009 A 
ATOM     65  C   UNL A   1      41.959  21.203  28.137  1.00  0.00     0.001 A 
ATOM     66  C   UNL A   1      41.550  21.720  25.813  1.00  0.00     0.001 A 
ATOM     67  C   UNL A   1      41.454  20.839  26.890  1.00  0.00     0.000 A 
ENDBRANCH  48  62
BRANCH  49  68
ATOM     68  C   UNL A   1      46.574  32.431  28.548  1.00  0.00    -0.014 A 
ATOM     69  C   UNL A   1      46.673  33.350  27.493  1.00  0.00     0.009 A 
ATOM     70  C   UNL A   1      47.083  32.789  29.807  1.00  0.00     0.009 A 
ATOM     71  C   UNL A   1      47.294  34.587  27.687  1.00  0.00     0.001 A 
ATOM     72  C   UNL A   1      47.673  34.038  30.006  1.00  0.00     0.001 A 
ATOM     73  C   UNL A   1      47.787  34.932  28.944  1.00  0.00     0.000 A 
ENDBRANCH  49  68
BRANCH  61  74
ATOM     74  C   UNL A   1      49.222  26.304  26.537  1.00  0.00    -0.014 A 
ATOM     75  C   UNL A   1      49.706  26.517  25.238  1.00  0.00     0.009 A 
ATOM     76  C   UNL A   1      50.075  25.729  27.494  1.00  0.00     0.009 A 
ATOM     77  C   UNL A   1      51.008  26.138  24.898  1.00  0.00     0.001 A 
ATOM     78  C   UNL A   1      51.385  25.381  27.160  1.00  0.00     0.001 A 
ATOM     79  C   UNL A   1      51.847  25.578  25.861  1.00  0.00     0.000 A 
ENDBRANCH  61  74
ENDBRANCH  35  36
ENDBRANCH  28  30
ENDBRANCH  27  28
ENDBRANCH  26  27
ENDBRANCH  25  26
ENDBRANCH  24  25
ENDBRANCH  23  24
ENDBRANCH   1  23
TORSDOF 20
ENDMDL
MODEL 3
REMARK VINA RESULT:      -8.7      2.948      9.397
REMARK SMILES O=C(/C=C/c1c(Cl)cccc1Cl)NCC(=O)OCCOCCOCCOC(=O)c1ccc(-c2c3nc(c(-c4ccccc4)c4ccc([nH]4)c(-c4ccccc4)c4nc(c(-c5ccccc5)c5ccc2[nH]5)C=C4)C=C3)cc1
REMARK SMILES IDX 21 1 20 2 19 3 18 4 17 5 15 6 16 7 14 8 13 9 1 10 2 11 3 13
REMARK SMILES IDX 4 14 5 15 6 16 11 17 7 18 8 19 10 20 12 21 9 22 22 23 23 24
REMARK SMILES IDX 24 25 25 26 26 27 27 28 28 29 29 30 30 31 76 32 31 33 75 34
REMARK SMILES IDX 32 35 33 36 34 37 69 38 35 39 74 40 68 41 70 42 36 43 73 44
REMARK SMILES IDX 67 45 66 46 37 48 59 49 44 50 58 51 45 52 48 53 57 54 71 55
REMARK SMILES IDX 46 56 47 57 56 59 72 60 49 61 38 62 39 63 43 64 40 65 42 66
REMARK SMILES IDX 41 67 60 68 61 69 65 70 62 71 64 72 63 73 50 74 51 75 55 76
REMARK SMILES IDX 52 77 54 78 53 79
REMARK H PARENT 13 12 70 47 48 58
REMARK Flexibility Score: inf
ROOT
ATOM      1  C   UNL A   1      33.195  24.939  24.237  1.00  0.00     0.188 C 
ENDROOT
BRANCH   1   2
ATOM      2  O   UNL A   1      32.411  25.534  25.257  1.00  0.00    -0.376 OA
BRANCH   2   3
ATOM      3  C   UNL A   1      32.479  26.951  25.420  1.00  0.00     0.202 C 
BRANCH   3   4
ATOM      4  C   UNL A   1      31.696  27.617  26.569  1.00  0.00     0.261 C 
BRANCH   4   5
ATOM      5  O   UNL A   1      32.488  28.492  27.407  1.00  0.00    -0.462 OA
BRANCH   5   6
ATOM      6  C   UNL A   1      32.825  29.697  26.873  1.00  0.00     0.325 C 
ATOM      7  O   UNL A   1      32.080  30.358  26.153  1.00  0.00    -0.250 OA
BRANCH   6   8
ATOM      8  C   UNL A   1      34.150  30.282  27.395  1.00  0.00     0.239 C 
BRANCH   8   9
ATOM      9  N   UNL A   1      34.223  31.235  28.498  1.00  0.00    -0.342 N 
ATOM     10  O   UNL A   1      35.707  32.623  27.467  1.00  0.00    -0.270 OA
ATOM     11  C   UNL A   1      34.989  32.362  28.425  1.00  0.00     0.244 C 
ATOM     12  H   UNL A   1      33.706  31.061  29.318  1.00  0.00     0.164 HD
BRANCH  11  13
ATOM     13  C   UNL A   1      34.861  33.345  29.542  1.00  0.00     0.072 C 
ATOM     14  C   UNL A   1      33.910  34.276  29.741  1.00  0.00     0.017 C 
BRANCH  14  15
ATOM     15  C   UNL A   1      33.901  35.138  30.953  1.00  0.00     0.012 A 
ATOM     16  C   UNL A   1      34.204  34.648  32.241  1.00  0.00     0.049 A 
ATOM     17  C   UNL A   1      33.577  36.507  30.851  1.00  0.00     0.049 A 
ATOM     18  Cl  UNL A   1      34.741  33.023  32.511  1.00  0.00    -0.084 Cl
ATOM     19  C   UNL A   1      34.115  35.473  33.374  1.00  0.00     0.021 A 
ATOM     20  C   UNL A   1      33.500  37.330  31.983  1.00  0.00     0.021 A 
ATOM     21  Cl  UNL A   1      33.241  37.262  29.332  1.00  0.00    -0.084 Cl
ATOM     22  C   UNL A   1      33.752  36.810  33.247  1.00  0.00     0.003 A 
ENDBRANCH  14  15
ENDBRANCH  11  13
ENDBRANCH   8   9
ENDBRANCH   6   8
ENDBRANCH   5   6
ENDBRANCH   4   5
ENDBRANCH   3   4
ENDBRANCH   2   3
ENDBRANCH   1   2
BRANCH   1  23
ATOM     23  C   UNL A   1      34.236  23.879  24.624  1.00  0.00     0.188 C 
BRANCH  23  24
ATOM     24  O   UNL A   1      34.142  22.630  23.998  1.00  0.00    -0.376 OA
BRANCH  24  25
ATOM     25  C   UNL A   1      34.749  21.479  24.552  1.00  0.00     0.202 C 
BRANCH  25  26
ATOM     26  C   UNL A   1      36.261  21.176  24.579  1.00  0.00     0.261 C 
BRANCH  26  27
ATOM     27  O   UNL A   1      36.969  21.312  25.814  1.00  0.00    -0.460 OA
BRANCH  27  28
ATOM     28  C   UNL A   1      38.264  20.916  25.823  1.00  0.00     0.338 C 
ATOM     29  O   UNL A   1      38.715  19.837  25.471  1.00  0.00    -0.246 OA
BRANCH  28  30
ATOM     30  C   UNL A   1      39.087  22.113  26.090  1.00  0.00     0.060 A 
ATOM     31  C   UNL A   1      40.430  21.948  26.465  1.00  0.00     0.016 A 
ATOM     32  C   UNL A   1      38.547  23.389  25.935  1.00  0.00     0.016 A 
ATOM     33  C   UNL A   1      41.242  23.061  26.675  1.00  0.00     0.010 A 
ATOM     34  C   UNL A   1      39.351  24.504  26.180  1.00  0.00     0.010 A 
ATOM     35  C   UNL A   1      40.696  24.346  26.563  1.00  0.00    -0.014 A 
BRANCH  35  36
ATOM     36  C   UNL A   1      41.470  25.532  27.000  1.00  0.00     0.031 A 
ATOM     37  C   UNL A   1      40.830  26.482  27.971  1.00  0.00     0.074 A 
ATOM     38  C   UNL A   1      42.703  25.778  26.526  1.00  0.00     0.049 A 
ATOM     39  N   UNL A   1      41.249  27.647  28.391  1.00  0.00    -0.248 NA
ATOM     40  C   UNL A   1      39.540  26.059  28.541  1.00  0.00     0.031 C 
ATOM     41  C   UNL A   1      43.461  24.905  25.632  1.00  0.00     0.029 A 
ATOM     42  N   UNL A   1      43.527  26.858  26.724  1.00  0.00    -0.354 N 
ATOM     43  C   UNL A   1      40.268  28.106  29.260  1.00  0.00     0.074 A 
ATOM     44  C   UNL A   1      39.225  27.104  29.292  1.00  0.00     0.031 C 
ATOM     45  C   UNL A   1      44.634  25.495  25.343  1.00  0.00     0.029 A 
ATOM     46  C   UNL A   1      44.687  26.805  25.991  1.00  0.00     0.049 A 
ATOM     47  H   UNL A   1      43.308  27.600  27.334  1.00  0.00     0.167 HD
ATOM     48  C   UNL A   1      40.238  29.260  29.966  1.00  0.00     0.031 A 
ATOM     49  C   UNL A   1      45.659  27.725  25.830  1.00  0.00     0.031 A 
ATOM     50  C   UNL A   1      41.263  30.267  29.914  1.00  0.00     0.049 A 
ATOM     51  C   UNL A   1      45.546  29.053  26.536  1.00  0.00     0.074 A 
ATOM     52  C   UNL A   1      41.324  31.469  30.596  1.00  0.00     0.029 A 
ATOM     53  N   UNL A   1      42.398  30.196  29.124  1.00  0.00    -0.354 N 
ATOM     54  N   UNL A   1      44.622  29.474  27.367  1.00  0.00    -0.248 NA
ATOM     55  C   UNL A   1      46.613  30.032  26.279  1.00  0.00     0.031 C 
ATOM     56  C   UNL A   1      42.465  32.156  30.168  1.00  0.00     0.029 A 
ATOM     57  C   UNL A   1      43.151  31.349  29.274  1.00  0.00     0.049 A 
ATOM     58  H   UNL A   1      42.636  29.439  28.541  1.00  0.00     0.167 HD
ATOM     59  C   UNL A   1      45.015  30.751  27.756  1.00  0.00     0.074 A 
ATOM     60  C   UNL A   1      46.265  31.030  27.080  1.00  0.00     0.031 C 
ATOM     61  C   UNL A   1      44.396  31.614  28.599  1.00  0.00     0.031 A 
BRANCH  48  62
ATOM     62  C   UNL A   1      39.026  29.514  30.820  1.00  0.00    -0.014 A 
ATOM     63  C   UNL A   1      38.979  29.112  32.164  1.00  0.00     0.009 A 
ATOM     64  C   UNL A   1      37.924  30.190  30.274  1.00  0.00     0.009 A 
ATOM     65  C   UNL A   1      37.837  29.348  32.933  1.00  0.00     0.001 A 
ATOM     66  C   UNL A   1      36.796  30.454  31.054  1.00  0.00     0.001 A 
ATOM     67  C   UNL A   1      36.750  30.023  32.379  1.00  0.00     0.000 A 
ENDBRANCH  48  62
BRANCH  49  68
ATOM     68  C   UNL A   1      46.813  27.447  24.934  1.00  0.00    -0.014 A 
ATOM     69  C   UNL A   1      46.897  28.052  23.671  1.00  0.00     0.009 A 
ATOM     70  C   UNL A   1      47.822  26.553  25.324  1.00  0.00     0.009 A 
ATOM     71  C   UNL A   1      47.952  27.745  22.807  1.00  0.00     0.001 A 
ATOM     72  C   UNL A   1      48.892  26.272  24.472  1.00  0.00     0.001 A 
ATOM     73  C   UNL A   1      48.952  26.861  23.211  1.00  0.00     0.000 A 
ENDBRANCH  49  68
BRANCH  61  74
ATOM     74  C   UNL A   1      45.077  32.926  28.879  1.00  0.00    -0.014 A 
ATOM     75  C   UNL A   1      44.790  34.077  28.130  1.00  0.00     0.009 A 
ATOM     76  C   UNL A   1      45.979  33.021  29.952  1.00  0.00     0.009 A 
ATOM     77  C   UNL A   1      45.414  35.291  28.434  1.00  0.00     0.001 A 
ATOM     78  C   UNL A   1      46.575  34.242  30.272  1.00  0.00     0.001 A 
ATOM     79  C   UNL A   1      46.299  35.373  29.508  1.00  0.00     0.000 A 
ENDBRANCH  61  74
ENDBRANCH  35  36
ENDBRANCH  28  30
ENDBRANCH  27  28
ENDBRANCH  26  27
ENDBRANCH  25  26
ENDBRANCH  24  25
ENDBRANCH  23  24
ENDBRANCH   1  23
TORSDOF 20
ENDMDL
