MODEL 1
REMARK VINA RESULT:     -10.4      0.000      0.000
REMARK SMILES COc1ccc(-c2noc(CC(=O)OCCOCCOCCOC(=O)c3ccc(-c4c5nc(c(-c6ccccc6)c6ccc([nH]6)c(-c6ccccc6)c6nc(c(-c7ccccc7)c7ccc4[nH]7)C=C6)C=C5)cc3)c2-c2ccc(OC)cc2)cc1
REMARK SMILES IDX 18 1 17 2 16 3 15 4 14 5 12 6 13 7 11 8 10 9 7 10 8 11 74 12
REMARK SMILES IDX 9 13 6 14 3 15 4 16 84 17 5 18 83 19 2 20 1 21 75 22 76 23
REMARK SMILES IDX 82 24 77 25 81 26 78 27 79 28 80 29 19 30 20 31 21 32 22 33
REMARK SMILES IDX 23 34 24 35 25 36 26 37 27 38 73 39 28 40 72 41 29 42 30 43
REMARK SMILES IDX 31 44 66 45 32 46 71 47 65 48 67 49 33 50 70 51 64 52 63 53
REMARK SMILES IDX 34 55 56 56 41 57 55 58 42 59 45 60 54 61 68 62 43 63 44 64
REMARK SMILES IDX 53 66 69 67 46 68 35 69 36 70 40 71 37 72 39 73 38 74 57 75
REMARK SMILES IDX 58 76 62 77 59 78 61 79 60 80 47 81 48 82 52 83 49 84 51 85
REMARK SMILES IDX 50 86
REMARK H PARENT 67 54 45 65
REMARK Flexibility Score: inf
ROOT
ATOM      1  C   UNL A   1      33.111  29.412  26.028  1.00  0.00     0.188 C 
ENDROOT
BRANCH   1   2
ATOM      2  O   UNL A   1      33.667  28.660  24.960  1.00  0.00    -0.376 OA
BRANCH   2   3
ATOM      3  C   UNL A   1      33.304  29.026  23.630  1.00  0.00     0.202 C 
BRANCH   3   4
ATOM      4  C   UNL A   1      33.958  28.237  22.484  1.00  0.00     0.261 C 
BRANCH   4   5
ATOM      5  O   UNL A   1      33.018  27.545  21.622  1.00  0.00    -0.463 OA
BRANCH   5   6
ATOM      6  C   UNL A   1      33.118  26.189  21.593  1.00  0.00     0.313 C 
ATOM      7  O   UNL A   1      33.171  25.535  20.554  1.00  0.00    -0.252 OA
BRANCH   6   8
ATOM      8  C   UNL A   1      33.381  25.532  22.934  1.00  0.00     0.201 C 
BRANCH   8   9
ATOM      9  C   UNL A   1      32.981  24.108  23.097  1.00  0.00     0.156 A 
ATOM     10  C   UNL A   1      32.529  21.987  23.617  1.00  0.00     0.122 A 
ATOM     11  N   UNL A   1      31.406  22.497  23.093  1.00  0.00    -0.079 NA
ATOM     12  C   UNL A   1      33.556  22.979  23.644  1.00  0.00     0.053 A 
ATOM     13  O   UNL A   1      31.674  23.823  22.835  1.00  0.00    -0.359 OA
BRANCH  10  14
ATOM     14  C   UNL A   1      32.574  20.629  24.142  1.00  0.00     0.005 A 
ATOM     15  C   UNL A   1      32.781  18.015  25.151  1.00  0.00     0.118 A 
ATOM     16  C   UNL A   1      32.571  18.233  23.787  1.00  0.00     0.047 A 
ATOM     17  C   UNL A   1      32.888  19.106  26.013  1.00  0.00     0.047 A 
ATOM     18  C   UNL A   1      32.451  19.533  23.284  1.00  0.00     0.014 A 
ATOM     19  C   UNL A   1      32.785  20.408  25.509  1.00  0.00     0.014 A 
BRANCH  15  20
ATOM     20  O   UNL A   1      32.921  16.706  25.521  1.00  0.00    -0.497 OA
ATOM     21  C   UNL A   1      33.935  15.976  24.838  1.00  0.00     0.278 C 
ENDBRANCH  15  20
ENDBRANCH  10  14
BRANCH  12  22
ATOM     22  C   UNL A   1      34.843  22.955  24.292  1.00  0.00    -0.012 A 
ATOM     23  C   UNL A   1      35.959  22.384  23.681  1.00  0.00     0.013 A 
ATOM     24  C   UNL A   1      34.942  23.451  25.596  1.00  0.00     0.013 A 
ATOM     25  C   UNL A   1      37.175  22.342  24.372  1.00  0.00     0.047 A 
ATOM     26  C   UNL A   1      36.155  23.419  26.274  1.00  0.00     0.047 A 
ATOM     27  C   UNL A   1      37.279  22.869  25.663  1.00  0.00     0.118 A 
BRANCH  27  28
ATOM     28  O   UNL A   1      38.519  22.781  26.236  1.00  0.00    -0.497 OA
ATOM     29  C   UNL A   1      39.253  21.594  25.951  1.00  0.00     0.278 C 
ENDBRANCH  27  28
ENDBRANCH  12  22
ENDBRANCH   8   9
ENDBRANCH   6   8
ENDBRANCH   5   6
ENDBRANCH   4   5
ENDBRANCH   3   4
ENDBRANCH   2   3
ENDBRANCH   1   2
BRANCH   1  30
ATOM     30  C   UNL A   1      31.773  30.123  25.801  1.00  0.00     0.188 C 
BRANCH  30  31
ATOM     31  O   UNL A   1      31.558  31.251  26.624  1.00  0.00    -0.376 OA
BRANCH  31  32
ATOM     32  C   UNL A   1      32.700  31.754  27.302  1.00  0.00     0.202 C 
BRANCH  32  33
ATOM     33  C   UNL A   1      32.780  33.280  27.162  1.00  0.00     0.261 C 
BRANCH  33  34
ATOM     34  O   UNL A   1      32.253  34.014  28.287  1.00  0.00    -0.460 OA
BRANCH  34  35
ATOM     35  C   UNL A   1      33.030  35.001  28.797  1.00  0.00     0.338 C 
ATOM     36  O   UNL A   1      32.699  36.159  28.994  1.00  0.00    -0.246 OA
BRANCH  35  37
ATOM     37  C   UNL A   1      34.279  34.379  29.314  1.00  0.00     0.060 A 
ATOM     38  C   UNL A   1      34.203  33.511  30.416  1.00  0.00     0.016 A 
ATOM     39  C   UNL A   1      35.501  34.579  28.672  1.00  0.00     0.016 A 
ATOM     40  C   UNL A   1      35.352  32.857  30.884  1.00  0.00     0.010 A 
ATOM     41  C   UNL A   1      36.651  33.944  29.154  1.00  0.00     0.010 A 
ATOM     42  C   UNL A   1      36.592  33.092  30.273  1.00  0.00    -0.014 A 
BRANCH  42  43
ATOM     43  C   UNL A   1      37.856  32.583  30.871  1.00  0.00     0.031 A 
ATOM     44  C   UNL A   1      38.501  31.365  30.262  1.00  0.00     0.074 A 
ATOM     45  C   UNL A   1      38.416  33.154  31.954  1.00  0.00     0.049 A 
ATOM     46  N   UNL A   1      39.522  30.664  30.685  1.00  0.00    -0.248 NA
ATOM     47  C   UNL A   1      37.909  30.873  29.007  1.00  0.00     0.031 C 
ATOM     48  C   UNL A   1      37.942  34.363  32.620  1.00  0.00     0.029 A 
ATOM     49  N   UNL A   1      39.510  32.768  32.696  1.00  0.00    -0.354 N 
ATOM     50  C   UNL A   1      39.687  29.642  29.757  1.00  0.00     0.074 A 
ATOM     51  C   UNL A   1      38.649  29.801  28.763  1.00  0.00     0.031 C 
ATOM     52  C   UNL A   1      38.728  34.612  33.684  1.00  0.00     0.029 A 
ATOM     53  C   UNL A   1      39.732  33.555  33.802  1.00  0.00     0.049 A 
ATOM     54  H   UNL A   1      40.079  32.002  32.458  1.00  0.00     0.167 HD
ATOM     55  C   UNL A   1      40.619  28.659  29.731  1.00  0.00     0.031 A 
ATOM     56  C   UNL A   1      40.616  33.418  34.812  1.00  0.00     0.031 A 
ATOM     57  C   UNL A   1      41.645  28.480  30.724  1.00  0.00     0.049 A 
ATOM     58  C   UNL A   1      41.569  32.247  34.822  1.00  0.00     0.074 A 
ATOM     59  C   UNL A   1      42.639  27.517  30.771  1.00  0.00     0.029 A 
ATOM     60  N   UNL A   1      41.802  29.271  31.850  1.00  0.00    -0.354 N 
ATOM     61  N   UNL A   1      41.732  31.302  33.927  1.00  0.00    -0.248 NA
ATOM     62  C   UNL A   1      42.458  32.123  35.989  1.00  0.00     0.031 C 
ATOM     63  C   UNL A   1      43.356  27.684  31.957  1.00  0.00     0.029 A 
ATOM     64  C   UNL A   1      42.853  28.794  32.617  1.00  0.00     0.049 A 
ATOM     65  H   UNL A   1      41.250  30.055  32.072  1.00  0.00     0.167 HD
ATOM     66  C   UNL A   1      42.756  30.493  34.410  1.00  0.00     0.074 A 
ATOM     67  C   UNL A   1      43.191  31.067  35.664  1.00  0.00     0.031 C 
ATOM     68  C   UNL A   1      43.285  29.371  33.862  1.00  0.00     0.031 A 
BRANCH  55  69
ATOM     69  C   UNL A   1      40.553  27.670  28.602  1.00  0.00    -0.014 A 
ATOM     70  C   UNL A   1      39.782  26.501  28.701  1.00  0.00     0.009 A 
ATOM     71  C   UNL A   1      41.225  27.940  27.400  1.00  0.00     0.009 A 
ATOM     72  C   UNL A   1      39.708  25.610  27.628  1.00  0.00     0.001 A 
ATOM     73  C   UNL A   1      41.127  27.062  26.319  1.00  0.00     0.001 A 
ATOM     74  C   UNL A   1      40.376  25.895  26.437  1.00  0.00     0.000 A 
ENDBRANCH  55  69
BRANCH  56  75
ATOM     75  C   UNL A   1      40.627  34.386  35.944  1.00  0.00    -0.014 A 
ATOM     76  C   UNL A   1      39.801  34.190  37.063  1.00  0.00     0.009 A 
ATOM     77  C   UNL A   1      41.417  35.545  35.886  1.00  0.00     0.009 A 
ATOM     78  C   UNL A   1      39.743  35.147  38.081  1.00  0.00     0.001 A 
ATOM     79  C   UNL A   1      41.384  36.483  36.919  1.00  0.00     0.001 A 
ATOM     80  C   UNL A   1      40.538  36.291  38.009  1.00  0.00     0.000 A 
ENDBRANCH  56  75
BRANCH  68  81
ATOM     81  C   UNL A   1      44.419  28.704  34.592  1.00  0.00    -0.014 A 
ATOM     82  C   UNL A   1      45.756  29.035  34.326  1.00  0.00     0.009 A 
ATOM     83  C   UNL A   1      44.142  27.770  35.605  1.00  0.00     0.009 A 
ATOM     84  C   UNL A   1      46.793  28.425  35.037  1.00  0.00     0.001 A 
ATOM     85  C   UNL A   1      45.178  27.185  36.336  1.00  0.00     0.001 A 
ATOM     86  C   UNL A   1      46.502  27.507  36.046  1.00  0.00     0.000 A 
ENDBRANCH  68  81
ENDBRANCH  42  43
ENDBRANCH  35  37
ENDBRANCH  34  35
ENDBRANCH  33  34
ENDBRANCH  32  33
ENDBRANCH  31  32
ENDBRANCH  30  31
ENDBRANCH   1  30
TORSDOF 22
ENDMDL
MODEL 2
REMARK VINA RESULT:     -10.0      0.582      5.651
REMARK SMILES COc1ccc(-c2noc(CC(=O)OCCOCCOCCOC(=O)c3ccc(-c4c5nc(c(-c6ccccc6)c6ccc([nH]6)c(-c6ccccc6)c6nc(c(-c7ccccc7)c7ccc4[nH]7)C=C6)C=C5)cc3)c2-c2ccc(OC)cc2)cc1
REMARK SMILES IDX 18 1 17 2 16 3 15 4 14 5 12 6 13 7 11 8 10 9 7 10 8 11 74 12
REMARK SMILES IDX 9 13 6 14 3 15 4 16 84 17 5 18 83 19 2 20 1 21 75 22 76 23
REMARK SMILES IDX 82 24 77 25 81 26 78 27 79 28 80 29 19 30 20 31 21 32 22 33
REMARK SMILES IDX 23 34 24 35 25 36 26 37 27 38 73 39 28 40 72 41 29 42 30 43
REMARK SMILES IDX 31 44 66 45 32 46 71 47 65 48 67 49 33 50 70 51 64 52 63 53
REMARK SMILES IDX 34 55 56 56 41 57 55 58 42 59 45 60 54 61 68 62 43 63 44 64
REMARK SMILES IDX 53 66 69 67 46 68 35 69 36 70 40 71 37 72 39 73 38 74 57 75
REMARK SMILES IDX 58 76 62 77 59 78 61 79 60 80 47 81 48 82 52 83 49 84 51 85
REMARK SMILES IDX 50 86
REMARK H PARENT 67 54 45 65
REMARK Flexibility Score: inf
ROOT
ATOM      1  C   UNL A   1      33.026  29.512  26.213  1.00  0.00     0.188 C 
ENDROOT
BRANCH   1   2
ATOM      2  O   UNL A   1      33.533  28.757  25.124  1.00  0.00    -0.376 OA
BRANCH   2   3
ATOM      3  C   UNL A   1      33.464  29.338  23.823  1.00  0.00     0.202 C 
BRANCH   3   4
ATOM      4  C   UNL A   1      33.975  28.487  22.649  1.00  0.00     0.261 C 
BRANCH   4   5
ATOM      5  O   UNL A   1      32.941  27.752  21.947  1.00  0.00    -0.463 OA
BRANCH   5   6
ATOM      6  C   UNL A   1      33.118  26.406  21.858  1.00  0.00     0.313 C 
ATOM      7  O   UNL A   1      33.297  25.814  20.796  1.00  0.00    -0.252 OA
BRANCH   6   8
ATOM      8  C   UNL A   1      33.298  25.689  23.182  1.00  0.00     0.201 C 
BRANCH   8   9
ATOM      9  C   UNL A   1      32.903  24.256  23.253  1.00  0.00     0.156 A 
ATOM     10  C   UNL A   1      32.470  22.102  23.629  1.00  0.00     0.122 A 
ATOM     11  N   UNL A   1      31.327  22.648  23.193  1.00  0.00    -0.079 NA
ATOM     12  C   UNL A   1      33.499  23.089  23.687  1.00  0.00     0.053 A 
ATOM     13  O   UNL A   1      31.586  23.990  23.027  1.00  0.00    -0.359 OA
BRANCH  10  14
ATOM     14  C   UNL A   1      32.536  20.707  24.045  1.00  0.00     0.005 A 
ATOM     15  C   UNL A   1      32.781  18.024  24.842  1.00  0.00     0.118 A 
ATOM     16  C   UNL A   1      32.523  18.345  23.508  1.00  0.00     0.047 A 
ATOM     17  C   UNL A   1      32.917  19.047  25.781  1.00  0.00     0.047 A 
ATOM     18  C   UNL A   1      32.384  19.680  23.110  1.00  0.00     0.014 A 
ATOM     19  C   UNL A   1      32.794  20.382  25.383  1.00  0.00     0.014 A 
BRANCH  15  20
ATOM     20  O   UNL A   1      32.936  16.691  25.106  1.00  0.00    -0.497 OA
ATOM     21  C   UNL A   1      34.270  16.200  25.043  1.00  0.00     0.278 C 
ENDBRANCH  15  20
ENDBRANCH  10  14
BRANCH  12  22
ATOM     22  C   UNL A   1      34.813  23.019  24.275  1.00  0.00    -0.012 A 
ATOM     23  C   UNL A   1      35.895  22.476  23.584  1.00  0.00     0.013 A 
ATOM     24  C   UNL A   1      34.973  23.438  25.600  1.00  0.00     0.013 A 
ATOM     25  C   UNL A   1      37.139  22.384  24.217  1.00  0.00     0.047 A 
ATOM     26  C   UNL A   1      36.214  23.357  26.222  1.00  0.00     0.047 A 
ATOM     27  C   UNL A   1      37.305  22.835  25.531  1.00  0.00     0.118 A 
BRANCH  27  28
ATOM     28  O   UNL A   1      38.567  22.704  26.043  1.00  0.00    -0.497 OA
ATOM     29  C   UNL A   1      39.119  21.391  26.011  1.00  0.00     0.278 C 
ENDBRANCH  27  28
ENDBRANCH  12  22
ENDBRANCH   8   9
ENDBRANCH   6   8
ENDBRANCH   5   6
ENDBRANCH   4   5
ENDBRANCH   3   4
ENDBRANCH   2   3
ENDBRANCH   1   2
BRANCH   1  30
ATOM     30  C   UNL A   1      31.746  30.326  26.003  1.00  0.00     0.188 C 
BRANCH  30  31
ATOM     31  O   UNL A   1      31.580  31.405  26.900  1.00  0.00    -0.376 OA
BRANCH  31  32
ATOM     32  C   UNL A   1      32.770  31.932  27.468  1.00  0.00     0.202 C 
BRANCH  32  33
ATOM     33  C   UNL A   1      32.806  33.459  27.319  1.00  0.00     0.261 C 
BRANCH  33  34
ATOM     34  O   UNL A   1      32.380  34.186  28.491  1.00  0.00    -0.460 OA
BRANCH  34  35
ATOM     35  C   UNL A   1      33.247  35.097  28.999  1.00  0.00     0.338 C 
ATOM     36  O   UNL A   1      33.057  36.296  29.111  1.00  0.00    -0.246 OA
BRANCH  35  37
ATOM     37  C   UNL A   1      34.371  34.355  29.631  1.00  0.00     0.060 A 
ATOM     38  C   UNL A   1      35.670  34.520  29.121  1.00  0.00     0.016 A 
ATOM     39  C   UNL A   1      34.166  33.569  30.766  1.00  0.00     0.016 A 
ATOM     40  C   UNL A   1      36.758  33.886  29.737  1.00  0.00     0.010 A 
ATOM     41  C   UNL A   1      35.250  32.918  31.365  1.00  0.00     0.010 A 
ATOM     42  C   UNL A   1      36.552  33.056  30.848  1.00  0.00    -0.014 A 
BRANCH  42  43
ATOM     43  C   UNL A   1      37.647  32.208  31.393  1.00  0.00     0.031 A 
ATOM     44  C   UNL A   1      38.257  32.583  32.718  1.00  0.00     0.074 A 
ATOM     45  C   UNL A   1      38.130  31.145  30.722  1.00  0.00     0.049 A 
ATOM     46  N   UNL A   1      39.301  32.082  33.327  1.00  0.00    -0.248 NA
ATOM     47  C   UNL A   1      37.596  33.674  33.454  1.00  0.00     0.031 C 
ATOM     48  C   UNL A   1      37.611  30.628  29.458  1.00  0.00     0.029 A 
ATOM     49  N   UNL A   1      39.190  30.317  31.014  1.00  0.00    -0.354 N 
ATOM     50  C   UNL A   1      39.431  32.802  34.508  1.00  0.00     0.074 A 
ATOM     51  C   UNL A   1      38.374  33.789  34.520  1.00  0.00     0.031 C 
ATOM     52  C   UNL A   1      38.365  29.582  29.073  1.00  0.00     0.029 A 
ATOM     53  C   UNL A   1      39.448  29.383  30.038  1.00  0.00     0.049 A 
ATOM     54  H   UNL A   1      39.715  30.386  31.844  1.00  0.00     0.167 HD
ATOM     55  C   UNL A   1      40.346  32.657  35.497  1.00  0.00     0.031 A 
ATOM     56  C   UNL A   1      40.458  28.498  29.915  1.00  0.00     0.031 A 
ATOM     57  C   UNL A   1      41.413  31.692  35.486  1.00  0.00     0.049 A 
ATOM     58  C   UNL A   1      41.533  28.435  30.974  1.00  0.00     0.074 A 
ATOM     59  C   UNL A   1      42.380  31.468  36.452  1.00  0.00     0.029 A 
ATOM     60  N   UNL A   1      41.663  30.800  34.457  1.00  0.00    -0.354 N 
ATOM     61  N   UNL A   1      41.631  29.104  32.098  1.00  0.00    -0.248 NA
ATOM     62  C   UNL A   1      42.641  27.494  30.741  1.00  0.00     0.031 C 
ATOM     63  C   UNL A   1      43.253  30.486  35.979  1.00  0.00     0.029 A 
ATOM     64  C   UNL A   1      42.792  30.050  34.748  1.00  0.00     0.049 A 
ATOM     65  H   UNL A   1      41.120  30.712  33.641  1.00  0.00     0.167 HD
ATOM     66  C   UNL A   1      42.791  28.645  32.714  1.00  0.00     0.074 A 
ATOM     67  C   UNL A   1      43.352  27.628  31.852  1.00  0.00     0.031 C 
ATOM     68  C   UNL A   1      43.343  29.037  33.889  1.00  0.00     0.031 A 
BRANCH  55  69
ATOM     69  C   UNL A   1      40.256  33.594  36.668  1.00  0.00    -0.014 A 
ATOM     70  C   UNL A   1      40.876  34.853  36.644  1.00  0.00     0.009 A 
ATOM     71  C   UNL A   1      39.490  33.235  37.789  1.00  0.00     0.009 A 
ATOM     72  C   UNL A   1      40.754  35.721  37.731  1.00  0.00     0.001 A 
ATOM     73  C   UNL A   1      39.345  34.116  38.861  1.00  0.00     0.001 A 
ATOM     74  C   UNL A   1      39.983  35.354  38.835  1.00  0.00     0.000 A 
ENDBRANCH  55  69
BRANCH  56  75
ATOM     75  C   UNL A   1      40.550  27.616  28.719  1.00  0.00    -0.014 A 
ATOM     76  C   UNL A   1      41.209  28.048  27.557  1.00  0.00     0.009 A 
ATOM     77  C   UNL A   1      39.925  26.358  28.709  1.00  0.00     0.009 A 
ATOM     78  C   UNL A   1      41.213  27.257  26.404  1.00  0.00     0.001 A 
ATOM     79  C   UNL A   1      39.959  25.554  27.568  1.00  0.00     0.001 A 
ATOM     80  C   UNL A   1      40.592  26.008  26.413  1.00  0.00     0.000 A 
ENDBRANCH  56  75
BRANCH  68  81
ATOM     81  C   UNL A   1      44.601  28.343  34.336  1.00  0.00    -0.014 A 
ATOM     82  C   UNL A   1      44.600  26.985  34.693  1.00  0.00     0.009 A 
ATOM     83  C   UNL A   1      45.819  29.044  34.343  1.00  0.00     0.009 A 
ATOM     84  C   UNL A   1      45.786  26.353  35.077  1.00  0.00     0.001 A 
ATOM     85  C   UNL A   1      47.008  28.401  34.696  1.00  0.00     0.001 A 
ATOM     86  C   UNL A   1      46.989  27.059  35.070  1.00  0.00     0.000 A 
ENDBRANCH  68  81
ENDBRANCH  42  43
ENDBRANCH  35  37
ENDBRANCH  34  35
ENDBRANCH  33  34
ENDBRANCH  32  33
ENDBRANCH  31  32
ENDBRANCH  30  31
ENDBRANCH   1  30
TORSDOF 22
ENDMDL
MODEL 3
REMARK VINA RESULT:      -9.9      4.463     10.481
REMARK SMILES COc1ccc(-c2noc(CC(=O)OCCOCCOCCOC(=O)c3ccc(-c4c5nc(c(-c6ccccc6)c6ccc([nH]6)c(-c6ccccc6)c6nc(c(-c7ccccc7)c7ccc4[nH]7)C=C6)C=C5)cc3)c2-c2ccc(OC)cc2)cc1
REMARK SMILES IDX 18 1 17 2 16 3 15 4 14 5 12 6 13 7 11 8 10 9 7 10 8 11 74 12
REMARK SMILES IDX 9 13 6 14 3 15 4 16 84 17 5 18 83 19 2 20 1 21 75 22 76 23
REMARK SMILES IDX 82 24 77 25 81 26 78 27 79 28 80 29 19 30 20 31 21 32 22 33
REMARK SMILES IDX 23 34 24 35 25 36 26 37 27 38 73 39 28 40 72 41 29 42 30 43
REMARK SMILES IDX 31 44 66 45 32 46 71 47 65 48 67 49 33 50 70 51 64 52 63 53
REMARK SMILES IDX 34 55 56 56 41 57 55 58 42 59 45 60 54 61 68 62 43 63 44 64
REMARK SMILES IDX 53 66 69 67 46 68 35 69 36 70 40 71 37 72 39 73 38 74 57 75
REMARK SMILES IDX 58 76 62 77 59 78 61 79 60 80 47 81 48 82 52 83 49 84 51 85
REMARK SMILES IDX 50 86
REMARK H PARENT 67 54 45 65
REMARK Flexibility Score: inf
ROOT
ATOM      1  C   UNL A   1      35.897  21.091  25.336  1.00  0.00     0.188 C 
ENDROOT
BRANCH   1   2
ATOM      2  O   UNL A   1      34.557  21.434  25.020  1.00  0.00    -0.376 OA
BRANCH   2   3
ATOM      3  C   UNL A   1      33.754  20.447  24.375  1.00  0.00     0.202 C 
BRANCH   3   4
ATOM      4  C   UNL A   1      32.262  20.771  24.189  1.00  0.00     0.261 C 
BRANCH   4   5
ATOM      5  O   UNL A   1      31.553  21.053  25.423  1.00  0.00    -0.463 OA
BRANCH   5   6
ATOM      6  C   UNL A   1      30.861  22.224  25.462  1.00  0.00     0.313 C 
ATOM      7  O   UNL A   1      30.022  22.487  26.321  1.00  0.00    -0.252 OA
BRANCH   6   8
ATOM      8  C   UNL A   1      31.340  23.290  24.498  1.00  0.00     0.201 C 
BRANCH   8   9
ATOM      9  C   UNL A   1      32.054  24.466  25.065  1.00  0.00     0.156 A 
ATOM     10  C   UNL A   1      32.840  26.354  25.953  1.00  0.00     0.122 A 
ATOM     11  N   UNL A   1      33.543  25.354  26.504  1.00  0.00    -0.079 NA
ATOM     12  C   UNL A   1      31.879  25.835  25.035  1.00  0.00     0.053 A 
ATOM     13  O   UNL A   1      33.007  24.190  25.999  1.00  0.00    -0.359 OA
BRANCH  10  14
ATOM     14  C   UNL A   1      33.040  27.738  26.362  1.00  0.00     0.005 A 
ATOM     15  C   UNL A   1      33.451  30.368  27.259  1.00  0.00     0.118 A 
ATOM     16  C   UNL A   1      32.160  29.841  27.180  1.00  0.00     0.047 A 
ATOM     17  C   UNL A   1      34.540  29.579  26.889  1.00  0.00     0.047 A 
ATOM     18  C   UNL A   1      31.950  28.537  26.718  1.00  0.00     0.014 A 
ATOM     19  C   UNL A   1      34.334  28.270  26.442  1.00  0.00     0.014 A 
BRANCH  15  20
ATOM     20  O   UNL A   1      33.536  31.638  27.762  1.00  0.00    -0.497 OA
ATOM     21  C   UNL A   1      34.842  32.202  27.795  1.00  0.00     0.278 C 
ENDBRANCH  15  20
ENDBRANCH  10  14
BRANCH  12  22
ATOM     22  C   UNL A   1      30.785  26.499  24.371  1.00  0.00    -0.012 A 
ATOM     23  C   UNL A   1      31.000  27.540  23.469  1.00  0.00     0.013 A 
ATOM     24  C   UNL A   1      29.479  26.131  24.710  1.00  0.00     0.013 A 
ATOM     25  C   UNL A   1      29.903  28.186  22.890  1.00  0.00     0.047 A 
ATOM     26  C   UNL A   1      28.391  26.767  24.122  1.00  0.00     0.047 A 
ATOM     27  C   UNL A   1      28.598  27.794  23.204  1.00  0.00     0.118 A 
BRANCH  27  28
ATOM     28  O   UNL A   1      27.606  28.490  22.569  1.00  0.00    -0.497 OA
ATOM     29  C   UNL A   1      27.454  29.852  22.957  1.00  0.00     0.278 C 
ENDBRANCH  27  28
ENDBRANCH  12  22
ENDBRANCH   8   9
ENDBRANCH   6   8
ENDBRANCH   5   6
ENDBRANCH   4   5
ENDBRANCH   3   4
ENDBRANCH   2   3
ENDBRANCH   1   2
BRANCH   1  30
ATOM     30  C   UNL A   1      36.457  19.768  24.806  1.00  0.00     0.188 C 
BRANCH  30  31
ATOM     31  O   UNL A   1      37.865  19.662  24.852  1.00  0.00    -0.376 OA
BRANCH  31  32
ATOM     32  C   UNL A   1      38.559  20.802  25.338  1.00  0.00     0.202 C 
BRANCH  32  33
ATOM     33  C   UNL A   1      39.748  20.376  26.210  1.00  0.00     0.261 C 
BRANCH  33  34
ATOM     34  O   UNL A   1      40.547  19.311  25.656  1.00  0.00    -0.460 OA
BRANCH  34  35
ATOM     35  C   UNL A   1      41.848  19.256  26.035  1.00  0.00     0.338 C 
ATOM     36  O   UNL A   1      42.618  18.328  25.853  1.00  0.00    -0.246 OA
BRANCH  35  37
ATOM     37  C   UNL A   1      42.250  20.615  26.486  1.00  0.00     0.060 A 
ATOM     38  C   UNL A   1      42.568  21.587  25.522  1.00  0.00     0.016 A 
ATOM     39  C   UNL A   1      42.236  20.958  27.838  1.00  0.00     0.016 A 
ATOM     40  C   UNL A   1      42.886  22.895  25.914  1.00  0.00     0.010 A 
ATOM     41  C   UNL A   1      42.577  22.258  28.229  1.00  0.00     0.010 A 
ATOM     42  C   UNL A   1      42.921  23.233  27.274  1.00  0.00    -0.014 A 
BRANCH  42  43
ATOM     43  C   UNL A   1      43.455  24.545  27.731  1.00  0.00     0.031 A 
ATOM     44  C   UNL A   1      42.479  25.612  28.154  1.00  0.00     0.074 A 
ATOM     45  C   UNL A   1      44.774  24.815  27.743  1.00  0.00     0.049 A 
ATOM     46  N   UNL A   1      42.697  26.866  28.460  1.00  0.00    -0.248 NA
ATOM     47  C   UNL A   1      41.067  25.206  28.240  1.00  0.00     0.031 C 
ATOM     48  C   UNL A   1      45.840  23.872  27.415  1.00  0.00     0.029 A 
ATOM     49  N   UNL A   1      45.439  25.986  28.031  1.00  0.00    -0.354 N 
ATOM     50  C   UNL A   1      41.450  27.402  28.761  1.00  0.00     0.074 A 
ATOM     51  C   UNL A   1      40.480  26.344  28.580  1.00  0.00     0.031 C 
ATOM     52  C   UNL A   1      47.024  24.505  27.502  1.00  0.00     0.029 A 
ATOM     53  C   UNL A   1      46.799  25.910  27.846  1.00  0.00     0.049 A 
ATOM     54  H   UNL A   1      44.982  26.802  28.341  1.00  0.00     0.167 HD
ATOM     55  C   UNL A   1      41.138  28.660  29.155  1.00  0.00     0.031 A 
ATOM     56  C   UNL A   1      47.748  26.866  27.908  1.00  0.00     0.031 A 
ATOM     57  C   UNL A   1      42.092  29.724  29.320  1.00  0.00     0.049 A 
ATOM     58  C   UNL A   1      47.359  28.288  28.235  1.00  0.00     0.074 A 
ATOM     59  C   UNL A   1      41.864  31.028  29.728  1.00  0.00     0.029 A 
ATOM     60  N   UNL A   1      43.450  29.613  29.076  1.00  0.00    -0.354 N 
ATOM     61  N   UNL A   1      46.182  28.777  28.542  1.00  0.00    -0.248 NA
ATOM     62  C   UNL A   1      48.436  29.293  28.218  1.00  0.00     0.031 C 
ATOM     63  C   UNL A   1      43.074  31.724  29.667  1.00  0.00     0.029 A 
ATOM     64  C   UNL A   1      44.067  30.836  29.287  1.00  0.00     0.049 A 
ATOM     65  H   UNL A   1      43.909  28.790  28.795  1.00  0.00     0.167 HD
ATOM     66  C   UNL A   1      46.383  30.133  28.781  1.00  0.00     0.074 A 
ATOM     67  C   UNL A   1      47.795  30.387  28.604  1.00  0.00     0.031 C 
ATOM     68  C   UNL A   1      45.474  31.083  29.114  1.00  0.00     0.031 A 
BRANCH  55  69
ATOM     69  C   UNL A   1      39.688  28.969  29.404  1.00  0.00    -0.014 A 
ATOM     70  C   UNL A   1      39.107  28.768  30.666  1.00  0.00     0.009 A 
ATOM     71  C   UNL A   1      38.910  29.525  28.377  1.00  0.00     0.009 A 
ATOM     72  C   UNL A   1      37.766  29.092  30.885  1.00  0.00     0.001 A 
ATOM     73  C   UNL A   1      37.578  29.875  28.607  1.00  0.00     0.001 A 
ATOM     74  C   UNL A   1      37.006  29.651  29.857  1.00  0.00     0.000 A 
ENDBRANCH  55  69
BRANCH  56  75
ATOM     75  C   UNL A   1      49.170  26.542  27.608  1.00  0.00    -0.014 A 
ATOM     76  C   UNL A   1      49.626  26.473  26.281  1.00  0.00     0.009 A 
ATOM     77  C   UNL A   1      50.067  26.238  28.644  1.00  0.00     0.009 A 
ATOM     78  C   UNL A   1      50.937  26.076  25.999  1.00  0.00     0.001 A 
ATOM     79  C   UNL A   1      51.386  25.876  28.362  1.00  0.00     0.001 A 
ATOM     80  C   UNL A   1      51.817  25.783  27.040  1.00  0.00     0.000 A 
ENDBRANCH  56  75
BRANCH  68  81
ATOM     81  C   UNL A   1      45.978  32.482  29.344  1.00  0.00    -0.014 A 
ATOM     82  C   UNL A   1      45.850  33.476  28.362  1.00  0.00     0.009 A 
ATOM     83  C   UNL A   1      46.536  32.826  30.587  1.00  0.00     0.009 A 
ATOM     84  C   UNL A   1      46.298  34.777  28.608  1.00  0.00     0.001 A 
ATOM     85  C   UNL A   1      46.953  34.134  30.842  1.00  0.00     0.001 A 
ATOM     86  C   UNL A   1      46.841  35.106  29.850  1.00  0.00     0.000 A 
ENDBRANCH  68  81
ENDBRANCH  42  43
ENDBRANCH  35  37
ENDBRANCH  34  35
ENDBRANCH  33  34
ENDBRANCH  32  33
ENDBRANCH  31  32
ENDBRANCH  30  31
ENDBRANCH   1  30
TORSDOF 22
ENDMDL
