MODEL 1
REMARK VINA RESULT:     -12.0      0.000      0.000
REMARK SMILES Cc1ccc(N2C(=O)N=C(OCCOCCOCCOC(=O)c3ccc(-c4c5nc(c(-c6ccccc6)c6ccc([nH]6)c(-c6ccccc6)c6nc(c(-c7ccccc7)c7ccc4[nH]7)C=C6)C=C5)cc3)/C(=C/c3ccccc3OCc3cccc(C(=O)[O-])c3)C2=O)cc1
REMARK SMILES IDX 15 1 14 2 13 3 12 4 11 5 10 6 6 7 7 8 90 9 8 10 9 11 71 12
REMARK SMILES IDX 91 13 72 14 5 15 1 16 2 17 3 18 93 19 4 20 92 21 73 22 74 23
REMARK SMILES IDX 78 24 75 25 77 26 76 27 79 28 80 29 81 30 82 31 89 32 83 33
REMARK SMILES IDX 85 34 84 35 86 36 87 37 88 38 16 39 17 40 18 41 19 42 20 43
REMARK SMILES IDX 21 44 22 45 23 46 24 47 70 48 25 49 69 50 26 51 27 52 28 53
REMARK SMILES IDX 63 54 29 55 68 56 62 57 64 58 30 59 67 60 61 61 60 62 31 64
REMARK SMILES IDX 53 65 38 66 52 67 39 68 42 69 51 70 65 71 40 72 41 73 50 75
REMARK SMILES IDX 66 76 43 77 32 78 33 79 37 80 34 81 36 82 35 83 54 84 55 85
REMARK SMILES IDX 59 86 56 87 58 88 57 89 44 90 45 91 49 92 46 93 48 94 47 95
REMARK H PARENT 64 63 42 74
REMARK Flexibility Score: inf
ROOT
ATOM      1  C   UNL A   1      39.602  30.142  32.111  1.00  0.00     0.188 C 
ENDROOT
BRANCH   1   2
ATOM      2  O   UNL A   1      38.221  30.414  32.373  1.00  0.00    -0.376 OA
BRANCH   2   3
ATOM      3  C   UNL A   1      37.639  31.325  31.432  1.00  0.00     0.201 C 
BRANCH   3   4
ATOM      4  C   UNL A   1      36.262  30.875  30.953  1.00  0.00     0.260 C 
BRANCH   4   5
ATOM      5  O   UNL A   1      36.182  31.018  29.497  1.00  0.00    -0.475 OA
BRANCH   5   6
ATOM      6  C   UNL A   1      35.389  30.783  28.442  1.00  0.00     0.231 C 
ATOM      7  N   UNL A   1      33.712  29.755  26.485  1.00  0.00    -0.226 N 
ATOM      8  C   UNL A   1      34.732  29.019  27.054  1.00  0.00     0.358 C 
ATOM      9  C   UNL A   1      33.236  30.787  27.263  1.00  0.00     0.272 C 
ATOM     10  O   UNL A   1      34.824  27.805  26.891  1.00  0.00    -0.245 OA
ATOM     11  N   UNL A   1      35.583  29.622  27.929  1.00  0.00    -0.156 NA
ATOM     12  C   UNL A   1      34.295  31.710  28.076  1.00  0.00     0.103 C 
ATOM     13  O   UNL A   1      32.008  30.895  27.334  1.00  0.00    -0.268 OA
ATOM     14  C   UNL A   1      34.440  32.893  28.818  1.00  0.00     0.031 C 
BRANCH   7  15
ATOM     15  C   UNL A   1      32.895  29.142  25.401  1.00  0.00     0.054 A 
ATOM     16  C   UNL A   1      30.531  27.560  22.052  1.00  0.00     0.044 C 
ATOM     17  C   UNL A   1      31.332  28.113  23.195  1.00  0.00    -0.051 A 
ATOM     18  C   UNL A   1      30.920  27.926  24.510  1.00  0.00     0.005 A 
ATOM     19  C   UNL A   1      32.529  28.795  22.981  1.00  0.00     0.005 A 
ATOM     20  C   UNL A   1      31.678  28.442  25.586  1.00  0.00     0.027 A 
ATOM     21  C   UNL A   1      33.286  29.296  24.059  1.00  0.00     0.027 A 
ENDBRANCH   7  15
BRANCH  14  22
ATOM     22  C   UNL A   1      33.913  34.262  29.691  1.00  0.00     0.018 A 
ATOM     23  C   UNL A   1      33.199  35.107  28.794  1.00  0.00     0.012 A 
ATOM     24  C   UNL A   1      34.072  34.875  31.104  1.00  0.00     0.127 A 
ATOM     25  C   UNL A   1      32.845  36.431  29.091  1.00  0.00     0.001 A 
ATOM     26  C   UNL A   1      33.758  36.240  31.314  1.00  0.00     0.047 A 
ATOM     27  C   UNL A   1      33.181  37.008  30.310  1.00  0.00     0.004 A 
BRANCH  24  28
ATOM     28  O   UNL A   1      34.037  34.241  32.637  1.00  0.00    -0.488 OA
BRANCH  28  29
ATOM     29  C   UNL A   1      35.025  33.689  33.920  1.00  0.00     0.265 C 
BRANCH  29  30
ATOM     30  C   UNL A   1      36.558  33.624  34.328  1.00  0.00    -0.010 A 
ATOM     31  C   UNL A   1      37.509  34.355  33.586  1.00  0.00     0.007 A 
ATOM     32  C   UNL A   1      37.093  32.636  35.164  1.00  0.00     0.017 A 
ATOM     33  C   UNL A   1      38.890  34.082  33.672  1.00  0.00     0.001 A 
ATOM     34  C   UNL A   1      38.463  32.371  35.290  1.00  0.00    -0.002 A 
ATOM     35  C   UNL A   1      39.368  33.081  34.516  1.00  0.00     0.010 A 
BRANCH  34  36
ATOM     36  C   UNL A   1      38.926  31.267  36.168  1.00  0.00     0.071 C 
ATOM     37  O   UNL A   1      40.077  30.947  36.374  1.00  0.00    -0.545 OA
ATOM     38  O   UNL A   1      37.894  30.623  36.751  1.00  0.00    -0.545 OA
ENDBRANCH  34  36
ENDBRANCH  29  30
ENDBRANCH  28  29
ENDBRANCH  24  28
ENDBRANCH  14  22
ENDBRANCH   5   6
ENDBRANCH   4   5
ENDBRANCH   3   4
ENDBRANCH   2   3
ENDBRANCH   1   2
BRANCH   1  39
ATOM     39  C   UNL A   1      39.887  29.796  30.638  1.00  0.00     0.188 C 
BRANCH  39  40
ATOM     40  O   UNL A   1      40.081  28.426  30.308  1.00  0.00    -0.376 OA
BRANCH  40  41
ATOM     41  C   UNL A   1      38.921  27.673  29.977  1.00  0.00     0.202 C 
BRANCH  41  42
ATOM     42  C   UNL A   1      39.076  27.219  28.518  1.00  0.00     0.261 C 
BRANCH  42  43
ATOM     43  O   UNL A   1      39.211  25.780  28.487  1.00  0.00    -0.460 OA
BRANCH  43  44
ATOM     44  C   UNL A   1      39.904  25.229  27.450  1.00  0.00     0.338 C 
ATOM     45  O   UNL A   1      39.445  24.866  26.383  1.00  0.00    -0.246 OA
BRANCH  44  46
ATOM     46  C   UNL A   1      41.332  25.024  27.866  1.00  0.00     0.060 A 
ATOM     47  C   UNL A   1      41.799  23.766  28.277  1.00  0.00     0.016 A 
ATOM     48  C   UNL A   1      42.191  26.107  27.996  1.00  0.00     0.016 A 
ATOM     49  C   UNL A   1      43.044  23.625  28.945  1.00  0.00     0.010 A 
ATOM     50  C   UNL A   1      43.364  25.974  28.745  1.00  0.00     0.010 A 
ATOM     51  C   UNL A   1      43.775  24.750  29.340  1.00  0.00    -0.014 A 
BRANCH  51  52
ATOM     52  C   UNL A   1      45.065  24.872  30.219  1.00  0.00     0.031 A 
ATOM     53  C   UNL A   1      46.177  25.181  28.882  1.00  0.00     0.074 A 
ATOM     54  C   UNL A   1      45.234  25.037  31.781  1.00  0.00     0.049 A 
ATOM     55  N   UNL A   1      47.054  26.138  28.703  1.00  0.00    -0.248 NA
ATOM     56  C   UNL A   1      46.288  24.247  27.747  1.00  0.00     0.031 C 
ATOM     57  C   UNL A   1      46.224  26.005  32.765  1.00  0.00     0.029 A 
ATOM     58  N   UNL A   1      44.675  24.497  32.958  1.00  0.00    -0.354 N 
ATOM     59  C   UNL A   1      48.142  25.637  28.048  1.00  0.00     0.074 A 
ATOM     60  C   UNL A   1      47.489  24.594  27.233  1.00  0.00     0.031 C 
ATOM     61  C   UNL A   1      45.788  26.217  33.989  1.00  0.00     0.029 A 
ATOM     62  C   UNL A   1      45.023  25.054  34.191  1.00  0.00     0.049 A 
ATOM     63  H   UNL A   1      44.048  23.739  32.912  1.00  0.00     0.167 HD
ATOM     64  C   UNL A   1      49.459  25.612  28.532  1.00  0.00     0.031 A 
ATOM     65  C   UNL A   1      45.427  24.378  35.278  1.00  0.00     0.031 A 
ATOM     66  C   UNL A   1      49.850  25.729  30.024  1.00  0.00     0.049 A 
ATOM     67  C   UNL A   1      46.932  24.001  35.194  1.00  0.00     0.074 A 
ATOM     68  C   UNL A   1      49.974  26.777  30.936  1.00  0.00     0.029 A 
ATOM     69  N   UNL A   1      50.304  24.620  30.831  1.00  0.00    -0.354 N 
ATOM     70  N   UNL A   1      47.799  24.473  34.297  1.00  0.00    -0.248 NA
ATOM     71  C   UNL A   1      47.580  23.052  36.079  1.00  0.00     0.031 C 
ATOM     72  C   UNL A   1      50.081  26.261  32.287  1.00  0.00     0.029 A 
ATOM     73  C   UNL A   1      50.120  24.875  32.257  1.00  0.00     0.049 A 
ATOM     74  H   UNL A   1      50.692  23.792  30.464  1.00  0.00     0.167 HD
ATOM     75  C   UNL A   1      48.986  23.768  34.307  1.00  0.00     0.074 A 
ATOM     76  C   UNL A   1      48.807  22.956  35.525  1.00  0.00     0.031 C 
ATOM     77  C   UNL A   1      49.981  23.769  33.317  1.00  0.00     0.031 A 
BRANCH  64  78
ATOM     78  C   UNL A   1      50.473  25.988  27.465  1.00  0.00    -0.014 A 
ATOM     79  C   UNL A   1      50.414  27.278  26.908  1.00  0.00     0.009 A 
ATOM     80  C   UNL A   1      51.393  25.096  26.882  1.00  0.00     0.009 A 
ATOM     81  C   UNL A   1      51.196  27.644  25.808  1.00  0.00     0.001 A 
ATOM     82  C   UNL A   1      52.179  25.457  25.781  1.00  0.00     0.001 A 
ATOM     83  C   UNL A   1      52.073  26.730  25.239  1.00  0.00     0.000 A 
ENDBRANCH  64  78
BRANCH  65  84
ATOM     84  C   UNL A   1      44.178  24.267  36.086  1.00  0.00    -0.014 A 
ATOM     85  C   UNL A   1      43.987  25.277  37.092  1.00  0.00     0.009 A 
ATOM     86  C   UNL A   1      43.016  23.784  35.469  1.00  0.00     0.009 A 
ATOM     87  C   UNL A   1      42.742  25.892  37.310  1.00  0.00     0.001 A 
ATOM     88  C   UNL A   1      41.760  24.364  35.743  1.00  0.00     0.001 A 
ATOM     89  C   UNL A   1      41.629  25.447  36.613  1.00  0.00     0.000 A 
ENDBRANCH  65  84
BRANCH  77  90
ATOM     90  C   UNL A   1      50.952  22.591  33.253  1.00  0.00    -0.014 A 
ATOM     91  C   UNL A   1      52.329  22.708  32.973  1.00  0.00     0.009 A 
ATOM     92  C   UNL A   1      50.503  21.305  33.602  1.00  0.00     0.009 A 
ATOM     93  C   UNL A   1      53.181  21.598  32.938  1.00  0.00     0.001 A 
ATOM     94  C   UNL A   1      51.368  20.205  33.655  1.00  0.00     0.001 A 
ATOM     95  C   UNL A   1      52.700  20.346  33.292  1.00  0.00     0.000 A 
ENDBRANCH  77  90
ENDBRANCH  51  52
ENDBRANCH  44  46
ENDBRANCH  43  44
ENDBRANCH  42  43
ENDBRANCH  41  42
ENDBRANCH  40  41
ENDBRANCH  39  40
ENDBRANCH   1  39
TORSDOF 22
ENDMDL
MODEL 2
REMARK VINA RESULT:     -11.7      5.682     14.515
REMARK SMILES Cc1ccc(N2C(=O)N=C(OCCOCCOCCOC(=O)c3ccc(-c4c5nc(c(-c6ccccc6)c6ccc([nH]6)c(-c6ccccc6)c6nc(c(-c7ccccc7)c7ccc4[nH]7)C=C6)C=C5)cc3)/C(=C/c3ccccc3OCc3cccc(C(=O)[O-])c3)C2=O)cc1
REMARK SMILES IDX 15 1 14 2 13 3 12 4 11 5 10 6 6 7 7 8 90 9 8 10 9 11 71 12
REMARK SMILES IDX 91 13 72 14 5 15 1 16 2 17 3 18 93 19 4 20 92 21 73 22 74 23
REMARK SMILES IDX 78 24 75 25 77 26 76 27 79 28 80 29 81 30 82 31 89 32 83 33
REMARK SMILES IDX 85 34 84 35 86 36 87 37 88 38 16 39 17 40 18 41 19 42 20 43
REMARK SMILES IDX 21 44 22 45 23 46 24 47 70 48 25 49 69 50 26 51 27 52 28 53
REMARK SMILES IDX 63 54 29 55 68 56 62 57 64 58 30 59 67 60 61 61 60 62 31 64
REMARK SMILES IDX 53 65 38 66 52 67 39 68 42 69 51 70 65 71 40 72 41 73 50 75
REMARK SMILES IDX 66 76 43 77 32 78 33 79 37 80 34 81 36 82 35 83 54 84 55 85
REMARK SMILES IDX 59 86 56 87 58 88 57 89 44 90 45 91 49 92 46 93 48 94 47 95
REMARK H PARENT 64 63 42 74
REMARK Flexibility Score: inf
ROOT
ATOM      1  C   UNL A   1      39.536  28.552  28.295  1.00  0.00     0.188 C 
ENDROOT
BRANCH   1   2
ATOM      2  O   UNL A   1      40.678  29.163  27.686  1.00  0.00    -0.376 OA
BRANCH   2   3
ATOM      3  C   UNL A   1      40.954  28.657  26.374  1.00  0.00     0.201 C 
BRANCH   3   4
ATOM      4  C   UNL A   1      40.911  27.133  26.311  1.00  0.00     0.260 C 
BRANCH   4   5
ATOM      5  O   UNL A   1      41.905  26.656  25.347  1.00  0.00    -0.475 OA
BRANCH   5   6
ATOM      6  C   UNL A   1      43.214  26.411  25.194  1.00  0.00     0.231 C 
ATOM      7  N   UNL A   1      45.989  26.371  25.229  1.00  0.00    -0.226 N 
ATOM      8  C   UNL A   1      45.261  27.544  25.199  1.00  0.00     0.358 C 
ATOM      9  C   UNL A   1      45.323  25.288  25.759  1.00  0.00     0.272 C 
ATOM     10  O   UNL A   1      45.782  28.637  25.403  1.00  0.00    -0.245 OA
ATOM     11  N   UNL A   1      43.906  27.486  25.073  1.00  0.00    -0.156 NA
ATOM     12  C   UNL A   1      43.769  25.049  25.356  1.00  0.00     0.103 C 
ATOM     13  O   UNL A   1      45.955  24.600  26.566  1.00  0.00    -0.268 OA
ATOM     14  C   UNL A   1      42.706  24.133  25.413  1.00  0.00     0.031 C 
BRANCH   7  15
ATOM     15  C   UNL A   1      47.475  26.442  25.190  1.00  0.00     0.054 A 
ATOM     16  C   UNL A   1      51.858  26.474  24.861  1.00  0.00     0.044 C 
ATOM     17  C   UNL A   1      50.360  26.449  24.972  1.00  0.00    -0.051 A 
ATOM     18  C   UNL A   1      49.738  26.445  26.217  1.00  0.00     0.005 A 
ATOM     19  C   UNL A   1      49.547  26.469  23.841  1.00  0.00     0.005 A 
ATOM     20  C   UNL A   1      48.329  26.427  26.320  1.00  0.00     0.027 A 
ATOM     21  C   UNL A   1      48.142  26.463  23.951  1.00  0.00     0.027 A 
ENDBRANCH   7  15
BRANCH  14  22
ATOM     22  C   UNL A   1      41.875  22.736  25.935  1.00  0.00     0.018 A 
ATOM     23  C   UNL A   1      42.843  21.735  26.236  1.00  0.00     0.012 A 
ATOM     24  C   UNL A   1      40.417  22.231  26.073  1.00  0.00     0.127 A 
ATOM     25  C   UNL A   1      42.524  20.386  26.445  1.00  0.00     0.001 A 
ATOM     26  C   UNL A   1      40.169  20.844  26.215  1.00  0.00     0.047 A 
ATOM     27  C   UNL A   1      41.211  19.938  26.368  1.00  0.00     0.004 A 
BRANCH  24  28
ATOM     28  O   UNL A   1      39.014  22.923  26.625  1.00  0.00    -0.488 OA
BRANCH  28  29
ATOM     29  C   UNL A   1      37.381  23.235  26.217  1.00  0.00     0.265 C 
BRANCH  29  30
ATOM     30  C   UNL A   1      36.280  22.761  25.176  1.00  0.00    -0.010 A 
ATOM     31  C   UNL A   1      35.837  23.652  24.176  1.00  0.00     0.007 A 
ATOM     32  C   UNL A   1      35.466  21.639  25.371  1.00  0.00     0.017 A 
ATOM     33  C   UNL A   1      34.648  23.427  23.452  1.00  0.00     0.001 A 
ATOM     34  C   UNL A   1      34.299  21.378  24.640  1.00  0.00    -0.002 A 
ATOM     35  C   UNL A   1      33.871  22.295  23.692  1.00  0.00     0.010 A 
BRANCH  34  36
ATOM     36  C   UNL A   1      33.478  20.183  24.958  1.00  0.00     0.071 C 
ATOM     37  O   UNL A   1      32.334  20.183  25.360  1.00  0.00    -0.545 OA
ATOM     38  O   UNL A   1      34.156  19.038  24.741  1.00  0.00    -0.545 OA
ENDBRANCH  34  36
ENDBRANCH  29  30
ENDBRANCH  28  29
ENDBRANCH  24  28
ENDBRANCH  14  22
ENDBRANCH   5   6
ENDBRANCH   4   5
ENDBRANCH   3   4
ENDBRANCH   2   3
ENDBRANCH   1   2
BRANCH   1  39
ATOM     39  C   UNL A   1      38.222  29.308  28.025  1.00  0.00     0.188 C 
BRANCH  39  40
ATOM     40  O   UNL A   1      37.009  28.569  28.104  1.00  0.00    -0.376 OA
BRANCH  40  41
ATOM     41  C   UNL A   1      35.799  29.318  28.109  1.00  0.00     0.202 C 
BRANCH  41  42
ATOM     42  C   UNL A   1      36.108  30.685  27.484  1.00  0.00     0.261 C 
BRANCH  42  43
ATOM     43  O   UNL A   1      35.081  31.623  27.878  1.00  0.00    -0.460 OA
BRANCH  43  44
ATOM     44  C   UNL A   1      35.137  32.136  29.140  1.00  0.00     0.338 C 
ATOM     45  O   UNL A   1      34.191  32.391  29.861  1.00  0.00    -0.246 OA
BRANCH  44  46
ATOM     46  C   UNL A   1      36.564  32.457  29.477  1.00  0.00     0.060 A 
ATOM     47  C   UNL A   1      37.281  31.697  30.416  1.00  0.00     0.016 A 
ATOM     48  C   UNL A   1      37.166  33.605  28.981  1.00  0.00     0.016 A 
ATOM     49  C   UNL A   1      38.510  32.161  30.956  1.00  0.00     0.010 A 
ATOM     50  C   UNL A   1      38.320  34.102  29.592  1.00  0.00     0.010 A 
ATOM     51  C   UNL A   1      38.970  33.452  30.677  1.00  0.00    -0.014 A 
BRANCH  51  52
ATOM     52  C   UNL A   1      40.181  34.253  31.265  1.00  0.00     0.031 A 
ATOM     53  C   UNL A   1      39.614  34.252  32.938  1.00  0.00     0.074 A 
ATOM     54  C   UNL A   1      41.588  34.599  30.636  1.00  0.00     0.049 A 
ATOM     55  N   UNL A   1      40.217  33.891  34.045  1.00  0.00    -0.248 NA
ATOM     56  C   UNL A   1      38.288  34.785  33.298  1.00  0.00     0.031 C 
ATOM     57  C   UNL A   1      43.181  34.579  31.226  1.00  0.00     0.029 A 
ATOM     58  N   UNL A   1      42.103  35.038  29.398  1.00  0.00    -0.354 N 
ATOM     59  C   UNL A   1      39.816  34.707  35.063  1.00  0.00     0.074 A 
ATOM     60  C   UNL A   1      38.440  35.006  34.622  1.00  0.00     0.031 C 
ATOM     61  C   UNL A   1      44.130  34.484  30.318  1.00  0.00     0.029 A 
ATOM     62  C   UNL A   1      43.487  35.077  29.216  1.00  0.00     0.049 A 
ATOM     63  H   UNL A   1      41.496  35.312  28.673  1.00  0.00     0.167 HD
ATOM     64  C   UNL A   1      40.645  35.542  35.828  1.00  0.00     0.031 A 
ATOM     65  C   UNL A   1      44.191  36.111  28.730  1.00  0.00     0.031 A 
ATOM     66  C   UNL A   1      42.048  36.026  35.392  1.00  0.00     0.049 A 
ATOM     67  C   UNL A   1      44.456  37.188  29.817  1.00  0.00     0.074 A 
ATOM     68  C   UNL A   1      43.326  35.468  35.372  1.00  0.00     0.029 A 
ATOM     69  N   UNL A   1      42.337  37.369  34.943  1.00  0.00    -0.354 N 
ATOM     70  N   UNL A   1      44.241  37.037  31.125  1.00  0.00    -0.248 NA
ATOM     71  C   UNL A   1      44.950  38.523  29.533  1.00  0.00     0.031 C 
ATOM     72  C   UNL A   1      44.220  36.283  34.571  1.00  0.00     0.029 A 
ATOM     73  C   UNL A   1      43.557  37.422  34.140  1.00  0.00     0.049 A 
ATOM     74  H   UNL A   1      41.780  38.153  35.152  1.00  0.00     0.167 HD
ATOM     75  C   UNL A   1      44.321  38.237  31.803  1.00  0.00     0.074 A 
ATOM     76  C   UNL A   1      44.870  39.108  30.747  1.00  0.00     0.031 C 
ATOM     77  C   UNL A   1      43.852  38.513  33.097  1.00  0.00     0.031 A 
BRANCH  64  78
ATOM     78  C   UNL A   1      40.297  35.503  37.306  1.00  0.00    -0.014 A 
ATOM     79  C   UNL A   1      39.971  34.264  37.887  1.00  0.00     0.009 A 
ATOM     80  C   UNL A   1      40.138  36.639  38.124  1.00  0.00     0.009 A 
ATOM     81  C   UNL A   1      39.477  34.167  39.191  1.00  0.00     0.001 A 
ATOM     82  C   UNL A   1      39.644  36.547  39.430  1.00  0.00     0.001 A 
ATOM     83  C   UNL A   1      39.305  35.310  39.960  1.00  0.00     0.000 A 
ENDBRANCH  64  78
BRANCH  65  84
ATOM     84  C   UNL A   1      44.374  35.746  27.295  1.00  0.00    -0.014 A 
ATOM     85  C   UNL A   1      45.319  34.696  27.028  1.00  0.00     0.009 A 
ATOM     86  C   UNL A   1      43.269  35.815  26.436  1.00  0.00     0.009 A 
ATOM     87  C   UNL A   1      45.062  33.675  26.096  1.00  0.00     0.001 A 
ATOM     88  C   UNL A   1      43.053  34.821  25.458  1.00  0.00     0.001 A 
ATOM     89  C   UNL A   1      43.911  33.728  25.325  1.00  0.00     0.000 A 
ENDBRANCH  65  84
BRANCH  77  90
ATOM     90  C   UNL A   1      43.574  39.965  33.483  1.00  0.00    -0.014 A 
ATOM     91  C   UNL A   1      42.651  40.800  32.822  1.00  0.00     0.009 A 
ATOM     92  C   UNL A   1      44.174  40.501  34.636  1.00  0.00     0.009 A 
ATOM     93  C   UNL A   1      42.422  42.123  33.222  1.00  0.00     0.001 A 
ATOM     94  C   UNL A   1      43.883  41.793  35.092  1.00  0.00     0.001 A 
ATOM     95  C   UNL A   1      43.031  42.615  34.367  1.00  0.00     0.000 A 
ENDBRANCH  77  90
ENDBRANCH  51  52
ENDBRANCH  44  46
ENDBRANCH  43  44
ENDBRANCH  42  43
ENDBRANCH  41  42
ENDBRANCH  40  41
ENDBRANCH  39  40
ENDBRANCH   1  39
TORSDOF 22
ENDMDL
MODEL 3
REMARK VINA RESULT:     -11.4      5.874     12.178
REMARK SMILES Cc1ccc(N2C(=O)N=C(OCCOCCOCCOC(=O)c3ccc(-c4c5nc(c(-c6ccccc6)c6ccc([nH]6)c(-c6ccccc6)c6nc(c(-c7ccccc7)c7ccc4[nH]7)C=C6)C=C5)cc3)/C(=C/c3ccccc3OCc3cccc(C(=O)[O-])c3)C2=O)cc1
REMARK SMILES IDX 15 1 14 2 13 3 12 4 11 5 10 6 6 7 7 8 90 9 8 10 9 11 71 12
REMARK SMILES IDX 91 13 72 14 5 15 1 16 2 17 3 18 93 19 4 20 92 21 73 22 74 23
REMARK SMILES IDX 78 24 75 25 77 26 76 27 79 28 80 29 81 30 82 31 89 32 83 33
REMARK SMILES IDX 85 34 84 35 86 36 87 37 88 38 16 39 17 40 18 41 19 42 20 43
REMARK SMILES IDX 21 44 22 45 23 46 24 47 70 48 25 49 69 50 26 51 27 52 28 53
REMARK SMILES IDX 63 54 29 55 68 56 62 57 64 58 30 59 67 60 61 61 60 62 31 64
REMARK SMILES IDX 53 65 38 66 52 67 39 68 42 69 51 70 65 71 40 72 41 73 50 75
REMARK SMILES IDX 66 76 43 77 32 78 33 79 37 80 34 81 36 82 35 83 54 84 55 85
REMARK SMILES IDX 59 86 56 87 58 88 57 89 44 90 45 91 49 92 46 93 48 94 47 95
REMARK H PARENT 64 63 42 74
REMARK Flexibility Score: inf
ROOT
ATOM      1  C   UNL A   1      42.245  30.840  35.415  1.00  0.00     0.188 C 
ENDROOT
BRANCH   1   2
ATOM      2  O   UNL A   1      42.030  29.426  35.350  1.00  0.00    -0.376 OA
BRANCH   2   3
ATOM      3  C   UNL A   1      42.440  28.851  34.103  1.00  0.00     0.201 C 
BRANCH   3   4
ATOM      4  C   UNL A   1      41.597  27.643  33.708  1.00  0.00     0.260 C 
BRANCH   4   5
ATOM      5  O   UNL A   1      40.648  28.033  32.661  1.00  0.00    -0.475 OA
BRANCH   5   6
ATOM      6  C   UNL A   1      39.652  28.886  32.386  1.00  0.00     0.231 C 
ATOM      7  N   UNL A   1      37.851  30.991  32.220  1.00  0.00    -0.226 N 
ATOM      8  C   UNL A   1      38.412  30.583  33.414  1.00  0.00     0.358 C 
ATOM      9  C   UNL A   1      38.588  30.685  31.097  1.00  0.00     0.272 C 
ATOM     10  O   UNL A   1      38.321  31.256  34.437  1.00  0.00    -0.245 OA
ATOM     11  N   UNL A   1      39.203  29.474  33.435  1.00  0.00    -0.156 NA
ATOM     12  C   UNL A   1      39.286  29.223  30.992  1.00  0.00     0.103 C 
ATOM     13  O   UNL A   1      38.715  31.587  30.264  1.00  0.00    -0.268 OA
ATOM     14  C   UNL A   1      39.945  28.335  30.126  1.00  0.00     0.031 C 
BRANCH   7  15
ATOM     15  C   UNL A   1      36.852  32.095  32.231  1.00  0.00     0.054 A 
ATOM     16  C   UNL A   1      33.765  35.219  32.060  1.00  0.00     0.044 C 
ATOM     17  C   UNL A   1      34.821  34.151  32.105  1.00  0.00    -0.051 A 
ATOM     18  C   UNL A   1      36.160  34.480  32.288  1.00  0.00     0.005 A 
ATOM     19  C   UNL A   1      34.493  32.800  32.002  1.00  0.00     0.005 A 
ATOM     20  C   UNL A   1      37.151  33.475  32.336  1.00  0.00     0.027 A 
ATOM     21  C   UNL A   1      35.486  31.801  32.063  1.00  0.00     0.027 A 
ENDBRANCH   7  15
BRANCH  14  22
ATOM     22  C   UNL A   1      40.756  27.857  28.703  1.00  0.00     0.018 A 
ATOM     23  C   UNL A   1      41.061  29.030  27.955  1.00  0.00     0.012 A 
ATOM     24  C   UNL A   1      41.151  26.551  27.969  1.00  0.00     0.127 A 
ATOM     25  C   UNL A   1      41.492  29.009  26.621  1.00  0.00     0.001 A 
ATOM     26  C   UNL A   1      41.511  26.599  26.601  1.00  0.00     0.047 A 
ATOM     27  C   UNL A   1      41.648  27.811  25.935  1.00  0.00     0.004 A 
BRANCH  24  28
ATOM     28  O   UNL A   1      41.781  25.102  28.473  1.00  0.00    -0.488 OA
BRANCH  28  29
ATOM     29  C   UNL A   1      41.542  23.408  28.428  1.00  0.00     0.265 C 
BRANCH  29  30
ATOM     30  C   UNL A   1      41.240  22.253  27.381  1.00  0.00    -0.010 A 
ATOM     31  C   UNL A   1      40.003  22.232  26.703  1.00  0.00     0.007 A 
ATOM     32  C   UNL A   1      41.970  21.060  27.316  1.00  0.00     0.017 A 
ATOM     33  C   UNL A   1      39.540  21.080  26.035  1.00  0.00     0.001 A 
ATOM     34  C   UNL A   1      41.545  19.915  26.630  1.00  0.00    -0.002 A 
ATOM     35  C   UNL A   1      40.305  19.915  26.008  1.00  0.00     0.010 A 
BRANCH  34  36
ATOM     36  C   UNL A   1      42.371  18.682  26.663  1.00  0.00     0.071 C 
ATOM     37  O   UNL A   1      42.677  17.996  25.710  1.00  0.00    -0.545 OA
ATOM     38  O   UNL A   1      42.776  18.383  27.914  1.00  0.00    -0.545 OA
ENDBRANCH  34  36
ENDBRANCH  29  30
ENDBRANCH  28  29
ENDBRANCH  24  28
ENDBRANCH  14  22
ENDBRANCH   5   6
ENDBRANCH   4   5
ENDBRANCH   3   4
ENDBRANCH   2   3
ENDBRANCH   1   2
BRANCH   1  39
ATOM     39  C   UNL A   1      42.127  31.411  36.840  1.00  0.00     0.188 C 
BRANCH  39  40
ATOM     40  O   UNL A   1      40.866  31.935  37.237  1.00  0.00    -0.376 OA
BRANCH  40  41
ATOM     41  C   UNL A   1      40.879  32.999  38.182  1.00  0.00     0.202 C 
BRANCH  41  42
ATOM     42  C   UNL A   1      39.808  34.008  37.746  1.00  0.00     0.261 C 
BRANCH  42  43
ATOM     43  O   UNL A   1      39.684  33.968  36.307  1.00  0.00    -0.460 OA
BRANCH  43  44
ATOM     44  C   UNL A   1      39.966  35.107  35.612  1.00  0.00     0.338 C 
ATOM     45  O   UNL A   1      39.487  36.210  35.805  1.00  0.00    -0.246 OA
BRANCH  44  46
ATOM     46  C   UNL A   1      40.887  34.776  34.475  1.00  0.00     0.060 A 
ATOM     47  C   UNL A   1      42.270  34.996  34.568  1.00  0.00     0.016 A 
ATOM     48  C   UNL A   1      40.376  34.381  33.246  1.00  0.00     0.016 A 
ATOM     49  C   UNL A   1      43.100  34.968  33.415  1.00  0.00     0.010 A 
ATOM     50  C   UNL A   1      41.180  34.458  32.105  1.00  0.00     0.010 A 
ATOM     51  C   UNL A   1      42.543  34.863  32.136  1.00  0.00    -0.014 A 
BRANCH  51  52
ATOM     52  C   UNL A   1      43.206  34.975  30.723  1.00  0.00     0.031 A 
ATOM     53  C   UNL A   1      43.466  33.243  30.497  1.00  0.00     0.074 A 
ATOM     54  C   UNL A   1      43.266  36.184  29.708  1.00  0.00     0.049 A 
ATOM     55  N   UNL A   1      43.135  32.450  29.507  1.00  0.00    -0.248 NA
ATOM     56  C   UNL A   1      44.229  32.448  31.476  1.00  0.00     0.031 C 
ATOM     57  C   UNL A   1      43.066  36.325  28.026  1.00  0.00     0.029 A 
ATOM     58  N   UNL A   1      43.490  37.576  29.748  1.00  0.00    -0.354 N 
ATOM     59  C   UNL A   1      44.104  31.502  29.343  1.00  0.00     0.074 A 
ATOM     60  C   UNL A   1      44.562  31.366  30.740  1.00  0.00     0.031 C 
ATOM     61  C   UNL A   1      42.733  37.519  27.584  1.00  0.00     0.029 A 
ATOM     62  C   UNL A   1      43.300  38.328  28.587  1.00  0.00     0.049 A 
ATOM     63  H   UNL A   1      43.777  38.012  30.583  1.00  0.00     0.167 HD
ATOM     64  C   UNL A   1      44.878  31.302  28.191  1.00  0.00     0.031 A 
ATOM     65  C   UNL A   1      44.158  39.223  28.074  1.00  0.00     0.031 A 
ATOM     66  C   UNL A   1      45.095  32.358  27.082  1.00  0.00     0.049 A 
ATOM     67  C   UNL A   1      45.289  38.536  27.262  1.00  0.00     0.074 A 
ATOM     68  C   UNL A   1      44.350  32.825  26.000  1.00  0.00     0.029 A 
ATOM     69  N   UNL A   1      46.323  33.096  26.896  1.00  0.00    -0.354 N 
ATOM     70  N   UNL A   1      45.310  37.253  26.896  1.00  0.00    -0.248 NA
ATOM     71  C   UNL A   1      46.496  39.211  26.822  1.00  0.00     0.031 C 
ATOM     72  C   UNL A   1      44.930  34.046  25.476  1.00  0.00     0.029 A 
ATOM     73  C   UNL A   1      46.106  34.334  26.152  1.00  0.00     0.049 A 
ATOM     74  H   UNL A   1      47.201  32.800  27.230  1.00  0.00     0.167 HD
ATOM     75  C   UNL A   1      46.548  36.873  26.417  1.00  0.00     0.074 A 
ATOM     76  C   UNL A   1      47.209  38.187  26.308  1.00  0.00     0.031 C 
ATOM     77  C   UNL A   1      47.024  35.564  26.244  1.00  0.00     0.031 A 
BRANCH  64  78
ATOM     78  C   UNL A   1      45.047  29.829  27.858  1.00  0.00    -0.014 A 
ATOM     79  C   UNL A   1      45.495  29.479  26.571  1.00  0.00     0.009 A 
ATOM     80  C   UNL A   1      44.656  28.766  28.695  1.00  0.00     0.009 A 
ATOM     81  C   UNL A   1      45.514  28.152  26.131  1.00  0.00     0.001 A 
ATOM     82  C   UNL A   1      44.673  27.436  28.260  1.00  0.00     0.001 A 
ATOM     83  C   UNL A   1      45.094  27.131  26.974  1.00  0.00     0.000 A 
ENDBRANCH  64  78
BRANCH  65  84
ATOM     84  C   UNL A   1      43.622  40.523  28.573  1.00  0.00    -0.014 A 
ATOM     85  C   UNL A   1      42.993  40.490  29.866  1.00  0.00     0.009 A 
ATOM     86  C   UNL A   1      44.305  41.703  28.250  1.00  0.00     0.009 A 
ATOM     87  C   UNL A   1      43.211  41.489  30.831  1.00  0.00     0.001 A 
ATOM     88  C   UNL A   1      44.463  42.730  29.204  1.00  0.00     0.001 A 
ATOM     89  C   UNL A   1      43.969  42.602  30.504  1.00  0.00     0.000 A 
ENDBRANCH  65  84
BRANCH  77  90
ATOM     90  C   UNL A   1      48.534  35.335  26.190  1.00  0.00    -0.014 A 
ATOM     91  C   UNL A   1      49.256  35.066  25.009  1.00  0.00     0.009 A 
ATOM     92  C   UNL A   1      49.302  35.510  27.354  1.00  0.00     0.009 A 
ATOM     93  C   UNL A   1      50.644  34.876  25.009  1.00  0.00     0.001 A 
ATOM     94  C   UNL A   1      50.698  35.408  27.346  1.00  0.00     0.001 A 
ATOM     95  C   UNL A   1      51.367  35.060  26.179  1.00  0.00     0.000 A 
ENDBRANCH  77  90
ENDBRANCH  51  52
ENDBRANCH  44  46
ENDBRANCH  43  44
ENDBRANCH  42  43
ENDBRANCH  41  42
ENDBRANCH  40  41
ENDBRANCH  39  40
ENDBRANCH   1  39
TORSDOF 22
ENDMDL
