MODEL 1
REMARK VINA RESULT:     -10.3      0.000      0.000
REMARK SMILES O=C(Cc1c[nH]c(=O)n(Cc2ccccc2)c1=O)OCCOCCOCCOC(=O)c1ccc(-c2c3nc(c(-c4ccccc4)c4ccc([nH]4)c(-c4ccccc4)c4nc(c(-c5ccccc5)c5ccc2[nH]5)C=C4)C=C3)cc1
REMARK SMILES IDX 23 1 22 2 21 3 20 4 19 5 2 6 1 7 3 8 4 9 5 10 17 11 6 12
REMARK SMILES IDX 9 13 18 14 7 15 8 17 10 18 11 19 12 20 16 21 13 22 15 23
REMARK SMILES IDX 14 24 24 25 25 26 26 27 27 28 28 29 29 30 30 31 31 32 32 33
REMARK SMILES IDX 78 34 33 35 77 36 34 37 35 38 36 39 71 40 37 41 76 42 70 43
REMARK SMILES IDX 72 44 38 45 75 46 69 47 68 48 39 50 61 51 46 52 60 53 47 54
REMARK SMILES IDX 50 55 59 56 73 57 48 58 49 59 58 61 74 62 51 63 40 64 41 65
REMARK SMILES IDX 45 66 42 67 44 68 43 69 62 70 63 71 67 72 64 73 66 74 65 75
REMARK SMILES IDX 52 76 53 77 57 78 54 79 56 80 55 81
REMARK H PARENT 6 16 72 49 50 60
REMARK Flexibility Score: inf
ROOT
ATOM      1  C   UNL A   1      40.735  20.537  26.255  1.00  0.00     0.188 C 
ENDROOT
BRANCH   1   2
ATOM      2  O   UNL A   1      39.947  21.567  26.808  1.00  0.00    -0.376 OA
BRANCH   2   3
ATOM      3  C   UNL A   1      38.907  22.173  26.055  1.00  0.00     0.202 C 
BRANCH   3   4
ATOM      4  C   UNL A   1      37.847  21.374  25.291  1.00  0.00     0.261 C 
BRANCH   4   5
ATOM      5  O   UNL A   1      36.593  21.952  24.844  1.00  0.00    -0.463 OA
BRANCH   5   6
ATOM      6  C   UNL A   1      36.237  23.157  24.368  1.00  0.00     0.310 C 
ATOM      7  O   UNL A   1      36.248  23.347  23.151  1.00  0.00    -0.252 OA
BRANCH   6   8
ATOM      8  C   UNL A   1      35.718  24.223  25.293  1.00  0.00     0.165 C 
BRANCH   8   9
ATOM      9  C   UNL A   1      34.334  23.789  25.622  1.00  0.00     0.045 A 
ATOM     10  C   UNL A   1      34.002  22.923  26.582  1.00  0.00     0.097 A 
ATOM     11  C   UNL A   1      33.235  24.479  24.920  1.00  0.00     0.260 A 
ATOM     12  N   UNL A   1      32.718  22.874  27.036  1.00  0.00    -0.314 N 
ATOM     13  N   UNL A   1      32.060  24.603  25.615  1.00  0.00    -0.256 N 
ATOM     14  O   UNL A   1      33.427  24.931  23.797  1.00  0.00    -0.269 OA
ATOM     15  C   UNL A   1      31.743  23.770  26.670  1.00  0.00     0.328 A 
ATOM     16  H   UNL A   1      32.475  22.155  27.663  1.00  0.00     0.171 HD
ATOM     17  O   UNL A   1      30.671  23.784  27.271  1.00  0.00    -0.248 OA
BRANCH  13  18
ATOM     18  C   UNL A   1      31.066  25.523  25.083  1.00  0.00     0.166 C 
BRANCH  18  19
ATOM     19  C   UNL A   1      31.284  26.927  25.602  1.00  0.00    -0.028 A 
ATOM     20  C   UNL A   1      31.248  28.010  24.715  1.00  0.00     0.005 A 
ATOM     21  C   UNL A   1      31.603  27.161  26.948  1.00  0.00     0.005 A 
ATOM     22  C   UNL A   1      31.566  29.293  25.148  1.00  0.00     0.000 A 
ATOM     23  C   UNL A   1      31.903  28.452  27.385  1.00  0.00     0.000 A 
ATOM     24  C   UNL A   1      31.896  29.515  26.482  1.00  0.00     0.000 A 
ENDBRANCH  18  19
ENDBRANCH  13  18
ENDBRANCH   8   9
ENDBRANCH   6   8
ENDBRANCH   5   6
ENDBRANCH   4   5
ENDBRANCH   3   4
ENDBRANCH   2   3
ENDBRANCH   1   2
BRANCH   1  25
ATOM     25  C   UNL A   1      42.242  20.668  26.460  1.00  0.00     0.188 C 
BRANCH  25  26
ATOM     26  O   UNL A   1      43.076  20.369  25.354  1.00  0.00    -0.376 OA
BRANCH  26  27
ATOM     27  C   UNL A   1      44.255  21.149  25.177  1.00  0.00     0.202 C 
BRANCH  27  28
ATOM     28  C   UNL A   1      44.271  22.289  24.141  1.00  0.00     0.261 C 
BRANCH  28  29
ATOM     29  O   UNL A   1      43.610  23.505  24.548  1.00  0.00    -0.460 OA
BRANCH  29  30
ATOM     30  C   UNL A   1      44.406  24.514  24.969  1.00  0.00     0.338 C 
ATOM     31  O   UNL A   1      45.525  24.800  24.555  1.00  0.00    -0.246 OA
BRANCH  30  32
ATOM     32  C   UNL A   1      43.692  25.349  25.951  1.00  0.00     0.060 A 
ATOM     33  C   UNL A   1      42.660  24.798  26.711  1.00  0.00     0.016 A 
ATOM     34  C   UNL A   1      44.133  26.656  26.202  1.00  0.00     0.016 A 
ATOM     35  C   UNL A   1      42.072  25.557  27.729  1.00  0.00     0.010 A 
ATOM     36  C   UNL A   1      43.533  27.417  27.211  1.00  0.00     0.010 A 
ATOM     37  C   UNL A   1      42.509  26.868  27.996  1.00  0.00    -0.014 A 
BRANCH  37  38
ATOM     38  C   UNL A   1      42.003  27.593  29.190  1.00  0.00     0.031 A 
ATOM     39  C   UNL A   1      42.679  27.498  30.524  1.00  0.00     0.074 A 
ATOM     40  C   UNL A   1      40.893  28.346  29.062  1.00  0.00     0.049 A 
ATOM     41  N   UNL A   1      42.404  28.147  31.629  1.00  0.00    -0.248 NA
ATOM     42  C   UNL A   1      43.800  26.557  30.642  1.00  0.00     0.031 C 
ATOM     43  C   UNL A   1      40.133  28.500  27.823  1.00  0.00     0.029 A 
ATOM     44  N   UNL A   1      40.219  29.124  29.971  1.00  0.00    -0.354 N 
ATOM     45  C   UNL A   1      43.319  27.701  32.572  1.00  0.00     0.074 A 
ATOM     46  C   UNL A   1      44.137  26.700  31.919  1.00  0.00     0.031 C 
ATOM     47  C   UNL A   1      39.115  29.345  28.040  1.00  0.00     0.029 A 
ATOM     48  C   UNL A   1      39.128  29.767  29.439  1.00  0.00     0.049 A 
ATOM     49  H   UNL A   1      40.492  29.213  30.913  1.00  0.00     0.167 HD
ATOM     50  C   UNL A   1      43.464  28.102  33.858  1.00  0.00     0.031 A 
ATOM     51  C   UNL A   1      38.233  30.606  30.002  1.00  0.00     0.031 A 
ATOM     52  C   UNL A   1      42.637  29.095  34.501  1.00  0.00     0.049 A 
ATOM     53  C   UNL A   1      38.390  31.005  31.441  1.00  0.00     0.074 A 
ATOM     54  C   UNL A   1      42.776  29.626  35.773  1.00  0.00     0.029 A 
ATOM     55  N   UNL A   1      41.513  29.685  33.945  1.00  0.00    -0.354 N 
ATOM     56  N   UNL A   1      39.328  30.663  32.289  1.00  0.00    -0.248 NA
ATOM     57  C   UNL A   1      37.378  31.914  32.002  1.00  0.00     0.031 C 
ATOM     58  C   UNL A   1      41.681  30.454  36.023  1.00  0.00     0.029 A 
ATOM     59  C   UNL A   1      40.913  30.523  34.873  1.00  0.00     0.049 A 
ATOM     60  H   UNL A   1      41.189  29.531  33.027  1.00  0.00     0.167 HD
ATOM     61  C   UNL A   1      39.034  31.325  33.475  1.00  0.00     0.074 A 
ATOM     62  C   UNL A   1      37.834  32.099  33.236  1.00  0.00     0.031 C 
ATOM     63  C   UNL A   1      39.711  31.289  34.648  1.00  0.00     0.031 A 
BRANCH  50  64
ATOM     64  C   UNL A   1      44.551  27.473  34.690  1.00  0.00    -0.014 A 
ATOM     65  C   UNL A   1      45.849  28.013  34.660  1.00  0.00     0.009 A 
ATOM     66  C   UNL A   1      44.336  26.275  35.390  1.00  0.00     0.009 A 
ATOM     67  C   UNL A   1      46.908  27.361  35.294  1.00  0.00     0.001 A 
ATOM     68  C   UNL A   1      45.391  25.643  36.053  1.00  0.00     0.001 A 
ATOM     69  C   UNL A   1      46.677  26.179  35.994  1.00  0.00     0.000 A 
ENDBRANCH  50  64
BRANCH  51  70
ATOM     70  C   UNL A   1      37.138  31.145  29.152  1.00  0.00    -0.014 A 
ATOM     71  C   UNL A   1      37.169  32.482  28.719  1.00  0.00     0.009 A 
ATOM     72  C   UNL A   1      36.006  30.368  28.873  1.00  0.00     0.009 A 
ATOM     73  C   UNL A   1      36.066  33.044  28.072  1.00  0.00     0.001 A 
ATOM     74  C   UNL A   1      34.916  30.925  28.197  1.00  0.00     0.001 A 
ATOM     75  C   UNL A   1      34.940  32.265  27.815  1.00  0.00     0.000 A 
ENDBRANCH  51  70
BRANCH  63  76
ATOM     76  C   UNL A   1      39.194  32.101  35.807  1.00  0.00    -0.014 A 
ATOM     77  C   UNL A   1      38.213  31.558  36.656  1.00  0.00     0.009 A 
ATOM     78  C   UNL A   1      39.545  33.451  35.957  1.00  0.00     0.009 A 
ATOM     79  C   UNL A   1      37.566  32.358  37.599  1.00  0.00     0.001 A 
ATOM     80  C   UNL A   1      38.918  34.241  36.925  1.00  0.00     0.001 A 
ATOM     81  C   UNL A   1      37.918  33.700  37.732  1.00  0.00     0.000 A 
ENDBRANCH  63  76
ENDBRANCH  37  38
ENDBRANCH  30  32
ENDBRANCH  29  30
ENDBRANCH  28  29
ENDBRANCH  27  28
ENDBRANCH  26  27
ENDBRANCH  25  26
ENDBRANCH   1  25
TORSDOF 20
ENDMDL
MODEL 2
REMARK VINA RESULT:      -9.8      3.526      8.689
REMARK SMILES O=C(Cc1c[nH]c(=O)n(Cc2ccccc2)c1=O)OCCOCCOCCOC(=O)c1ccc(-c2c3nc(c(-c4ccccc4)c4ccc([nH]4)c(-c4ccccc4)c4nc(c(-c5ccccc5)c5ccc2[nH]5)C=C4)C=C3)cc1
REMARK SMILES IDX 23 1 22 2 21 3 20 4 19 5 2 6 1 7 3 8 4 9 5 10 17 11 6 12
REMARK SMILES IDX 9 13 18 14 7 15 8 17 10 18 11 19 12 20 16 21 13 22 15 23
REMARK SMILES IDX 14 24 24 25 25 26 26 27 27 28 28 29 29 30 30 31 31 32 32 33
REMARK SMILES IDX 78 34 33 35 77 36 34 37 35 38 36 39 71 40 37 41 76 42 70 43
REMARK SMILES IDX 72 44 38 45 75 46 69 47 68 48 39 50 61 51 46 52 60 53 47 54
REMARK SMILES IDX 50 55 59 56 73 57 48 58 49 59 58 61 74 62 51 63 40 64 41 65
REMARK SMILES IDX 45 66 42 67 44 68 43 69 62 70 63 71 67 72 64 73 66 74 65 75
REMARK SMILES IDX 52 76 53 77 57 78 54 79 56 80 55 81
REMARK H PARENT 6 16 72 49 50 60
REMARK Flexibility Score: inf
ROOT
ATOM      1  C   UNL A   1      33.636  31.753  27.646  1.00  0.00     0.188 C 
ENDROOT
BRANCH   1   2
ATOM      2  O   UNL A   1      33.888  30.526  26.998  1.00  0.00    -0.376 OA
BRANCH   2   3
ATOM      3  C   UNL A   1      32.864  29.862  26.272  1.00  0.00     0.202 C 
BRANCH   3   4
ATOM      4  C   UNL A   1      32.170  28.591  26.771  1.00  0.00     0.261 C 
BRANCH   4   5
ATOM      5  O   UNL A   1      31.258  27.816  25.951  1.00  0.00    -0.463 OA
BRANCH   5   6
ATOM      6  C   UNL A   1      30.908  26.520  25.911  1.00  0.00     0.310 C 
ATOM      7  O   UNL A   1      31.414  25.737  26.716  1.00  0.00    -0.252 OA
BRANCH   6   8
ATOM      8  C   UNL A   1      29.826  26.047  24.978  1.00  0.00     0.165 C 
BRANCH   8   9
ATOM      9  C   UNL A   1      30.491  25.959  23.651  1.00  0.00     0.045 A 
ATOM     10  C   UNL A   1      30.616  26.963  22.780  1.00  0.00     0.097 A 
ATOM     11  C   UNL A   1      31.188  24.698  23.338  1.00  0.00     0.260 A 
ATOM     12  N   UNL A   1      31.539  26.883  21.781  1.00  0.00    -0.314 N 
ATOM     13  N   UNL A   1      32.287  24.802  22.525  1.00  0.00    -0.256 N 
ATOM     14  O   UNL A   1      30.791  23.650  23.833  1.00  0.00    -0.269 OA
ATOM     15  C   UNL A   1      32.475  25.881  21.683  1.00  0.00     0.328 A 
ATOM     16  H   UNL A   1      31.536  27.583  21.089  1.00  0.00     0.171 HD
ATOM     17  O   UNL A   1      33.395  25.984  20.876  1.00  0.00    -0.248 OA
BRANCH  13  18
ATOM     18  C   UNL A   1      33.163  23.643  22.437  1.00  0.00     0.166 C 
BRANCH  18  19
ATOM     19  C   UNL A   1      34.329  23.762  23.394  1.00  0.00    -0.028 A 
ATOM     20  C   UNL A   1      35.505  23.042  23.149  1.00  0.00     0.005 A 
ATOM     21  C   UNL A   1      34.228  24.519  24.570  1.00  0.00     0.005 A 
ATOM     22  C   UNL A   1      36.541  23.039  24.076  1.00  0.00     0.000 A 
ATOM     23  C   UNL A   1      35.276  24.532  25.490  1.00  0.00     0.000 A 
ATOM     24  C   UNL A   1      36.427  23.782  25.249  1.00  0.00     0.000 A 
ENDBRANCH  18  19
ENDBRANCH  13  18
ENDBRANCH   8   9
ENDBRANCH   6   8
ENDBRANCH   5   6
ENDBRANCH   4   5
ENDBRANCH   3   4
ENDBRANCH   2   3
ENDBRANCH   1   2
BRANCH   1  25
ATOM     25  C   UNL A   1      34.867  32.528  28.107  1.00  0.00     0.188 C 
BRANCH  25  26
ATOM     26  O   UNL A   1      34.800  33.942  28.059  1.00  0.00    -0.376 OA
BRANCH  26  27
ATOM     27  C   UNL A   1      33.530  34.557  28.261  1.00  0.00     0.202 C 
BRANCH  27  28
ATOM     28  C   UNL A   1      33.245  35.315  29.571  1.00  0.00     0.261 C 
BRANCH  28  29
ATOM     29  O   UNL A   1      33.127  34.492  30.749  1.00  0.00    -0.460 OA
BRANCH  29  30
ATOM     30  C   UNL A   1      33.977  34.765  31.766  1.00  0.00     0.338 C 
ATOM     31  O   UNL A   1      33.800  35.550  32.692  1.00  0.00    -0.246 OA
BRANCH  30  32
ATOM     32  C   UNL A   1      35.151  33.877  31.699  1.00  0.00     0.060 A 
ATOM     33  C   UNL A   1      36.323  34.321  31.085  1.00  0.00     0.016 A 
ATOM     34  C   UNL A   1      35.126  32.640  32.358  1.00  0.00     0.016 A 
ATOM     35  C   UNL A   1      37.474  33.526  31.136  1.00  0.00     0.010 A 
ATOM     36  C   UNL A   1      36.273  31.841  32.395  1.00  0.00     0.010 A 
ATOM     37  C   UNL A   1      37.463  32.285  31.800  1.00  0.00    -0.014 A 
BRANCH  37  38
ATOM     38  C   UNL A   1      38.732  31.538  32.002  1.00  0.00     0.031 A 
ATOM     39  C   UNL A   1      39.660  31.839  33.138  1.00  0.00     0.074 A 
ATOM     40  C   UNL A   1      39.053  30.569  31.122  1.00  0.00     0.049 A 
ATOM     41  N   UNL A   1      40.754  31.210  33.491  1.00  0.00    -0.248 NA
ATOM     42  C   UNL A   1      39.331  32.994  33.984  1.00  0.00     0.031 C 
ATOM     43  C   UNL A   1      38.243  30.197  29.963  1.00  0.00     0.029 A 
ATOM     44  N   UNL A   1      40.132  29.721  31.067  1.00  0.00    -0.354 N 
ATOM     45  C   UNL A   1      41.240  31.882  34.603  1.00  0.00     0.074 A 
ATOM     46  C   UNL A   1      40.342  32.992  34.846  1.00  0.00     0.031 C 
ATOM     47  C   UNL A   1      38.837  29.176  29.329  1.00  0.00     0.029 A 
ATOM     48  C   UNL A   1      40.084  28.842  30.013  1.00  0.00     0.049 A 
ATOM     49  H   UNL A   1      40.868  29.740  31.722  1.00  0.00     0.167 HD
ATOM     50  C   UNL A   1      42.331  31.588  35.352  1.00  0.00     0.031 A 
ATOM     51  C   UNL A   1      40.939  27.871  29.630  1.00  0.00     0.031 A 
ATOM     52  C   UNL A   1      43.224  30.485  35.095  1.00  0.00     0.049 A 
ATOM     53  C   UNL A   1      42.164  27.589  30.453  1.00  0.00     0.074 A 
ATOM     54  C   UNL A   1      44.300  30.063  35.859  1.00  0.00     0.029 A 
ATOM     55  N   UNL A   1      43.170  29.650  33.990  1.00  0.00    -0.354 N 
ATOM     56  N   UNL A   1      42.551  28.161  31.567  1.00  0.00    -0.248 NA
ATOM     57  C   UNL A   1      43.064  26.526  29.981  1.00  0.00     0.031 C 
ATOM     58  C   UNL A   1      44.956  29.044  35.166  1.00  0.00     0.029 A 
ATOM     59  C   UNL A   1      44.233  28.759  34.021  1.00  0.00     0.049 A 
ATOM     60  H   UNL A   1      42.481  29.684  33.288  1.00  0.00     0.167 HD
ATOM     61  C   UNL A   1      43.725  27.518  31.940  1.00  0.00     0.074 A 
ATOM     62  C   UNL A   1      43.984  26.504  30.939  1.00  0.00     0.031 C 
ATOM     63  C   UNL A   1      44.506  27.754  33.022  1.00  0.00     0.031 A 
BRANCH  50  64
ATOM     64  C   UNL A   1      42.652  32.469  36.532  1.00  0.00    -0.014 A 
ATOM     65  C   UNL A   1      43.530  33.554  36.368  1.00  0.00     0.009 A 
ATOM     66  C   UNL A   1      42.204  32.153  37.824  1.00  0.00     0.009 A 
ATOM     67  C   UNL A   1      43.968  34.290  37.471  1.00  0.00     0.001 A 
ATOM     68  C   UNL A   1      42.616  32.914  38.922  1.00  0.00     0.001 A 
ATOM     69  C   UNL A   1      43.507  33.972  38.746  1.00  0.00     0.000 A 
ENDBRANCH  50  64
BRANCH  51  70
ATOM     70  C   UNL A   1      40.608  27.075  28.418  1.00  0.00    -0.014 A 
ATOM     71  C   UNL A   1      39.773  25.949  28.514  1.00  0.00     0.009 A 
ATOM     72  C   UNL A   1      41.220  27.362  27.190  1.00  0.00     0.009 A 
ATOM     73  C   UNL A   1      39.599  25.099  27.420  1.00  0.00     0.001 A 
ATOM     74  C   UNL A   1      41.019  26.527  26.088  1.00  0.00     0.001 A 
ATOM     75  C   UNL A   1      40.225  25.387  26.209  1.00  0.00     0.000 A 
ENDBRANCH  51  70
BRANCH  63  76
ATOM     76  C   UNL A   1      45.743  26.917  33.217  1.00  0.00    -0.014 A 
ATOM     77  C   UNL A   1      46.944  27.289  32.584  1.00  0.00     0.009 A 
ATOM     78  C   UNL A   1      45.684  25.682  33.878  1.00  0.00     0.009 A 
ATOM     79  C   UNL A   1      48.039  26.426  32.573  1.00  0.00     0.001 A 
ATOM     80  C   UNL A   1      46.795  24.833  33.893  1.00  0.00     0.001 A 
ATOM     81  C   UNL A   1      47.964  25.197  33.226  1.00  0.00     0.000 A 
ENDBRANCH  63  76
ENDBRANCH  37  38
ENDBRANCH  30  32
ENDBRANCH  29  30
ENDBRANCH  28  29
ENDBRANCH  27  28
ENDBRANCH  26  27
ENDBRANCH  25  26
ENDBRANCH   1  25
TORSDOF 20
ENDMDL
MODEL 3
REMARK VINA RESULT:      -9.7      1.536      2.303
REMARK SMILES O=C(Cc1c[nH]c(=O)n(Cc2ccccc2)c1=O)OCCOCCOCCOC(=O)c1ccc(-c2c3nc(c(-c4ccccc4)c4ccc([nH]4)c(-c4ccccc4)c4nc(c(-c5ccccc5)c5ccc2[nH]5)C=C4)C=C3)cc1
REMARK SMILES IDX 23 1 22 2 21 3 20 4 19 5 2 6 1 7 3 8 4 9 5 10 17 11 6 12
REMARK SMILES IDX 9 13 18 14 7 15 8 17 10 18 11 19 12 20 16 21 13 22 15 23
REMARK SMILES IDX 14 24 24 25 25 26 26 27 27 28 28 29 29 30 30 31 31 32 32 33
REMARK SMILES IDX 78 34 33 35 77 36 34 37 35 38 36 39 71 40 37 41 76 42 70 43
REMARK SMILES IDX 72 44 38 45 75 46 69 47 68 48 39 50 61 51 46 52 60 53 47 54
REMARK SMILES IDX 50 55 59 56 73 57 48 58 49 59 58 61 74 62 51 63 40 64 41 65
REMARK SMILES IDX 45 66 42 67 44 68 43 69 62 70 63 71 67 72 64 73 66 74 65 75
REMARK SMILES IDX 52 76 53 77 57 78 54 79 56 80 55 81
REMARK H PARENT 6 16 72 49 50 60
REMARK Flexibility Score: inf
ROOT
ATOM      1  C   UNL A   1      39.026  21.680  25.787  1.00  0.00     0.188 C 
ENDROOT
BRANCH   1   2
ATOM      2  O   UNL A   1      38.012  20.939  25.146  1.00  0.00    -0.376 OA
BRANCH   2   3
ATOM      3  C   UNL A   1      36.642  21.257  25.342  1.00  0.00     0.202 C 
BRANCH   3   4
ATOM      4  C   UNL A   1      35.501  20.283  25.034  1.00  0.00     0.261 C 
BRANCH   4   5
ATOM      5  O   UNL A   1      34.182  20.400  25.627  1.00  0.00    -0.463 OA
BRANCH   5   6
ATOM      6  C   UNL A   1      32.934  20.430  25.131  1.00  0.00     0.310 C 
ATOM      7  O   UNL A   1      32.390  19.372  24.812  1.00  0.00    -0.252 OA
BRANCH   6   8
ATOM      8  C   UNL A   1      32.163  21.721  25.075  1.00  0.00     0.165 C 
BRANCH   8   9
ATOM      9  C   UNL A   1      32.758  22.460  23.930  1.00  0.00     0.045 A 
ATOM     10  C   UNL A   1      32.562  22.177  22.640  1.00  0.00     0.097 A 
ATOM     11  C   UNL A   1      33.511  23.688  24.248  1.00  0.00     0.260 A 
ATOM     12  N   UNL A   1      32.845  23.112  21.690  1.00  0.00    -0.314 N 
ATOM     13  N   UNL A   1      33.483  24.676  23.299  1.00  0.00    -0.256 N 
ATOM     14  O   UNL A   1      34.080  23.783  25.330  1.00  0.00    -0.269 OA
ATOM     15  C   UNL A   1      33.193  24.411  21.975  1.00  0.00     0.328 A 
ATOM     16  H   UNL A   1      32.797  22.842  20.745  1.00  0.00     0.171 HD
ATOM     17  O   UNL A   1      33.235  25.242  21.072  1.00  0.00    -0.248 OA
BRANCH  13  18
ATOM     18  C   UNL A   1      33.955  25.994  23.696  1.00  0.00     0.166 C 
BRANCH  18  19
ATOM     19  C   UNL A   1      32.826  27.000  23.713  1.00  0.00    -0.028 A 
ATOM     20  C   UNL A   1      31.674  26.739  24.466  1.00  0.00     0.005 A 
ATOM     21  C   UNL A   1      32.874  28.159  22.925  1.00  0.00     0.005 A 
ATOM     22  C   UNL A   1      30.575  27.589  24.399  1.00  0.00     0.000 A 
ATOM     23  C   UNL A   1      31.779  29.022  22.875  1.00  0.00     0.000 A 
ATOM     24  C   UNL A   1      30.626  28.730  23.602  1.00  0.00     0.000 A 
ENDBRANCH  18  19
ENDBRANCH  13  18
ENDBRANCH   8   9
ENDBRANCH   6   8
ENDBRANCH   5   6
ENDBRANCH   4   5
ENDBRANCH   3   4
ENDBRANCH   2   3
ENDBRANCH   1   2
BRANCH   1  25
ATOM     25  C   UNL A   1      40.279  20.898  26.175  1.00  0.00     0.188 C 
BRANCH  25  26
ATOM     26  O   UNL A   1      41.267  21.585  26.922  1.00  0.00    -0.376 OA
BRANCH  26  27
ATOM     27  C   UNL A   1      42.635  21.357  26.589  1.00  0.00     0.202 C 
BRANCH  27  28
ATOM     28  C   UNL A   1      43.264  22.092  25.390  1.00  0.00     0.261 C 
BRANCH  28  29
ATOM     29  O   UNL A   1      42.682  23.374  25.076  1.00  0.00    -0.460 OA
BRANCH  29  30
ATOM     30  C   UNL A   1      43.480  24.454  25.228  1.00  0.00     0.338 C 
ATOM     31  O   UNL A   1      44.513  24.707  24.616  1.00  0.00    -0.246 OA
BRANCH  30  32
ATOM     32  C   UNL A   1      42.875  25.405  26.178  1.00  0.00     0.060 A 
ATOM     33  C   UNL A   1      41.790  25.008  26.960  1.00  0.00     0.016 A 
ATOM     34  C   UNL A   1      43.467  26.660  26.378  1.00  0.00     0.016 A 
ATOM     35  C   UNL A   1      41.301  25.869  27.950  1.00  0.00     0.010 A 
ATOM     36  C   UNL A   1      42.967  27.524  27.357  1.00  0.00     0.010 A 
ATOM     37  C   UNL A   1      41.890  27.129  28.164  1.00  0.00    -0.014 A 
BRANCH  37  38
ATOM     38  C   UNL A   1      41.480  27.953  29.331  1.00  0.00     0.031 A 
ATOM     39  C   UNL A   1      42.208  27.900  30.639  1.00  0.00     0.074 A 
ATOM     40  C   UNL A   1      40.410  28.762  29.200  1.00  0.00     0.049 A 
ATOM     41  N   UNL A   1      42.020  28.629  31.711  1.00  0.00    -0.248 NA
ATOM     42  C   UNL A   1      43.278  26.902  30.769  1.00  0.00     0.031 C 
ATOM     43  C   UNL A   1      39.605  28.886  27.986  1.00  0.00     0.029 A 
ATOM     44  N   UNL A   1      39.822  29.632  30.086  1.00  0.00    -0.354 N 
ATOM     45  C   UNL A   1      42.950  28.188  32.641  1.00  0.00     0.074 A 
ATOM     46  C   UNL A   1      43.680  27.102  32.020  1.00  0.00     0.031 C 
ATOM     47  C   UNL A   1      38.647  29.801  28.192  1.00  0.00     0.029 A 
ATOM     48  C   UNL A   1      38.746  30.305  29.560  1.00  0.00     0.049 A 
ATOM     49  H   UNL A   1      40.142  29.761  31.009  1.00  0.00     0.167 HD
ATOM     50  C   UNL A   1      43.175  28.656  33.893  1.00  0.00     0.031 A 
ATOM     51  C   UNL A   1      37.927  31.228  30.105  1.00  0.00     0.031 A 
ATOM     52  C   UNL A   1      42.435  29.733  34.506  1.00  0.00     0.049 A 
ATOM     53  C   UNL A   1      38.170  31.704  31.509  1.00  0.00     0.074 A 
ATOM     54  C   UNL A   1      42.660  30.331  35.735  1.00  0.00     0.029 A 
ATOM     55  N   UNL A   1      41.322  30.354  33.960  1.00  0.00    -0.354 N 
ATOM     56  N   UNL A   1      39.124  31.358  32.337  1.00  0.00    -0.248 NA
ATOM     57  C   UNL A   1      37.237  32.703  32.053  1.00  0.00     0.031 C 
ATOM     58  C   UNL A   1      41.625  31.236  35.977  1.00  0.00     0.029 A 
ATOM     59  C   UNL A   1      40.813  31.280  34.857  1.00  0.00     0.049 A 
ATOM     60  H   UNL A   1      40.949  30.165  33.068  1.00  0.00     0.167 HD
ATOM     61  C   UNL A   1      38.921  32.107  33.490  1.00  0.00     0.074 A 
ATOM     62  C   UNL A   1      37.758  32.935  33.253  1.00  0.00     0.031 C 
ATOM     63  C   UNL A   1      39.647  32.101  34.635  1.00  0.00     0.031 A 
BRANCH  50  64
ATOM     64  C   UNL A   1      44.260  28.015  34.718  1.00  0.00    -0.014 A 
ATOM     65  C   UNL A   1      43.941  26.951  35.579  1.00  0.00     0.009 A 
ATOM     66  C   UNL A   1      45.560  28.543  34.752  1.00  0.00     0.009 A 
ATOM     67  C   UNL A   1      44.890  26.443  36.468  1.00  0.00     0.001 A 
ATOM     68  C   UNL A   1      46.519  28.009  35.618  1.00  0.00     0.001 A 
ATOM     69  C   UNL A   1      46.179  26.969  36.483  1.00  0.00     0.000 A 
ENDBRANCH  50  64
BRANCH  51  70
ATOM     70  C   UNL A   1      36.827  31.779  29.268  1.00  0.00    -0.014 A 
ATOM     71  C   UNL A   1      36.947  33.054  28.689  1.00  0.00     0.009 A 
ATOM     72  C   UNL A   1      35.613  31.091  29.147  1.00  0.00     0.009 A 
ATOM     73  C   UNL A   1      35.856  33.649  28.052  1.00  0.00     0.001 A 
ATOM     74  C   UNL A   1      34.532  31.676  28.481  1.00  0.00     0.001 A 
ATOM     75  C   UNL A   1      34.649  32.960  27.951  1.00  0.00     0.000 A 
ENDBRANCH  51  70
BRANCH  63  76
ATOM     76  C   UNL A   1      39.229  33.012  35.760  1.00  0.00    -0.014 A 
ATOM     77  C   UNL A   1      39.834  34.275  35.896  1.00  0.00     0.009 A 
ATOM     78  C   UNL A   1      38.373  32.561  36.775  1.00  0.00     0.009 A 
ATOM     79  C   UNL A   1      39.625  35.045  37.041  1.00  0.00     0.001 A 
ATOM     80  C   UNL A   1      38.140  33.349  37.906  1.00  0.00     0.001 A 
ATOM     81  C   UNL A   1      38.779  34.581  38.046  1.00  0.00     0.000 A 
ENDBRANCH  63  76
ENDBRANCH  37  38
ENDBRANCH  30  32
ENDBRANCH  29  30
ENDBRANCH  28  29
ENDBRANCH  27  28
ENDBRANCH  26  27
ENDBRANCH  25  26
ENDBRANCH   1  25
TORSDOF 20
ENDMDL
