MODEL 1
REMARK VINA RESULT:      -9.8      0.000      0.000
REMARK SMILES COC(=O)[C@H]1CN(C(=O)[C@@H]2CC=CC[C@@H]2C(=O)OCCOCCOCCOC(=O)c2ccc(-c3c4nc(c(-c5ccccc5)c5ccc([nH]5)c(-c5ccccc5)c5nc(c(-c6ccccc6)c6ccc3[nH]6)C=C5)C=C4)cc2)C[C@H]1C
REMARK SMILES IDX 22 1 21 2 20 3 19 4 18 5 16 6 17 7 15 8 10 9 11 10 12 11
REMARK SMILES IDX 14 12 13 13 8 14 9 15 7 16 5 17 6 18 79 19 78 20 80 21 3 22
REMARK SMILES IDX 4 23 2 24 1 25 23 26 24 27 25 28 26 29 27 30 28 31 29 32
REMARK SMILES IDX 30 33 31 34 77 35 32 36 76 37 33 38 34 39 35 40 70 41 36 42
REMARK SMILES IDX 75 43 69 44 71 45 37 46 74 47 68 48 67 49 38 51 60 52 45 53
REMARK SMILES IDX 59 54 46 55 49 56 58 57 72 58 47 59 48 60 57 62 73 63 50 64
REMARK SMILES IDX 39 65 40 66 44 67 41 68 43 69 42 70 61 71 62 72 66 73 63 74
REMARK SMILES IDX 65 75 64 76 51 77 52 78 56 79 53 80 55 81 54 82
REMARK H PARENT 71 50 49 61
REMARK Flexibility Score: inf
ROOT
ATOM      1  C   UNL A   1      32.695  29.293  27.251  1.00  0.00     0.188 C 
ENDROOT
BRANCH   1   2
ATOM      2  O   UNL A   1      33.401  28.275  26.568  1.00  0.00    -0.376 OA
BRANCH   2   3
ATOM      3  C   UNL A   1      33.635  28.527  25.194  1.00  0.00     0.202 C 
BRANCH   3   4
ATOM      4  C   UNL A   1      33.861  27.292  24.316  1.00  0.00     0.261 C 
BRANCH   4   5
ATOM      5  O   UNL A   1      34.304  26.019  24.853  1.00  0.00    -0.463 OA
BRANCH   5   6
ATOM      6  C   UNL A   1      33.550  24.964  25.226  1.00  0.00     0.310 C 
ATOM      7  O   UNL A   1      33.546  24.429  26.325  1.00  0.00    -0.252 OA
BRANCH   6   8
ATOM      8  C   UNL A   1      32.701  24.437  24.102  1.00  0.00     0.115 C 
ATOM      9  C   UNL A   1      31.243  24.284  24.558  1.00  0.00     0.097 C 
ATOM     10  C   UNL A   1      30.922  22.978  25.293  1.00  0.00     0.041 C 
ATOM     11  C   UNL A   1      31.817  21.822  24.948  1.00  0.00    -0.030 C 
ATOM     12  C   UNL A   1      33.291  23.173  23.456  1.00  0.00     0.043 C 
ATOM     13  C   UNL A   1      32.864  21.900  24.116  1.00  0.00    -0.030 C 
BRANCH   9  14
ATOM     14  C   UNL A   1      30.666  25.577  25.180  1.00  0.00     0.226 C 
ATOM     15  O   UNL A   1      30.878  25.757  26.388  1.00  0.00    -0.275 OA
BRANCH  14  16
ATOM     16  N   UNL A   1      29.897  26.490  24.483  1.00  0.00    -0.341 N 
ATOM     17  C   UNL A   1      29.600  28.229  22.922  1.00  0.00     0.123 C 
ATOM     18  C   UNL A   1      30.483  27.755  24.068  1.00  0.00     0.135 C 
ATOM     19  C   UNL A   1      28.229  27.553  23.125  1.00  0.00     0.021 C 
ATOM     20  C   UNL A   1      28.466  26.590  24.283  1.00  0.00     0.123 C 
ATOM     21  C   UNL A   1      27.021  28.445  23.417  1.00  0.00     0.010 C 
BRANCH  17  22
ATOM     22  C   UNL A   1      29.600  29.734  22.815  1.00  0.00     0.310 C 
ATOM     23  O   UNL A   1      29.603  30.512  23.758  1.00  0.00    -0.252 OA
BRANCH  22  24
ATOM     24  O   UNL A   1      29.564  30.094  21.504  1.00  0.00    -0.469 OA
ATOM     25  C   UNL A   1      28.406  30.823  21.098  1.00  0.00     0.282 C 
ENDBRANCH  22  24
ENDBRANCH  17  22
ENDBRANCH  14  16
ENDBRANCH   9  14
ENDBRANCH   6   8
ENDBRANCH   5   6
ENDBRANCH   4   5
ENDBRANCH   3   4
ENDBRANCH   2   3
ENDBRANCH   1   2
BRANCH   1  26
ATOM     26  C   UNL A   1      33.251  30.706  26.997  1.00  0.00     0.188 C 
BRANCH  26  27
ATOM     27  O   UNL A   1      33.693  31.501  28.084  1.00  0.00    -0.376 OA
BRANCH  27  28
ATOM     28  C   UNL A   1      33.679  32.909  27.921  1.00  0.00     0.202 C 
BRANCH  28  29
ATOM     29  C   UNL A   1      34.050  33.832  29.103  1.00  0.00     0.261 C 
BRANCH  29  30
ATOM     30  O   UNL A   1      35.313  33.599  29.761  1.00  0.00    -0.460 OA
BRANCH  30  31
ATOM     31  C   UNL A   1      35.352  32.617  30.699  1.00  0.00     0.338 C 
ATOM     32  O   UNL A   1      34.510  32.395  31.557  1.00  0.00    -0.246 OA
BRANCH  31  33
ATOM     33  C   UNL A   1      36.467  31.677  30.392  1.00  0.00     0.060 A 
ATOM     34  C   UNL A   1      37.147  31.040  31.450  1.00  0.00     0.016 A 
ATOM     35  C   UNL A   1      36.854  31.427  29.078  1.00  0.00     0.016 A 
ATOM     36  C   UNL A   1      38.216  30.174  31.202  1.00  0.00     0.010 A 
ATOM     37  C   UNL A   1      37.959  30.601  28.832  1.00  0.00     0.010 A 
ATOM     38  C   UNL A   1      38.666  29.999  29.892  1.00  0.00    -0.014 A 
BRANCH  38  39
ATOM     39  C   UNL A   1      40.008  29.423  29.624  1.00  0.00     0.031 A 
ATOM     40  C   UNL A   1      41.184  30.362  29.647  1.00  0.00     0.074 A 
ATOM     41  C   UNL A   1      40.193  28.124  29.329  1.00  0.00     0.049 A 
ATOM     42  N   UNL A   1      42.414  30.170  29.247  1.00  0.00    -0.248 NA
ATOM     43  C   UNL A   1      40.926  31.709  30.184  1.00  0.00     0.031 C 
ATOM     44  C   UNL A   1      39.165  27.088  29.356  1.00  0.00     0.029 A 
ATOM     45  N   UNL A   1      41.327  27.468  28.915  1.00  0.00    -0.354 N 
ATOM     46  C   UNL A   1      43.066  31.381  29.451  1.00  0.00     0.074 A 
ATOM     47  C   UNL A   1      42.094  32.302  29.996  1.00  0.00     0.031 C 
ATOM     48  C   UNL A   1      39.707  25.930  28.940  1.00  0.00     0.029 A 
ATOM     49  C   UNL A   1      41.104  26.157  28.570  1.00  0.00     0.049 A 
ATOM     50  H   UNL A   1      42.213  27.894  28.871  1.00  0.00     0.167 HD
ATOM     51  C   UNL A   1      44.356  31.700  29.197  1.00  0.00     0.031 A 
ATOM     52  C   UNL A   1      41.921  25.260  27.979  1.00  0.00     0.031 A 
ATOM     53  C   UNL A   1      45.316  30.788  28.639  1.00  0.00     0.049 A 
ATOM     54  C   UNL A   1      43.327  25.666  27.609  1.00  0.00     0.074 A 
ATOM     55  C   UNL A   1      46.650  31.013  28.350  1.00  0.00     0.029 A 
ATOM     56  N   UNL A   1      45.041  29.477  28.283  1.00  0.00    -0.354 N 
ATOM     57  N   UNL A   1      43.937  26.812  27.796  1.00  0.00    -0.248 NA
ATOM     58  C   UNL A   1      44.159  24.649  26.945  1.00  0.00     0.031 C 
ATOM     59  C   UNL A   1      47.166  29.857  27.756  1.00  0.00     0.029 A 
ATOM     60  C   UNL A   1      46.175  28.889  27.749  1.00  0.00     0.049 A 
ATOM     61  H   UNL A   1      44.171  29.031  28.392  1.00  0.00     0.167 HD
ATOM     62  C   UNL A   1      45.230  26.640  27.315  1.00  0.00     0.074 A 
ATOM     63  C   UNL A   1      45.320  25.280  26.829  1.00  0.00     0.031 C 
ATOM     64  C   UNL A   1      46.255  27.527  27.286  1.00  0.00     0.031 A 
BRANCH  51  65
ATOM     65  C   UNL A   1      44.786  33.116  29.469  1.00  0.00    -0.014 A 
ATOM     66  C   UNL A   1      45.363  33.487  30.694  1.00  0.00     0.009 A 
ATOM     67  C   UNL A   1      44.635  34.088  28.467  1.00  0.00     0.009 A 
ATOM     68  C   UNL A   1      45.745  34.810  30.921  1.00  0.00     0.001 A 
ATOM     69  C   UNL A   1      45.050  35.402  28.685  1.00  0.00     0.001 A 
ATOM     70  C   UNL A   1      45.595  35.764  29.916  1.00  0.00     0.000 A 
ENDBRANCH  51  65
BRANCH  52  71
ATOM     71  C   UNL A   1      41.427  23.893  27.658  1.00  0.00    -0.014 A 
ATOM     72  C   UNL A   1      40.528  23.687  26.600  1.00  0.00     0.009 A 
ATOM     73  C   UNL A   1      41.829  22.789  28.426  1.00  0.00     0.009 A 
ATOM     74  C   UNL A   1      40.021  22.412  26.337  1.00  0.00     0.001 A 
ATOM     75  C   UNL A   1      41.347  21.509  28.140  1.00  0.00     0.001 A 
ATOM     76  C   UNL A   1      40.435  21.323  27.103  1.00  0.00     0.000 A 
ENDBRANCH  52  71
BRANCH  64  77
ATOM     77  C   UNL A   1      47.588  27.047  26.778  1.00  0.00    -0.014 A 
ATOM     78  C   UNL A   1      48.531  26.449  27.627  1.00  0.00     0.009 A 
ATOM     79  C   UNL A   1      47.867  27.130  25.404  1.00  0.00     0.009 A 
ATOM     80  C   UNL A   1      49.740  25.970  27.112  1.00  0.00     0.001 A 
ATOM     81  C   UNL A   1      49.060  26.622  24.888  1.00  0.00     0.001 A 
ATOM     82  C   UNL A   1      49.999  26.049  25.744  1.00  0.00     0.000 A 
ENDBRANCH  64  77
ENDBRANCH  38  39
ENDBRANCH  31  33
ENDBRANCH  30  31
ENDBRANCH  29  30
ENDBRANCH  28  29
ENDBRANCH  27  28
ENDBRANCH  26  27
ENDBRANCH   1  26
TORSDOF 21
ENDMDL
MODEL 2
REMARK VINA RESULT:      -9.8      2.460      8.037
REMARK SMILES COC(=O)[C@H]1CN(C(=O)[C@@H]2CC=CC[C@@H]2C(=O)OCCOCCOCCOC(=O)c2ccc(-c3c4nc(c(-c5ccccc5)c5ccc([nH]5)c(-c5ccccc5)c5nc(c(-c6ccccc6)c6ccc3[nH]6)C=C5)C=C4)cc2)C[C@H]1C
REMARK SMILES IDX 22 1 21 2 20 3 19 4 18 5 16 6 17 7 15 8 10 9 11 10 12 11
REMARK SMILES IDX 14 12 13 13 8 14 9 15 7 16 5 17 6 18 79 19 78 20 80 21 3 22
REMARK SMILES IDX 4 23 2 24 1 25 23 26 24 27 25 28 26 29 27 30 28 31 29 32
REMARK SMILES IDX 30 33 31 34 77 35 32 36 76 37 33 38 34 39 35 40 70 41 36 42
REMARK SMILES IDX 75 43 69 44 71 45 37 46 74 47 68 48 67 49 38 51 60 52 45 53
REMARK SMILES IDX 59 54 46 55 49 56 58 57 72 58 47 59 48 60 57 62 73 63 50 64
REMARK SMILES IDX 39 65 40 66 44 67 41 68 43 69 42 70 61 71 62 72 66 73 63 74
REMARK SMILES IDX 65 75 64 76 51 77 52 78 56 79 53 80 55 81 54 82
REMARK H PARENT 71 50 49 61
REMARK Flexibility Score: inf
ROOT
ATOM      1  C   UNL A   1      35.713  23.208  23.407  1.00  0.00     0.188 C 
ENDROOT
BRANCH   1   2
ATOM      2  O   UNL A   1      35.499  24.223  24.370  1.00  0.00    -0.376 OA
BRANCH   2   3
ATOM      3  C   UNL A   1      34.408  25.084  24.100  1.00  0.00     0.202 C 
BRANCH   3   4
ATOM      4  C   UNL A   1      34.031  26.059  25.220  1.00  0.00     0.261 C 
BRANCH   4   5
ATOM      5  O   UNL A   1      32.878  26.936  25.139  1.00  0.00    -0.463 OA
BRANCH   5   6
ATOM      6  C   UNL A   1      31.807  26.982  25.959  1.00  0.00     0.310 C 
ATOM      7  O   UNL A   1      31.832  27.069  27.178  1.00  0.00    -0.252 OA
BRANCH   6   8
ATOM      8  C   UNL A   1      30.506  26.859  25.214  1.00  0.00     0.115 C 
ATOM      9  C   UNL A   1      30.272  25.406  24.779  1.00  0.00     0.097 C 
ATOM     10  C   UNL A   1      30.956  24.998  23.470  1.00  0.00     0.041 C 
ATOM     11  C   UNL A   1      31.214  26.127  22.513  1.00  0.00    -0.030 C 
ATOM     12  C   UNL A   1      30.377  27.883  24.075  1.00  0.00     0.043 C 
ATOM     13  C   UNL A   1      30.942  27.413  22.772  1.00  0.00    -0.030 C 
BRANCH   9  14
ATOM     14  C   UNL A   1      30.382  24.400  25.949  1.00  0.00     0.226 C 
ATOM     15  O   UNL A   1      29.522  24.482  26.837  1.00  0.00    -0.275 OA
BRANCH  14  16
ATOM     16  N   UNL A   1      31.401  23.476  26.075  1.00  0.00    -0.341 N 
ATOM     17  C   UNL A   1      32.794  21.758  25.259  1.00  0.00     0.123 C 
ATOM     18  C   UNL A   1      31.349  22.239  25.309  1.00  0.00     0.135 C 
ATOM     19  C   UNL A   1      33.500  22.383  26.480  1.00  0.00     0.021 C 
ATOM     20  C   UNL A   1      32.455  23.331  27.059  1.00  0.00     0.123 C 
ATOM     21  C   UNL A   1      34.024  21.444  27.568  1.00  0.00     0.010 C 
BRANCH  17  22
ATOM     22  C   UNL A   1      32.867  20.257  25.134  1.00  0.00     0.310 C 
ATOM     23  O   UNL A   1      31.941  19.483  25.328  1.00  0.00    -0.252 OA
BRANCH  22  24
ATOM     24  O   UNL A   1      34.135  19.893  24.802  1.00  0.00    -0.469 OA
ATOM     25  C   UNL A   1      34.300  18.532  24.402  1.00  0.00     0.282 C 
ENDBRANCH  22  24
ENDBRANCH  17  22
ENDBRANCH  14  16
ENDBRANCH   9  14
ENDBRANCH   6   8
ENDBRANCH   5   6
ENDBRANCH   4   5
ENDBRANCH   3   4
ENDBRANCH   2   3
ENDBRANCH   1   2
BRANCH   1  26
ATOM     26  C   UNL A   1      36.901  22.285  23.737  1.00  0.00     0.188 C 
BRANCH  26  27
ATOM     27  O   UNL A   1      37.334  22.138  25.079  1.00  0.00    -0.376 OA
BRANCH  27  28
ATOM     28  C   UNL A   1      38.125  21.005  25.396  1.00  0.00     0.202 C 
BRANCH  28  29
ATOM     29  C   UNL A   1      39.510  21.185  26.056  1.00  0.00     0.261 C 
BRANCH  29  30
ATOM     30  O   UNL A   1      40.283  19.995  26.318  1.00  0.00    -0.460 OA
BRANCH  30  31
ATOM     31  C   UNL A   1      41.610  20.041  26.034  1.00  0.00     0.338 C 
ATOM     32  O   UNL A   1      42.246  19.219  25.390  1.00  0.00    -0.246 OA
BRANCH  31  33
ATOM     33  C   UNL A   1      42.158  21.374  26.417  1.00  0.00     0.060 A 
ATOM     34  C   UNL A   1      42.227  21.728  27.780  1.00  0.00     0.016 A 
ATOM     35  C   UNL A   1      42.591  22.277  25.450  1.00  0.00     0.016 A 
ATOM     36  C   UNL A   1      42.707  22.980  28.175  1.00  0.00     0.010 A 
ATOM     37  C   UNL A   1      43.022  23.550  25.843  1.00  0.00     0.010 A 
ATOM     38  C   UNL A   1      43.050  23.921  27.202  1.00  0.00    -0.014 A 
BRANCH  38  39
ATOM     39  C   UNL A   1      43.180  25.357  27.552  1.00  0.00     0.031 A 
ATOM     40  C   UNL A   1      44.568  25.894  27.783  1.00  0.00     0.074 A 
ATOM     41  C   UNL A   1      42.116  26.165  27.705  1.00  0.00     0.049 A 
ATOM     42  N   UNL A   1      44.948  27.034  28.297  1.00  0.00    -0.248 NA
ATOM     43  C   UNL A   1      45.678  25.008  27.390  1.00  0.00     0.031 C 
ATOM     44  C   UNL A   1      40.727  25.808  27.429  1.00  0.00     0.029 A 
ATOM     45  N   UNL A   1      42.050  27.459  28.164  1.00  0.00    -0.354 N 
ATOM     46  C   UNL A   1      46.337  26.988  28.323  1.00  0.00     0.074 A 
ATOM     47  C   UNL A   1      46.731  25.705  27.786  1.00  0.00     0.031 C 
ATOM     48  C   UNL A   1      39.940  26.847  27.759  1.00  0.00     0.029 A 
ATOM     49  C   UNL A   1      40.765  27.920  28.316  1.00  0.00     0.049 A 
ATOM     50  H   UNL A   1      42.846  28.003  28.364  1.00  0.00     0.167 HD
ATOM     51  C   UNL A   1      47.207  27.926  28.764  1.00  0.00     0.031 A 
ATOM     52  C   UNL A   1      40.307  29.055  28.882  1.00  0.00     0.031 A 
ATOM     53  C   UNL A   1      46.812  29.194  29.312  1.00  0.00     0.049 A 
ATOM     54  C   UNL A   1      41.289  30.045  29.462  1.00  0.00     0.074 A 
ATOM     55  C   UNL A   1      47.617  30.217  29.782  1.00  0.00     0.029 A 
ATOM     56  N   UNL A   1      45.499  29.610  29.469  1.00  0.00    -0.354 N 
ATOM     57  N   UNL A   1      42.599  29.995  29.491  1.00  0.00    -0.248 NA
ATOM     58  C   UNL A   1      40.724  31.252  30.088  1.00  0.00     0.031 C 
ATOM     59  C   UNL A   1      46.790  31.225  30.284  1.00  0.00     0.029 A 
ATOM     60  C   UNL A   1      45.472  30.864  30.055  1.00  0.00     0.049 A 
ATOM     61  H   UNL A   1      44.706  29.092  29.205  1.00  0.00     0.167 HD
ATOM     62  C   UNL A   1      43.014  31.177  30.095  1.00  0.00     0.074 A 
ATOM     63  C   UNL A   1      41.818  31.926  30.416  1.00  0.00     0.031 C 
ATOM     64  C   UNL A   1      44.274  31.607  30.353  1.00  0.00     0.031 A 
BRANCH  51  65
ATOM     65  C   UNL A   1      48.672  27.588  28.721  1.00  0.00    -0.014 A 
ATOM     66  C   UNL A   1      49.468  27.909  27.610  1.00  0.00     0.009 A 
ATOM     67  C   UNL A   1      49.268  26.961  29.826  1.00  0.00     0.009 A 
ATOM     68  C   UNL A   1      50.824  27.575  27.595  1.00  0.00     0.001 A 
ATOM     69  C   UNL A   1      50.630  26.660  29.822  1.00  0.00     0.001 A 
ATOM     70  C   UNL A   1      51.405  26.957  28.702  1.00  0.00     0.000 A 
ENDBRANCH  51  65
BRANCH  52  71
ATOM     71  C   UNL A   1      38.844  29.312  28.972  1.00  0.00    -0.014 A 
ATOM     72  C   UNL A   1      38.149  29.876  27.891  1.00  0.00     0.009 A 
ATOM     73  C   UNL A   1      38.138  29.024  30.151  1.00  0.00     0.009 A 
ATOM     74  C   UNL A   1      36.787  30.170  27.998  1.00  0.00     0.001 A 
ATOM     75  C   UNL A   1      36.769  29.288  30.244  1.00  0.00     0.001 A 
ATOM     76  C   UNL A   1      36.097  29.871  29.171  1.00  0.00     0.000 A 
ENDBRANCH  52  71
BRANCH  64  77
ATOM     77  C   UNL A   1      44.441  32.978  30.949  1.00  0.00    -0.014 A 
ATOM     78  C   UNL A   1      44.608  33.170  32.328  1.00  0.00     0.009 A 
ATOM     79  C   UNL A   1      44.505  34.093  30.096  1.00  0.00     0.009 A 
ATOM     80  C   UNL A   1      44.810  34.455  32.843  1.00  0.00     0.001 A 
ATOM     81  C   UNL A   1      44.738  35.370  30.608  1.00  0.00     0.001 A 
ATOM     82  C   UNL A   1      44.883  35.551  31.982  1.00  0.00     0.000 A 
ENDBRANCH  64  77
ENDBRANCH  38  39
ENDBRANCH  31  33
ENDBRANCH  30  31
ENDBRANCH  29  30
ENDBRANCH  28  29
ENDBRANCH  27  28
ENDBRANCH  26  27
ENDBRANCH   1  26
TORSDOF 21
ENDMDL
MODEL 3
REMARK VINA RESULT:      -9.8      4.534      9.713
REMARK SMILES COC(=O)[C@H]1CN(C(=O)[C@@H]2CC=CC[C@@H]2C(=O)OCCOCCOCCOC(=O)c2ccc(-c3c4nc(c(-c5ccccc5)c5ccc([nH]5)c(-c5ccccc5)c5nc(c(-c6ccccc6)c6ccc3[nH]6)C=C5)C=C4)cc2)C[C@H]1C
REMARK SMILES IDX 22 1 21 2 20 3 19 4 18 5 16 6 17 7 15 8 10 9 11 10 12 11
REMARK SMILES IDX 14 12 13 13 8 14 9 15 7 16 5 17 6 18 79 19 78 20 80 21 3 22
REMARK SMILES IDX 4 23 2 24 1 25 23 26 24 27 25 28 26 29 27 30 28 31 29 32
REMARK SMILES IDX 30 33 31 34 77 35 32 36 76 37 33 38 34 39 35 40 70 41 36 42
REMARK SMILES IDX 75 43 69 44 71 45 37 46 74 47 68 48 67 49 38 51 60 52 45 53
REMARK SMILES IDX 59 54 46 55 49 56 58 57 72 58 47 59 48 60 57 62 73 63 50 64
REMARK SMILES IDX 39 65 40 66 44 67 41 68 43 69 42 70 61 71 62 72 66 73 63 74
REMARK SMILES IDX 65 75 64 76 51 77 52 78 56 79 53 80 55 81 54 82
REMARK H PARENT 71 50 49 61
REMARK Flexibility Score: inf
ROOT
ATOM      1  C   UNL A   1      39.812  21.681  26.262  1.00  0.00     0.188 C 
ENDROOT
BRANCH   1   2
ATOM      2  O   UNL A   1      38.830  21.442  25.271  1.00  0.00    -0.376 OA
BRANCH   2   3
ATOM      3  C   UNL A   1      37.645  22.205  25.405  1.00  0.00     0.202 C 
BRANCH   3   4
ATOM      4  C   UNL A   1      36.789  22.339  24.142  1.00  0.00     0.261 C 
BRANCH   4   5
ATOM      5  O   UNL A   1      35.956  23.498  23.879  1.00  0.00    -0.463 OA
BRANCH   5   6
ATOM      6  C   UNL A   1      34.665  23.525  23.490  1.00  0.00     0.310 C 
ATOM      7  O   UNL A   1      34.227  23.161  22.408  1.00  0.00    -0.252 OA
BRANCH   6   8
ATOM      8  C   UNL A   1      33.760  24.119  24.534  1.00  0.00     0.115 C 
ATOM      9  C   UNL A   1      32.702  23.096  24.971  1.00  0.00     0.097 C 
ATOM     10  C   UNL A   1      31.463  23.014  24.073  1.00  0.00     0.041 C 
ATOM     11  C   UNL A   1      31.148  24.272  23.313  1.00  0.00    -0.030 C 
ATOM     12  C   UNL A   1      33.180  25.479  24.112  1.00  0.00     0.043 C 
ATOM     13  C   UNL A   1      31.902  25.378  23.341  1.00  0.00    -0.030 C 
BRANCH   9  14
ATOM     14  C   UNL A   1      33.313  21.747  25.415  1.00  0.00     0.226 C 
ATOM     15  O   UNL A   1      34.136  21.786  26.341  1.00  0.00    -0.275 OA
BRANCH  14  16
ATOM     16  N   UNL A   1      33.034  20.538  24.805  1.00  0.00    -0.341 N 
ATOM     17  C   UNL A   1      32.575  18.227  24.832  1.00  0.00     0.123 C 
ATOM     18  C   UNL A   1      33.479  19.300  25.427  1.00  0.00     0.135 C 
ATOM     19  C   UNL A   1      32.082  18.780  23.479  1.00  0.00     0.021 C 
ATOM     20  C   UNL A   1      32.594  20.215  23.463  1.00  0.00     0.123 C 
ATOM     21  C   UNL A   1      32.509  18.050  22.203  1.00  0.00     0.010 C 
BRANCH  17  22
ATOM     22  C   UNL A   1      33.265  16.886  24.801  1.00  0.00     0.310 C 
ATOM     23  O   UNL A   1      32.708  15.800  24.863  1.00  0.00    -0.252 OA
BRANCH  22  24
ATOM     24  O   UNL A   1      34.611  17.072  24.725  1.00  0.00    -0.469 OA
ATOM     25  C   UNL A   1      35.405  16.101  25.407  1.00  0.00     0.282 C 
ENDBRANCH  22  24
ENDBRANCH  17  22
ENDBRANCH  14  16
ENDBRANCH   9  14
ENDBRANCH   6   8
ENDBRANCH   5   6
ENDBRANCH   4   5
ENDBRANCH   3   4
ENDBRANCH   2   3
ENDBRANCH   1   2
BRANCH   1  26
ATOM     26  C   UNL A   1      40.687  20.453  26.574  1.00  0.00     0.188 C 
BRANCH  26  27
ATOM     27  O   UNL A   1      41.810  20.158  25.762  1.00  0.00    -0.376 OA
BRANCH  27  28
ATOM     28  C   UNL A   1      43.097  20.397  26.304  1.00  0.00     0.202 C 
BRANCH  28  29
ATOM     29  C   UNL A   1      44.213  20.999  25.422  1.00  0.00     0.261 C 
BRANCH  29  30
ATOM     30  O   UNL A   1      44.564  22.381  25.640  1.00  0.00    -0.460 OA
BRANCH  30  31
ATOM     31  C   UNL A   1      43.629  23.316  25.331  1.00  0.00     0.338 C 
ATOM     32  O   UNL A   1      42.898  23.319  24.351  1.00  0.00    -0.246 OA
BRANCH  31  33
ATOM     33  C   UNL A   1      43.441  24.237  26.489  1.00  0.00     0.060 A 
ATOM     34  C   UNL A   1      42.556  23.874  27.524  1.00  0.00     0.016 A 
ATOM     35  C   UNL A   1      44.116  25.452  26.556  1.00  0.00     0.016 A 
ATOM     36  C   UNL A   1      42.332  24.724  28.611  1.00  0.00     0.010 A 
ATOM     37  C   UNL A   1      43.851  26.327  27.618  1.00  0.00     0.010 A 
ATOM     38  C   UNL A   1      42.934  25.984  28.631  1.00  0.00    -0.014 A 
BRANCH  38  39
ATOM     39  C   UNL A   1      42.430  27.049  29.534  1.00  0.00     0.031 A 
ATOM     40  C   UNL A   1      43.142  27.244  30.845  1.00  0.00     0.074 A 
ATOM     41  C   UNL A   1      41.354  27.800  29.237  1.00  0.00     0.049 A 
ATOM     42  N   UNL A   1      42.789  27.944  31.891  1.00  0.00    -0.248 NA
ATOM     43  C   UNL A   1      44.425  26.535  30.997  1.00  0.00     0.031 C 
ATOM     44  C   UNL A   1      40.623  27.783  27.973  1.00  0.00     0.029 A 
ATOM     45  N   UNL A   1      40.675  28.711  30.011  1.00  0.00    -0.354 N 
ATOM     46  C   UNL A   1      43.786  27.731  32.836  1.00  0.00     0.074 A 
ATOM     47  C   UNL A   1      44.749  26.829  32.245  1.00  0.00     0.031 C 
ATOM     48  C   UNL A   1      39.573  28.618  28.070  1.00  0.00     0.029 A 
ATOM     49  C   UNL A   1      39.531  29.187  29.417  1.00  0.00     0.049 A 
ATOM     50  H   UNL A   1      40.979  28.996  30.902  1.00  0.00     0.167 HD
ATOM     51  C   UNL A   1      43.886  28.234  34.088  1.00  0.00     0.031 A 
ATOM     52  C   UNL A   1      38.542  29.954  29.920  1.00  0.00     0.031 A 
ATOM     53  C   UNL A   1      42.920  29.118  34.680  1.00  0.00     0.049 A 
ATOM     54  C   UNL A   1      38.620  30.422  31.353  1.00  0.00     0.074 A 
ATOM     55  C   UNL A   1      42.933  29.688  35.941  1.00  0.00     0.029 A 
ATOM     56  N   UNL A   1      41.764  29.555  34.052  1.00  0.00    -0.354 N 
ATOM     57  N   UNL A   1      39.559  30.213  32.245  1.00  0.00    -0.248 NA
ATOM     58  C   UNL A   1      37.497  31.234  31.849  1.00  0.00     0.031 C 
ATOM     59  C   UNL A   1      41.751  30.418  36.099  1.00  0.00     0.029 A 
ATOM     60  C   UNL A   1      41.042  30.365  34.910  1.00  0.00     0.049 A 
ATOM     61  H   UNL A   1      41.497  29.323  33.134  1.00  0.00     0.167 HD
ATOM     62  C   UNL A   1      39.163  30.902  33.386  1.00  0.00     0.074 A 
ATOM     63  C   UNL A   1      37.900  31.536  33.076  1.00  0.00     0.031 C 
ATOM     64  C   UNL A   1      39.794  31.006  34.582  1.00  0.00     0.031 A 
BRANCH  51  65
ATOM     65  C   UNL A   1      45.058  27.792  34.922  1.00  0.00    -0.014 A 
ATOM     66  C   UNL A   1      44.917  26.838  35.942  1.00  0.00     0.009 A 
ATOM     67  C   UNL A   1      46.331  28.325  34.660  1.00  0.00     0.009 A 
ATOM     68  C   UNL A   1      46.022  26.454  36.705  1.00  0.00     0.001 A 
ATOM     69  C   UNL A   1      47.438  27.913  35.402  1.00  0.00     0.001 A 
ATOM     70  C   UNL A   1      47.281  26.986  36.431  1.00  0.00     0.000 A 
ENDBRANCH  51  65
BRANCH  52  71
ATOM     71  C   UNL A   1      37.363  30.302  29.082  1.00  0.00    -0.014 A 
ATOM     72  C   UNL A   1      37.159  31.621  28.647  1.00  0.00     0.009 A 
ATOM     73  C   UNL A   1      36.417  29.324  28.736  1.00  0.00     0.009 A 
ATOM     74  C   UNL A   1      36.021  31.958  27.909  1.00  0.00     0.001 A 
ATOM     75  C   UNL A   1      35.297  29.657  27.970  1.00  0.00     0.001 A 
ATOM     76  C   UNL A   1      35.094  30.976  27.566  1.00  0.00     0.000 A 
ENDBRANCH  52  71
BRANCH  64  77
ATOM     77  C   UNL A   1      39.175  31.892  35.629  1.00  0.00    -0.014 A 
ATOM     78  C   UNL A   1      39.391  33.277  35.649  1.00  0.00     0.009 A 
ATOM     79  C   UNL A   1      38.296  31.328  36.569  1.00  0.00     0.009 A 
ATOM     80  C   UNL A   1      38.760  34.076  36.608  1.00  0.00     0.001 A 
ATOM     81  C   UNL A   1      37.642  32.132  37.505  1.00  0.00     0.001 A 
ATOM     82  C   UNL A   1      37.881  33.505  37.528  1.00  0.00     0.000 A 
ENDBRANCH  64  77
ENDBRANCH  38  39
ENDBRANCH  31  33
ENDBRANCH  30  31
ENDBRANCH  29  30
ENDBRANCH  28  29
ENDBRANCH  27  28
ENDBRANCH  26  27
ENDBRANCH   1  26
TORSDOF 21
ENDMDL
