MODEL 1
REMARK VINA RESULT:     -10.6      0.000      0.000
REMARK SMILES CC[C@@H]1CCCC[N@H+]1Cc1c(C(=O)OCCOCCOCCOC(=O)c2ccc(-c3c4nc(c(-c5ccccc5)c5ccc([nH]5)c(-c5ccccc5)c5nc(c(-c6ccccc6)c6ccc3[nH]6)C=C5)C=C4)cc2)oc2ccccc12
REMARK SMILES IDX 18 1 17 2 16 3 15 4 14 5 12 6 13 7 11 8 10 9 80 10 74 11
REMARK SMILES IDX 75 12 79 13 76 14 78 15 77 16 9 17 8 18 3 19 4 20 5 21 7 22
REMARK SMILES IDX 6 24 2 25 1 26 19 27 20 28 21 29 22 30 23 31 24 32 25 33
REMARK SMILES IDX 26 34 27 35 73 36 28 37 72 38 29 39 30 40 31 41 66 42 32 43
REMARK SMILES IDX 71 44 65 45 67 46 33 47 70 48 64 49 63 50 34 52 56 53 41 54
REMARK SMILES IDX 55 55 42 56 45 57 54 58 68 59 43 60 44 61 53 63 69 64 46 65
REMARK SMILES IDX 35 66 36 67 40 68 37 69 39 70 38 71 57 72 58 73 62 74 59 75
REMARK SMILES IDX 61 76 60 77 47 78 48 79 52 80 49 81 51 82 50 83
REMARK H PARENT 8 23 67 51 45 62
REMARK Flexibility Score: inf
ROOT
ATOM      1  C   UNL A   1      41.628  20.372  27.389  1.00  0.00     0.188 C 
ENDROOT
BRANCH   1   2
ATOM      2  O   UNL A   1      40.428  21.121  27.462  1.00  0.00    -0.376 OA
BRANCH   2   3
ATOM      3  C   UNL A   1      39.954  21.833  26.329  1.00  0.00     0.202 C 
BRANCH   3   4
ATOM      4  C   UNL A   1      38.560  22.454  26.388  1.00  0.00     0.261 C 
BRANCH   4   5
ATOM      5  O   UNL A   1      37.684  21.947  25.372  1.00  0.00    -0.457 OA
BRANCH   5   6
ATOM      6  C   UNL A   1      36.422  22.467  25.381  1.00  0.00     0.374 C 
ATOM      7  O   UNL A   1      36.162  23.643  25.596  1.00  0.00    -0.242 OA
BRANCH   6   8
ATOM      8  C   UNL A   1      35.470  21.465  24.965  1.00  0.00     0.221 A 
ATOM      9  C   UNL A   1      34.161  21.588  24.493  1.00  0.00     0.067 A 
ATOM     10  C   UNL A   1      33.719  20.244  24.247  1.00  0.00     0.030 A 
ATOM     11  O   UNL A   1      35.837  20.151  25.022  1.00  0.00    -0.448 OA
ATOM     12  C   UNL A   1      34.770  19.415  24.620  1.00  0.00     0.135 A 
ATOM     13  C   UNL A   1      32.552  19.627  23.754  1.00  0.00     0.012 A 
ATOM     14  C   UNL A   1      34.728  18.022  24.581  1.00  0.00     0.048 A 
ATOM     15  C   UNL A   1      32.469  18.228  23.718  1.00  0.00     0.001 A 
ATOM     16  C   UNL A   1      33.540  17.439  24.132  1.00  0.00     0.004 A 
BRANCH   9  17
ATOM     17  C   UNL A   1      33.438  22.881  24.227  1.00  0.00     0.304 C 
BRANCH  17  18
ATOM     18  N   UNL A   1      32.579  23.366  25.321  1.00  0.00    -0.329 N 
ATOM     19  C   UNL A   1      32.309  24.814  25.335  1.00  0.00     0.184 C 
ATOM     20  C   UNL A   1      31.360  25.226  26.482  1.00  0.00     0.065 C 
ATOM     21  C   UNL A   1      30.097  24.382  26.512  1.00  0.00     0.012 C 
ATOM     22  C   UNL A   1      31.399  22.511  25.505  1.00  0.00     0.262 C 
ATOM     23  H   UNL A   1      33.141  23.267  26.166  1.00  0.00     0.348 HD
ATOM     24  C   UNL A   1      30.494  22.926  26.658  1.00  0.00     0.062 C 
BRANCH  19  25
ATOM     25  C   UNL A   1      33.600  25.673  25.437  1.00  0.00     0.061 C 
ATOM     26  C   UNL A   1      33.822  26.646  24.286  1.00  0.00     0.010 C 
ENDBRANCH  19  25
ENDBRANCH  17  18
ENDBRANCH   9  17
ENDBRANCH   6   8
ENDBRANCH   5   6
ENDBRANCH   4   5
ENDBRANCH   3   4
ENDBRANCH   2   3
ENDBRANCH   1   2
BRANCH   1  27
ATOM     27  C   UNL A   1      42.531  20.402  26.139  1.00  0.00     0.188 C 
BRANCH  27  28
ATOM     28  O   UNL A   1      43.599  21.328  26.042  1.00  0.00    -0.376 OA
BRANCH  28  29
ATOM     29  C   UNL A   1      44.433  21.309  24.893  1.00  0.00     0.202 C 
BRANCH  29  30
ATOM     30  C   UNL A   1      44.439  22.551  24.007  1.00  0.00     0.261 C 
BRANCH  30  31
ATOM     31  O   UNL A   1      43.621  23.601  24.548  1.00  0.00    -0.460 OA
BRANCH  31  32
ATOM     32  C   UNL A   1      44.299  24.666  25.031  1.00  0.00     0.338 C 
ATOM     33  O   UNL A   1      45.395  25.072  24.685  1.00  0.00    -0.246 OA
BRANCH  32  34
ATOM     34  C   UNL A   1      43.449  25.399  25.983  1.00  0.00     0.060 A 
ATOM     35  C   UNL A   1      43.640  26.781  26.103  1.00  0.00     0.016 A 
ATOM     36  C   UNL A   1      42.548  24.726  26.810  1.00  0.00     0.016 A 
ATOM     37  C   UNL A   1      42.958  27.490  27.090  1.00  0.00     0.010 A 
ATOM     38  C   UNL A   1      41.880  25.436  27.810  1.00  0.00     0.010 A 
ATOM     39  C   UNL A   1      42.110  26.812  27.976  1.00  0.00    -0.014 A 
BRANCH  39  40
ATOM     40  C   UNL A   1      41.594  27.514  29.174  1.00  0.00     0.031 A 
ATOM     41  C   UNL A   1      40.271  28.223  29.088  1.00  0.00     0.074 A 
ATOM     42  C   UNL A   1      42.283  27.505  30.327  1.00  0.00     0.049 A 
ATOM     43  N   UNL A   1      39.631  28.896  30.008  1.00  0.00    -0.248 NA
ATOM     44  C   UNL A   1      39.582  28.169  27.787  1.00  0.00     0.031 C 
ATOM     45  C   UNL A   1      43.561  26.834  30.542  1.00  0.00     0.029 A 
ATOM     46  N   UNL A   1      41.988  28.073  31.540  1.00  0.00    -0.354 N 
ATOM     47  C   UNL A   1      38.472  29.359  29.397  1.00  0.00     0.074 A 
ATOM     48  C   UNL A   1      38.502  28.898  28.026  1.00  0.00     0.031 C 
ATOM     49  C   UNL A   1      43.930  27.004  31.825  1.00  0.00     0.029 A 
ATOM     50  C   UNL A   1      42.933  27.827  32.506  1.00  0.00     0.049 A 
ATOM     51  H   UNL A   1      41.176  28.606  31.704  1.00  0.00     0.167 HD
ATOM     52  C   UNL A   1      37.478  30.109  29.926  1.00  0.00     0.031 A 
ATOM     53  C   UNL A   1      42.986  28.227  33.790  1.00  0.00     0.031 A 
ATOM     54  C   UNL A   1      37.457  30.591  31.280  1.00  0.00     0.049 A 
ATOM     55  C   UNL A   1      41.889  29.097  34.341  1.00  0.00     0.074 A 
ATOM     56  C   UNL A   1      36.494  31.364  31.906  1.00  0.00     0.029 A 
ATOM     57  N   UNL A   1      38.452  30.354  32.216  1.00  0.00    -0.354 N 
ATOM     58  N   UNL A   1      40.791  29.513  33.758  1.00  0.00    -0.248 NA
ATOM     59  C   UNL A   1      42.047  29.560  35.728  1.00  0.00     0.031 C 
ATOM     60  C   UNL A   1      36.929  31.633  33.208  1.00  0.00     0.029 A 
ATOM     61  C   UNL A   1      38.138  30.985  33.406  1.00  0.00     0.049 A 
ATOM     62  H   UNL A   1      39.261  29.817  32.056  1.00  0.00     0.167 HD
ATOM     63  C   UNL A   1      40.123  30.276  34.709  1.00  0.00     0.074 A 
ATOM     64  C   UNL A   1      40.927  30.244  35.913  1.00  0.00     0.031 C 
ATOM     65  C   UNL A   1      38.951  30.947  34.593  1.00  0.00     0.031 A 
BRANCH  52  66
ATOM     66  C   UNL A   1      36.349  30.492  29.013  1.00  0.00    -0.014 A 
ATOM     67  C   UNL A   1      36.063  31.837  28.735  1.00  0.00     0.009 A 
ATOM     68  C   UNL A   1      35.574  29.490  28.410  1.00  0.00     0.009 A 
ATOM     69  C   UNL A   1      35.000  32.171  27.892  1.00  0.00     0.001 A 
ATOM     70  C   UNL A   1      34.526  29.827  27.552  1.00  0.00     0.001 A 
ATOM     71  C   UNL A   1      34.235  31.166  27.300  1.00  0.00     0.000 A 
ENDBRANCH  52  66
BRANCH  53  72
ATOM     72  C   UNL A   1      44.130  27.825  34.650  1.00  0.00    -0.014 A 
ATOM     73  C   UNL A   1      45.263  28.648  34.757  1.00  0.00     0.009 A 
ATOM     74  C   UNL A   1      44.106  26.608  35.348  1.00  0.00     0.009 A 
ATOM     75  C   UNL A   1      46.357  28.247  35.525  1.00  0.00     0.001 A 
ATOM     76  C   UNL A   1      45.191  26.223  36.138  1.00  0.00     0.001 A 
ATOM     77  C   UNL A   1      46.320  27.037  36.218  1.00  0.00     0.000 A 
ENDBRANCH  53  72
BRANCH  65  78
ATOM     78  C   UNL A   1      38.459  31.687  35.804  1.00  0.00    -0.014 A 
ATOM     79  C   UNL A   1      37.831  31.011  36.863  1.00  0.00     0.009 A 
ATOM     80  C   UNL A   1      38.668  33.071  35.908  1.00  0.00     0.009 A 
ATOM     81  C   UNL A   1      37.397  31.713  37.988  1.00  0.00     0.001 A 
ATOM     82  C   UNL A   1      38.255  33.766  37.046  1.00  0.00     0.001 A 
ATOM     83  C   UNL A   1      37.614  33.088  38.081  1.00  0.00     0.000 A 
ENDBRANCH  65  78
ENDBRANCH  39  40
ENDBRANCH  32  34
ENDBRANCH  31  32
ENDBRANCH  30  31
ENDBRANCH  29  30
ENDBRANCH  28  29
ENDBRANCH  27  28
ENDBRANCH   1  27
TORSDOF 20
ENDMDL
MODEL 2
REMARK VINA RESULT:     -10.6      3.722      8.150
REMARK SMILES CC[C@@H]1CCCC[N@H+]1Cc1c(C(=O)OCCOCCOCCOC(=O)c2ccc(-c3c4nc(c(-c5ccccc5)c5ccc([nH]5)c(-c5ccccc5)c5nc(c(-c6ccccc6)c6ccc3[nH]6)C=C5)C=C4)cc2)oc2ccccc12
REMARK SMILES IDX 18 1 17 2 16 3 15 4 14 5 12 6 13 7 11 8 10 9 80 10 74 11
REMARK SMILES IDX 75 12 79 13 76 14 78 15 77 16 9 17 8 18 3 19 4 20 5 21 7 22
REMARK SMILES IDX 6 24 2 25 1 26 19 27 20 28 21 29 22 30 23 31 24 32 25 33
REMARK SMILES IDX 26 34 27 35 73 36 28 37 72 38 29 39 30 40 31 41 66 42 32 43
REMARK SMILES IDX 71 44 65 45 67 46 33 47 70 48 64 49 63 50 34 52 56 53 41 54
REMARK SMILES IDX 55 55 42 56 45 57 54 58 68 59 43 60 44 61 53 63 69 64 46 65
REMARK SMILES IDX 35 66 36 67 40 68 37 69 39 70 38 71 57 72 58 73 62 74 59 75
REMARK SMILES IDX 61 76 60 77 47 78 48 79 52 80 49 81 51 82 50 83
REMARK H PARENT 8 23 67 51 45 62
REMARK Flexibility Score: inf
ROOT
ATOM      1  C   UNL A   1      35.761  21.786  25.637  1.00  0.00     0.188 C 
ENDROOT
BRANCH   1   2
ATOM      2  O   UNL A   1      35.228  22.697  26.584  1.00  0.00    -0.376 OA
BRANCH   2   3
ATOM      3  C   UNL A   1      34.229  22.278  27.502  1.00  0.00     0.202 C 
BRANCH   3   4
ATOM      4  C   UNL A   1      32.783  22.193  27.018  1.00  0.00     0.261 C 
BRANCH   4   5
ATOM      5  O   UNL A   1      32.003  23.333  27.400  1.00  0.00    -0.457 OA
BRANCH   5   6
ATOM      6  C   UNL A   1      31.467  24.043  26.366  1.00  0.00     0.374 C 
ATOM      7  O   UNL A   1      30.595  23.620  25.617  1.00  0.00    -0.242 OA
BRANCH   6   8
ATOM      8  C   UNL A   1      31.972  25.395  26.376  1.00  0.00     0.221 A 
ATOM      9  C   UNL A   1      33.125  25.944  25.812  1.00  0.00     0.067 A 
ATOM     10  C   UNL A   1      33.092  27.338  26.161  1.00  0.00     0.030 A 
ATOM     11  O   UNL A   1      31.260  26.354  27.038  1.00  0.00    -0.448 OA
ATOM     12  C   UNL A   1      31.952  27.516  26.935  1.00  0.00     0.135 A 
ATOM     13  C   UNL A   1      33.893  28.471  25.917  1.00  0.00     0.012 A 
ATOM     14  C   UNL A   1      31.576  28.725  27.518  1.00  0.00     0.048 A 
ATOM     15  C   UNL A   1      33.555  29.698  26.503  1.00  0.00     0.001 A 
ATOM     16  C   UNL A   1      32.417  29.820  27.297  1.00  0.00     0.004 A 
BRANCH   9  17
ATOM     17  C   UNL A   1      34.118  25.213  24.949  1.00  0.00     0.304 C 
BRANCH  17  18
ATOM     18  N   UNL A   1      33.836  25.230  23.503  1.00  0.00    -0.329 N 
ATOM     19  C   UNL A   1      32.879  24.220  23.021  1.00  0.00     0.184 C 
ATOM     20  C   UNL A   1      32.603  24.343  21.506  1.00  0.00     0.065 C 
ATOM     21  C   UNL A   1      32.231  25.761  21.105  1.00  0.00     0.012 C 
ATOM     22  C   UNL A   1      33.604  26.594  23.009  1.00  0.00     0.262 C 
ATOM     23  H   UNL A   1      34.696  24.906  23.060  1.00  0.00     0.348 HD
ATOM     24  C   UNL A   1      33.359  26.688  21.510  1.00  0.00     0.062 C 
BRANCH  19  25
ATOM     25  C   UNL A   1      33.329  22.762  23.318  1.00  0.00     0.061 C 
ATOM     26  C   UNL A   1      32.283  21.692  23.032  1.00  0.00     0.010 C 
ENDBRANCH  19  25
ENDBRANCH  17  18
ENDBRANCH   9  17
ENDBRANCH   6   8
ENDBRANCH   5   6
ENDBRANCH   4   5
ENDBRANCH   3   4
ENDBRANCH   2   3
ENDBRANCH   1   2
BRANCH   1  27
ATOM     27  C   UNL A   1      36.908  22.181  24.685  1.00  0.00     0.188 C 
BRANCH  27  28
ATOM     28  O   UNL A   1      38.141  22.653  25.199  1.00  0.00    -0.376 OA
BRANCH  28  29
ATOM     29  C   UNL A   1      38.923  21.800  26.022  1.00  0.00     0.202 C 
BRANCH  29  30
ATOM     30  C   UNL A   1      39.521  20.553  25.376  1.00  0.00     0.261 C 
BRANCH  30  31
ATOM     31  O   UNL A   1      40.372  19.834  26.283  1.00  0.00    -0.460 OA
BRANCH  31  32
ATOM     32  C   UNL A   1      41.689  19.870  25.984  1.00  0.00     0.338 C 
ATOM     33  O   UNL A   1      42.321  19.087  25.296  1.00  0.00    -0.246 OA
BRANCH  32  34
ATOM     34  C   UNL A   1      42.278  21.115  26.506  1.00  0.00     0.060 A 
ATOM     35  C   UNL A   1      42.191  21.355  27.882  1.00  0.00     0.016 A 
ATOM     36  C   UNL A   1      42.820  22.070  25.645  1.00  0.00     0.016 A 
ATOM     37  C   UNL A   1      42.607  22.581  28.398  1.00  0.00     0.010 A 
ATOM     38  C   UNL A   1      43.220  23.305  26.162  1.00  0.00     0.010 A 
ATOM     39  C   UNL A   1      43.082  23.577  27.533  1.00  0.00    -0.014 A 
BRANCH  39  40
ATOM     40  C   UNL A   1      43.276  24.953  28.042  1.00  0.00     0.031 A 
ATOM     41  C   UNL A   1      44.672  25.430  28.335  1.00  0.00     0.074 A 
ATOM     42  C   UNL A   1      42.230  25.775  28.224  1.00  0.00     0.049 A 
ATOM     43  N   UNL A   1      45.074  26.591  28.784  1.00  0.00    -0.248 NA
ATOM     44  C   UNL A   1      45.758  24.465  28.095  1.00  0.00     0.031 C 
ATOM     45  C   UNL A   1      40.835  25.439  27.953  1.00  0.00     0.029 A 
ATOM     46  N   UNL A   1      42.187  27.072  28.670  1.00  0.00    -0.354 N 
ATOM     47  C   UNL A   1      46.455  26.493  28.894  1.00  0.00     0.074 A 
ATOM     48  C   UNL A   1      46.822  25.157  28.475  1.00  0.00     0.031 C 
ATOM     49  C   UNL A   1      40.071  26.516  28.211  1.00  0.00     0.029 A 
ATOM     50  C   UNL A   1      40.920  27.600  28.701  1.00  0.00     0.049 A 
ATOM     51  H   UNL A   1      42.988  27.576  28.940  1.00  0.00     0.167 HD
ATOM     52  C   UNL A   1      47.339  27.427  29.316  1.00  0.00     0.031 A 
ATOM     53  C   UNL A   1      40.496  28.818  29.086  1.00  0.00     0.031 A 
ATOM     54  C   UNL A   1      46.977  28.746  29.758  1.00  0.00     0.049 A 
ATOM     55  C   UNL A   1      41.495  29.824  29.593  1.00  0.00     0.074 A 
ATOM     56  C   UNL A   1      47.802  29.762  30.210  1.00  0.00     0.029 A 
ATOM     57  N   UNL A   1      45.680  29.230  29.813  1.00  0.00    -0.354 N 
ATOM     58  N   UNL A   1      42.799  29.725  29.676  1.00  0.00    -0.248 NA
ATOM     59  C   UNL A   1      40.957  31.107  30.069  1.00  0.00     0.031 C 
ATOM     60  C   UNL A   1      46.999  30.844  30.582  1.00  0.00     0.029 A 
ATOM     61  C   UNL A   1      45.679  30.520  30.313  1.00  0.00     0.049 A 
ATOM     62  H   UNL A   1      44.878  28.730  29.536  1.00  0.00     0.167 HD
ATOM     63  C   UNL A   1      43.238  30.934  30.202  1.00  0.00     0.074 A 
ATOM     64  C   UNL A   1      42.064  31.759  30.395  1.00  0.00     0.031 C 
ATOM     65  C   UNL A   1      44.501  31.325  30.503  1.00  0.00     0.031 A 
BRANCH  52  66
ATOM     66  C   UNL A   1      48.786  27.029  29.362  1.00  0.00    -0.014 A 
ATOM     67  C   UNL A   1      49.333  26.403  30.491  1.00  0.00     0.009 A 
ATOM     68  C   UNL A   1      49.607  27.271  28.250  1.00  0.00     0.009 A 
ATOM     69  C   UNL A   1      50.685  26.053  30.518  1.00  0.00     0.001 A 
ATOM     70  C   UNL A   1      50.953  26.901  28.271  1.00  0.00     0.001 A 
ATOM     71  C   UNL A   1      51.492  26.299  29.407  1.00  0.00     0.000 A 
ENDBRANCH  52  66
BRANCH  53  72
ATOM     72  C   UNL A   1      39.050  29.159  29.028  1.00  0.00    -0.014 A 
ATOM     73  C   UNL A   1      38.229  28.968  30.150  1.00  0.00     0.009 A 
ATOM     74  C   UNL A   1      38.480  29.654  27.845  1.00  0.00     0.009 A 
ATOM     75  C   UNL A   1      36.861  29.242  30.079  1.00  0.00     0.001 A 
ATOM     76  C   UNL A   1      37.118  29.953  27.786  1.00  0.00     0.001 A 
ATOM     77  C   UNL A   1      36.308  29.737  28.899  1.00  0.00     0.000 A 
ENDBRANCH  53  72
BRANCH  65  78
ATOM     78  C   UNL A   1      44.680  32.710  31.055  1.00  0.00    -0.014 A 
ATOM     79  C   UNL A   1      44.684  32.945  32.439  1.00  0.00     0.009 A 
ATOM     80  C   UNL A   1      44.894  33.787  30.180  1.00  0.00     0.009 A 
ATOM     81  C   UNL A   1      44.870  34.236  32.935  1.00  0.00     0.001 A 
ATOM     82  C   UNL A   1      45.105  35.073  30.680  1.00  0.00     0.001 A 
ATOM     83  C   UNL A   1      45.085  35.298  32.055  1.00  0.00     0.000 A 
ENDBRANCH  65  78
ENDBRANCH  39  40
ENDBRANCH  32  34
ENDBRANCH  31  32
ENDBRANCH  30  31
ENDBRANCH  29  30
ENDBRANCH  28  29
ENDBRANCH  27  28
ENDBRANCH   1  27
TORSDOF 20
ENDMDL
MODEL 3
REMARK VINA RESULT:     -10.4      3.158      7.980
REMARK SMILES CC[C@@H]1CCCC[N@H+]1Cc1c(C(=O)OCCOCCOCCOC(=O)c2ccc(-c3c4nc(c(-c5ccccc5)c5ccc([nH]5)c(-c5ccccc5)c5nc(c(-c6ccccc6)c6ccc3[nH]6)C=C5)C=C4)cc2)oc2ccccc12
REMARK SMILES IDX 18 1 17 2 16 3 15 4 14 5 12 6 13 7 11 8 10 9 80 10 74 11
REMARK SMILES IDX 75 12 79 13 76 14 78 15 77 16 9 17 8 18 3 19 4 20 5 21 7 22
REMARK SMILES IDX 6 24 2 25 1 26 19 27 20 28 21 29 22 30 23 31 24 32 25 33
REMARK SMILES IDX 26 34 27 35 73 36 28 37 72 38 29 39 30 40 31 41 66 42 32 43
REMARK SMILES IDX 71 44 65 45 67 46 33 47 70 48 64 49 63 50 34 52 56 53 41 54
REMARK SMILES IDX 55 55 42 56 45 57 54 58 68 59 43 60 44 61 53 63 69 64 46 65
REMARK SMILES IDX 35 66 36 67 40 68 37 69 39 70 38 71 57 72 58 73 62 74 59 75
REMARK SMILES IDX 61 76 60 77 47 78 48 79 52 80 49 81 51 82 50 83
REMARK H PARENT 8 23 67 51 45 62
REMARK Flexibility Score: inf
ROOT
ATOM      1  C   UNL A   1      32.133  29.725  25.346  1.00  0.00     0.188 C 
ENDROOT
BRANCH   1   2
ATOM      2  O   UNL A   1      32.537  28.652  24.514  1.00  0.00    -0.376 OA
BRANCH   2   3
ATOM      3  C   UNL A   1      33.369  28.888  23.388  1.00  0.00     0.202 C 
BRANCH   3   4
ATOM      4  C   UNL A   1      33.602  27.747  22.401  1.00  0.00     0.261 C 
BRANCH   4   5
ATOM      5  O   UNL A   1      33.378  26.456  22.983  1.00  0.00    -0.457 OA
BRANCH   5   6
ATOM      6  C   UNL A   1      33.381  25.413  22.103  1.00  0.00     0.374 C 
ATOM      7  O   UNL A   1      33.191  25.525  20.899  1.00  0.00    -0.242 OA
BRANCH   6   8
ATOM      8  C   UNL A   1      33.776  24.198  22.775  1.00  0.00     0.221 A 
ATOM      9  C   UNL A   1      33.012  23.144  23.280  1.00  0.00     0.067 A 
ATOM     10  C   UNL A   1      33.962  22.222  23.840  1.00  0.00     0.030 A 
ATOM     11  O   UNL A   1      35.104  23.977  22.996  1.00  0.00    -0.448 OA
ATOM     12  C   UNL A   1      35.213  22.802  23.667  1.00  0.00     0.135 A 
ATOM     13  C   UNL A   1      33.913  20.966  24.477  1.00  0.00     0.012 A 
ATOM     14  C   UNL A   1      36.409  22.247  24.119  1.00  0.00     0.048 A 
ATOM     15  C   UNL A   1      35.094  20.387  24.959  1.00  0.00     0.001 A 
ATOM     16  C   UNL A   1      36.322  21.022  24.788  1.00  0.00     0.004 A 
BRANCH   9  17
ATOM     17  C   UNL A   1      31.519  22.999  23.158  1.00  0.00     0.304 C 
BRANCH  17  18
ATOM     18  N   UNL A   1      30.722  23.879  24.030  1.00  0.00    -0.329 N 
ATOM     19  C   UNL A   1      31.240  24.074  25.395  1.00  0.00     0.184 C 
ATOM     20  C   UNL A   1      30.373  25.050  26.222  1.00  0.00     0.065 C 
ATOM     21  C   UNL A   1      30.119  26.355  25.486  1.00  0.00     0.012 C 
ATOM     22  C   UNL A   1      30.315  25.109  23.337  1.00  0.00     0.262 C 
ATOM     23  H   UNL A   1      29.866  23.360  24.222  1.00  0.00     0.348 HD
ATOM     24  C   UNL A   1      29.442  26.040  24.166  1.00  0.00     0.062 C 
BRANCH  19  25
ATOM     25  C   UNL A   1      31.374  22.746  26.192  1.00  0.00     0.061 C 
ATOM     26  C   UNL A   1      32.325  22.799  27.381  1.00  0.00     0.010 C 
ENDBRANCH  19  25
ENDBRANCH  17  18
ENDBRANCH   9  17
ENDBRANCH   6   8
ENDBRANCH   5   6
ENDBRANCH   4   5
ENDBRANCH   3   4
ENDBRANCH   2   3
ENDBRANCH   1   2
BRANCH   1  27
ATOM     27  C   UNL A   1      32.165  29.619  26.884  1.00  0.00     0.188 C 
BRANCH  27  28
ATOM     28  O   UNL A   1      33.339  29.950  27.606  1.00  0.00    -0.376 OA
BRANCH  28  29
ATOM     29  C   UNL A   1      33.805  31.291  27.594  1.00  0.00     0.202 C 
BRANCH  29  30
ATOM     30  C   UNL A   1      32.763  32.400  27.703  1.00  0.00     0.261 C 
BRANCH  30  31
ATOM     31  O   UNL A   1      33.329  33.695  27.442  1.00  0.00    -0.460 OA
BRANCH  31  32
ATOM     32  C   UNL A   1      33.299  34.554  28.484  1.00  0.00     0.338 C 
ATOM     33  O   UNL A   1      32.442  35.380  28.748  1.00  0.00    -0.246 OA
BRANCH  32  34
ATOM     34  C   UNL A   1      34.422  34.265  29.392  1.00  0.00     0.060 A 
ATOM     35  C   UNL A   1      35.722  34.385  28.886  1.00  0.00     0.016 A 
ATOM     36  C   UNL A   1      34.198  33.795  30.687  1.00  0.00     0.016 A 
ATOM     37  C   UNL A   1      36.807  33.987  29.665  1.00  0.00     0.010 A 
ATOM     38  C   UNL A   1      35.285  33.379  31.459  1.00  0.00     0.010 A 
ATOM     39  C   UNL A   1      36.589  33.440  30.937  1.00  0.00    -0.014 A 
BRANCH  39  40
ATOM     40  C   UNL A   1      37.707  32.783  31.650  1.00  0.00     0.031 A 
ATOM     41  C   UNL A   1      38.379  31.598  31.015  1.00  0.00     0.074 A 
ATOM     42  C   UNL A   1      38.133  33.245  32.837  1.00  0.00     0.049 A 
ATOM     43  N   UNL A   1      39.374  30.873  31.457  1.00  0.00    -0.248 NA
ATOM     44  C   UNL A   1      37.852  31.169  29.708  1.00  0.00     0.031 C 
ATOM     45  C   UNL A   1      37.582  34.399  33.542  1.00  0.00     0.029 A 
ATOM     46  N   UNL A   1      39.144  32.800  33.652  1.00  0.00    -0.354 N 
ATOM     47  C   UNL A   1      39.584  29.896  30.493  1.00  0.00     0.074 A 
ATOM     48  C   UNL A   1      38.609  30.113  29.447  1.00  0.00     0.031 C 
ATOM     49  C   UNL A   1      38.282  34.590  34.675  1.00  0.00     0.029 A 
ATOM     50  C   UNL A   1      39.302  33.551  34.790  1.00  0.00     0.049 A 
ATOM     51  H   UNL A   1      39.703  32.018  33.439  1.00  0.00     0.167 HD
ATOM     52  C   UNL A   1      40.501  28.900  30.484  1.00  0.00     0.031 A 
ATOM     53  C   UNL A   1      40.169  33.408  35.810  1.00  0.00     0.031 A 
ATOM     54  C   UNL A   1      41.454  28.664  31.533  1.00  0.00     0.049 A 
ATOM     55  C   UNL A   1      41.149  32.266  35.796  1.00  0.00     0.074 A 
ATOM     56  C   UNL A   1      42.420  27.675  31.616  1.00  0.00     0.029 A 
ATOM     57  N   UNL A   1      41.557  29.422  32.689  1.00  0.00    -0.354 N 
ATOM     58  N   UNL A   1      41.349  31.359  34.871  1.00  0.00    -0.248 NA
ATOM     59  C   UNL A   1      42.015  32.125  36.976  1.00  0.00     0.031 C 
ATOM     60  C   UNL A   1      43.075  27.807  32.844  1.00  0.00     0.029 A 
ATOM     61  C   UNL A   1      42.552  28.909  33.501  1.00  0.00     0.049 A 
ATOM     62  H   UNL A   1      41.003  30.208  32.900  1.00  0.00     0.167 HD
ATOM     63  C   UNL A   1      42.370  30.548  35.351  1.00  0.00     0.074 A 
ATOM     64  C   UNL A   1      42.764  31.085  36.637  1.00  0.00     0.031 C 
ATOM     65  C   UNL A   1      42.929  29.452  34.780  1.00  0.00     0.031 A 
BRANCH  52  66
ATOM     66  C   UNL A   1      40.478  27.959  29.313  1.00  0.00    -0.014 A 
ATOM     67  C   UNL A   1      41.308  28.161  28.201  1.00  0.00     0.009 A 
ATOM     68  C   UNL A   1      39.622  26.847  29.334  1.00  0.00     0.009 A 
ATOM     69  C   UNL A   1      41.260  27.280  27.117  1.00  0.00     0.001 A 
ATOM     70  C   UNL A   1      39.593  25.958  28.260  1.00  0.00     0.001 A 
ATOM     71  C   UNL A   1      40.406  26.179  27.149  1.00  0.00     0.000 A 
ENDBRANCH  52  66
BRANCH  53  72
ATOM     72  C   UNL A   1      40.145  34.363  36.950  1.00  0.00    -0.014 A 
ATOM     73  C   UNL A   1      40.950  35.513  36.931  1.00  0.00     0.009 A 
ATOM     74  C   UNL A   1      39.337  34.117  38.071  1.00  0.00     0.009 A 
ATOM     75  C   UNL A   1      40.963  36.383  38.023  1.00  0.00     0.001 A 
ATOM     76  C   UNL A   1      39.333  35.003  39.149  1.00  0.00     0.001 A 
ATOM     77  C   UNL A   1      40.153  36.130  39.130  1.00  0.00     0.000 A 
ENDBRANCH  53  72
BRANCH  65  78
ATOM     78  C   UNL A   1      44.037  28.772  35.532  1.00  0.00    -0.014 A 
ATOM     79  C   UNL A   1      45.378  29.141  35.341  1.00  0.00     0.009 A 
ATOM     80  C   UNL A   1      43.730  27.783  36.480  1.00  0.00     0.009 A 
ATOM     81  C   UNL A   1      46.392  28.510  36.063  1.00  0.00     0.001 A 
ATOM     82  C   UNL A   1      44.745  27.172  37.218  1.00  0.00     0.001 A 
ATOM     83  C   UNL A   1      46.075  27.531  37.004  1.00  0.00     0.000 A 
ENDBRANCH  65  78
ENDBRANCH  39  40
ENDBRANCH  32  34
ENDBRANCH  31  32
ENDBRANCH  30  31
ENDBRANCH  29  30
ENDBRANCH  28  29
ENDBRANCH  27  28
ENDBRANCH   1  27
TORSDOF 20
ENDMDL
