MODEL 1
REMARK VINA RESULT:      -9.6      0.000      0.000
REMARK SMILES CCCCOc1ccc(-c2nc(C)c(C(=O)OCCOCCOCCOC(=O)c3ccc(-c4c5nc(c(-c6ccccc6)c6ccc([nH]6)c(-c6ccccc6)c6nc(c(-c7ccccc7)c7ccc4[nH]7)C=C6)C=C5)cc3)s2)cc1
REMARK SMILES IDX 20 1 19 2 18 3 17 4 15 5 16 6 14 7 10 8 11 9 77 10 12 11
REMARK SMILES IDX 13 12 9 13 6 14 7 15 79 16 8 17 78 18 5 19 4 20 3 21 2 22
REMARK SMILES IDX 1 23 21 24 22 25 23 26 24 27 25 28 26 29 27 30 28 31 29 32
REMARK SMILES IDX 30 33 76 34 31 35 75 36 32 37 33 38 34 39 69 40 35 41 74 42
REMARK SMILES IDX 68 43 70 44 36 45 73 46 67 47 66 48 37 50 59 51 44 52 58 53
REMARK SMILES IDX 45 54 48 55 57 56 71 57 46 58 47 59 56 61 72 62 49 63 38 64
REMARK SMILES IDX 39 65 43 66 40 67 42 68 41 69 60 70 61 71 65 72 62 73 64 74
REMARK SMILES IDX 63 75 50 76 51 77 55 78 52 79 54 80 53 81
REMARK H PARENT 70 49 48 60
REMARK Flexibility Score: inf
ROOT
ATOM      1  O   UNL A   1      34.621  30.582  27.615  1.00  0.00    -0.376 OA
ENDROOT
BRANCH   1   2
ATOM      2  C   UNL A   1      33.312  30.708  27.072  1.00  0.00     0.202 C 
BRANCH   2   3
ATOM      3  C   UNL A   1      32.742  29.485  26.352  1.00  0.00     0.261 C 
BRANCH   3   4
ATOM      4  O   UNL A   1      32.206  29.812  25.060  1.00  0.00    -0.459 OA
BRANCH   4   5
ATOM      5  C   UNL A   1      31.450  28.838  24.467  1.00  0.00     0.350 C 
ATOM      6  O   UNL A   1      30.276  28.961  24.183  1.00  0.00    -0.245 OA
BRANCH   5   7
ATOM      7  C   UNL A   1      32.284  27.702  24.125  1.00  0.00     0.135 A 
ATOM      8  C   UNL A   1      33.160  25.438  23.981  1.00  0.00     0.124 A 
ATOM      9  N   UNL A   1      33.864  26.242  23.215  1.00  0.00    -0.240 NA
ATOM     10  S   UNL A   1      31.902  26.193  24.861  1.00  0.00    -0.106 S 
ATOM     11  C   UNL A   1      33.363  27.539  23.269  1.00  0.00     0.064 A 
ATOM     12  C   UNL A   1      34.064  28.556  22.437  1.00  0.00     0.068 C 
BRANCH   8  13
ATOM     13  C   UNL A   1      33.405  24.005  24.130  1.00  0.00     0.011 A 
ATOM     14  C   UNL A   1      33.743  21.251  24.493  1.00  0.00     0.119 A 
ATOM     15  C   UNL A   1      32.867  21.715  23.514  1.00  0.00     0.047 A 
ATOM     16  C   UNL A   1      34.506  22.147  25.237  1.00  0.00     0.047 A 
ATOM     17  C   UNL A   1      32.688  23.090  23.345  1.00  0.00     0.015 A 
ATOM     18  C   UNL A   1      34.324  23.520  25.073  1.00  0.00     0.015 A 
BRANCH  14  19
ATOM     19  O   UNL A   1      33.931  19.922  24.739  1.00  0.00    -0.494 OA
BRANCH  19  20
ATOM     20  C   UNL A   1      32.848  19.317  25.459  1.00  0.00     0.229 C 
BRANCH  20  21
ATOM     21  C   UNL A   1      32.652  17.861  25.020  1.00  0.00     0.041 C 
BRANCH  21  22
ATOM     22  C   UNL A   1      33.919  17.139  24.548  1.00  0.00     0.000 C 
ATOM     23  C   UNL A   1      33.995  16.960  23.039  1.00  0.00     0.004 C 
ENDBRANCH  21  22
ENDBRANCH  20  21
ENDBRANCH  19  20
ENDBRANCH  14  19
ENDBRANCH   8  13
ENDBRANCH   5   7
ENDBRANCH   4   5
ENDBRANCH   3   4
ENDBRANCH   2   3
ENDBRANCH   1   2
BRANCH   1  24
ATOM     24  C   UNL A   1      35.241  31.706  28.230  1.00  0.00     0.188 C 
BRANCH  24  25
ATOM     25  C   UNL A   1      34.411  32.655  29.116  1.00  0.00     0.188 C 
BRANCH  25  26
ATOM     26  O   UNL A   1      34.447  34.016  28.718  1.00  0.00    -0.376 OA
BRANCH  26  27
ATOM     27  C   UNL A   1      33.190  34.681  28.675  1.00  0.00     0.202 C 
BRANCH  27  28
ATOM     28  C   UNL A   1      33.024  35.719  29.788  1.00  0.00     0.261 C 
BRANCH  28  29
ATOM     29  O   UNL A   1      32.360  35.229  30.965  1.00  0.00    -0.460 OA
BRANCH  29  30
ATOM     30  C   UNL A   1      32.746  35.762  32.145  1.00  0.00     0.338 C 
ATOM     31  O   UNL A   1      32.171  36.615  32.795  1.00  0.00    -0.246 OA
BRANCH  30  32
ATOM     32  C   UNL A   1      33.929  35.013  32.611  1.00  0.00     0.060 A 
ATOM     33  C   UNL A   1      35.171  35.656  32.641  1.00  0.00     0.016 A 
ATOM     34  C   UNL A   1      33.807  33.681  33.014  1.00  0.00     0.016 A 
ATOM     35  C   UNL A   1      36.305  34.954  33.055  1.00  0.00     0.010 A 
ATOM     36  C   UNL A   1      34.944  32.976  33.412  1.00  0.00     0.010 A 
ATOM     37  C   UNL A   1      36.202  33.602  33.412  1.00  0.00    -0.014 A 
BRANCH  37  38
ATOM     38  C   UNL A   1      37.422  32.790  33.631  1.00  0.00     0.031 A 
ATOM     39  C   UNL A   1      38.225  33.014  34.881  1.00  0.00     0.074 A 
ATOM     40  C   UNL A   1      37.824  31.876  32.730  1.00  0.00     0.049 A 
ATOM     41  N   UNL A   1      39.344  32.453  35.262  1.00  0.00    -0.248 NA
ATOM     42  C   UNL A   1      37.693  34.007  35.831  1.00  0.00     0.031 C 
ATOM     43  C   UNL A   1      37.126  31.539  31.492  1.00  0.00     0.029 A 
ATOM     44  N   UNL A   1      38.936  31.069  32.723  1.00  0.00    -0.354 N 
ATOM     45  C   UNL A   1      39.649  33.022  36.492  1.00  0.00     0.074 A 
ATOM     46  C   UNL A   1      38.614  33.990  36.782  1.00  0.00     0.031 C 
ATOM     47  C   UNL A   1      37.833  30.598  30.837  1.00  0.00     0.029 A 
ATOM     48  C   UNL A   1      39.043  30.291  31.597  1.00  0.00     0.049 A 
ATOM     49  H   UNL A   1      39.593  31.050  33.456  1.00  0.00     0.167 HD
ATOM     50  C   UNL A   1      40.695  32.763  37.310  1.00  0.00     0.031 A 
ATOM     51  C   UNL A   1      40.018  29.442  31.216  1.00  0.00     0.031 A 
ATOM     52  C   UNL A   1      41.744  31.825  37.018  1.00  0.00     0.049 A 
ATOM     53  C   UNL A   1      41.216  29.232  32.105  1.00  0.00     0.074 A 
ATOM     54  C   UNL A   1      42.841  31.488  37.794  1.00  0.00     0.029 A 
ATOM     55  N   UNL A   1      41.834  31.083  35.852  1.00  0.00    -0.354 N 
ATOM     56  N   UNL A   1      41.475  29.751  33.281  1.00  0.00    -0.248 NA
ATOM     57  C   UNL A   1      42.255  28.316  31.611  1.00  0.00     0.031 C 
ATOM     58  C   UNL A   1      43.620  30.576  37.074  1.00  0.00     0.029 A 
ATOM     59  C   UNL A   1      42.982  30.309  35.874  1.00  0.00     0.049 A 
ATOM     60  H   UNL A   1      41.179  31.104  35.117  1.00  0.00     0.167 HD
ATOM     61  C   UNL A   1      42.689  29.202  33.678  1.00  0.00     0.074 A 
ATOM     62  C   UNL A   1      43.111  28.306  32.624  1.00  0.00     0.031 C 
ATOM     63  C   UNL A   1      43.390  29.420  34.818  1.00  0.00     0.031 A 
BRANCH  50  64
ATOM     64  C   UNL A   1      40.767  33.538  38.593  1.00  0.00    -0.014 A 
ATOM     65  C   UNL A   1      41.444  34.765  38.662  1.00  0.00     0.009 A 
ATOM     66  C   UNL A   1      40.131  33.043  39.742  1.00  0.00     0.009 A 
ATOM     67  C   UNL A   1      41.511  35.466  39.867  1.00  0.00     0.001 A 
ATOM     68  C   UNL A   1      40.179  33.759  40.939  1.00  0.00     0.001 A 
ATOM     69  C   UNL A   1      40.875  34.965  41.003  1.00  0.00     0.000 A 
ENDBRANCH  50  64
BRANCH  51  70
ATOM     70  C   UNL A   1      39.924  28.734  29.914  1.00  0.00    -0.014 A 
ATOM     71  C   UNL A   1      39.443  27.416  29.850  1.00  0.00     0.009 A 
ATOM     72  C   UNL A   1      40.345  29.361  28.730  1.00  0.00     0.009 A 
ATOM     73  C   UNL A   1      39.408  26.735  28.632  1.00  0.00     0.001 A 
ATOM     74  C   UNL A   1      40.286  28.685  27.510  1.00  0.00     0.001 A 
ATOM     75  C   UNL A   1      39.826  27.370  27.464  1.00  0.00     0.000 A 
ENDBRANCH  51  70
BRANCH  63  76
ATOM     76  C   UNL A   1      44.667  28.652  35.002  1.00  0.00    -0.014 A 
ATOM     77  C   UNL A   1      45.902  29.187  34.606  1.00  0.00     0.009 A 
ATOM     78  C   UNL A   1      44.638  27.394  35.626  1.00  0.00     0.009 A 
ATOM     79  C   UNL A   1      47.081  28.464  34.807  1.00  0.00     0.001 A 
ATOM     80  C   UNL A   1      45.819  26.686  35.847  1.00  0.00     0.001 A 
ATOM     81  C   UNL A   1      47.039  27.217  35.431  1.00  0.00     0.000 A 
ENDBRANCH  63  76
ENDBRANCH  37  38
ENDBRANCH  30  32
ENDBRANCH  29  30
ENDBRANCH  28  29
ENDBRANCH  27  28
ENDBRANCH  26  27
ENDBRANCH  25  26
ENDBRANCH  24  25
ENDBRANCH   1  24
TORSDOF 22
ENDMDL
MODEL 2
REMARK VINA RESULT:      -9.3      4.529      8.124
REMARK SMILES CCCCOc1ccc(-c2nc(C)c(C(=O)OCCOCCOCCOC(=O)c3ccc(-c4c5nc(c(-c6ccccc6)c6ccc([nH]6)c(-c6ccccc6)c6nc(c(-c7ccccc7)c7ccc4[nH]7)C=C6)C=C5)cc3)s2)cc1
REMARK SMILES IDX 20 1 19 2 18 3 17 4 15 5 16 6 14 7 10 8 11 9 77 10 12 11
REMARK SMILES IDX 13 12 9 13 6 14 7 15 79 16 8 17 78 18 5 19 4 20 3 21 2 22
REMARK SMILES IDX 1 23 21 24 22 25 23 26 24 27 25 28 26 29 27 30 28 31 29 32
REMARK SMILES IDX 30 33 76 34 31 35 75 36 32 37 33 38 34 39 69 40 35 41 74 42
REMARK SMILES IDX 68 43 70 44 36 45 73 46 67 47 66 48 37 50 59 51 44 52 58 53
REMARK SMILES IDX 45 54 48 55 57 56 71 57 46 58 47 59 56 61 72 62 49 63 38 64
REMARK SMILES IDX 39 65 43 66 40 67 42 68 41 69 60 70 61 71 65 72 62 73 64 74
REMARK SMILES IDX 63 75 50 76 51 77 55 78 52 79 54 80 53 81
REMARK H PARENT 70 49 48 60
REMARK Flexibility Score: inf
ROOT
ATOM      1  O   UNL A   1      33.294  29.475  25.981  1.00  0.00    -0.376 OA
ENDROOT
BRANCH   1   2
ATOM      2  C   UNL A   1      32.060  30.100  25.653  1.00  0.00     0.202 C 
BRANCH   2   3
ATOM      3  C   UNL A   1      31.065  29.275  24.834  1.00  0.00     0.261 C 
BRANCH   3   4
ATOM      4  O   UNL A   1      31.336  29.336  23.424  1.00  0.00    -0.459 OA
BRANCH   4   5
ATOM      5  C   UNL A   1      30.912  28.261  22.691  1.00  0.00     0.350 C 
ATOM      6  O   UNL A   1      29.927  28.264  21.980  1.00  0.00    -0.245 OA
BRANCH   5   7
ATOM      7  C   UNL A   1      31.869  27.178  22.797  1.00  0.00     0.135 A 
ATOM      8  C   UNL A   1      32.836  24.974  23.141  1.00  0.00     0.124 A 
ATOM      9  N   UNL A   1      33.765  25.814  22.739  1.00  0.00    -0.240 NA
ATOM     10  S   UNL A   1      31.280  25.655  23.343  1.00  0.00    -0.106 S 
ATOM     11  C   UNL A   1      33.223  27.077  22.516  1.00  0.00     0.064 A 
ATOM     12  C   UNL A   1      34.167  28.128  22.045  1.00  0.00     0.068 C 
BRANCH   8  13
ATOM     13  C   UNL A   1      33.065  23.561  23.437  1.00  0.00     0.011 A 
ATOM     14  C   UNL A   1      33.396  20.866  24.112  1.00  0.00     0.119 A 
ATOM     15  C   UNL A   1      32.312  21.251  23.326  1.00  0.00     0.047 A 
ATOM     16  C   UNL A   1      34.355  21.799  24.498  1.00  0.00     0.047 A 
ATOM     17  C   UNL A   1      32.140  22.599  23.003  1.00  0.00     0.015 A 
ATOM     18  C   UNL A   1      34.181  23.146  24.180  1.00  0.00     0.015 A 
BRANCH  14  19
ATOM     19  O   UNL A   1      33.598  19.573  24.499  1.00  0.00    -0.494 OA
BRANCH  19  20
ATOM     20  C   UNL A   1      32.625  18.661  23.972  1.00  0.00     0.229 C 
BRANCH  20  21
ATOM     21  C   UNL A   1      33.293  17.616  23.071  1.00  0.00     0.041 C 
BRANCH  21  22
ATOM     22  C   UNL A   1      33.807  16.360  23.786  1.00  0.00     0.000 C 
ATOM     23  C   UNL A   1      33.197  16.149  25.163  1.00  0.00     0.004 C 
ENDBRANCH  21  22
ENDBRANCH  20  21
ENDBRANCH  19  20
ENDBRANCH  14  19
ENDBRANCH   8  13
ENDBRANCH   5   7
ENDBRANCH   4   5
ENDBRANCH   3   4
ENDBRANCH   2   3
ENDBRANCH   1   2
BRANCH   1  24
ATOM     24  C   UNL A   1      34.143  30.062  26.961  1.00  0.00     0.188 C 
BRANCH  24  25
ATOM     25  C   UNL A   1      33.691  31.328  27.714  1.00  0.00     0.188 C 
BRANCH  25  26
ATOM     26  O   UNL A   1      34.750  32.117  28.233  1.00  0.00    -0.376 OA
BRANCH  26  27
ATOM     27  C   UNL A   1      34.366  33.161  29.119  1.00  0.00     0.202 C 
BRANCH  27  28
ATOM     28  C   UNL A   1      34.862  32.945  30.550  1.00  0.00     0.261 C 
BRANCH  28  29
ATOM     29  O   UNL A   1      35.372  31.626  30.811  1.00  0.00    -0.460 OA
BRANCH  29  30
ATOM     30  C   UNL A   1      36.294  31.515  31.792  1.00  0.00     0.338 C 
ATOM     31  O   UNL A   1      36.152  31.768  32.974  1.00  0.00    -0.246 OA
BRANCH  30  32
ATOM     32  C   UNL A   1      37.490  30.872  31.214  1.00  0.00     0.060 A 
ATOM     33  C   UNL A   1      38.396  30.231  32.067  1.00  0.00     0.016 A 
ATOM     34  C   UNL A   1      37.713  30.906  29.835  1.00  0.00     0.016 A 
ATOM     35  C   UNL A   1      39.545  29.640  31.539  1.00  0.00     0.010 A 
ATOM     36  C   UNL A   1      38.871  30.329  29.311  1.00  0.00     0.010 A 
ATOM     37  C   UNL A   1      39.804  29.714  30.163  1.00  0.00    -0.014 A 
BRANCH  37  38
ATOM     38  C   UNL A   1      41.120  29.296  29.625  1.00  0.00     0.031 A 
ATOM     39  C   UNL A   1      41.277  27.893  29.111  1.00  0.00     0.074 A 
ATOM     40  C   UNL A   1      42.166  30.141  29.602  1.00  0.00     0.049 A 
ATOM     41  N   UNL A   1      42.341  27.297  28.635  1.00  0.00    -0.248 NA
ATOM     42  C   UNL A   1      40.072  27.047  29.138  1.00  0.00     0.031 C 
ATOM     43  C   UNL A   1      42.143  31.534  30.042  1.00  0.00     0.029 A 
ATOM     44  N   UNL A   1      43.461  29.935  29.196  1.00  0.00    -0.354 N 
ATOM     45  C   UNL A   1      41.934  26.010  28.306  1.00  0.00     0.074 A 
ATOM     46  C   UNL A   1      40.535  25.902  28.660  1.00  0.00     0.031 C 
ATOM     47  C   UNL A   1      43.375  32.057  29.891  1.00  0.00     0.029 A 
ATOM     48  C   UNL A   1      44.273  31.028  29.372  1.00  0.00     0.049 A 
ATOM     49  H   UNL A   1      43.778  29.084  28.815  1.00  0.00     0.167 HD
ATOM     50  C   UNL A   1      42.657  25.006  27.757  1.00  0.00     0.031 A 
ATOM     51  C   UNL A   1      45.595  31.173  29.157  1.00  0.00     0.031 A 
ATOM     52  C   UNL A   1      44.053  25.093  27.429  1.00  0.00     0.049 A 
ATOM     53  C   UNL A   1      46.397  30.015  28.623  1.00  0.00     0.074 A 
ATOM     54  C   UNL A   1      44.867  24.129  26.859  1.00  0.00     0.029 A 
ATOM     55  N   UNL A   1      44.846  26.207  27.655  1.00  0.00    -0.354 N 
ATOM     56  N   UNL A   1      45.993  28.815  28.284  1.00  0.00    -0.248 NA
ATOM     57  C   UNL A   1      47.841  30.236  28.441  1.00  0.00     0.031 C 
ATOM     58  C   UNL A   1      46.166  24.645  26.784  1.00  0.00     0.029 A 
ATOM     59  C   UNL A   1      46.148  25.945  27.261  1.00  0.00     0.049 A 
ATOM     60  H   UNL A   1      44.531  27.056  28.039  1.00  0.00     0.167 HD
ATOM     61  C   UNL A   1      47.124  28.150  27.823  1.00  0.00     0.074 A 
ATOM     62  C   UNL A   1      48.228  29.081  27.918  1.00  0.00     0.031 C 
ATOM     63  C   UNL A   1      47.236  26.881  27.360  1.00  0.00     0.031 A 
BRANCH  50  64
ATOM     64  C   UNL A   1      41.944  23.710  27.507  1.00  0.00    -0.014 A 
ATOM     65  C   UNL A   1      41.258  23.480  26.305  1.00  0.00     0.009 A 
ATOM     66  C   UNL A   1      41.976  22.698  28.479  1.00  0.00     0.009 A 
ATOM     67  C   UNL A   1      40.590  22.273  26.093  1.00  0.00     0.001 A 
ATOM     68  C   UNL A   1      41.327  21.483  28.255  1.00  0.00     0.001 A 
ATOM     69  C   UNL A   1      40.629  21.274  27.066  1.00  0.00     0.000 A 
ENDBRANCH  50  64
BRANCH  51  70
ATOM     70  C   UNL A   1      46.264  32.463  29.464  1.00  0.00    -0.014 A 
ATOM     71  C   UNL A   1      46.278  33.504  28.522  1.00  0.00     0.009 A 
ATOM     72  C   UNL A   1      46.921  32.649  30.691  1.00  0.00     0.009 A 
ATOM     73  C   UNL A   1      46.956  34.694  28.794  1.00  0.00     0.001 A 
ATOM     74  C   UNL A   1      47.577  33.850  30.969  1.00  0.00     0.001 A 
ATOM     75  C   UNL A   1      47.601  34.867  30.017  1.00  0.00     0.000 A 
ENDBRANCH  51  70
BRANCH  63  76
ATOM     76  C   UNL A   1      48.590  26.435  26.886  1.00  0.00    -0.014 A 
ATOM     77  C   UNL A   1      49.479  25.769  27.743  1.00  0.00     0.009 A 
ATOM     78  C   UNL A   1      48.960  26.641  25.547  1.00  0.00     0.009 A 
ATOM     79  C   UNL A   1      50.724  25.343  27.275  1.00  0.00     0.001 A 
ATOM     80  C   UNL A   1      50.195  26.193  25.077  1.00  0.00     0.001 A 
ATOM     81  C   UNL A   1      51.080  25.552  25.943  1.00  0.00     0.000 A 
ENDBRANCH  63  76
ENDBRANCH  37  38
ENDBRANCH  30  32
ENDBRANCH  29  30
ENDBRANCH  28  29
ENDBRANCH  27  28
ENDBRANCH  26  27
ENDBRANCH  25  26
ENDBRANCH  24  25
ENDBRANCH   1  24
TORSDOF 22
ENDMDL
MODEL 3
REMARK VINA RESULT:      -9.2      5.760     11.845
REMARK SMILES CCCCOc1ccc(-c2nc(C)c(C(=O)OCCOCCOCCOC(=O)c3ccc(-c4c5nc(c(-c6ccccc6)c6ccc([nH]6)c(-c6ccccc6)c6nc(c(-c7ccccc7)c7ccc4[nH]7)C=C6)C=C5)cc3)s2)cc1
REMARK SMILES IDX 20 1 19 2 18 3 17 4 15 5 16 6 14 7 10 8 11 9 77 10 12 11
REMARK SMILES IDX 13 12 9 13 6 14 7 15 79 16 8 17 78 18 5 19 4 20 3 21 2 22
REMARK SMILES IDX 1 23 21 24 22 25 23 26 24 27 25 28 26 29 27 30 28 31 29 32
REMARK SMILES IDX 30 33 76 34 31 35 75 36 32 37 33 38 34 39 69 40 35 41 74 42
REMARK SMILES IDX 68 43 70 44 36 45 73 46 67 47 66 48 37 50 59 51 44 52 58 53
REMARK SMILES IDX 45 54 48 55 57 56 71 57 46 58 47 59 56 61 72 62 49 63 38 64
REMARK SMILES IDX 39 65 43 66 40 67 42 68 41 69 60 70 61 71 65 72 62 73 64 74
REMARK SMILES IDX 63 75 50 76 51 77 55 78 52 79 54 80 53 81
REMARK H PARENT 70 49 48 60
REMARK Flexibility Score: inf
ROOT
ATOM      1  O   UNL A   1      43.920  20.324  24.628  1.00  0.00    -0.376 OA
ENDROOT
BRANCH   1   2
ATOM      2  C   UNL A   1      44.384  21.562  25.151  1.00  0.00     0.202 C 
BRANCH   2   3
ATOM      3  C   UNL A   1      44.774  22.638  24.136  1.00  0.00     0.261 C 
BRANCH   3   4
ATOM      4  O   UNL A   1      44.095  23.882  24.371  1.00  0.00    -0.459 OA
BRANCH   4   5
ATOM      5  C   UNL A   1      43.769  24.142  25.674  1.00  0.00     0.350 C 
ATOM      6  O   UNL A   1      43.070  23.424  26.361  1.00  0.00    -0.245 OA
BRANCH   5   7
ATOM      7  C   UNL A   1      44.471  25.323  26.137  1.00  0.00     0.135 A 
ATOM      8  C   UNL A   1      45.054  27.643  26.574  1.00  0.00     0.124 A 
ATOM      9  N   UNL A   1      45.915  26.844  27.166  1.00  0.00    -0.240 NA
ATOM     10  S   UNL A   1      43.840  26.854  25.663  1.00  0.00    -0.106 S 
ATOM     11  C   UNL A   1      45.584  25.511  26.943  1.00  0.00     0.064 A 
ATOM     12  C   UNL A   1      46.474  24.494  27.568  1.00  0.00     0.068 C 
BRANCH   8  13
ATOM     13  C   UNL A   1      45.099  29.103  26.632  1.00  0.00     0.011 A 
ATOM     14  C   UNL A   1      45.117  31.900  26.605  1.00  0.00     0.119 A 
ATOM     15  C   UNL A   1      43.938  31.223  26.907  1.00  0.00     0.047 A 
ATOM     16  C   UNL A   1      46.300  31.198  26.393  1.00  0.00     0.047 A 
ATOM     17  C   UNL A   1      43.927  29.825  26.905  1.00  0.00     0.015 A 
ATOM     18  C   UNL A   1      46.289  29.803  26.385  1.00  0.00     0.015 A 
BRANCH  14  19
ATOM     19  O   UNL A   1      45.185  33.262  26.547  1.00  0.00    -0.494 OA
BRANCH  19  20
ATOM     20  C   UNL A   1      44.228  33.844  25.651  1.00  0.00     0.229 C 
BRANCH  20  21
ATOM     21  C   UNL A   1      43.879  35.272  26.083  1.00  0.00     0.041 C 
BRANCH  21  22
ATOM     22  C   UNL A   1      42.491  35.449  26.712  1.00  0.00     0.000 C 
ATOM     23  C   UNL A   1      42.528  35.990  28.133  1.00  0.00     0.004 C 
ENDBRANCH  21  22
ENDBRANCH  20  21
ENDBRANCH  19  20
ENDBRANCH  14  19
ENDBRANCH   8  13
ENDBRANCH   5   7
ENDBRANCH   4   5
ENDBRANCH   3   4
ENDBRANCH   2   3
ENDBRANCH   1   2
BRANCH   1  24
ATOM     24  C   UNL A   1      44.150  19.121  25.354  1.00  0.00     0.188 C 
BRANCH  24  25
ATOM     25  C   UNL A   1      42.985  18.430  26.089  1.00  0.00     0.188 C 
BRANCH  25  26
ATOM     26  O   UNL A   1      41.698  18.922  25.751  1.00  0.00    -0.376 OA
BRANCH  26  27
ATOM     27  C   UNL A   1      41.132  19.851  26.668  1.00  0.00     0.202 C 
BRANCH  27  28
ATOM     28  C   UNL A   1      40.517  21.071  25.980  1.00  0.00     0.261 C 
BRANCH  28  29
ATOM     29  O   UNL A   1      40.094  22.112  26.878  1.00  0.00    -0.460 OA
BRANCH  29  30
ATOM     30  C   UNL A   1      39.136  22.950  26.429  1.00  0.00     0.338 C 
ATOM     31  O   UNL A   1      38.163  22.668  25.753  1.00  0.00    -0.246 OA
BRANCH  30  32
ATOM     32  C   UNL A   1      39.377  24.274  27.033  1.00  0.00     0.060 A 
ATOM     33  C   UNL A   1      40.072  25.240  26.298  1.00  0.00     0.016 A 
ATOM     34  C   UNL A   1      38.917  24.555  28.323  1.00  0.00     0.016 A 
ATOM     35  C   UNL A   1      40.331  26.490  26.865  1.00  0.00     0.010 A 
ATOM     36  C   UNL A   1      39.191  25.799  28.894  1.00  0.00     0.010 A 
ATOM     37  C   UNL A   1      39.919  26.763  28.178  1.00  0.00    -0.014 A 
BRANCH  37  38
ATOM     38  C   UNL A   1      40.384  27.990  28.868  1.00  0.00     0.031 A 
ATOM     39  C   UNL A   1      39.432  29.145  29.005  1.00  0.00     0.074 A 
ATOM     40  C   UNL A   1      41.633  28.087  29.354  1.00  0.00     0.049 A 
ATOM     41  N   UNL A   1      39.631  30.326  29.531  1.00  0.00    -0.248 NA
ATOM     42  C   UNL A   1      38.073  28.939  28.477  1.00  0.00     0.031 C 
ATOM     43  C   UNL A   1      42.646  27.036  29.314  1.00  0.00     0.029 A 
ATOM     44  N   UNL A   1      42.263  29.140  29.973  1.00  0.00    -0.354 N 
ATOM     45  C   UNL A   1      38.426  31.004  29.399  1.00  0.00     0.074 A 
ATOM     46  C   UNL A   1      37.509  30.113  28.721  1.00  0.00     0.031 C 
ATOM     47  C   UNL A   1      43.778  27.500  29.877  1.00  0.00     0.029 A 
ATOM     48  C   UNL A   1      43.575  28.887  30.289  1.00  0.00     0.049 A 
ATOM     49  H   UNL A   1      41.815  29.994  30.172  1.00  0.00     0.167 HD
ATOM     50  C   UNL A   1      38.105  32.254  29.805  1.00  0.00     0.031 A 
ATOM     51  C   UNL A   1      44.510  29.692  30.830  1.00  0.00     0.031 A 
ATOM     52  C   UNL A   1      39.016  33.157  30.454  1.00  0.00     0.049 A 
ATOM     53  C   UNL A   1      44.154  31.109  31.199  1.00  0.00     0.074 A 
ATOM     54  C   UNL A   1      38.777  34.442  30.912  1.00  0.00     0.029 A 
ATOM     55  N   UNL A   1      40.346  32.875  30.723  1.00  0.00    -0.354 N 
ATOM     56  N   UNL A   1      43.000  31.724  31.100  1.00  0.00    -0.248 NA
ATOM     57  C   UNL A   1      45.232  31.940  31.758  1.00  0.00     0.031 C 
ATOM     58  C   UNL A   1      39.977  34.955  31.417  1.00  0.00     0.029 A 
ATOM     59  C   UNL A   1      40.948  33.971  31.317  1.00  0.00     0.049 A 
ATOM     60  H   UNL A   1      40.795  32.023  30.522  1.00  0.00     0.167 HD
ATOM     61  C   UNL A   1      43.208  33.002  31.609  1.00  0.00     0.074 A 
ATOM     62  C   UNL A   1      44.593  33.071  32.023  1.00  0.00     0.031 C 
ATOM     63  C   UNL A   1      42.327  34.026  31.725  1.00  0.00     0.031 A 
BRANCH  50  64
ATOM     64  C   UNL A   1      36.708  32.726  29.528  1.00  0.00    -0.014 A 
ATOM     65  C   UNL A   1      35.761  32.832  30.557  1.00  0.00     0.009 A 
ATOM     66  C   UNL A   1      36.342  33.088  28.222  1.00  0.00     0.009 A 
ATOM     67  C   UNL A   1      34.462  33.261  30.278  1.00  0.00     0.001 A 
ATOM     68  C   UNL A   1      35.049  33.539  27.951  1.00  0.00     0.001 A 
ATOM     69  C   UNL A   1      34.109  33.618  28.977  1.00  0.00     0.000 A 
ENDBRANCH  50  64
BRANCH  51  70
ATOM     70  C   UNL A   1      45.892  29.193  31.043  1.00  0.00    -0.014 A 
ATOM     71  C   UNL A   1      46.347  28.873  32.332  1.00  0.00     0.009 A 
ATOM     72  C   UNL A   1      46.776  29.063  29.959  1.00  0.00     0.009 A 
ATOM     73  C   UNL A   1      47.664  28.458  32.534  1.00  0.00     0.001 A 
ATOM     74  C   UNL A   1      48.086  28.623  30.162  1.00  0.00     0.001 A 
ATOM     75  C   UNL A   1      48.531  28.330  31.450  1.00  0.00     0.000 A 
ENDBRANCH  51  70
BRANCH  63  76
ATOM     76  C   UNL A   1      42.822  35.296  32.356  1.00  0.00    -0.014 A 
ATOM     77  C   UNL A   1      42.537  35.603  33.695  1.00  0.00     0.009 A 
ATOM     78  C   UNL A   1      43.627  36.173  31.612  1.00  0.00     0.009 A 
ATOM     79  C   UNL A   1      43.027  36.780  34.267  1.00  0.00     0.001 A 
ATOM     80  C   UNL A   1      44.135  37.335  32.194  1.00  0.00     0.001 A 
ATOM     81  C   UNL A   1      43.828  37.642  33.519  1.00  0.00     0.000 A 
ENDBRANCH  63  76
ENDBRANCH  37  38
ENDBRANCH  30  32
ENDBRANCH  29  30
ENDBRANCH  28  29
ENDBRANCH  27  28
ENDBRANCH  26  27
ENDBRANCH  25  26
ENDBRANCH  24  25
ENDBRANCH   1  24
TORSDOF 22
ENDMDL
