MODEL 1
REMARK VINA RESULT:      -9.7      0.000      0.000
REMARK SMILES Cc1c(-c2nn(-c3ccccc3)cc2/C=N/O)nnn1-c1ccc(C(=O)OCCOCCOCCOC(=O)c2ccc(-c3c4nc(c(-c5ccccc5)c5ccc([nH]5)c(-c5ccccc5)c5nc(c(-c6ccccc6)c6ccc3[nH]6)C=C5)C=C4)cc2)cc1
REMARK SMILES IDX 31 1 30 2 29 3 28 4 27 5 25 6 26 7 24 8 21 9 22 10 88 11
REMARK SMILES IDX 23 12 87 13 20 14 1 15 2 16 3 17 18 18 19 19 4 20 5 21 14 22
REMARK SMILES IDX 6 23 13 24 15 25 16 26 17 27 7 29 8 30 12 31 9 32 11 33
REMARK SMILES IDX 10 34 32 35 33 36 34 37 35 38 36 39 37 40 38 41 39 42 40 43
REMARK SMILES IDX 86 44 41 45 85 46 42 47 43 48 44 49 79 50 45 51 84 52 78 53
REMARK SMILES IDX 80 54 46 55 83 56 77 57 76 58 47 60 69 61 54 62 68 63 55 64
REMARK SMILES IDX 58 65 67 66 81 67 56 68 57 69 66 71 82 72 59 73 48 74 49 75
REMARK SMILES IDX 53 76 50 77 52 78 51 79 70 80 71 81 75 82 72 83 74 84 73 85
REMARK SMILES IDX 60 86 61 87 65 88 62 89 64 90 63 91
REMARK H PARENT 17 28 80 59 58 70
REMARK Flexibility Score: inf
ROOT
ATOM      1  C   UNL A   1      39.466  34.945  34.559  1.00  0.00     0.188 C 
ENDROOT
BRANCH   1   2
ATOM      2  O   UNL A   1      38.645  34.342  33.573  1.00  0.00    -0.376 OA
BRANCH   2   3
ATOM      3  C   UNL A   1      38.932  32.975  33.294  1.00  0.00     0.202 C 
BRANCH   3   4
ATOM      4  C   UNL A   1      37.928  32.222  32.402  1.00  0.00     0.261 C 
BRANCH   4   5
ATOM      5  O   UNL A   1      36.970  33.038  31.710  1.00  0.00    -0.460 OA
BRANCH   5   6
ATOM      6  C   UNL A   1      37.293  33.447  30.462  1.00  0.00     0.338 C 
ATOM      7  O   UNL A   1      38.235  34.153  30.154  1.00  0.00    -0.246 OA
BRANCH   6   8
ATOM      8  C   UNL A   1      36.395  32.777  29.485  1.00  0.00     0.060 A 
ATOM      9  C   UNL A   1      34.568  31.576  27.752  1.00  0.00     0.067 A 
ATOM     10  C   UNL A   1      34.619  32.970  27.837  1.00  0.00     0.029 A 
ATOM     11  C   UNL A   1      35.495  30.787  28.448  1.00  0.00     0.029 A 
ATOM     12  C   UNL A   1      35.511  33.566  28.734  1.00  0.00     0.018 A 
ATOM     13  C   UNL A   1      36.422  31.390  29.301  1.00  0.00     0.018 A 
BRANCH   9  14
ATOM     14  N   UNL A   1      33.489  30.966  27.071  1.00  0.00    -0.217 N 
ATOM     15  C   UNL A   1      34.538  28.683  26.696  1.00  0.00     0.069 C 
ATOM     16  C   UNL A   1      33.458  29.686  26.548  1.00  0.00     0.071 A 
ATOM     17  C   UNL A   1      32.171  29.570  26.063  1.00  0.00     0.137 A 
ATOM     18  N   UNL A   1      31.458  30.697  26.346  1.00  0.00    -0.128 NA
ATOM     19  N   UNL A   1      32.253  31.519  27.026  1.00  0.00    -0.061 NA
BRANCH  17  20
ATOM     20  C   UNL A   1      31.569  28.382  25.462  1.00  0.00     0.124 A 
ATOM     21  N   UNL A   1      31.661  27.179  26.047  1.00  0.00    -0.165 NA
ATOM     22  C   UNL A   1      30.987  28.315  24.177  1.00  0.00     0.044 A 
ATOM     23  N   UNL A   1      31.245  26.309  25.101  1.00  0.00    -0.240 N 
ATOM     24  C   UNL A   1      30.828  26.959  23.961  1.00  0.00     0.125 A 
BRANCH  22  25
ATOM     25  C   UNL A   1      30.637  29.339  23.226  1.00  0.00     0.166 C 
ATOM     26  N   UNL A   1      30.584  29.064  21.966  1.00  0.00    -0.097 NA
BRANCH  26  27
ATOM     27  O   UNL A   1      30.258  30.225  21.255  1.00  0.00    -0.411 OA
ATOM     28  H   UNL A   1      30.937  30.785  20.935  1.00  0.00     0.330 HD
ENDBRANCH  26  27
ENDBRANCH  22  25
BRANCH  23  29
ATOM     29  C   UNL A   1      31.305  24.910  25.319  1.00  0.00     0.065 A 
ATOM     30  C   UNL A   1      31.377  24.044  24.219  1.00  0.00     0.028 A 
ATOM     31  C   UNL A   1      31.284  24.389  26.620  1.00  0.00     0.028 A 
ATOM     32  C   UNL A   1      31.468  22.667  24.424  1.00  0.00     0.002 A 
ATOM     33  C   UNL A   1      31.329  23.006  26.814  1.00  0.00     0.002 A 
ATOM     34  C   UNL A   1      31.437  22.148  25.719  1.00  0.00     0.000 A 
ENDBRANCH  23  29
ENDBRANCH  17  20
ENDBRANCH   9  14
ENDBRANCH   6   8
ENDBRANCH   5   6
ENDBRANCH   4   5
ENDBRANCH   3   4
ENDBRANCH   2   3
ENDBRANCH   1   2
BRANCH   1  35
ATOM     35  C   UNL A   1      40.683  34.101  34.995  1.00  0.00     0.188 C 
BRANCH  35  36
ATOM     36  O   UNL A   1      41.973  34.293  34.424  1.00  0.00    -0.376 OA
BRANCH  36  37
ATOM     37  C   UNL A   1      42.135  34.972  33.187  1.00  0.00     0.202 C 
BRANCH  37  38
ATOM     38  C   UNL A   1      43.171  34.480  32.177  1.00  0.00     0.261 C 
BRANCH  38  39
ATOM     39  O   UNL A   1      42.619  33.991  30.962  1.00  0.00    -0.460 OA
BRANCH  39  40
ATOM     40  C   UNL A   1      43.369  34.260  29.870  1.00  0.00     0.338 C 
ATOM     41  O   UNL A   1      43.895  35.319  29.581  1.00  0.00    -0.246 OA
BRANCH  40  42
ATOM     42  C   UNL A   1      43.439  33.068  29.011  1.00  0.00     0.060 A 
ATOM     43  C   UNL A   1      42.947  31.874  29.549  1.00  0.00     0.016 A 
ATOM     44  C   UNL A   1      44.176  33.088  27.819  1.00  0.00     0.016 A 
ATOM     45  C   UNL A   1      43.376  30.676  29.016  1.00  0.00     0.010 A 
ATOM     46  C   UNL A   1      44.608  31.889  27.288  1.00  0.00     0.010 A 
ATOM     47  C   UNL A   1      44.285  30.705  27.956  1.00  0.00    -0.014 A 
BRANCH  47  48
ATOM     48  C   UNL A   1      45.039  29.492  27.688  1.00  0.00     0.031 A 
ATOM     49  C   UNL A   1      46.265  29.252  28.474  1.00  0.00     0.074 A 
ATOM     50  C   UNL A   1      44.552  28.570  26.835  1.00  0.00     0.049 A 
ATOM     51  N   UNL A   1      47.445  28.973  28.027  1.00  0.00    -0.248 NA
ATOM     52  C   UNL A   1      46.171  29.349  29.936  1.00  0.00     0.031 C 
ATOM     53  C   UNL A   1      43.224  28.551  26.213  1.00  0.00     0.029 A 
ATOM     54  N   UNL A   1      45.094  27.377  26.459  1.00  0.00    -0.354 N 
ATOM     55  C   UNL A   1      48.224  28.717  29.149  1.00  0.00     0.074 A 
ATOM     56  C   UNL A   1      47.417  29.048  30.299  1.00  0.00     0.031 C 
ATOM     57  C   UNL A   1      42.976  27.308  25.748  1.00  0.00     0.029 A 
ATOM     58  C   UNL A   1      44.162  26.488  25.946  1.00  0.00     0.049 A 
ATOM     59  H   UNL A   1      46.052  27.166  26.542  1.00  0.00     0.167 HD
ATOM     60  C   UNL A   1      49.420  28.077  29.078  1.00  0.00     0.031 A 
ATOM     61  C   UNL A   1      44.314  25.153  25.781  1.00  0.00     0.031 A 
ATOM     62  C   UNL A   1      49.970  28.056  27.752  1.00  0.00     0.049 A 
ATOM     63  C   UNL A   1      45.762  24.846  25.802  1.00  0.00     0.074 A 
ATOM     64  C   UNL A   1      50.352  29.024  26.845  1.00  0.00     0.029 A 
ATOM     65  N   UNL A   1      49.916  26.879  27.047  1.00  0.00    -0.354 N 
ATOM     66  N   UNL A   1      46.585  25.156  24.843  1.00  0.00    -0.248 NA
ATOM     67  C   UNL A   1      46.390  24.508  27.072  1.00  0.00     0.031 C 
ATOM     68  C   UNL A   1      50.066  28.470  25.564  1.00  0.00     0.029 A 
ATOM     69  C   UNL A   1      49.535  27.195  25.768  1.00  0.00     0.049 A 
ATOM     70  H   UNL A   1      50.112  25.978  27.394  1.00  0.00     0.167 HD
ATOM     71  C   UNL A   1      47.775  25.471  25.484  1.00  0.00     0.074 A 
ATOM     72  C   UNL A   1      47.636  24.919  26.827  1.00  0.00     0.031 C 
ATOM     73  C   UNL A   1      48.634  26.399  24.965  1.00  0.00     0.031 A 
BRANCH  60  74
ATOM     74  C   UNL A   1      49.934  27.193  30.175  1.00  0.00    -0.014 A 
ATOM     75  C   UNL A   1      51.137  27.520  30.821  1.00  0.00     0.009 A 
ATOM     76  C   UNL A   1      49.399  25.913  30.420  1.00  0.00     0.009 A 
ATOM     77  C   UNL A   1      51.782  26.599  31.654  1.00  0.00     0.001 A 
ATOM     78  C   UNL A   1      50.018  25.008  31.284  1.00  0.00     0.001 A 
ATOM     79  C   UNL A   1      51.221  25.345  31.887  1.00  0.00     0.000 A 
ENDBRANCH  60  74
BRANCH  61  80
ATOM     80  C   UNL A   1      43.269  24.106  25.808  1.00  0.00    -0.014 A 
ATOM     81  C   UNL A   1      43.526  22.821  25.308  1.00  0.00     0.009 A 
ATOM     82  C   UNL A   1      42.069  24.300  26.518  1.00  0.00     0.009 A 
ATOM     83  C   UNL A   1      42.622  21.771  25.525  1.00  0.00     0.001 A 
ATOM     84  C   UNL A   1      41.159  23.259  26.719  1.00  0.00     0.001 A 
ATOM     85  C   UNL A   1      41.443  21.989  26.232  1.00  0.00     0.000 A 
ENDBRANCH  61  80
BRANCH  73  86
ATOM     86  C   UNL A   1      48.396  26.872  23.551  1.00  0.00    -0.014 A 
ATOM     87  C   UNL A   1      47.459  27.875  23.241  1.00  0.00     0.009 A 
ATOM     88  C   UNL A   1      49.242  26.419  22.529  1.00  0.00     0.009 A 
ATOM     89  C   UNL A   1      47.343  28.376  21.942  1.00  0.00     0.001 A 
ATOM     90  C   UNL A   1      49.144  26.936  21.235  1.00  0.00     0.001 A 
ATOM     91  C   UNL A   1      48.189  27.909  20.940  1.00  0.00     0.000 A 
ENDBRANCH  73  86
ENDBRANCH  47  48
ENDBRANCH  40  42
ENDBRANCH  39  40
ENDBRANCH  38  39
ENDBRANCH  37  38
ENDBRANCH  36  37
ENDBRANCH  35  36
ENDBRANCH   1  35
TORSDOF 22
ENDMDL
MODEL 2
REMARK VINA RESULT:      -9.6      5.784     11.572
REMARK SMILES Cc1c(-c2nn(-c3ccccc3)cc2/C=N/O)nnn1-c1ccc(C(=O)OCCOCCOCCOC(=O)c2ccc(-c3c4nc(c(-c5ccccc5)c5ccc([nH]5)c(-c5ccccc5)c5nc(c(-c6ccccc6)c6ccc3[nH]6)C=C5)C=C4)cc2)cc1
REMARK SMILES IDX 31 1 30 2 29 3 28 4 27 5 25 6 26 7 24 8 21 9 22 10 88 11
REMARK SMILES IDX 23 12 87 13 20 14 1 15 2 16 3 17 18 18 19 19 4 20 5 21 14 22
REMARK SMILES IDX 6 23 13 24 15 25 16 26 17 27 7 29 8 30 12 31 9 32 11 33
REMARK SMILES IDX 10 34 32 35 33 36 34 37 35 38 36 39 37 40 38 41 39 42 40 43
REMARK SMILES IDX 86 44 41 45 85 46 42 47 43 48 44 49 79 50 45 51 84 52 78 53
REMARK SMILES IDX 80 54 46 55 83 56 77 57 76 58 47 60 69 61 54 62 68 63 55 64
REMARK SMILES IDX 58 65 67 66 81 67 56 68 57 69 66 71 82 72 59 73 48 74 49 75
REMARK SMILES IDX 53 76 50 77 52 78 51 79 70 80 71 81 75 82 72 83 74 84 73 85
REMARK SMILES IDX 60 86 61 87 65 88 62 89 64 90 63 91
REMARK H PARENT 17 28 80 59 58 70
REMARK Flexibility Score: inf
ROOT
ATOM      1  C   UNL A   1      41.232  31.508  33.347  1.00  0.00     0.188 C 
ENDROOT
BRANCH   1   2
ATOM      2  O   UNL A   1      42.187  32.202  32.564  1.00  0.00    -0.376 OA
BRANCH   2   3
ATOM      3  C   UNL A   1      43.549  31.952  32.900  1.00  0.00     0.202 C 
BRANCH   3   4
ATOM      4  C   UNL A   1      44.611  32.396  31.879  1.00  0.00     0.261 C 
BRANCH   4   5
ATOM      5  O   UNL A   1      44.270  33.539  31.077  1.00  0.00    -0.460 OA
BRANCH   5   6
ATOM      6  C   UNL A   1      45.265  34.111  30.363  1.00  0.00     0.338 C 
ATOM      7  O   UNL A   1      46.430  33.762  30.338  1.00  0.00    -0.246 OA
BRANCH   6   8
ATOM      8  C   UNL A   1      44.688  35.163  29.485  1.00  0.00     0.060 A 
ATOM      9  C   UNL A   1      43.685  37.260  27.942  1.00  0.00     0.067 A 
ATOM     10  C   UNL A   1      45.059  37.004  27.942  1.00  0.00     0.029 A 
ATOM     11  C   UNL A   1      42.803  36.409  28.624  1.00  0.00     0.029 A 
ATOM     12  C   UNL A   1      45.561  35.975  28.745  1.00  0.00     0.018 A 
ATOM     13  C   UNL A   1      43.304  35.347  29.382  1.00  0.00     0.018 A 
BRANCH   9  14
ATOM     14  N   UNL A   1      43.208  38.459  27.366  1.00  0.00    -0.217 N 
ATOM     15  C   UNL A   1      45.388  39.262  26.338  1.00  0.00     0.069 C 
ATOM     16  C   UNL A   1      43.952  39.399  26.676  1.00  0.00     0.071 A 
ATOM     17  C   UNL A   1      43.009  40.320  26.270  1.00  0.00     0.137 A 
ATOM     18  N   UNL A   1      41.762  39.911  26.640  1.00  0.00    -0.128 NA
ATOM     19  N   UNL A   1      41.886  38.734  27.249  1.00  0.00    -0.061 NA
BRANCH  17  20
ATOM     20  C   UNL A   1      43.240  41.497  25.436  1.00  0.00     0.124 A 
ATOM     21  N   UNL A   1      42.707  41.603  24.211  1.00  0.00    -0.165 NA
ATOM     22  C   UNL A   1      44.140  42.547  25.726  1.00  0.00     0.044 A 
ATOM     23  N   UNL A   1      43.342  42.657  23.653  1.00  0.00    -0.240 N 
ATOM     24  C   UNL A   1      44.212  43.252  24.539  1.00  0.00     0.125 A 
BRANCH  22  25
ATOM     25  C   UNL A   1      44.883  42.875  26.915  1.00  0.00     0.166 C 
ATOM     26  N   UNL A   1      44.447  42.511  28.074  1.00  0.00    -0.097 NA
BRANCH  26  27
ATOM     27  O   UNL A   1      45.323  42.976  29.063  1.00  0.00    -0.411 OA
ATOM     28  H   UNL A   1      44.989  43.442  29.804  1.00  0.00     0.330 HD
ENDBRANCH  26  27
ENDBRANCH  22  25
BRANCH  23  29
ATOM     29  C   UNL A   1      43.117  43.012  22.300  1.00  0.00     0.065 A 
ATOM     30  C   UNL A   1      44.203  43.384  21.496  1.00  0.00     0.028 A 
ATOM     31  C   UNL A   1      41.822  43.002  21.766  1.00  0.00     0.028 A 
ATOM     32  C   UNL A   1      43.996  43.706  20.154  1.00  0.00     0.002 A 
ATOM     33  C   UNL A   1      41.618  43.370  20.433  1.00  0.00     0.002 A 
ATOM     34  C   UNL A   1      42.705  43.706  19.626  1.00  0.00     0.000 A 
ENDBRANCH  23  29
ENDBRANCH  17  20
ENDBRANCH   9  14
ENDBRANCH   6   8
ENDBRANCH   5   6
ENDBRANCH   4   5
ENDBRANCH   3   4
ENDBRANCH   2   3
ENDBRANCH   1   2
BRANCH   1  35
ATOM     35  C   UNL A   1      40.252  32.410  34.129  1.00  0.00     0.188 C 
BRANCH  35  36
ATOM     36  O   UNL A   1      39.080  31.887  34.746  1.00  0.00    -0.376 OA
BRANCH  36  37
ATOM     37  C   UNL A   1      38.330  30.847  34.137  1.00  0.00     0.202 C 
BRANCH  37  38
ATOM     38  C   UNL A   1      37.290  31.181  33.070  1.00  0.00     0.261 C 
BRANCH  38  39
ATOM     39  O   UNL A   1      36.649  30.047  32.499  1.00  0.00    -0.460 OA
BRANCH  39  40
ATOM     40  C   UNL A   1      36.432  30.150  31.169  1.00  0.00     0.338 C 
ATOM     41  O   UNL A   1      35.594  30.834  30.610  1.00  0.00    -0.246 OA
BRANCH  40  42
ATOM     42  C   UNL A   1      37.350  29.256  30.447  1.00  0.00     0.060 A 
ATOM     43  C   UNL A   1      38.068  28.335  31.217  1.00  0.00     0.016 A 
ATOM     44  C   UNL A   1      37.658  29.484  29.099  1.00  0.00     0.016 A 
ATOM     45  C   UNL A   1      39.233  27.803  30.705  1.00  0.00     0.010 A 
ATOM     46  C   UNL A   1      38.825  28.954  28.587  1.00  0.00     0.010 A 
ATOM     47  C   UNL A   1      39.647  28.204  29.433  1.00  0.00    -0.014 A 
BRANCH  47  48
ATOM     48  C   UNL A   1      41.040  27.985  29.082  1.00  0.00     0.031 A 
ATOM     49  C   UNL A   1      41.401  26.701  28.450  1.00  0.00     0.074 A 
ATOM     50  C   UNL A   1      41.935  28.983  29.222  1.00  0.00     0.049 A 
ATOM     51  N   UNL A   1      42.332  25.880  28.812  1.00  0.00    -0.248 NA
ATOM     52  C   UNL A   1      40.623  26.268  27.283  1.00  0.00     0.031 C 
ATOM     53  C   UNL A   1      41.657  30.382  29.563  1.00  0.00     0.029 A 
ATOM     54  N   UNL A   1      43.270  28.984  28.945  1.00  0.00    -0.354 N 
ATOM     55  C   UNL A   1      42.360  24.888  27.840  1.00  0.00     0.074 A 
ATOM     56  C   UNL A   1      41.232  25.126  26.971  1.00  0.00     0.031 C 
ATOM     57  C   UNL A   1      42.730  31.133  29.236  1.00  0.00     0.029 A 
ATOM     58  C   UNL A   1      43.792  30.257  28.767  1.00  0.00     0.049 A 
ATOM     59  H   UNL A   1      43.811  28.164  28.879  1.00  0.00     0.167 HD
ATOM     60  C   UNL A   1      43.409  24.037  27.694  1.00  0.00     0.031 A 
ATOM     61  C   UNL A   1      44.973  30.578  28.190  1.00  0.00     0.031 A 
ATOM     62  C   UNL A   1      44.263  23.993  28.846  1.00  0.00     0.049 A 
ATOM     63  C   UNL A   1      45.829  29.371  28.182  1.00  0.00     0.074 A 
ATOM     64  C   UNL A   1      44.084  23.661  30.175  1.00  0.00     0.029 A 
ATOM     65  N   UNL A   1      45.477  24.631  28.778  1.00  0.00    -0.354 N 
ATOM     66  N   UNL A   1      46.378  28.861  29.247  1.00  0.00    -0.248 NA
ATOM     67  C   UNL A   1      45.789  28.489  27.024  1.00  0.00     0.031 C 
ATOM     68  C   UNL A   1      44.972  24.510  30.895  1.00  0.00     0.029 A 
ATOM     69  C   UNL A   1      45.644  25.302  29.962  1.00  0.00     0.049 A 
ATOM     70  H   UNL A   1      46.107  24.613  28.021  1.00  0.00     0.167 HD
ATOM     71  C   UNL A   1      46.357  27.490  29.035  1.00  0.00     0.074 A 
ATOM     72  C   UNL A   1      46.119  27.333  27.605  1.00  0.00     0.031 C 
ATOM     73  C   UNL A   1      46.239  26.615  30.079  1.00  0.00     0.031 A 
BRANCH  60  74
ATOM     74  C   UNL A   1      43.823  23.479  26.365  1.00  0.00    -0.014 A 
ATOM     75  C   UNL A   1      43.574  22.129  26.072  1.00  0.00     0.009 A 
ATOM     76  C   UNL A   1      44.678  24.180  25.491  1.00  0.00     0.009 A 
ATOM     77  C   UNL A   1      44.170  21.507  24.969  1.00  0.00     0.001 A 
ATOM     78  C   UNL A   1      45.240  23.574  24.366  1.00  0.00     0.001 A 
ATOM     79  C   UNL A   1      45.001  22.230  24.116  1.00  0.00     0.000 A 
ENDBRANCH  60  74
BRANCH  61  80
ATOM     80  C   UNL A   1      45.326  31.819  27.466  1.00  0.00    -0.014 A 
ATOM     81  C   UNL A   1      46.657  32.251  27.385  1.00  0.00     0.009 A 
ATOM     82  C   UNL A   1      44.377  32.483  26.665  1.00  0.00     0.009 A 
ATOM     83  C   UNL A   1      47.024  33.297  26.527  1.00  0.00     0.001 A 
ATOM     84  C   UNL A   1      44.737  33.538  25.823  1.00  0.00     0.001 A 
ATOM     85  C   UNL A   1      46.065  33.937  25.744  1.00  0.00     0.000 A 
ENDBRANCH  61  80
BRANCH  73  86
ATOM     86  C   UNL A   1      46.407  27.155  31.479  1.00  0.00    -0.014 A 
ATOM     87  C   UNL A   1      47.658  27.206  32.120  1.00  0.00     0.009 A 
ATOM     88  C   UNL A   1      45.316  27.775  32.106  1.00  0.00     0.009 A 
ATOM     89  C   UNL A   1      47.803  27.817  33.369  1.00  0.00     0.001 A 
ATOM     90  C   UNL A   1      45.465  28.408  33.343  1.00  0.00     0.001 A 
ATOM     91  C   UNL A   1      46.707  28.422  33.977  1.00  0.00     0.000 A 
ENDBRANCH  73  86
ENDBRANCH  47  48
ENDBRANCH  40  42
ENDBRANCH  39  40
ENDBRANCH  38  39
ENDBRANCH  37  38
ENDBRANCH  36  37
ENDBRANCH  35  36
ENDBRANCH   1  35
TORSDOF 22
ENDMDL
MODEL 3
REMARK VINA RESULT:      -9.5      6.879     12.890
REMARK SMILES Cc1c(-c2nn(-c3ccccc3)cc2/C=N/O)nnn1-c1ccc(C(=O)OCCOCCOCCOC(=O)c2ccc(-c3c4nc(c(-c5ccccc5)c5ccc([nH]5)c(-c5ccccc5)c5nc(c(-c6ccccc6)c6ccc3[nH]6)C=C5)C=C4)cc2)cc1
REMARK SMILES IDX 31 1 30 2 29 3 28 4 27 5 25 6 26 7 24 8 21 9 22 10 88 11
REMARK SMILES IDX 23 12 87 13 20 14 1 15 2 16 3 17 18 18 19 19 4 20 5 21 14 22
REMARK SMILES IDX 6 23 13 24 15 25 16 26 17 27 7 29 8 30 12 31 9 32 11 33
REMARK SMILES IDX 10 34 32 35 33 36 34 37 35 38 36 39 37 40 38 41 39 42 40 43
REMARK SMILES IDX 86 44 41 45 85 46 42 47 43 48 44 49 79 50 45 51 84 52 78 53
REMARK SMILES IDX 80 54 46 55 83 56 77 57 76 58 47 60 69 61 54 62 68 63 55 64
REMARK SMILES IDX 58 65 67 66 81 67 56 68 57 69 66 71 82 72 59 73 48 74 49 75
REMARK SMILES IDX 53 76 50 77 52 78 51 79 70 80 71 81 75 82 72 83 74 84 73 85
REMARK SMILES IDX 60 86 61 87 65 88 62 89 64 90 63 91
REMARK H PARENT 17 28 80 59 58 70
REMARK Flexibility Score: inf
ROOT
ATOM      1  C   UNL A   1      45.784  28.712  38.241  1.00  0.00     0.188 C 
ENDROOT
BRANCH   1   2
ATOM      2  O   UNL A   1      45.427  28.888  36.881  1.00  0.00    -0.376 OA
BRANCH   2   3
ATOM      3  C   UNL A   1      44.104  29.366  36.654  1.00  0.00     0.202 C 
BRANCH   3   4
ATOM      4  C   UNL A   1      43.542  29.208  35.230  1.00  0.00     0.261 C 
BRANCH   4   5
ATOM      5  O   UNL A   1      43.832  27.963  34.576  1.00  0.00    -0.460 OA
BRANCH   5   6
ATOM      6  C   UNL A   1      42.819  27.075  34.460  1.00  0.00     0.338 C 
ATOM      7  O   UNL A   1      41.660  27.331  34.192  1.00  0.00    -0.246 OA
BRANCH   6   8
ATOM      8  C   UNL A   1      43.367  25.697  34.570  1.00  0.00     0.060 A 
ATOM      9  C   UNL A   1      44.401  23.135  34.957  1.00  0.00     0.067 A 
ATOM     10  C   UNL A   1      43.102  23.423  35.386  1.00  0.00     0.029 A 
ATOM     11  C   UNL A   1      45.142  24.088  34.244  1.00  0.00     0.029 A 
ATOM     12  C   UNL A   1      42.602  24.719  35.223  1.00  0.00     0.018 A 
ATOM     13  C   UNL A   1      44.617  25.365  34.034  1.00  0.00     0.018 A 
BRANCH   9  14
ATOM     14  N   UNL A   1      45.009  21.927  35.369  1.00  0.00    -0.217 N 
ATOM     15  C   UNL A   1      45.757  22.665  37.682  1.00  0.00     0.069 C 
ATOM     16  C   UNL A   1      45.662  21.695  36.567  1.00  0.00     0.071 A 
ATOM     17  C   UNL A   1      45.997  20.358  36.495  1.00  0.00     0.137 A 
ATOM     18  N   UNL A   1      45.507  19.811  35.346  1.00  0.00    -0.128 NA
ATOM     19  N   UNL A   1      44.842  20.763  34.696  1.00  0.00    -0.061 NA
BRANCH  17  20
ATOM     20  C   UNL A   1      46.647  19.565  37.535  1.00  0.00     0.124 A 
ATOM     21  N   UNL A   1      45.945  18.749  38.334  1.00  0.00    -0.165 NA
ATOM     22  C   UNL A   1      48.000  19.669  37.925  1.00  0.00     0.044 A 
ATOM     23  N   UNL A   1      46.809  18.409  39.316  1.00  0.00    -0.240 N 
ATOM     24  C   UNL A   1      48.059  18.943  39.100  1.00  0.00     0.125 A 
BRANCH  22  25
ATOM     25  C   UNL A   1      49.119  20.364  37.339  1.00  0.00     0.166 C 
ATOM     26  N   UNL A   1      49.588  21.428  37.899  1.00  0.00    -0.097 NA
BRANCH  26  27
ATOM     27  O   UNL A   1      50.641  21.930  37.124  1.00  0.00    -0.411 OA
ATOM     28  H   UNL A   1      51.132  22.669  37.424  1.00  0.00     0.330 HD
ENDBRANCH  26  27
ENDBRANCH  22  25
BRANCH  23  29
ATOM     29  C   UNL A   1      46.387  17.629  40.421  1.00  0.00     0.065 A 
ATOM     30  C   UNL A   1      47.348  17.067  41.274  1.00  0.00     0.028 A 
ATOM     31  C   UNL A   1      45.024  17.412  40.663  1.00  0.00     0.028 A 
ATOM     32  C   UNL A   1      46.943  16.324  42.383  1.00  0.00     0.002 A 
ATOM     33  C   UNL A   1      44.629  16.628  41.750  1.00  0.00     0.002 A 
ATOM     34  C   UNL A   1      45.586  16.099  42.617  1.00  0.00     0.000 A 
ENDBRANCH  23  29
ENDBRANCH  17  20
ENDBRANCH   9  14
ENDBRANCH   6   8
ENDBRANCH   5   6
ENDBRANCH   4   5
ENDBRANCH   3   4
ENDBRANCH   2   3
ENDBRANCH   1   2
BRANCH   1  35
ATOM     35  C   UNL A   1      47.298  28.561  38.502  1.00  0.00     0.188 C 
BRANCH  35  36
ATOM     36  O   UNL A   1      47.884  27.301  38.816  1.00  0.00    -0.376 OA
BRANCH  36  37
ATOM     37  C   UNL A   1      47.505  26.122  38.121  1.00  0.00     0.202 C 
BRANCH  37  38
ATOM     38  C   UNL A   1      48.510  25.419  37.209  1.00  0.00     0.261 C 
BRANCH  38  39
ATOM     39  O   UNL A   1      47.994  25.062  35.933  1.00  0.00    -0.460 OA
BRANCH  39  40
ATOM     40  C   UNL A   1      48.932  24.626  35.064  1.00  0.00     0.338 C 
ATOM     41  O   UNL A   1      49.743  23.736  35.241  1.00  0.00    -0.246 OA
BRANCH  40  42
ATOM     42  C   UNL A   1      48.878  25.428  33.832  1.00  0.00     0.060 A 
ATOM     43  C   UNL A   1      48.012  26.527  33.834  1.00  0.00     0.016 A 
ATOM     44  C   UNL A   1      49.480  24.969  32.653  1.00  0.00     0.016 A 
ATOM     45  C   UNL A   1      47.575  27.032  32.627  1.00  0.00     0.010 A 
ATOM     46  C   UNL A   1      49.039  25.473  31.445  1.00  0.00     0.010 A 
ATOM     47  C   UNL A   1      48.018  26.426  31.449  1.00  0.00    -0.014 A 
BRANCH  47  48
ATOM     48  C   UNL A   1      47.250  26.671  30.240  1.00  0.00     0.031 A 
ATOM     49  C   UNL A   1      46.204  25.697  29.875  1.00  0.00     0.074 A 
ATOM     50  C   UNL A   1      47.418  27.821  29.557  1.00  0.00     0.049 A 
ATOM     51  N   UNL A   1      46.046  25.100  28.739  1.00  0.00    -0.248 NA
ATOM     52  C   UNL A   1      45.223  25.326  30.902  1.00  0.00     0.031 C 
ATOM     53  C   UNL A   1      48.206  28.988  29.966  1.00  0.00     0.029 A 
ATOM     54  N   UNL A   1      46.797  28.242  28.419  1.00  0.00    -0.354 N 
ATOM     55  C   UNL A   1      44.862  24.382  28.850  1.00  0.00     0.074 A 
ATOM     56  C   UNL A   1      44.442  24.484  30.228  1.00  0.00     0.031 C 
ATOM     57  C   UNL A   1      47.826  30.053  29.229  1.00  0.00     0.029 A 
ATOM     58  C   UNL A   1      46.854  29.616  28.239  1.00  0.00     0.049 A 
ATOM     59  H   UNL A   1      46.353  27.632  27.786  1.00  0.00     0.167 HD
ATOM     60  C   UNL A   1      44.197  23.897  27.770  1.00  0.00     0.031 A 
ATOM     61  C   UNL A   1      46.091  30.359  27.404  1.00  0.00     0.031 A 
ATOM     62  C   UNL A   1      45.008  23.843  26.586  1.00  0.00     0.049 A 
ATOM     63  C   UNL A   1      45.503  29.458  26.387  1.00  0.00     0.074 A 
ATOM     64  C   UNL A   1      46.181  23.203  26.243  1.00  0.00     0.029 A 
ATOM     65  N   UNL A   1      44.793  24.786  25.611  1.00  0.00    -0.354 N 
ATOM     66  N   UNL A   1      46.184  28.903  25.427  1.00  0.00    -0.248 NA
ATOM     67  C   UNL A   1      44.199  28.864  26.645  1.00  0.00     0.031 C 
ATOM     68  C   UNL A   1      46.841  24.088  25.343  1.00  0.00     0.029 A 
ATOM     69  C   UNL A   1      46.026  25.210  25.187  1.00  0.00     0.049 A 
ATOM     70  H   UNL A   1      43.920  25.098  25.280  1.00  0.00     0.167 HD
ATOM     71  C   UNL A   1      45.604  27.654  25.257  1.00  0.00     0.074 A 
ATOM     72  C   UNL A   1      44.312  27.745  25.926  1.00  0.00     0.031 C 
ATOM     73  C   UNL A   1      46.345  26.580  24.848  1.00  0.00     0.031 A 
BRANCH  60  74
ATOM     74  C   UNL A   1      42.704  23.766  27.727  1.00  0.00    -0.014 A 
ATOM     75  C   UNL A   1      42.109  22.528  28.015  1.00  0.00     0.009 A 
ATOM     76  C   UNL A   1      41.879  24.761  27.166  1.00  0.00     0.009 A 
ATOM     77  C   UNL A   1      40.758  22.292  27.733  1.00  0.00     0.001 A 
ATOM     78  C   UNL A   1      40.522  24.543  26.924  1.00  0.00     0.001 A 
ATOM     79  C   UNL A   1      39.966  23.301  27.190  1.00  0.00     0.000 A 
ENDBRANCH  60  74
BRANCH  61  80
ATOM     80  C   UNL A   1      45.683  31.773  27.558  1.00  0.00    -0.014 A 
ATOM     81  C   UNL A   1      45.755  32.664  26.477  1.00  0.00     0.009 A 
ATOM     82  C   UNL A   1      45.020  32.212  28.719  1.00  0.00     0.009 A 
ATOM     83  C   UNL A   1      45.173  33.937  26.554  1.00  0.00     0.001 A 
ATOM     84  C   UNL A   1      44.456  33.488  28.805  1.00  0.00     0.001 A 
ATOM     85  C   UNL A   1      44.521  34.346  27.715  1.00  0.00     0.000 A 
ENDBRANCH  61  80
BRANCH  73  86
ATOM     86  C   UNL A   1      47.738  26.837  24.326  1.00  0.00    -0.014 A 
ATOM     87  C   UNL A   1      47.984  27.221  22.995  1.00  0.00     0.009 A 
ATOM     88  C   UNL A   1      48.812  26.852  25.228  1.00  0.00     0.009 A 
ATOM     89  C   UNL A   1      49.270  27.566  22.571  1.00  0.00     0.001 A 
ATOM     90  C   UNL A   1      50.094  27.220  24.811  1.00  0.00     0.001 A 
ATOM     91  C   UNL A   1      50.323  27.569  23.480  1.00  0.00     0.000 A 
ENDBRANCH  73  86
ENDBRANCH  47  48
ENDBRANCH  40  42
ENDBRANCH  39  40
ENDBRANCH  38  39
ENDBRANCH  37  38
ENDBRANCH  36  37
ENDBRANCH  35  36
ENDBRANCH   1  35
TORSDOF 22
ENDMDL
