MODEL 1
REMARK VINA RESULT:      -8.9      0.000      0.000
REMARK SMILES N#CCc1ccc(OCC(=O)OCCOCCOCCOC(=O)c2ccc(-c3c4nc(c(-c5ccccc5)c5ccc([nH]5)c(-c5ccccc5)c5nc(c(-c6ccccc6)c6ccc3[nH]6)C=C5)C=C4)cc2)cc1
REMARK SMILES IDX 16 1 15 2 14 3 13 4 12 5 10 6 11 7 9 8 8 9 7 10 4 11 5 12
REMARK SMILES IDX 73 13 6 14 72 15 3 16 2 17 1 18 17 19 18 20 19 21 20 22
REMARK SMILES IDX 21 23 22 24 23 25 24 26 25 27 71 28 26 29 70 30 27 31 28 32
REMARK SMILES IDX 29 33 64 34 30 35 69 36 63 37 65 38 31 39 68 40 62 41 61 42
REMARK SMILES IDX 32 44 54 45 39 46 53 47 40 48 43 49 52 50 66 51 41 52 42 53
REMARK SMILES IDX 51 55 67 56 44 57 33 58 34 59 38 60 35 61 37 62 36 63 55 64
REMARK SMILES IDX 56 65 60 66 57 67 59 68 58 69 45 70 46 71 50 72 47 73 49 74
REMARK SMILES IDX 48 75
REMARK H PARENT 65 43 43 54
REMARK Flexibility Score: inf
ROOT
ATOM      1  C   UNL A   1      35.028  23.413  23.065  1.00  0.00     0.188 C 
ENDROOT
BRANCH   1   2
ATOM      2  O   UNL A   1      34.684  24.490  23.931  1.00  0.00    -0.376 OA
BRANCH   2   3
ATOM      3  C   UNL A   1      33.378  25.042  23.811  1.00  0.00     0.202 C 
BRANCH   3   4
ATOM      4  C   UNL A   1      32.966  25.959  24.964  1.00  0.00     0.261 C 
BRANCH   4   5
ATOM      5  O   UNL A   1      32.977  25.258  26.226  1.00  0.00    -0.461 OA
BRANCH   5   6
ATOM      6  C   UNL A   1      31.835  24.614  26.580  1.00  0.00     0.344 C 
ATOM      7  O   UNL A   1      30.725  25.134  26.611  1.00  0.00    -0.248 OA
BRANCH   6   8
ATOM      8  C   UNL A   1      32.051  23.135  26.926  1.00  0.00     0.351 C 
BRANCH   8   9
ATOM      9  O   UNL A   1      33.253  22.501  26.503  1.00  0.00    -0.482 OA
BRANCH   9  10
ATOM     10  C   UNL A   1      33.219  21.495  25.577  1.00  0.00     0.120 A 
ATOM     11  C   UNL A   1      32.705  19.445  23.660  1.00  0.00    -0.034 A 
ATOM     12  C   UNL A   1      32.096  20.697  23.546  1.00  0.00     0.008 A 
ATOM     13  C   UNL A   1      33.652  19.288  24.692  1.00  0.00     0.008 A 
ATOM     14  C   UNL A   1      32.364  21.710  24.487  1.00  0.00     0.047 A 
ATOM     15  C   UNL A   1      33.910  20.294  25.635  1.00  0.00     0.047 A 
BRANCH  11  16
ATOM     16  C   UNL A   1      32.355  18.283  22.716  1.00  0.00     0.155 C 
BRANCH  16  17
ATOM     17  C   UNL A   1      33.373  17.179  22.954  1.00  0.00     0.067 C 
ATOM     18  N   UNL A   1      34.217  16.264  23.152  1.00  0.00    -0.198 NA
ENDBRANCH  16  17
ENDBRANCH  11  16
ENDBRANCH   9  10
ENDBRANCH   8   9
ENDBRANCH   6   8
ENDBRANCH   5   6
ENDBRANCH   4   5
ENDBRANCH   3   4
ENDBRANCH   2   3
ENDBRANCH   1   2
BRANCH   1  19
ATOM     19  C   UNL A   1      36.472  22.902  23.104  1.00  0.00     0.188 C 
BRANCH  19  20
ATOM     20  O   UNL A   1      36.939  22.663  24.427  1.00  0.00    -0.376 OA
BRANCH  20  21
ATOM     21  C   UNL A   1      37.378  21.326  24.649  1.00  0.00     0.202 C 
BRANCH  21  22
ATOM     22  C   UNL A   1      38.527  21.320  25.650  1.00  0.00     0.261 C 
BRANCH  22  23
ATOM     23  O   UNL A   1      38.732  22.648  26.180  1.00  0.00    -0.460 OA
BRANCH  23  24
ATOM     24  C   UNL A   1      40.007  23.019  26.399  1.00  0.00     0.338 C 
ATOM     25  O   UNL A   1      41.011  22.369  26.133  1.00  0.00    -0.246 OA
BRANCH  24  26
ATOM     26  C   UNL A   1      40.072  24.377  26.989  1.00  0.00     0.060 A 
ATOM     27  C   UNL A   1      40.837  25.403  26.424  1.00  0.00     0.016 A 
ATOM     28  C   UNL A   1      39.440  24.593  28.213  1.00  0.00     0.016 A 
ATOM     29  C   UNL A   1      41.020  26.610  27.112  1.00  0.00     0.010 A 
ATOM     30  C   UNL A   1      39.562  25.825  28.861  1.00  0.00     0.010 A 
ATOM     31  C   UNL A   1      40.374  26.844  28.334  1.00  0.00    -0.014 A 
BRANCH  31  32
ATOM     32  C   UNL A   1      40.517  28.123  29.090  1.00  0.00     0.031 A 
ATOM     33  C   UNL A   1      41.618  28.279  30.112  1.00  0.00     0.074 A 
ATOM     34  C   UNL A   1      39.625  29.122  28.943  1.00  0.00     0.049 A 
ATOM     35  N   UNL A   1      41.721  29.136  31.098  1.00  0.00    -0.248 NA
ATOM     36  C   UNL A   1      42.742  27.339  30.014  1.00  0.00     0.031 C 
ATOM     37  C   UNL A   1      38.541  29.170  27.961  1.00  0.00     0.029 A 
ATOM     38  N   UNL A   1      39.472  30.286  29.663  1.00  0.00    -0.354 N 
ATOM     39  C   UNL A   1      42.894  28.799  31.767  1.00  0.00     0.074 A 
ATOM     40  C   UNL A   1      43.475  27.675  31.066  1.00  0.00     0.031 C 
ATOM     41  C   UNL A   1      37.831  30.293  28.145  1.00  0.00     0.029 A 
ATOM     42  C   UNL A   1      38.347  30.994  29.316  1.00  0.00     0.049 A 
ATOM     43  H   UNL A   1      40.105  30.581  30.356  1.00  0.00     0.167 HD
ATOM     44  C   UNL A   1      43.428  29.362  32.877  1.00  0.00     0.031 A 
ATOM     45  C   UNL A   1      37.744  32.042  29.912  1.00  0.00     0.031 A 
ATOM     46  C   UNL A   1      42.876  30.500  33.561  1.00  0.00     0.049 A 
ATOM     47  C   UNL A   1      38.305  32.601  31.189  1.00  0.00     0.074 A 
ATOM     48  C   UNL A   1      43.357  31.145  34.689  1.00  0.00     0.029 A 
ATOM     49  N   UNL A   1      41.727  31.167  33.177  1.00  0.00    -0.354 N 
ATOM     50  N   UNL A   1      39.376  32.239  31.850  1.00  0.00    -0.248 NA
ATOM     51  C   UNL A   1      37.553  33.700  31.813  1.00  0.00     0.031 C 
ATOM     52  C   UNL A   1      42.472  32.178  35.012  1.00  0.00     0.029 A 
ATOM     53  C   UNL A   1      41.467  32.201  34.059  1.00  0.00     0.049 A 
ATOM     54  H   UNL A   1      41.176  30.940  32.393  1.00  0.00     0.167 HD
ATOM     55  C   UNL A   1      39.434  33.075  32.958  1.00  0.00     0.074 A 
ATOM     56  C   UNL A   1      38.303  33.972  32.872  1.00  0.00     0.031 C 
ATOM     57  C   UNL A   1      40.343  33.091  33.963  1.00  0.00     0.031 A 
BRANCH  44  58
ATOM     58  C   UNL A   1      44.653  28.725  33.468  1.00  0.00    -0.014 A 
ATOM     59  C   UNL A   1      45.943  29.155  33.127  1.00  0.00     0.009 A 
ATOM     60  C   UNL A   1      44.501  27.726  34.444  1.00  0.00     0.009 A 
ATOM     61  C   UNL A   1      47.059  28.586  33.747  1.00  0.00     0.001 A 
ATOM     62  C   UNL A   1      45.617  27.175  35.075  1.00  0.00     0.001 A 
ATOM     63  C   UNL A   1      46.895  27.603  34.723  1.00  0.00     0.000 A 
ENDBRANCH  44  58
BRANCH  45  64
ATOM     64  C   UNL A   1      36.471  32.573  29.360  1.00  0.00    -0.014 A 
ATOM     65  C   UNL A   1      35.238  32.040  29.765  1.00  0.00     0.009 A 
ATOM     66  C   UNL A   1      36.487  33.602  28.404  1.00  0.00     0.009 A 
ATOM     67  C   UNL A   1      34.048  32.513  29.206  1.00  0.00     0.001 A 
ATOM     68  C   UNL A   1      35.295  34.094  27.871  1.00  0.00     0.001 A 
ATOM     69  C   UNL A   1      34.078  33.542  28.265  1.00  0.00     0.000 A 
ENDBRANCH  45  64
BRANCH  57  70
ATOM     70  C   UNL A   1      40.172  34.135  35.026  1.00  0.00    -0.014 A 
ATOM     71  C   UNL A   1      39.475  33.856  36.212  1.00  0.00     0.009 A 
ATOM     72  C   UNL A   1      40.742  35.405  34.852  1.00  0.00     0.009 A 
ATOM     73  C   UNL A   1      39.329  34.839  37.191  1.00  0.00     0.001 A 
ATOM     74  C   UNL A   1      40.613  36.380  35.843  1.00  0.00     0.001 A 
ATOM     75  C   UNL A   1      39.900  36.099  37.007  1.00  0.00     0.000 A 
ENDBRANCH  57  70
ENDBRANCH  31  32
ENDBRANCH  24  26
ENDBRANCH  23  24
ENDBRANCH  22  23
ENDBRANCH  21  22
ENDBRANCH  20  21
ENDBRANCH  19  20
ENDBRANCH   1  19
TORSDOF 21
ENDMDL
MODEL 2
REMARK VINA RESULT:      -8.8      2.428      6.946
REMARK SMILES N#CCc1ccc(OCC(=O)OCCOCCOCCOC(=O)c2ccc(-c3c4nc(c(-c5ccccc5)c5ccc([nH]5)c(-c5ccccc5)c5nc(c(-c6ccccc6)c6ccc3[nH]6)C=C5)C=C4)cc2)cc1
REMARK SMILES IDX 16 1 15 2 14 3 13 4 12 5 10 6 11 7 9 8 8 9 7 10 4 11 5 12
REMARK SMILES IDX 73 13 6 14 72 15 3 16 2 17 1 18 17 19 18 20 19 21 20 22
REMARK SMILES IDX 21 23 22 24 23 25 24 26 25 27 71 28 26 29 70 30 27 31 28 32
REMARK SMILES IDX 29 33 64 34 30 35 69 36 63 37 65 38 31 39 68 40 62 41 61 42
REMARK SMILES IDX 32 44 54 45 39 46 53 47 40 48 43 49 52 50 66 51 41 52 42 53
REMARK SMILES IDX 51 55 67 56 44 57 33 58 34 59 38 60 35 61 37 62 36 63 55 64
REMARK SMILES IDX 56 65 60 66 57 67 59 68 58 69 45 70 46 71 50 72 47 73 49 74
REMARK SMILES IDX 48 75
REMARK H PARENT 65 43 43 54
REMARK Flexibility Score: inf
ROOT
ATOM      1  C   UNL A   1      34.207  25.925  25.248  1.00  0.00     0.188 C 
ENDROOT
BRANCH   1   2
ATOM      2  O   UNL A   1      34.318  24.506  25.211  1.00  0.00    -0.376 OA
BRANCH   2   3
ATOM      3  C   UNL A   1      35.219  23.890  26.125  1.00  0.00     0.202 C 
BRANCH   3   4
ATOM      4  C   UNL A   1      35.844  22.587  25.623  1.00  0.00     0.261 C 
BRANCH   4   5
ATOM      5  O   UNL A   1      35.076  21.438  26.041  1.00  0.00    -0.461 OA
BRANCH   5   6
ATOM      6  C   UNL A   1      35.100  20.354  25.223  1.00  0.00     0.344 C 
ATOM      7  O   UNL A   1      36.095  19.674  24.998  1.00  0.00    -0.248 OA
BRANCH   6   8
ATOM      8  C   UNL A   1      33.734  20.028  24.605  1.00  0.00     0.351 C 
BRANCH   8   9
ATOM      9  O   UNL A   1      32.593  20.758  25.042  1.00  0.00    -0.482 OA
BRANCH   9  10
ATOM     10  C   UNL A   1      32.187  21.880  24.373  1.00  0.00     0.120 A 
ATOM     11  C   UNL A   1      31.776  24.303  22.923  1.00  0.00    -0.034 A 
ATOM     12  C   UNL A   1      32.661  23.331  22.451  1.00  0.00     0.008 A 
ATOM     13  C   UNL A   1      31.031  23.981  24.076  1.00  0.00     0.008 A 
ATOM     14  C   UNL A   1      32.850  22.130  23.162  1.00  0.00     0.047 A 
ATOM     15  C   UNL A   1      31.228  22.790  24.790  1.00  0.00     0.047 A 
BRANCH  11  16
ATOM     16  C   UNL A   1      31.625  25.668  22.233  1.00  0.00     0.155 C 
BRANCH  16  17
ATOM     17  C   UNL A   1      32.324  25.579  20.886  1.00  0.00     0.067 C 
ATOM     18  N   UNL A   1      32.903  25.505  19.769  1.00  0.00    -0.198 NA
ENDBRANCH  16  17
ENDBRANCH  11  16
ENDBRANCH   9  10
ENDBRANCH   8   9
ENDBRANCH   6   8
ENDBRANCH   5   6
ENDBRANCH   4   5
ENDBRANCH   3   4
ENDBRANCH   2   3
ENDBRANCH   1   2
BRANCH   1  19
ATOM     19  C   UNL A   1      33.132  26.531  26.157  1.00  0.00     0.188 C 
BRANCH  19  20
ATOM     20  O   UNL A   1      32.016  27.039  25.434  1.00  0.00    -0.376 OA
BRANCH  20  21
ATOM     21  C   UNL A   1      31.467  28.230  25.987  1.00  0.00     0.202 C 
BRANCH  21  22
ATOM     22  C   UNL A   1      31.835  29.422  25.113  1.00  0.00     0.261 C 
BRANCH  22  23
ATOM     23  O   UNL A   1      33.066  30.018  25.576  1.00  0.00    -0.460 OA
BRANCH  23  24
ATOM     24  C   UNL A   1      32.970  30.877  26.607  1.00  0.00     0.338 C 
ATOM     25  O   UNL A   1      32.017  31.602  26.864  1.00  0.00    -0.246 OA
BRANCH  24  26
ATOM     26  C   UNL A   1      34.181  30.823  27.459  1.00  0.00     0.060 A 
ATOM     27  C   UNL A   1      34.946  31.959  27.745  1.00  0.00     0.016 A 
ATOM     28  C   UNL A   1      34.629  29.573  27.886  1.00  0.00     0.016 A 
ATOM     29  C   UNL A   1      36.182  31.834  28.395  1.00  0.00     0.010 A 
ATOM     30  C   UNL A   1      35.825  29.461  28.600  1.00  0.00     0.010 A 
ATOM     31  C   UNL A   1      36.633  30.585  28.844  1.00  0.00    -0.014 A 
BRANCH  31  32
ATOM     32  C   UNL A   1      37.928  30.407  29.564  1.00  0.00     0.031 A 
ATOM     33  C   UNL A   1      39.025  29.570  28.952  1.00  0.00     0.074 A 
ATOM     34  C   UNL A   1      38.112  30.910  30.801  1.00  0.00     0.049 A 
ATOM     35  N   UNL A   1      40.063  29.011  29.525  1.00  0.00    -0.248 NA
ATOM     36  C   UNL A   1      38.933  29.323  27.507  1.00  0.00     0.031 C 
ATOM     37  C   UNL A   1      37.191  31.793  31.516  1.00  0.00     0.029 A 
ATOM     38  N   UNL A   1      39.140  30.709  31.694  1.00  0.00    -0.354 N 
ATOM     39  C   UNL A   1      40.712  28.303  28.518  1.00  0.00     0.074 A 
ATOM     40  C   UNL A   1      39.964  28.517  27.298  1.00  0.00     0.031 C 
ATOM     41  C   UNL A   1      37.685  32.048  32.738  1.00  0.00     0.029 A 
ATOM     42  C   UNL A   1      38.906  31.272  32.926  1.00  0.00     0.049 A 
ATOM     43  H   UNL A   1      39.961  30.213  31.473  1.00  0.00     0.167 HD
ATOM     44  C   UNL A   1      41.820  27.528  28.606  1.00  0.00     0.031 A 
ATOM     45  C   UNL A   1      39.548  31.123  34.101  1.00  0.00     0.031 A 
ATOM     46  C   UNL A   1      42.588  27.336  29.806  1.00  0.00     0.049 A 
ATOM     47  C   UNL A   1      40.725  30.194  34.199  1.00  0.00     0.074 A 
ATOM     48  C   UNL A   1      43.733  26.575  29.985  1.00  0.00     0.029 A 
ATOM     49  N   UNL A   1      42.296  27.915  31.028  1.00  0.00    -0.354 N 
ATOM     50  N   UNL A   1      41.295  29.480  33.261  1.00  0.00    -0.248 NA
ATOM     51  C   UNL A   1      41.330  30.035  35.530  1.00  0.00     0.031 C 
ATOM     52  C   UNL A   1      44.108  26.661  31.329  1.00  0.00     0.029 A 
ATOM     53  C   UNL A   1      43.223  27.510  31.973  1.00  0.00     0.049 A 
ATOM     54  H   UNL A   1      41.543  28.524  31.200  1.00  0.00     0.167 HD
ATOM     55  C   UNL A   1      42.333  28.799  33.885  1.00  0.00     0.074 A 
ATOM     56  C   UNL A   1      42.326  29.198  35.275  1.00  0.00     0.031 C 
ATOM     57  C   UNL A   1      43.211  27.916  33.351  1.00  0.00     0.031 A 
BRANCH  44  58
ATOM     58  C   UNL A   1      42.248  26.774  27.380  1.00  0.00    -0.014 A 
ATOM     59  C   UNL A   1      43.173  27.308  26.473  1.00  0.00     0.009 A 
ATOM     60  C   UNL A   1      41.769  25.468  27.179  1.00  0.00     0.009 A 
ATOM     61  C   UNL A   1      43.601  26.552  25.379  1.00  0.00     0.001 A 
ATOM     62  C   UNL A   1      42.215  24.709  26.096  1.00  0.00     0.001 A 
ATOM     63  C   UNL A   1      43.128  25.253  25.195  1.00  0.00     0.000 A 
ENDBRANCH  44  58
BRANCH  45  64
ATOM     64  C   UNL A   1      39.027  31.798  35.318  1.00  0.00    -0.014 A 
ATOM     65  C   UNL A   1      39.385  33.122  35.611  1.00  0.00     0.009 A 
ATOM     66  C   UNL A   1      38.187  31.107  36.208  1.00  0.00     0.009 A 
ATOM     67  C   UNL A   1      38.929  33.733  36.781  1.00  0.00     0.001 A 
ATOM     68  C   UNL A   1      37.708  31.730  37.360  1.00  0.00     0.001 A 
ATOM     69  C   UNL A   1      38.088  33.039  37.651  1.00  0.00     0.000 A 
ENDBRANCH  45  64
BRANCH  57  70
ATOM     70  C   UNL A   1      44.257  27.351  34.266  1.00  0.00    -0.014 A 
ATOM     71  C   UNL A   1      45.363  28.117  34.664  1.00  0.00     0.009 A 
ATOM     72  C   UNL A   1      44.117  26.045  34.760  1.00  0.00     0.009 A 
ATOM     73  C   UNL A   1      46.325  27.575  35.518  1.00  0.00     0.001 A 
ATOM     74  C   UNL A   1      45.069  25.514  35.632  1.00  0.00     0.001 A 
ATOM     75  C   UNL A   1      46.176  26.276  36.003  1.00  0.00     0.000 A 
ENDBRANCH  57  70
ENDBRANCH  31  32
ENDBRANCH  24  26
ENDBRANCH  23  24
ENDBRANCH  22  23
ENDBRANCH  21  22
ENDBRANCH  20  21
ENDBRANCH  19  20
ENDBRANCH   1  19
TORSDOF 21
ENDMDL
MODEL 3
REMARK VINA RESULT:      -8.8      1.748      2.472
REMARK SMILES N#CCc1ccc(OCC(=O)OCCOCCOCCOC(=O)c2ccc(-c3c4nc(c(-c5ccccc5)c5ccc([nH]5)c(-c5ccccc5)c5nc(c(-c6ccccc6)c6ccc3[nH]6)C=C5)C=C4)cc2)cc1
REMARK SMILES IDX 16 1 15 2 14 3 13 4 12 5 10 6 11 7 9 8 8 9 7 10 4 11 5 12
REMARK SMILES IDX 73 13 6 14 72 15 3 16 2 17 1 18 17 19 18 20 19 21 20 22
REMARK SMILES IDX 21 23 22 24 23 25 24 26 25 27 71 28 26 29 70 30 27 31 28 32
REMARK SMILES IDX 29 33 64 34 30 35 69 36 63 37 65 38 31 39 68 40 62 41 61 42
REMARK SMILES IDX 32 44 54 45 39 46 53 47 40 48 43 49 52 50 66 51 41 52 42 53
REMARK SMILES IDX 51 55 67 56 44 57 33 58 34 59 38 60 35 61 37 62 36 63 55 64
REMARK SMILES IDX 56 65 60 66 57 67 59 68 58 69 45 70 46 71 50 72 47 73 49 74
REMARK SMILES IDX 48 75
REMARK H PARENT 65 43 43 54
REMARK Flexibility Score: inf
ROOT
ATOM      1  C   UNL A   1      37.800  20.674  25.119  1.00  0.00     0.188 C 
ENDROOT
BRANCH   1   2
ATOM      2  O   UNL A   1      37.287  21.804  24.421  1.00  0.00    -0.376 OA
BRANCH   2   3
ATOM      3  C   UNL A   1      36.912  22.941  25.191  1.00  0.00     0.202 C 
BRANCH   3   4
ATOM      4  C   UNL A   1      35.760  23.757  24.602  1.00  0.00     0.261 C 
BRANCH   4   5
ATOM      5  O   UNL A   1      34.914  24.301  25.638  1.00  0.00    -0.461 OA
BRANCH   5   6
ATOM      6  C   UNL A   1      34.025  23.451  26.213  1.00  0.00     0.344 C 
ATOM      7  O   UNL A   1      34.096  23.047  27.369  1.00  0.00    -0.248 OA
BRANCH   6   8
ATOM      8  C   UNL A   1      32.879  23.043  25.278  1.00  0.00     0.351 C 
BRANCH   8   9
ATOM      9  O   UNL A   1      33.193  22.364  24.067  1.00  0.00    -0.482 OA
BRANCH   9  10
ATOM     10  C   UNL A   1      33.144  20.999  24.003  1.00  0.00     0.120 A 
ATOM     11  C   UNL A   1      33.487  18.172  23.809  1.00  0.00    -0.034 A 
ATOM     12  C   UNL A   1      34.310  18.935  24.641  1.00  0.00     0.008 A 
ATOM     13  C   UNL A   1      32.430  18.848  23.166  1.00  0.00     0.008 A 
ATOM     14  C   UNL A   1      34.128  20.328  24.744  1.00  0.00     0.047 A 
ATOM     15  C   UNL A   1      32.256  20.236  23.261  1.00  0.00     0.047 A 
BRANCH  11  16
ATOM     16  C   UNL A   1      33.723  16.670  23.588  1.00  0.00     0.155 C 
BRANCH  16  17
ATOM     17  C   UNL A   1      34.645  16.185  24.695  1.00  0.00     0.067 C 
ATOM     18  N   UNL A   1      35.410  15.783  25.614  1.00  0.00    -0.198 NA
ENDBRANCH  16  17
ENDBRANCH  11  16
ENDBRANCH   9  10
ENDBRANCH   8   9
ENDBRANCH   6   8
ENDBRANCH   5   6
ENDBRANCH   4   5
ENDBRANCH   3   4
ENDBRANCH   2   3
ENDBRANCH   1   2
BRANCH   1  19
ATOM     19  C   UNL A   1      38.981  20.900  26.069  1.00  0.00     0.188 C 
BRANCH  19  20
ATOM     20  O   UNL A   1      40.034  19.962  25.878  1.00  0.00    -0.376 OA
BRANCH  20  21
ATOM     21  C   UNL A   1      41.142  20.155  26.752  1.00  0.00     0.202 C 
BRANCH  21  22
ATOM     22  C   UNL A   1      42.293  20.801  25.991  1.00  0.00     0.261 C 
BRANCH  22  23
ATOM     23  O   UNL A   1      41.877  22.070  25.442  1.00  0.00    -0.460 OA
BRANCH  23  24
ATOM     24  C   UNL A   1      42.822  23.023  25.341  1.00  0.00     0.338 C 
ATOM     25  O   UNL A   1      43.823  22.983  24.638  1.00  0.00    -0.246 OA
BRANCH  24  26
ATOM     26  C   UNL A   1      42.487  24.196  26.183  1.00  0.00     0.060 A 
ATOM     27  C   UNL A   1      43.008  25.469  25.932  1.00  0.00     0.016 A 
ATOM     28  C   UNL A   1      41.721  23.985  27.329  1.00  0.00     0.016 A 
ATOM     29  C   UNL A   1      42.817  26.506  26.856  1.00  0.00     0.010 A 
ATOM     30  C   UNL A   1      41.470  25.039  28.211  1.00  0.00     0.010 A 
ATOM     31  C   UNL A   1      42.034  26.310  28.002  1.00  0.00    -0.014 A 
BRANCH  31  32
ATOM     32  C   UNL A   1      41.781  27.390  29.001  1.00  0.00     0.031 A 
ATOM     33  C   UNL A   1      42.584  27.443  30.278  1.00  0.00     0.074 A 
ATOM     34  C   UNL A   1      40.783  28.279  28.827  1.00  0.00     0.049 A 
ATOM     35  N   UNL A   1      42.316  28.058  31.404  1.00  0.00    -0.248 NA
ATOM     36  C   UNL A   1      43.849  26.695  30.289  1.00  0.00     0.031 C 
ATOM     37  C   UNL A   1      39.952  28.416  27.631  1.00  0.00     0.029 A 
ATOM     38  N   UNL A   1      40.275  29.220  29.694  1.00  0.00    -0.354 N 
ATOM     39  C   UNL A   1      43.352  27.724  32.270  1.00  0.00     0.074 A 
ATOM     40  C   UNL A   1      44.261  26.869  31.537  1.00  0.00     0.031 C 
ATOM     41  C   UNL A   1      39.033  29.372  27.841  1.00  0.00     0.029 A 
ATOM     42  C   UNL A   1      39.148  29.845  29.216  1.00  0.00     0.049 A 
ATOM     43  H   UNL A   1      40.677  29.425  30.568  1.00  0.00     0.167 HD
ATOM     44  C   UNL A   1      43.521  28.080  33.566  1.00  0.00     0.031 A 
ATOM     45  C   UNL A   1      38.255  30.646  29.830  1.00  0.00     0.031 A 
ATOM     46  C   UNL A   1      42.642  28.955  34.294  1.00  0.00     0.049 A 
ATOM     47  C   UNL A   1      38.413  30.963  31.290  1.00  0.00     0.074 A 
ATOM     48  C   UNL A   1      42.742  29.379  35.609  1.00  0.00     0.029 A 
ATOM     49  N   UNL A   1      41.508  29.545  33.767  1.00  0.00    -0.354 N 
ATOM     50  N   UNL A   1      39.358  30.595  32.118  1.00  0.00    -0.248 NA
ATOM     51  C   UNL A   1      37.363  31.790  31.903  1.00  0.00     0.031 C 
ATOM     52  C   UNL A   1      41.641  30.194  35.889  1.00  0.00     0.029 A 
ATOM     53  C   UNL A   1      40.883  30.311  34.736  1.00  0.00     0.049 A 
ATOM     54  H   UNL A   1      41.191  29.438  32.841  1.00  0.00     0.167 HD
ATOM     55  C   UNL A   1      39.023  31.156  33.344  1.00  0.00     0.074 A 
ATOM     56  C   UNL A   1      37.800  31.903  33.148  1.00  0.00     0.031 C 
ATOM     57  C   UNL A   1      39.671  31.054  34.530  1.00  0.00     0.031 A 
BRANCH  44  58
ATOM     58  C   UNL A   1      44.677  27.480  34.315  1.00  0.00    -0.014 A 
ATOM     59  C   UNL A   1      45.969  28.018  34.227  1.00  0.00     0.009 A 
ATOM     60  C   UNL A   1      44.443  26.402  35.184  1.00  0.00     0.009 A 
ATOM     61  C   UNL A   1      47.008  27.477  34.990  1.00  0.00     0.001 A 
ATOM     62  C   UNL A   1      45.479  25.877  35.958  1.00  0.00     0.001 A 
ATOM     63  C   UNL A   1      46.761  26.413  35.857  1.00  0.00     0.000 A 
ENDBRANCH  44  58
BRANCH  45  64
ATOM     64  C   UNL A   1      37.063  31.129  29.086  1.00  0.00    -0.014 A 
ATOM     65  C   UNL A   1      36.052  30.237  28.698  1.00  0.00     0.009 A 
ATOM     66  C   UNL A   1      36.944  32.485  28.740  1.00  0.00     0.009 A 
ATOM     67  C   UNL A   1      34.958  30.690  27.958  1.00  0.00     0.001 A 
ATOM     68  C   UNL A   1      35.834  32.940  28.028  1.00  0.00     0.001 A 
ATOM     69  C   UNL A   1      34.847  32.041  27.629  1.00  0.00     0.000 A 
ENDBRANCH  45  64
BRANCH  57  70
ATOM     70  C   UNL A   1      39.089  31.798  35.696  1.00  0.00    -0.014 A 
ATOM     71  C   UNL A   1      38.237  31.162  36.611  1.00  0.00     0.009 A 
ATOM     72  C   UNL A   1      39.424  33.146  35.897  1.00  0.00     0.009 A 
ATOM     73  C   UNL A   1      37.708  31.871  37.691  1.00  0.00     0.001 A 
ATOM     74  C   UNL A   1      38.911  33.846  36.990  1.00  0.00     0.001 A 
ATOM     75  C   UNL A   1      38.048  33.211  37.881  1.00  0.00     0.000 A 
ENDBRANCH  57  70
ENDBRANCH  31  32
ENDBRANCH  24  26
ENDBRANCH  23  24
ENDBRANCH  22  23
ENDBRANCH  21  22
ENDBRANCH  20  21
ENDBRANCH  19  20
ENDBRANCH   1  19
TORSDOF 21
ENDMDL
