MODEL 1
REMARK VINA RESULT:     -10.5      0.000      0.000
REMARK SMILES CCCc1nc2cc(C(=O)OCCOCCOCCOC(=O)c3ccc(-c4c5nc(c(-c6ccccc6)c6ccc([nH]6)c(-c6ccccc6)c6nc(c(-c7ccccc7)c7ccc4[nH]7)C=C6)C=C5)cc3)ccc2n1[C@H](CO)C(C)C
REMARK SMILES IDX 15 1 14 2 13 3 12 4 11 5 9 6 10 7 8 8 4 9 5 10 74 11 6 12
REMARK SMILES IDX 73 13 7 14 72 15 71 16 3 17 2 18 1 19 75 20 78 21 79 22
REMARK SMILES IDX 80 23 76 24 77 25 16 27 17 28 18 29 19 30 20 31 21 32 22 33
REMARK SMILES IDX 23 34 24 35 70 36 25 37 69 38 26 39 27 40 28 41 63 42 29 43
REMARK SMILES IDX 68 44 62 45 64 46 30 47 67 48 61 49 60 50 31 52 53 53 38 54
REMARK SMILES IDX 52 55 39 56 42 57 51 58 65 59 40 60 41 61 50 63 66 64 43 65
REMARK SMILES IDX 32 66 33 67 37 68 34 69 36 70 35 71 54 72 55 73 59 74 56 75
REMARK SMILES IDX 58 76 57 77 44 78 45 79 49 80 46 81 48 82 47 83
REMARK H PARENT 77 26 64 51 42 62
REMARK Flexibility Score: inf
ROOT
ATOM      1  C   UNL A   1      33.110  28.796  23.564  1.00  0.00     0.188 C 
ENDROOT
BRANCH   1   2
ATOM      2  O   UNL A   1      32.330  28.932  22.395  1.00  0.00    -0.376 OA
BRANCH   2   3
ATOM      3  C   UNL A   1      30.994  29.372  22.557  1.00  0.00     0.202 C 
BRANCH   3   4
ATOM      4  C   UNL A   1      29.903  28.302  22.725  1.00  0.00     0.261 C 
BRANCH   4   5
ATOM      5  O   UNL A   1      29.778  27.818  24.090  1.00  0.00    -0.460 OA
BRANCH   5   6
ATOM      6  C   UNL A   1      29.608  26.479  24.219  1.00  0.00     0.338 C 
ATOM      7  O   UNL A   1      28.523  25.942  24.396  1.00  0.00    -0.246 OA
BRANCH   6   8
ATOM      8  C   UNL A   1      30.861  25.651  24.061  1.00  0.00     0.062 A 
ATOM      9  C   UNL A   1      32.767  21.482  24.276  1.00  0.00     0.110 A 
ATOM     10  N   UNL A   1      31.751  22.009  23.622  1.00  0.00    -0.233 NA
ATOM     11  N   UNL A   1      33.507  22.515  24.843  1.00  0.00    -0.322 N 
ATOM     12  C   UNL A   1      31.752  23.372  23.853  1.00  0.00     0.090 A 
ATOM     13  C   UNL A   1      32.820  23.714  24.660  1.00  0.00     0.069 A 
ATOM     14  C   UNL A   1      30.825  24.378  23.467  1.00  0.00     0.046 A 
ATOM     15  C   UNL A   1      32.996  25.040  25.101  1.00  0.00     0.029 A 
ATOM     16  C   UNL A   1      31.966  25.976  24.841  1.00  0.00     0.018 A 
BRANCH   9  17
ATOM     17  C   UNL A   1      33.172  20.021  24.204  1.00  0.00     0.075 C 
BRANCH  17  18
ATOM     18  C   UNL A   1      32.912  19.125  25.428  1.00  0.00     0.005 C 
ATOM     19  C   UNL A   1      32.680  17.667  25.109  1.00  0.00     0.004 C 
ENDBRANCH  17  18
ENDBRANCH   9  17
BRANCH  11  20
ATOM     20  C   UNL A   1      34.849  22.414  25.413  1.00  0.00     0.117 C 
BRANCH  20  21
ATOM     21  C   UNL A   1      35.937  23.286  24.724  1.00  0.00     0.008 C 
ATOM     22  C   UNL A   1      37.006  23.706  25.740  1.00  0.00     0.009 C 
ATOM     23  C   UNL A   1      36.646  22.525  23.620  1.00  0.00     0.009 C 
ENDBRANCH  20  21
BRANCH  20  24
ATOM     24  C   UNL A   1      34.781  22.651  26.935  1.00  0.00     0.181 C 
BRANCH  24  25
ATOM     25  O   UNL A   1      34.534  21.426  27.620  1.00  0.00    -0.394 OA
ATOM     26  H   UNL A   1      34.693  21.549  28.569  1.00  0.00     0.210 HD
ENDBRANCH  24  25
ENDBRANCH  20  24
ENDBRANCH  11  20
ENDBRANCH   6   8
ENDBRANCH   5   6
ENDBRANCH   4   5
ENDBRANCH   3   4
ENDBRANCH   2   3
ENDBRANCH   1   2
BRANCH   1  27
ATOM     27  C   UNL A   1      32.797  29.650  24.815  1.00  0.00     0.188 C 
BRANCH  27  28
ATOM     28  O   UNL A   1      33.504  29.405  26.013  1.00  0.00    -0.376 OA
BRANCH  28  29
ATOM     29  C   UNL A   1      33.065  30.112  27.167  1.00  0.00     0.202 C 
BRANCH  29  30
ATOM     30  C   UNL A   1      33.801  31.418  27.530  1.00  0.00     0.261 C 
BRANCH  30  31
ATOM     31  O   UNL A   1      35.233  31.308  27.358  1.00  0.00    -0.460 OA
BRANCH  31  32
ATOM     32  C   UNL A   1      36.011  31.988  28.247  1.00  0.00     0.338 C 
ATOM     33  O   UNL A   1      35.754  33.070  28.754  1.00  0.00    -0.246 OA
BRANCH  32  34
ATOM     34  C   UNL A   1      36.994  31.022  28.816  1.00  0.00     0.060 A 
ATOM     35  C   UNL A   1      38.192  31.387  29.449  1.00  0.00     0.016 A 
ATOM     36  C   UNL A   1      36.814  29.700  28.425  1.00  0.00     0.016 A 
ATOM     37  C   UNL A   1      39.266  30.463  29.540  1.00  0.00     0.010 A 
ATOM     38  C   UNL A   1      37.886  28.814  28.503  1.00  0.00     0.010 A 
ATOM     39  C   UNL A   1      39.161  29.181  28.983  1.00  0.00    -0.014 A 
BRANCH  39  40
ATOM     40  C   UNL A   1      40.187  28.105  29.216  1.00  0.00     0.031 A 
ATOM     41  C   UNL A   1      40.552  28.083  30.656  1.00  0.00     0.074 A 
ATOM     42  C   UNL A   1      40.728  27.155  28.383  1.00  0.00     0.049 A 
ATOM     43  N   UNL A   1      41.753  28.241  31.101  1.00  0.00    -0.248 NA
ATOM     44  C   UNL A   1      39.528  28.079  31.715  1.00  0.00     0.031 C 
ATOM     45  C   UNL A   1      40.580  27.036  26.933  1.00  0.00     0.029 A 
ATOM     46  N   UNL A   1      41.441  25.984  28.650  1.00  0.00    -0.354 N 
ATOM     47  C   UNL A   1      41.670  28.130  32.480  1.00  0.00     0.074 A 
ATOM     48  C   UNL A   1      40.276  28.233  32.808  1.00  0.00     0.031 C 
ATOM     49  C   UNL A   1      40.844  25.769  26.521  1.00  0.00     0.029 A 
ATOM     50  C   UNL A   1      41.387  25.008  27.625  1.00  0.00     0.049 A 
ATOM     51  H   UNL A   1      41.944  25.849  29.486  1.00  0.00     0.167 HD
ATOM     52  C   UNL A   1      42.745  27.678  33.178  1.00  0.00     0.031 A 
ATOM     53  C   UNL A   1      41.841  23.714  27.602  1.00  0.00     0.031 A 
ATOM     54  C   UNL A   1      43.940  27.732  32.365  1.00  0.00     0.049 A 
ATOM     55  C   UNL A   1      43.052  23.748  28.446  1.00  0.00     0.074 A 
ATOM     56  C   UNL A   1      44.774  28.743  31.942  1.00  0.00     0.029 A 
ATOM     57  N   UNL A   1      44.154  26.651  31.542  1.00  0.00    -0.354 N 
ATOM     58  N   UNL A   1      44.130  24.372  28.068  1.00  0.00    -0.248 NA
ATOM     59  C   UNL A   1      43.040  23.309  29.837  1.00  0.00     0.031 C 
ATOM     60  C   UNL A   1      45.404  28.281  30.754  1.00  0.00     0.029 A 
ATOM     61  C   UNL A   1      44.986  26.979  30.496  1.00  0.00     0.049 A 
ATOM     62  H   UNL A   1      43.764  25.759  31.683  1.00  0.00     0.167 HD
ATOM     63  C   UNL A   1      44.614  24.881  29.249  1.00  0.00     0.074 A 
ATOM     64  C   UNL A   1      44.082  24.014  30.290  1.00  0.00     0.031 C 
ATOM     65  C   UNL A   1      45.074  26.159  29.307  1.00  0.00     0.031 A 
BRANCH  52  66
ATOM     66  C   UNL A   1      42.662  26.805  34.409  1.00  0.00    -0.014 A 
ATOM     67  C   UNL A   1      41.871  27.073  35.539  1.00  0.00     0.009 A 
ATOM     68  C   UNL A   1      43.221  25.515  34.336  1.00  0.00     0.009 A 
ATOM     69  C   UNL A   1      41.564  26.088  36.486  1.00  0.00     0.001 A 
ATOM     70  C   UNL A   1      42.915  24.524  35.276  1.00  0.00     0.001 A 
ATOM     71  C   UNL A   1      42.066  24.806  36.340  1.00  0.00     0.000 A 
ENDBRANCH  52  66
BRANCH  53  72
ATOM     72  C   UNL A   1      41.538  22.453  26.827  1.00  0.00    -0.014 A 
ATOM     73  C   UNL A   1      40.299  21.792  26.868  1.00  0.00     0.009 A 
ATOM     74  C   UNL A   1      42.611  21.708  26.271  1.00  0.00     0.009 A 
ATOM     75  C   UNL A   1      40.172  20.431  26.492  1.00  0.00     0.001 A 
ATOM     76  C   UNL A   1      42.495  20.350  25.919  1.00  0.00     0.001 A 
ATOM     77  C   UNL A   1      41.279  19.699  26.064  1.00  0.00     0.000 A 
ENDBRANCH  53  72
BRANCH  65  78
ATOM     78  C   UNL A   1      45.501  26.815  28.015  1.00  0.00    -0.014 A 
ATOM     79  C   UNL A   1      44.561  26.906  26.980  1.00  0.00     0.009 A 
ATOM     80  C   UNL A   1      46.811  27.250  27.755  1.00  0.00     0.009 A 
ATOM     81  C   UNL A   1      44.924  27.384  25.718  1.00  0.00     0.001 A 
ATOM     82  C   UNL A   1      47.171  27.756  26.501  1.00  0.00     0.001 A 
ATOM     83  C   UNL A   1      46.228  27.809  25.478  1.00  0.00     0.000 A 
ENDBRANCH  65  78
ENDBRANCH  39  40
ENDBRANCH  32  34
ENDBRANCH  31  32
ENDBRANCH  30  31
ENDBRANCH  29  30
ENDBRANCH  28  29
ENDBRANCH  27  28
ENDBRANCH   1  27
TORSDOF 23
ENDMDL
MODEL 2
REMARK VINA RESULT:      -9.5      3.219      8.686
REMARK SMILES CCCc1nc2cc(C(=O)OCCOCCOCCOC(=O)c3ccc(-c4c5nc(c(-c6ccccc6)c6ccc([nH]6)c(-c6ccccc6)c6nc(c(-c7ccccc7)c7ccc4[nH]7)C=C6)C=C5)cc3)ccc2n1[C@H](CO)C(C)C
REMARK SMILES IDX 15 1 14 2 13 3 12 4 11 5 9 6 10 7 8 8 4 9 5 10 74 11 6 12
REMARK SMILES IDX 73 13 7 14 72 15 71 16 3 17 2 18 1 19 75 20 78 21 79 22
REMARK SMILES IDX 80 23 76 24 77 25 16 27 17 28 18 29 19 30 20 31 21 32 22 33
REMARK SMILES IDX 23 34 24 35 70 36 25 37 69 38 26 39 27 40 28 41 63 42 29 43
REMARK SMILES IDX 68 44 62 45 64 46 30 47 67 48 61 49 60 50 31 52 53 53 38 54
REMARK SMILES IDX 52 55 39 56 42 57 51 58 65 59 40 60 41 61 50 63 66 64 43 65
REMARK SMILES IDX 32 66 33 67 37 68 34 69 36 70 35 71 54 72 55 73 59 74 56 75
REMARK SMILES IDX 58 76 57 77 44 78 45 79 49 80 46 81 48 82 47 83
REMARK H PARENT 77 26 64 51 42 62
REMARK Flexibility Score: inf
ROOT
ATOM      1  C   UNL A   1      42.726  19.912  26.366  1.00  0.00     0.188 C 
ENDROOT
BRANCH   1   2
ATOM      2  O   UNL A   1      42.364  21.009  25.553  1.00  0.00    -0.376 OA
BRANCH   2   3
ATOM      3  C   UNL A   1      41.448  21.942  26.098  1.00  0.00     0.202 C 
BRANCH   3   4
ATOM      4  C   UNL A   1      40.084  21.413  26.573  1.00  0.00     0.261 C 
BRANCH   4   5
ATOM      5  O   UNL A   1      38.989  21.772  25.686  1.00  0.00    -0.460 OA
BRANCH   5   6
ATOM      6  C   UNL A   1      38.266  22.855  26.065  1.00  0.00     0.338 C 
ATOM      7  O   UNL A   1      38.717  23.780  26.726  1.00  0.00    -0.246 OA
BRANCH   6   8
ATOM      8  C   UNL A   1      36.846  22.893  25.555  1.00  0.00     0.062 A 
ATOM      9  C   UNL A   1      33.617  25.293  23.345  1.00  0.00     0.110 A 
ATOM     10  N   UNL A   1      34.840  24.892  23.058  1.00  0.00    -0.233 NA
ATOM     11  N   UNL A   1      33.198  24.633  24.495  1.00  0.00    -0.322 N 
ATOM     12  C   UNL A   1      35.271  24.064  24.078  1.00  0.00     0.090 A 
ATOM     13  C   UNL A   1      34.273  23.920  25.024  1.00  0.00     0.069 A 
ATOM     14  C   UNL A   1      36.534  23.452  24.303  1.00  0.00     0.046 A 
ATOM     15  C   UNL A   1      34.498  23.181  26.201  1.00  0.00     0.029 A 
ATOM     16  C   UNL A   1      35.812  22.733  26.472  1.00  0.00     0.018 A 
BRANCH   9  17
ATOM     17  C   UNL A   1      32.752  26.141  22.430  1.00  0.00     0.075 C 
BRANCH  17  18
ATOM     18  C   UNL A   1      33.365  27.405  21.802  1.00  0.00     0.005 C 
ATOM     19  C   UNL A   1      33.741  28.484  22.789  1.00  0.00     0.004 C 
ENDBRANCH  17  18
ENDBRANCH   9  17
BRANCH  11  20
ATOM     20  C   UNL A   1      31.832  24.562  25.011  1.00  0.00     0.117 C 
BRANCH  20  21
ATOM     21  C   UNL A   1      31.032  23.289  24.616  1.00  0.00     0.008 C 
ATOM     22  C   UNL A   1      31.566  22.709  23.302  1.00  0.00     0.009 C 
ATOM     23  C   UNL A   1      31.157  22.201  25.667  1.00  0.00     0.009 C 
ENDBRANCH  20  21
BRANCH  20  24
ATOM     24  C   UNL A   1      31.843  24.802  26.534  1.00  0.00     0.181 C 
BRANCH  24  25
ATOM     25  O   UNL A   1      31.049  25.938  26.865  1.00  0.00    -0.394 OA
ATOM     26  H   UNL A   1      30.937  25.984  27.828  1.00  0.00     0.210 HD
ENDBRANCH  24  25
ENDBRANCH  20  24
ENDBRANCH  11  20
ENDBRANCH   6   8
ENDBRANCH   5   6
ENDBRANCH   4   5
ENDBRANCH   3   4
ENDBRANCH   2   3
ENDBRANCH   1   2
BRANCH   1  27
ATOM     27  C   UNL A   1      43.057  18.544  25.726  1.00  0.00     0.188 C 
BRANCH  27  28
ATOM     28  O   UNL A   1      44.168  18.435  24.861  1.00  0.00    -0.376 OA
BRANCH  28  29
ATOM     29  C   UNL A   1      45.348  19.129  25.251  1.00  0.00     0.202 C 
BRANCH  29  30
ATOM     30  C   UNL A   1      45.874  20.231  24.310  1.00  0.00     0.261 C 
BRANCH  30  31
ATOM     31  O   UNL A   1      46.467  21.336  25.032  1.00  0.00    -0.460 OA
BRANCH  31  32
ATOM     32  C   UNL A   1      45.983  22.579  24.757  1.00  0.00     0.338 C 
ATOM     33  O   UNL A   1      45.515  22.955  23.693  1.00  0.00    -0.246 OA
BRANCH  32  34
ATOM     34  C   UNL A   1      45.725  23.259  26.059  1.00  0.00     0.060 A 
ATOM     35  C   UNL A   1      45.235  22.617  27.206  1.00  0.00     0.016 A 
ATOM     36  C   UNL A   1      45.709  24.647  26.005  1.00  0.00     0.016 A 
ATOM     37  C   UNL A   1      44.585  23.364  28.224  1.00  0.00     0.010 A 
ATOM     38  C   UNL A   1      45.049  25.361  27.003  1.00  0.00     0.010 A 
ATOM     39  C   UNL A   1      44.400  24.748  28.094  1.00  0.00    -0.014 A 
BRANCH  39  40
ATOM     40  C   UNL A   1      43.894  25.611  29.218  1.00  0.00     0.031 A 
ATOM     41  C   UNL A   1      42.638  26.280  28.792  1.00  0.00     0.074 A 
ATOM     42  C   UNL A   1      44.332  25.789  30.509  1.00  0.00     0.049 A 
ATOM     43  N   UNL A   1      42.470  27.560  28.772  1.00  0.00    -0.248 NA
ATOM     44  C   UNL A   1      41.538  25.532  28.159  1.00  0.00     0.031 C 
ATOM     45  C   UNL A   1      45.569  25.303  31.118  1.00  0.00     0.029 A 
ATOM     46  N   UNL A   1      43.712  26.343  31.631  1.00  0.00    -0.354 N 
ATOM     47  C   UNL A   1      41.170  27.770  28.341  1.00  0.00     0.074 A 
ATOM     48  C   UNL A   1      40.721  26.521  27.793  1.00  0.00     0.031 C 
ATOM     49  C   UNL A   1      45.459  25.258  32.471  1.00  0.00     0.029 A 
ATOM     50  C   UNL A   1      44.228  25.903  32.875  1.00  0.00     0.049 A 
ATOM     51  H   UNL A   1      42.973  26.991  31.563  1.00  0.00     0.167 HD
ATOM     52  C   UNL A   1      40.507  28.885  28.744  1.00  0.00     0.031 A 
ATOM     53  C   UNL A   1      43.783  26.122  34.152  1.00  0.00     0.031 A 
ATOM     54  C   UNL A   1      41.430  29.860  29.282  1.00  0.00     0.049 A 
ATOM     55  C   UNL A   1      43.206  27.480  34.099  1.00  0.00     0.074 A 
ATOM     56  C   UNL A   1      42.342  30.733  28.730  1.00  0.00     0.029 A 
ATOM     57  N   UNL A   1      41.758  29.706  30.608  1.00  0.00    -0.354 N 
ATOM     58  N   UNL A   1      43.953  28.533  33.936  1.00  0.00    -0.248 NA
ATOM     59  C   UNL A   1      41.771  27.708  33.974  1.00  0.00     0.031 C 
ATOM     60  C   UNL A   1      43.312  30.997  29.736  1.00  0.00     0.029 A 
ATOM     61  C   UNL A   1      42.952  30.325  30.900  1.00  0.00     0.049 A 
ATOM     62  H   UNL A   1      41.211  29.217  31.263  1.00  0.00     0.167 HD
ATOM     63  C   UNL A   1      43.165  29.346  33.157  1.00  0.00     0.074 A 
ATOM     64  C   UNL A   1      41.797  28.926  33.422  1.00  0.00     0.031 C 
ATOM     65  C   UNL A   1      43.701  30.009  32.099  1.00  0.00     0.031 A 
BRANCH  52  66
ATOM     66  C   UNL A   1      39.027  28.939  29.052  1.00  0.00    -0.014 A 
ATOM     67  C   UNL A   1      38.460  28.772  30.326  1.00  0.00     0.009 A 
ATOM     68  C   UNL A   1      38.168  29.424  28.049  1.00  0.00     0.009 A 
ATOM     69  C   UNL A   1      37.148  29.165  30.616  1.00  0.00     0.001 A 
ATOM     70  C   UNL A   1      36.856  29.823  28.331  1.00  0.00     0.001 A 
ATOM     71  C   UNL A   1      36.354  29.715  29.622  1.00  0.00     0.000 A 
ENDBRANCH  52  66
BRANCH  53  72
ATOM     72  C   UNL A   1      43.922  25.452  35.499  1.00  0.00    -0.014 A 
ATOM     73  C   UNL A   1      43.483  26.026  36.704  1.00  0.00     0.009 A 
ATOM     74  C   UNL A   1      44.799  24.344  35.633  1.00  0.00     0.009 A 
ATOM     75  C   UNL A   1      43.987  25.596  37.958  1.00  0.00     0.001 A 
ATOM     76  C   UNL A   1      45.321  23.930  36.873  1.00  0.00     0.001 A 
ATOM     77  C   UNL A   1      44.941  24.582  38.037  1.00  0.00     0.000 A 
ENDBRANCH  53  72
BRANCH  65  78
ATOM     78  C   UNL A   1      45.194  30.238  32.090  1.00  0.00    -0.014 A 
ATOM     79  C   UNL A   1      46.008  29.255  31.510  1.00  0.00     0.009 A 
ATOM     80  C   UNL A   1      45.822  31.328  32.716  1.00  0.00     0.009 A 
ATOM     81  C   UNL A   1      47.400  29.341  31.580  1.00  0.00     0.001 A 
ATOM     82  C   UNL A   1      47.217  31.431  32.764  1.00  0.00     0.001 A 
ATOM     83  C   UNL A   1      48.006  30.428  32.207  1.00  0.00     0.000 A 
ENDBRANCH  65  78
ENDBRANCH  39  40
ENDBRANCH  32  34
ENDBRANCH  31  32
ENDBRANCH  30  31
ENDBRANCH  29  30
ENDBRANCH  28  29
ENDBRANCH  27  28
ENDBRANCH   1  27
TORSDOF 23
ENDMDL
MODEL 3
REMARK VINA RESULT:      -9.3      3.837      9.231
REMARK SMILES CCCc1nc2cc(C(=O)OCCOCCOCCOC(=O)c3ccc(-c4c5nc(c(-c6ccccc6)c6ccc([nH]6)c(-c6ccccc6)c6nc(c(-c7ccccc7)c7ccc4[nH]7)C=C6)C=C5)cc3)ccc2n1[C@H](CO)C(C)C
REMARK SMILES IDX 15 1 14 2 13 3 12 4 11 5 9 6 10 7 8 8 4 9 5 10 74 11 6 12
REMARK SMILES IDX 73 13 7 14 72 15 71 16 3 17 2 18 1 19 75 20 78 21 79 22
REMARK SMILES IDX 80 23 76 24 77 25 16 27 17 28 18 29 19 30 20 31 21 32 22 33
REMARK SMILES IDX 23 34 24 35 70 36 25 37 69 38 26 39 27 40 28 41 63 42 29 43
REMARK SMILES IDX 68 44 62 45 64 46 30 47 67 48 61 49 60 50 31 52 53 53 38 54
REMARK SMILES IDX 52 55 39 56 42 57 51 58 65 59 40 60 41 61 50 63 66 64 43 65
REMARK SMILES IDX 32 66 33 67 37 68 34 69 36 70 35 71 54 72 55 73 59 74 56 75
REMARK SMILES IDX 58 76 57 77 44 78 45 79 49 80 46 81 48 82 47 83
REMARK H PARENT 77 26 64 51 42 62
REMARK Flexibility Score: inf
ROOT
ATOM      1  C   UNL A   1      38.075  21.565  25.983  1.00  0.00     0.188 C 
ENDROOT
BRANCH   1   2
ATOM      2  O   UNL A   1      37.915  20.993  24.702  1.00  0.00    -0.376 OA
BRANCH   2   3
ATOM      3  C   UNL A   1      37.643  19.604  24.643  1.00  0.00     0.202 C 
BRANCH   3   4
ATOM      4  C   UNL A   1      36.170  19.162  24.642  1.00  0.00     0.261 C 
BRANCH   4   5
ATOM      5  O   UNL A   1      35.298  20.072  25.367  1.00  0.00    -0.460 OA
BRANCH   5   6
ATOM      6  C   UNL A   1      34.050  20.211  24.855  1.00  0.00     0.338 C 
ATOM      7  O   UNL A   1      33.168  19.371  24.965  1.00  0.00    -0.246 OA
BRANCH   6   8
ATOM      8  C   UNL A   1      33.775  21.532  24.176  1.00  0.00     0.062 A 
ATOM      9  C   UNL A   1      33.107  26.045  24.675  1.00  0.00     0.110 A 
ATOM     10  N   UNL A   1      34.063  25.202  25.014  1.00  0.00    -0.233 NA
ATOM     11  N   UNL A   1      32.244  25.401  23.796  1.00  0.00    -0.322 N 
ATOM     12  C   UNL A   1      33.767  23.972  24.455  1.00  0.00     0.090 A 
ATOM     13  C   UNL A   1      32.599  24.054  23.720  1.00  0.00     0.069 A 
ATOM     14  C   UNL A   1      34.413  22.713  24.592  1.00  0.00     0.046 A 
ATOM     15  C   UNL A   1      32.047  22.910  23.113  1.00  0.00     0.029 A 
ATOM     16  C   UNL A   1      32.619  21.650  23.411  1.00  0.00     0.018 A 
BRANCH   9  17
ATOM     17  C   UNL A   1      33.108  27.526  25.010  1.00  0.00     0.075 C 
BRANCH  17  18
ATOM     18  C   UNL A   1      32.442  27.984  26.319  1.00  0.00     0.005 C 
ATOM     19  C   UNL A   1      31.783  29.341  26.255  1.00  0.00     0.004 C 
ENDBRANCH  17  18
ENDBRANCH   9  17
BRANCH  11  20
ATOM     20  C   UNL A   1      31.218  26.027  22.964  1.00  0.00     0.117 C 
BRANCH  20  21
ATOM     21  C   UNL A   1      30.259  27.002  23.704  1.00  0.00     0.008 C 
ATOM     22  C   UNL A   1      30.035  28.267  22.867  1.00  0.00     0.009 C 
ATOM     23  C   UNL A   1      28.897  26.375  23.939  1.00  0.00     0.009 C 
ENDBRANCH  20  21
BRANCH  20  24
ATOM     24  C   UNL A   1      31.879  26.674  21.730  1.00  0.00     0.181 C 
BRANCH  24  25
ATOM     25  O   UNL A   1      31.429  26.042  20.535  1.00  0.00    -0.394 OA
ATOM     26  H   UNL A   1      30.742  25.392  20.753  1.00  0.00     0.210 HD
ENDBRANCH  24  25
ENDBRANCH  20  24
ENDBRANCH  11  20
ENDBRANCH   6   8
ENDBRANCH   5   6
ENDBRANCH   4   5
ENDBRANCH   3   4
ENDBRANCH   2   3
ENDBRANCH   1   2
BRANCH   1  27
ATOM     27  C   UNL A   1      38.408  23.068  26.129  1.00  0.00     0.188 C 
BRANCH  27  28
ATOM     28  O   UNL A   1      39.564  23.453  26.843  1.00  0.00    -0.376 OA
BRANCH  28  29
ATOM     29  C   UNL A   1      40.353  22.403  27.392  1.00  0.00     0.202 C 
BRANCH  29  30
ATOM     30  C   UNL A   1      41.841  22.695  27.668  1.00  0.00     0.261 C 
BRANCH  30  31
ATOM     31  O   UNL A   1      42.031  23.554  28.817  1.00  0.00    -0.460 OA
BRANCH  31  32
ATOM     32  C   UNL A   1      43.248  24.154  28.939  1.00  0.00     0.338 C 
ATOM     33  O   UNL A   1      44.329  23.667  28.643  1.00  0.00    -0.246 OA
BRANCH  32  34
ATOM     34  C   UNL A   1      43.014  25.619  29.082  1.00  0.00     0.060 A 
ATOM     35  C   UNL A   1      43.533  26.410  30.118  1.00  0.00     0.016 A 
ATOM     36  C   UNL A   1      41.994  26.133  28.290  1.00  0.00     0.016 A 
ATOM     37  C   UNL A   1      42.918  27.644  30.458  1.00  0.00     0.010 A 
ATOM     38  C   UNL A   1      41.389  27.335  28.651  1.00  0.00     0.010 A 
ATOM     39  C   UNL A   1      41.771  28.085  29.782  1.00  0.00    -0.014 A 
BRANCH  39  40
ATOM     40  C   UNL A   1      41.195  29.463  29.970  1.00  0.00     0.031 A 
ATOM     41  C   UNL A   1      42.234  30.474  29.647  1.00  0.00     0.074 A 
ATOM     42  C   UNL A   1      39.928  29.894  30.281  1.00  0.00     0.049 A 
ATOM     43  N   UNL A   1      42.644  31.380  30.470  1.00  0.00    -0.248 NA
ATOM     44  C   UNL A   1      43.034  30.395  28.413  1.00  0.00     0.031 C 
ATOM     45  C   UNL A   1      38.781  29.094  30.709  1.00  0.00     0.029 A 
ATOM     46  N   UNL A   1      39.320  31.146  30.166  1.00  0.00    -0.354 N 
ATOM     47  C   UNL A   1      43.587  32.126  29.783  1.00  0.00     0.074 A 
ATOM     48  C   UNL A   1      43.929  31.364  28.615  1.00  0.00     0.031 C 
ATOM     49  C   UNL A   1      37.616  29.755  30.480  1.00  0.00     0.029 A 
ATOM     50  C   UNL A   1      37.906  31.116  30.082  1.00  0.00     0.049 A 
ATOM     51  H   UNL A   1      39.834  31.986  30.146  1.00  0.00     0.167 HD
ATOM     52  C   UNL A   1      43.774  33.431  30.113  1.00  0.00     0.031 A 
ATOM     53  C   UNL A   1      37.006  32.118  29.828  1.00  0.00     0.031 A 
ATOM     54  C   UNL A   1      43.186  33.719  31.402  1.00  0.00     0.049 A 
ATOM     55  C   UNL A   1      37.625  33.313  30.434  1.00  0.00     0.074 A 
ATOM     56  C   UNL A   1      43.538  33.450  32.706  1.00  0.00     0.029 A 
ATOM     57  N   UNL A   1      41.845  34.025  31.393  1.00  0.00    -0.354 N 
ATOM     58  N   UNL A   1      37.745  33.440  31.724  1.00  0.00    -0.248 NA
ATOM     59  C   UNL A   1      38.356  34.295  29.641  1.00  0.00     0.031 C 
ATOM     60  C   UNL A   1      42.337  33.474  33.465  1.00  0.00     0.029 A 
ATOM     61  C   UNL A   1      41.277  33.806  32.628  1.00  0.00     0.049 A 
ATOM     62  H   UNL A   1      41.356  34.356  30.607  1.00  0.00     0.167 HD
ATOM     63  C   UNL A   1      38.949  34.089  31.854  1.00  0.00     0.074 A 
ATOM     64  C   UNL A   1      39.144  34.797  30.598  1.00  0.00     0.031 C 
ATOM     65  C   UNL A   1      39.844  33.689  32.796  1.00  0.00     0.031 A 
BRANCH  52  66
ATOM     66  C   UNL A   1      44.096  34.528  29.123  1.00  0.00    -0.014 A 
ATOM     67  C   UNL A   1      45.389  34.901  28.721  1.00  0.00     0.009 A 
ATOM     68  C   UNL A   1      43.034  35.057  28.366  1.00  0.00     0.009 A 
ATOM     69  C   UNL A   1      45.621  35.665  27.571  1.00  0.00     0.001 A 
ATOM     70  C   UNL A   1      43.258  35.819  27.213  1.00  0.00     0.001 A 
ATOM     71  C   UNL A   1      44.555  36.103  26.803  1.00  0.00     0.000 A 
ENDBRANCH  52  66
BRANCH  53  72
ATOM     72  C   UNL A   1      35.590  32.225  29.312  1.00  0.00    -0.014 A 
ATOM     73  C   UNL A   1      35.033  31.338  28.374  1.00  0.00     0.009 A 
ATOM     74  C   UNL A   1      34.865  33.427  29.522  1.00  0.00     0.009 A 
ATOM     75  C   UNL A   1      33.894  31.689  27.607  1.00  0.00     0.001 A 
ATOM     76  C   UNL A   1      33.748  33.790  28.746  1.00  0.00     0.001 A 
ATOM     77  C   UNL A   1      33.282  32.933  27.760  1.00  0.00     0.000 A 
ENDBRANCH  53  72
BRANCH  65  78
ATOM     78  C   UNL A   1      39.325  32.899  33.974  1.00  0.00    -0.014 A 
ATOM     79  C   UNL A   1      39.275  31.503  33.861  1.00  0.00     0.009 A 
ATOM     80  C   UNL A   1      38.798  33.485  35.138  1.00  0.00     0.009 A 
ATOM     81  C   UNL A   1      38.689  30.721  34.859  1.00  0.00     0.001 A 
ATOM     82  C   UNL A   1      38.236  32.702  36.153  1.00  0.00     0.001 A 
ATOM     83  C   UNL A   1      38.169  31.319  36.005  1.00  0.00     0.000 A 
ENDBRANCH  65  78
ENDBRANCH  39  40
ENDBRANCH  32  34
ENDBRANCH  31  32
ENDBRANCH  30  31
ENDBRANCH  29  30
ENDBRANCH  28  29
ENDBRANCH  27  28
ENDBRANCH   1  27
TORSDOF 23
ENDMDL
