MODEL 1
REMARK VINA RESULT:     -10.9      0.000      0.000
REMARK SMILES CC(C)(C)c1cc2c(cc1Cl)C=C(C(=O)OCCOCCOCCOC(=O)c1ccc(-c3c4nc(c(-c5ccccc5)c5ccc([nH]5)c(-c5ccccc5)c5nc(c(-c6ccccc6)c6ccc3[nH]6)C=C5)C=C4)cc1)[C@@H](C(F)(F)F)O2
REMARK SMILES IDX 21 1 20 2 19 3 18 4 17 5 16 6 14 7 15 8 13 9 5 10 6 11 10 12
REMARK SMILES IDX 7 13 9 14 11 15 8 16 81 17 12 18 76 19 2 20 1 21 3 22 4 23
REMARK SMILES IDX 77 24 78 25 79 26 80 27 22 28 23 29 24 30 25 31 26 32 27 33
REMARK SMILES IDX 28 34 29 35 75 36 30 37 74 38 31 39 32 40 33 41 68 42 34 43
REMARK SMILES IDX 73 44 67 45 69 46 35 47 72 48 66 49 65 50 36 52 58 53 43 54
REMARK SMILES IDX 57 55 44 56 47 57 56 58 70 59 45 60 46 61 55 63 71 64 48 65
REMARK SMILES IDX 37 66 38 67 42 68 39 69 41 70 40 71 59 72 60 73 64 74 61 75
REMARK SMILES IDX 63 76 62 77 49 78 50 79 54 80 51 81 53 82 52 83
REMARK H PARENT 69 51 47 62
REMARK Flexibility Score: inf
ROOT
ATOM      1  C   UNL A   1      39.783  21.252  26.259  1.00  0.00     0.188 C 
ENDROOT
BRANCH   1   2
ATOM      2  C   UNL A   1      38.515  21.064  25.399  1.00  0.00     0.188 C 
BRANCH   2   3
ATOM      3  O   UNL A   1      37.334  21.748  25.746  1.00  0.00    -0.376 OA
BRANCH   3   4
ATOM      4  C   UNL A   1      36.929  22.922  25.064  1.00  0.00     0.202 C 
BRANCH   4   5
ATOM      5  C   UNL A   1      35.973  23.987  25.627  1.00  0.00     0.261 C 
BRANCH   5   6
ATOM      6  O   UNL A   1      34.846  24.330  24.818  1.00  0.00    -0.460 OA
BRANCH   6   7
ATOM      7  C   UNL A   1      33.688  24.509  25.499  1.00  0.00     0.338 C 
ATOM      8  O   UNL A   1      33.428  24.106  26.621  1.00  0.00    -0.246 OA
BRANCH   7   9
ATOM      9  C   UNL A   1      32.811  25.429  24.751  1.00  0.00     0.087 C 
ATOM     10  C   UNL A   1      29.819  29.308  23.496  1.00  0.00    -0.020 A 
ATOM     11  C   UNL A   1      30.063  27.999  22.991  1.00  0.00     0.053 A 
ATOM     12  C   UNL A   1      30.727  29.767  24.471  1.00  0.00     0.045 A 
ATOM     13  C   UNL A   1      31.054  27.158  23.507  1.00  0.00     0.128 A 
ATOM     14  C   UNL A   1      31.723  28.918  24.988  1.00  0.00     0.032 A 
ATOM     15  Cl  UNL A   1      30.762  31.357  25.147  1.00  0.00    -0.084 Cl
ATOM     16  C   UNL A   1      31.857  27.604  24.543  1.00  0.00     0.019 A 
ATOM     17  O   UNL A   1      31.141  25.911  22.958  1.00  0.00    -0.475 OA
ATOM     18  C   UNL A   1      32.770  26.689  25.198  1.00  0.00     0.027 C 
ATOM     19  C   UNL A   1      32.033  24.931  23.562  1.00  0.00     0.316 C 
BRANCH  10  20
ATOM     20  C   UNL A   1      28.561  30.038  22.957  1.00  0.00    -0.012 C 
ATOM     21  C   UNL A   1      27.397  29.013  22.858  1.00  0.00     0.016 C 
ATOM     22  C   UNL A   1      28.852  30.605  21.549  1.00  0.00     0.016 C 
ATOM     23  C   UNL A   1      27.994  31.206  23.790  1.00  0.00     0.016 C 
ENDBRANCH  10  20
BRANCH  19  24
ATOM     24  C   UNL A   1      31.214  23.673  23.887  1.00  0.00     0.430 C 
ATOM     25  F   UNL A   1      32.013  22.590  24.036  1.00  0.00    -0.167 F 
ATOM     26  F   UNL A   1      30.524  23.809  25.044  1.00  0.00    -0.167 F 
ATOM     27  F   UNL A   1      30.319  23.388  22.914  1.00  0.00    -0.167 F 
ENDBRANCH  19  24
ENDBRANCH   7   9
ENDBRANCH   6   7
ENDBRANCH   5   6
ENDBRANCH   4   5
ENDBRANCH   3   4
ENDBRANCH   2   3
ENDBRANCH   1   2
BRANCH   1  28
ATOM     28  O   UNL A   1      40.813  20.285  26.250  1.00  0.00    -0.376 OA
BRANCH  28  29
ATOM     29  C   UNL A   1      42.132  20.661  26.616  1.00  0.00     0.202 C 
BRANCH  29  30
ATOM     30  C   UNL A   1      43.101  21.347  25.640  1.00  0.00     0.261 C 
BRANCH  30  31
ATOM     31  O   UNL A   1      42.642  22.577  25.066  1.00  0.00    -0.460 OA
BRANCH  31  32
ATOM     32  C   UNL A   1      43.507  23.624  25.161  1.00  0.00     0.338 C 
ATOM     33  O   UNL A   1      44.485  23.838  24.483  1.00  0.00    -0.246 OA
BRANCH  32  34
ATOM     34  C   UNL A   1      42.945  24.607  26.112  1.00  0.00     0.060 A 
ATOM     35  C   UNL A   1      41.874  24.267  26.937  1.00  0.00     0.016 A 
ATOM     36  C   UNL A   1      43.509  25.890  26.165  1.00  0.00     0.016 A 
ATOM     37  C   UNL A   1      41.378  25.214  27.836  1.00  0.00     0.010 A 
ATOM     38  C   UNL A   1      42.998  26.841  27.051  1.00  0.00     0.010 A 
ATOM     39  C   UNL A   1      41.942  26.502  27.907  1.00  0.00    -0.014 A 
BRANCH  39  40
ATOM     40  C   UNL A   1      41.541  27.419  29.002  1.00  0.00     0.031 A 
ATOM     41  C   UNL A   1      40.366  28.342  28.882  1.00  0.00     0.074 A 
ATOM     42  C   UNL A   1      42.268  27.398  30.136  1.00  0.00     0.049 A 
ATOM     43  N   UNL A   1      39.835  29.108  29.801  1.00  0.00    -0.248 NA
ATOM     44  C   UNL A   1      39.704  28.422  27.572  1.00  0.00     0.031 C 
ATOM     45  C   UNL A   1      43.447  26.558  30.354  1.00  0.00     0.029 A 
ATOM     46  N   UNL A   1      42.118  28.081  31.316  1.00  0.00    -0.354 N 
ATOM     47  C   UNL A   1      38.761  29.744  29.194  1.00  0.00     0.074 A 
ATOM     48  C   UNL A   1      38.744  29.310  27.812  1.00  0.00     0.031 C 
ATOM     49  C   UNL A   1      43.890  26.745  31.605  1.00  0.00     0.029 A 
ATOM     50  C   UNL A   1      43.049  27.739  32.268  1.00  0.00     0.049 A 
ATOM     51  H   UNL A   1      41.412  28.750  31.467  1.00  0.00     0.167 HD
ATOM     52  C   UNL A   1      37.865  30.594  29.752  1.00  0.00     0.031 A 
ATOM     53  C   UNL A   1      43.206  28.165  33.535  1.00  0.00     0.031 A 
ATOM     54  C   UNL A   1      37.905  31.034  31.124  1.00  0.00     0.049 A 
ATOM     55  C   UNL A   1      42.225  29.146  34.111  1.00  0.00     0.074 A 
ATOM     56  C   UNL A   1      37.007  31.858  31.784  1.00  0.00     0.029 A 
ATOM     57  N   UNL A   1      38.890  30.706  32.043  1.00  0.00    -0.354 N 
ATOM     58  N   UNL A   1      41.157  29.664  33.554  1.00  0.00    -0.248 NA
ATOM     59  C   UNL A   1      42.454  29.588  35.493  1.00  0.00     0.031 C 
ATOM     60  C   UNL A   1      37.490  32.092  33.071  1.00  0.00     0.029 A 
ATOM     61  C   UNL A   1      38.642  31.345  33.248  1.00  0.00     0.049 A 
ATOM     62  H   UNL A   1      39.652  30.109  31.865  1.00  0.00     0.167 HD
ATOM     63  C   UNL A   1      40.576  30.471  34.523  1.00  0.00     0.074 A 
ATOM     64  C   UNL A   1      41.397  30.358  35.710  1.00  0.00     0.031 C 
ATOM     65  C   UNL A   1      39.460  31.234  34.430  1.00  0.00     0.031 A 
BRANCH  52  66
ATOM     66  C   UNL A   1      36.738  31.111  28.899  1.00  0.00    -0.014 A 
ATOM     67  C   UNL A   1      36.712  32.461  28.511  1.00  0.00     0.009 A 
ATOM     68  C   UNL A   1      35.622  30.306  28.619  1.00  0.00     0.009 A 
ATOM     69  C   UNL A   1      35.586  33.001  27.888  1.00  0.00     0.001 A 
ATOM     70  C   UNL A   1      34.508  30.841  27.969  1.00  0.00     0.001 A 
ATOM     71  C   UNL A   1      34.485  32.190  27.616  1.00  0.00     0.000 A 
ENDBRANCH  52  66
BRANCH  53  72
ATOM     72  C   UNL A   1      44.322  27.617  34.353  1.00  0.00    -0.014 A 
ATOM     73  C   UNL A   1      44.133  26.470  35.140  1.00  0.00     0.009 A 
ATOM     74  C   UNL A   1      45.564  28.267  34.392  1.00  0.00     0.009 A 
ATOM     75  C   UNL A   1      45.154  26.000  35.970  1.00  0.00     0.001 A 
ATOM     76  C   UNL A   1      46.596  27.775  35.195  1.00  0.00     0.001 A 
ATOM     77  C   UNL A   1      46.386  26.650  35.992  1.00  0.00     0.000 A 
ENDBRANCH  53  72
BRANCH  65  78
ATOM     78  C   UNL A   1      39.031  32.016  35.643  1.00  0.00    -0.014 A 
ATOM     79  C   UNL A   1      38.302  31.379  36.661  1.00  0.00     0.009 A 
ATOM     80  C   UNL A   1      39.241  33.401  35.727  1.00  0.00     0.009 A 
ATOM     81  C   UNL A   1      37.771  32.113  37.724  1.00  0.00     0.001 A 
ATOM     82  C   UNL A   1      38.738  34.127  36.810  1.00  0.00     0.001 A 
ATOM     83  C   UNL A   1      37.994  33.486  37.800  1.00  0.00     0.000 A 
ENDBRANCH  65  78
ENDBRANCH  39  40
ENDBRANCH  32  34
ENDBRANCH  31  32
ENDBRANCH  30  31
ENDBRANCH  29  30
ENDBRANCH  28  29
ENDBRANCH   1  28
TORSDOF 19
ENDMDL
MODEL 2
REMARK VINA RESULT:     -10.9      6.397     12.291
REMARK SMILES CC(C)(C)c1cc2c(cc1Cl)C=C(C(=O)OCCOCCOCCOC(=O)c1ccc(-c3c4nc(c(-c5ccccc5)c5ccc([nH]5)c(-c5ccccc5)c5nc(c(-c6ccccc6)c6ccc3[nH]6)C=C5)C=C4)cc1)[C@@H](C(F)(F)F)O2
REMARK SMILES IDX 21 1 20 2 19 3 18 4 17 5 16 6 14 7 15 8 13 9 5 10 6 11 10 12
REMARK SMILES IDX 7 13 9 14 11 15 8 16 81 17 12 18 76 19 2 20 1 21 3 22 4 23
REMARK SMILES IDX 77 24 78 25 79 26 80 27 22 28 23 29 24 30 25 31 26 32 27 33
REMARK SMILES IDX 28 34 29 35 75 36 30 37 74 38 31 39 32 40 33 41 68 42 34 43
REMARK SMILES IDX 73 44 67 45 69 46 35 47 72 48 66 49 65 50 36 52 58 53 43 54
REMARK SMILES IDX 57 55 44 56 47 57 56 58 70 59 45 60 46 61 55 63 71 64 48 65
REMARK SMILES IDX 37 66 38 67 42 68 39 69 41 70 40 71 59 72 60 73 64 74 61 75
REMARK SMILES IDX 63 76 62 77 49 78 50 79 54 80 51 81 53 82 52 83
REMARK H PARENT 69 51 47 62
REMARK Flexibility Score: inf
ROOT
ATOM      1  C   UNL A   1      32.313  37.040  32.454  1.00  0.00     0.188 C 
ENDROOT
BRANCH   1   2
ATOM      2  C   UNL A   1      33.682  37.719  32.668  1.00  0.00     0.188 C 
BRANCH   2   3
ATOM      3  O   UNL A   1      34.753  36.973  33.198  1.00  0.00    -0.376 OA
BRANCH   3   4
ATOM      4  C   UNL A   1      34.846  35.572  33.009  1.00  0.00     0.202 C 
BRANCH   4   5
ATOM      5  C   UNL A   1      36.159  34.774  32.938  1.00  0.00     0.261 C 
BRANCH   5   6
ATOM      6  O   UNL A   1      37.029  34.867  34.068  1.00  0.00    -0.460 OA
BRANCH   6   7
ATOM      7  C   UNL A   1      36.868  33.891  34.994  1.00  0.00     0.338 C 
ATOM      8  O   UNL A   1      35.853  33.638  35.622  1.00  0.00    -0.246 OA
BRANCH   7   9
ATOM      9  C   UNL A   1      38.069  33.035  35.024  1.00  0.00     0.087 C 
ATOM     10  C   UNL A   1      41.221  29.107  34.564  1.00  0.00    -0.020 A 
ATOM     11  C   UNL A   1      41.197  30.318  35.312  1.00  0.00     0.053 A 
ATOM     12  C   UNL A   1      40.249  28.996  33.549  1.00  0.00     0.045 A 
ATOM     13  C   UNL A   1      40.206  31.291  35.154  1.00  0.00     0.128 A 
ATOM     14  C   UNL A   1      39.251  29.977  33.393  1.00  0.00     0.032 A 
ATOM     15  Cl  UNL A   1      40.136  27.713  32.398  1.00  0.00    -0.084 Cl
ATOM     16  C   UNL A   1      39.201  31.096  34.222  1.00  0.00     0.019 A 
ATOM     17  O   UNL A   1      40.283  32.379  35.975  1.00  0.00    -0.475 OA
ATOM     18  C   UNL A   1      38.077  32.010  34.165  1.00  0.00     0.027 C 
ATOM     19  C   UNL A   1      39.190  33.342  35.981  1.00  0.00     0.316 C 
BRANCH  10  20
ATOM     20  C   UNL A   1      42.266  28.045  34.992  1.00  0.00    -0.012 C 
ATOM     21  C   UNL A   1      41.676  27.213  36.164  1.00  0.00     0.016 C 
ATOM     22  C   UNL A   1      43.555  28.748  35.474  1.00  0.00     0.016 C 
ATOM     23  C   UNL A   1      42.703  27.001  33.943  1.00  0.00     0.016 C 
ENDBRANCH  10  20
BRANCH  19  24
ATOM     24  C   UNL A   1      38.696  33.498  37.426  1.00  0.00     0.430 C 
ATOM     25  F   UNL A   1      38.176  34.730  37.639  1.00  0.00    -0.167 F 
ATOM     26  F   UNL A   1      37.718  32.608  37.721  1.00  0.00    -0.167 F 
ATOM     27  F   UNL A   1      39.692  33.316  38.323  1.00  0.00    -0.167 F 
ENDBRANCH  19  24
ENDBRANCH   7   9
ENDBRANCH   6   7
ENDBRANCH   5   6
ENDBRANCH   4   5
ENDBRANCH   3   4
ENDBRANCH   2   3
ENDBRANCH   1   2
BRANCH   1  28
ATOM     28  O   UNL A   1      31.981  36.458  31.210  1.00  0.00    -0.376 OA
BRANCH  28  29
ATOM     29  C   UNL A   1      32.732  36.795  30.054  1.00  0.00     0.202 C 
BRANCH  29  30
ATOM     30  C   UNL A   1      33.104  35.765  28.976  1.00  0.00     0.261 C 
BRANCH  30  31
ATOM     31  O   UNL A   1      32.744  34.407  29.261  1.00  0.00    -0.460 OA
BRANCH  31  32
ATOM     32  C   UNL A   1      33.262  33.477  28.413  1.00  0.00     0.338 C 
ATOM     33  O   UNL A   1      32.793  33.084  27.370  1.00  0.00    -0.246 OA
BRANCH  32  34
ATOM     34  C   UNL A   1      34.634  33.151  28.862  1.00  0.00     0.060 A 
ATOM     35  C   UNL A   1      34.844  32.416  30.028  1.00  0.00     0.016 A 
ATOM     36  C   UNL A   1      35.718  33.600  28.094  1.00  0.00     0.016 A 
ATOM     37  C   UNL A   1      36.152  32.113  30.415  1.00  0.00     0.010 A 
ATOM     38  C   UNL A   1      37.024  33.311  28.494  1.00  0.00     0.010 A 
ATOM     39  C   UNL A   1      37.249  32.547  29.647  1.00  0.00    -0.014 A 
BRANCH  39  40
ATOM     40  C   UNL A   1      38.609  32.043  29.958  1.00  0.00     0.031 A 
ATOM     41  C   UNL A   1      39.563  32.803  30.829  1.00  0.00     0.074 A 
ATOM     42  C   UNL A   1      38.972  30.856  29.436  1.00  0.00     0.049 A 
ATOM     43  N   UNL A   1      40.733  32.425  31.277  1.00  0.00    -0.248 NA
ATOM     44  C   UNL A   1      39.162  34.153  31.250  1.00  0.00     0.031 C 
ATOM     45  C   UNL A   1      38.134  30.042  28.554  1.00  0.00     0.029 A 
ATOM     46  N   UNL A   1      40.122  30.122  29.579  1.00  0.00    -0.354 N 
ATOM     47  C   UNL A   1      41.202  33.476  32.053  1.00  0.00     0.074 A 
ATOM     48  C   UNL A   1      40.209  34.529  31.976  1.00  0.00     0.031 C 
ATOM     49  C   UNL A   1      38.781  28.903  28.267  1.00  0.00     0.029 A 
ATOM     50  C   UNL A   1      40.089  28.919  28.917  1.00  0.00     0.049 A 
ATOM     51  H   UNL A   1      40.896  30.427  30.107  1.00  0.00     0.167 HD
ATOM     52  C   UNL A   1      42.346  33.540  32.776  1.00  0.00     0.031 A 
ATOM     53  C   UNL A   1      41.000  27.930  28.844  1.00  0.00     0.031 A 
ATOM     54  C   UNL A   1      43.336  32.493  32.829  1.00  0.00     0.049 A 
ATOM     55  C   UNL A   1      42.283  28.051  29.618  1.00  0.00     0.074 A 
ATOM     56  C   UNL A   1      44.503  32.456  33.575  1.00  0.00     0.029 A 
ATOM     57  N   UNL A   1      43.291  31.311  32.105  1.00  0.00    -0.354 N 
ATOM     58  N   UNL A   1      42.669  29.010  30.425  1.00  0.00    -0.248 NA
ATOM     59  C   UNL A   1      43.247  26.950  29.490  1.00  0.00     0.031 C 
ATOM     60  C   UNL A   1      45.201  31.295  33.243  1.00  0.00     0.029 A 
ATOM     61  C   UNL A   1      44.430  30.561  32.357  1.00  0.00     0.049 A 
ATOM     62  H   UNL A   1      42.561  31.045  31.502  1.00  0.00     0.167 HD
ATOM     63  C   UNL A   1      43.905  28.616  30.918  1.00  0.00     0.074 A 
ATOM     64  C   UNL A   1      44.197  27.323  30.336  1.00  0.00     0.031 C 
ATOM     65  C   UNL A   1      44.722  29.274  31.777  1.00  0.00     0.031 A 
BRANCH  52  66
ATOM     66  C   UNL A   1      42.610  34.773  33.597  1.00  0.00    -0.014 A 
ATOM     67  C   UNL A   1      42.179  34.833  34.933  1.00  0.00     0.009 A 
ATOM     68  C   UNL A   1      43.136  35.932  33.004  1.00  0.00     0.009 A 
ATOM     69  C   UNL A   1      42.242  36.030  35.649  1.00  0.00     0.001 A 
ATOM     70  C   UNL A   1      43.225  37.121  33.731  1.00  0.00     0.001 A 
ATOM     71  C   UNL A   1      42.766  37.174  35.047  1.00  0.00     0.000 A 
ENDBRANCH  52  66
BRANCH  53  72
ATOM     72  C   UNL A   1      40.696  26.718  28.037  1.00  0.00    -0.014 A 
ATOM     73  C   UNL A   1      41.159  26.607  26.716  1.00  0.00     0.009 A 
ATOM     74  C   UNL A   1      39.900  25.691  28.563  1.00  0.00     0.009 A 
ATOM     75  C   UNL A   1      40.808  25.506  25.930  1.00  0.00     0.001 A 
ATOM     76  C   UNL A   1      39.580  24.574  27.787  1.00  0.00     0.001 A 
ATOM     77  C   UNL A   1      40.024  24.488  26.468  1.00  0.00     0.000 A 
ENDBRANCH  53  72
BRANCH  65  78
ATOM     78  C   UNL A   1      46.019  28.618  32.168  1.00  0.00    -0.014 A 
ATOM     79  C   UNL A   1      46.023  27.602  33.138  1.00  0.00     0.009 A 
ATOM     80  C   UNL A   1      47.247  29.080  31.669  1.00  0.00     0.009 A 
ATOM     81  C   UNL A   1      47.226  27.080  33.619  1.00  0.00     0.001 A 
ATOM     82  C   UNL A   1      48.448  28.532  32.126  1.00  0.00     0.001 A 
ATOM     83  C   UNL A   1      48.437  27.542  33.109  1.00  0.00     0.000 A 
ENDBRANCH  65  78
ENDBRANCH  39  40
ENDBRANCH  32  34
ENDBRANCH  31  32
ENDBRANCH  30  31
ENDBRANCH  29  30
ENDBRANCH  28  29
ENDBRANCH   1  28
TORSDOF 19
ENDMDL
MODEL 3
REMARK VINA RESULT:     -10.5      6.283     12.145
REMARK SMILES CC(C)(C)c1cc2c(cc1Cl)C=C(C(=O)OCCOCCOCCOC(=O)c1ccc(-c3c4nc(c(-c5ccccc5)c5ccc([nH]5)c(-c5ccccc5)c5nc(c(-c6ccccc6)c6ccc3[nH]6)C=C5)C=C4)cc1)[C@@H](C(F)(F)F)O2
REMARK SMILES IDX 21 1 20 2 19 3 18 4 17 5 16 6 14 7 15 8 13 9 5 10 6 11 10 12
REMARK SMILES IDX 7 13 9 14 11 15 8 16 81 17 12 18 76 19 2 20 1 21 3 22 4 23
REMARK SMILES IDX 77 24 78 25 79 26 80 27 22 28 23 29 24 30 25 31 26 32 27 33
REMARK SMILES IDX 28 34 29 35 75 36 30 37 74 38 31 39 32 40 33 41 68 42 34 43
REMARK SMILES IDX 73 44 67 45 69 46 35 47 72 48 66 49 65 50 36 52 58 53 43 54
REMARK SMILES IDX 57 55 44 56 47 57 56 58 70 59 45 60 46 61 55 63 71 64 48 65
REMARK SMILES IDX 37 66 38 67 42 68 39 69 41 70 40 71 59 72 60 73 64 74 61 75
REMARK SMILES IDX 63 76 62 77 49 78 50 79 54 80 51 81 53 82 52 83
REMARK H PARENT 69 51 47 62
REMARK Flexibility Score: inf
ROOT
ATOM      1  C   UNL A   1      32.485  35.950  31.649  1.00  0.00     0.188 C 
ENDROOT
BRANCH   1   2
ATOM      2  C   UNL A   1      33.665  36.843  32.087  1.00  0.00     0.188 C 
BRANCH   2   3
ATOM      3  O   UNL A   1      34.555  36.382  33.077  1.00  0.00    -0.376 OA
BRANCH   3   4
ATOM      4  C   UNL A   1      35.076  35.065  33.052  1.00  0.00     0.202 C 
BRANCH   4   5
ATOM      5  C   UNL A   1      36.558  34.696  33.227  1.00  0.00     0.261 C 
BRANCH   5   6
ATOM      6  O   UNL A   1      37.131  34.931  34.515  1.00  0.00    -0.460 OA
BRANCH   6   7
ATOM      7  C   UNL A   1      37.190  33.843  35.320  1.00  0.00     0.338 C 
ATOM      8  O   UNL A   1      36.352  33.486  36.132  1.00  0.00    -0.246 OA
BRANCH   7   9
ATOM      9  C   UNL A   1      38.360  33.022  34.957  1.00  0.00     0.087 C 
ATOM     10  C   UNL A   1      41.344  29.121  33.751  1.00  0.00    -0.020 A 
ATOM     11  C   UNL A   1      41.534  30.435  34.265  1.00  0.00     0.053 A 
ATOM     12  C   UNL A   1      40.051  28.835  33.268  1.00  0.00     0.045 A 
ATOM     13  C   UNL A   1      40.491  31.354  34.409  1.00  0.00     0.128 A 
ATOM     14  C   UNL A   1      39.002  29.763  33.415  1.00  0.00     0.032 A 
ATOM     15  Cl  UNL A   1      39.574  27.384  32.460  1.00  0.00    -0.084 Cl
ATOM     16  C   UNL A   1      39.210  30.998  34.026  1.00  0.00     0.019 A 
ATOM     17  O   UNL A   1      40.814  32.559  34.963  1.00  0.00    -0.475 OA
ATOM     18  C   UNL A   1      38.094  31.873  34.324  1.00  0.00     0.027 C 
ATOM     19  C   UNL A   1      39.748  33.494  35.299  1.00  0.00     0.316 C 
BRANCH  10  20
ATOM     20  C   UNL A   1      42.555  28.156  33.839  1.00  0.00    -0.012 C 
ATOM     21  C   UNL A   1      42.237  27.056  34.888  1.00  0.00     0.016 C 
ATOM     22  C   UNL A   1      43.809  28.936  34.292  1.00  0.00     0.016 C 
ATOM     23  C   UNL A   1      42.956  27.386  32.562  1.00  0.00     0.016 C 
ENDBRANCH  10  20
BRANCH  19  24
ATOM     24  C   UNL A   1      39.888  33.869  36.781  1.00  0.00     0.430 C 
ATOM     25  F   UNL A   1      41.187  33.896  37.162  1.00  0.00    -0.167 F 
ATOM     26  F   UNL A   1      39.383  35.100  37.037  1.00  0.00    -0.167 F 
ATOM     27  F   UNL A   1      39.245  32.993  37.586  1.00  0.00    -0.167 F 
ENDBRANCH  19  24
ENDBRANCH   7   9
ENDBRANCH   6   7
ENDBRANCH   5   6
ENDBRANCH   4   5
ENDBRANCH   3   4
ENDBRANCH   2   3
ENDBRANCH   1   2
BRANCH   1  28
ATOM     28  O   UNL A   1      32.683  34.884  30.744  1.00  0.00    -0.376 OA
BRANCH  28  29
ATOM     29  C   UNL A   1      33.533  35.063  29.622  1.00  0.00     0.202 C 
BRANCH  29  30
ATOM     30  C   UNL A   1      34.639  34.063  29.250  1.00  0.00     0.261 C 
BRANCH  30  31
ATOM     31  O   UNL A   1      34.493  32.743  29.788  1.00  0.00    -0.460 OA
BRANCH  31  32
ATOM     32  C   UNL A   1      34.527  31.734  28.875  1.00  0.00     0.338 C 
ATOM     33  O   UNL A   1      33.729  31.505  27.996  1.00  0.00    -0.246 OA
BRANCH  32  34
ATOM     34  C   UNL A   1      35.835  31.053  28.983  1.00  0.00     0.060 A 
ATOM     35  C   UNL A   1      36.691  30.977  27.885  1.00  0.00     0.016 A 
ATOM     36  C   UNL A   1      36.197  30.482  30.212  1.00  0.00     0.016 A 
ATOM     37  C   UNL A   1      37.926  30.340  28.026  1.00  0.00     0.010 A 
ATOM     38  C   UNL A   1      37.425  29.830  30.344  1.00  0.00     0.010 A 
ATOM     39  C   UNL A   1      38.307  29.773  29.257  1.00  0.00    -0.014 A 
BRANCH  39  40
ATOM     40  C   UNL A   1      39.696  29.288  29.443  1.00  0.00     0.031 A 
ATOM     41  C   UNL A   1      40.128  27.917  29.017  1.00  0.00     0.074 A 
ATOM     42  C   UNL A   1      40.583  30.128  30.008  1.00  0.00     0.049 A 
ATOM     43  N   UNL A   1      41.334  27.409  29.012  1.00  0.00    -0.248 NA
ATOM     44  C   UNL A   1      39.083  27.000  28.540  1.00  0.00     0.031 C 
ATOM     45  C   UNL A   1      40.268  31.476  30.484  1.00  0.00     0.029 A 
ATOM     46  N   UNL A   1      41.923  29.987  30.263  1.00  0.00    -0.354 N 
ATOM     47  C   UNL A   1      41.202  26.121  28.510  1.00  0.00     0.074 A 
ATOM     48  C   UNL A   1      39.790  25.909  28.265  1.00  0.00     0.031 C 
ATOM     49  C   UNL A   1      41.390  32.053  30.937  1.00  0.00     0.029 A 
ATOM     50  C   UNL A   1      42.497  31.108  30.813  1.00  0.00     0.049 A 
ATOM     51  H   UNL A   1      42.426  29.162  30.070  1.00  0.00     0.167 HD
ATOM     52  C   UNL A   1      42.178  25.215  28.260  1.00  0.00     0.031 A 
ATOM     53  C   UNL A   1      43.771  31.358  31.170  1.00  0.00     0.031 A 
ATOM     54  C   UNL A   1      43.579  25.431  28.527  1.00  0.00     0.049 A 
ATOM     55  C   UNL A   1      44.824  30.313  30.926  1.00  0.00     0.074 A 
ATOM     56  C   UNL A   1      44.641  24.582  28.259  1.00  0.00     0.029 A 
ATOM     57  N   UNL A   1      44.115  26.558  29.130  1.00  0.00    -0.354 N 
ATOM     58  N   UNL A   1      44.700  29.137  30.360  1.00  0.00    -0.248 NA
ATOM     59  C   UNL A   1      46.194  30.634  31.349  1.00  0.00     0.031 C 
ATOM     60  C   UNL A   1      45.803  25.158  28.771  1.00  0.00     0.029 A 
ATOM     61  C   UNL A   1      45.485  26.406  29.280  1.00  0.00     0.049 A 
ATOM     62  H   UNL A   1      43.599  27.348  29.411  1.00  0.00     0.167 HD
ATOM     63  C   UNL A   1      45.975  28.590  30.337  1.00  0.00     0.074 A 
ATOM     64  C   UNL A   1      46.863  29.570  30.927  1.00  0.00     0.031 C 
ATOM     65  C   UNL A   1      46.369  27.381  29.868  1.00  0.00     0.031 A 
BRANCH  52  66
ATOM     66  C   UNL A   1      41.794  23.894  27.649  1.00  0.00    -0.014 A 
ATOM     67  C   UNL A   1      41.437  22.815  28.474  1.00  0.00     0.009 A 
ATOM     68  C   UNL A   1      41.942  23.671  26.270  1.00  0.00     0.009 A 
ATOM     69  C   UNL A   1      41.265  21.537  27.941  1.00  0.00     0.001 A 
ATOM     70  C   UNL A   1      41.740  22.397  25.734  1.00  0.00     0.001 A 
ATOM     71  C   UNL A   1      41.416  21.329  26.570  1.00  0.00     0.000 A 
ENDBRANCH  52  66
BRANCH  53  72
ATOM     72  C   UNL A   1      44.117  32.682  31.755  1.00  0.00    -0.014 A 
ATOM     73  C   UNL A   1      44.039  32.891  33.141  1.00  0.00     0.009 A 
ATOM     74  C   UNL A   1      44.474  33.756  30.928  1.00  0.00     0.009 A 
ATOM     75  C   UNL A   1      44.286  34.154  33.684  1.00  0.00     0.001 A 
ATOM     76  C   UNL A   1      44.755  35.010  31.477  1.00  0.00     0.001 A 
ATOM     77  C   UNL A   1      44.650  35.210  32.852  1.00  0.00     0.000 A 
ENDBRANCH  53  72
BRANCH  65  78
ATOM     78  C   UNL A   1      47.830  27.028  29.951  1.00  0.00    -0.014 A 
ATOM     79  C   UNL A   1      48.695  27.385  28.903  1.00  0.00     0.009 A 
ATOM     80  C   UNL A   1      48.330  26.242  31.001  1.00  0.00     0.009 A 
ATOM     81  C   UNL A   1      50.020  26.944  28.890  1.00  0.00     0.001 A 
ATOM     82  C   UNL A   1      49.665  25.833  31.004  1.00  0.00     0.001 A 
ATOM     83  C   UNL A   1      50.505  26.172  29.944  1.00  0.00     0.000 A 
ENDBRANCH  65  78
ENDBRANCH  39  40
ENDBRANCH  32  34
ENDBRANCH  31  32
ENDBRANCH  30  31
ENDBRANCH  29  30
ENDBRANCH  28  29
ENDBRANCH   1  28
TORSDOF 19
ENDMDL
