MODEL 1
REMARK VINA RESULT:     -10.0      0.000      0.000
REMARK SMILES Cc1cc(Br)cc2c1O[C@H](C(F)(F)F)C(C(=O)OCCOCCOCCOC(=O)c1ccc(-c3c4nc(c(-c5ccccc5)c5ccc([nH]5)c(-c5ccccc5)c5nc(c(-c6ccccc6)c6ccc3[nH]6)C=C5)C=C4)cc1)=C2
REMARK SMILES IDX 23 1 22 2 21 3 20 4 19 5 18 6 16 7 17 8 15 9 1 10 2 11 3 12
REMARK SMILES IDX 8 13 4 14 7 15 9 16 5 17 6 18 78 19 10 20 11 21 12 22 13 23
REMARK SMILES IDX 14 24 24 25 25 26 26 27 27 28 28 29 29 30 30 31 31 32 77 33
REMARK SMILES IDX 32 34 76 35 33 36 34 37 35 38 70 39 36 40 75 41 69 42 71 43
REMARK SMILES IDX 37 44 74 45 68 46 67 47 38 49 60 50 45 51 59 52 46 53 49 54
REMARK SMILES IDX 58 55 72 56 47 57 48 58 57 60 73 61 50 62 39 63 40 64 44 65
REMARK SMILES IDX 41 66 43 67 42 68 61 69 62 70 66 71 63 72 65 73 64 74 51 75
REMARK SMILES IDX 52 76 56 77 53 78 55 79 54 80
REMARK H PARENT 71 48 49 59
REMARK Flexibility Score: inf
ROOT
ATOM      1  C   UNL A   1      34.271  34.221  29.235  1.00  0.00     0.188 C 
ENDROOT
BRANCH   1   2
ATOM      2  C   UNL A   1      33.969  33.114  28.204  1.00  0.00     0.188 C 
BRANCH   2   3
ATOM      3  O   UNL A   1      34.984  32.219  27.795  1.00  0.00    -0.376 OA
BRANCH   3   4
ATOM      4  C   UNL A   1      34.817  30.820  27.938  1.00  0.00     0.202 C 
BRANCH   4   5
ATOM      5  C   UNL A   1      33.894  29.990  27.031  1.00  0.00     0.261 C 
BRANCH   5   6
ATOM      6  O   UNL A   1      34.399  28.712  26.626  1.00  0.00    -0.460 OA
BRANCH   6   7
ATOM      7  C   UNL A   1      33.876  28.218  25.479  1.00  0.00     0.338 C 
ATOM      8  O   UNL A   1      33.866  28.762  24.387  1.00  0.00    -0.246 OA
BRANCH   7   9
ATOM      9  C   UNL A   1      33.442  26.822  25.691  1.00  0.00     0.087 C 
ATOM     10  C   UNL A   1      30.766  22.468  26.074  1.00  0.00     0.048 C 
ATOM     11  C   UNL A   1      32.216  22.833  25.912  1.00  0.00    -0.007 A 
ATOM     12  C   UNL A   1      33.152  21.822  25.645  1.00  0.00     0.023 A 
ATOM     13  C   UNL A   1      32.639  24.172  25.921  1.00  0.00     0.130 A 
ATOM     14  C   UNL A   1      34.491  22.144  25.429  1.00  0.00     0.019 A 
ATOM     15  C   UNL A   1      33.977  24.490  25.662  1.00  0.00     0.019 A 
ATOM     16  O   UNL A   1      31.688  25.120  26.181  1.00  0.00    -0.475 OA
ATOM     17  Br  UNL A   1      35.740  20.771  25.069  1.00  0.00    -0.051 Br
ATOM     18  C   UNL A   1      34.910  23.471  25.442  1.00  0.00     0.027 A 
ATOM     19  C   UNL A   1      34.382  25.880  25.542  1.00  0.00     0.027 C 
ATOM     20  C   UNL A   1      32.014  26.530  26.056  1.00  0.00     0.316 C 
BRANCH  20  21
ATOM     21  C   UNL A   1      31.019  27.163  25.075  1.00  0.00     0.430 C 
ATOM     22  F   UNL A   1      30.870  28.489  25.314  1.00  0.00    -0.167 F 
ATOM     23  F   UNL A   1      31.433  27.045  23.792  1.00  0.00    -0.167 F 
ATOM     24  F   UNL A   1      29.796  26.594  25.160  1.00  0.00    -0.167 F 
ENDBRANCH  20  21
ENDBRANCH   7   9
ENDBRANCH   6   7
ENDBRANCH   5   6
ENDBRANCH   4   5
ENDBRANCH   3   4
ENDBRANCH   2   3
ENDBRANCH   1   2
BRANCH   1  25
ATOM     25  O   UNL A   1      33.878  34.022  30.571  1.00  0.00    -0.376 OA
BRANCH  25  26
ATOM     26  C   UNL A   1      34.444  32.966  31.331  1.00  0.00     0.202 C 
BRANCH  26  27
ATOM     27  C   UNL A   1      34.774  33.009  32.838  1.00  0.00     0.261 C 
BRANCH  27  28
ATOM     28  O   UNL A   1      35.772  32.115  33.338  1.00  0.00    -0.460 OA
BRANCH  28  29
ATOM     29  C   UNL A   1      37.022  32.633  33.449  1.00  0.00     0.338 C 
ATOM     30  O   UNL A   1      37.425  33.424  34.279  1.00  0.00    -0.246 OA
BRANCH  29  31
ATOM     31  C   UNL A   1      37.912  31.925  32.508  1.00  0.00     0.060 A 
ATOM     32  C   UNL A   1      38.895  31.069  33.026  1.00  0.00     0.016 A 
ATOM     33  C   UNL A   1      37.794  32.120  31.132  1.00  0.00     0.016 A 
ATOM     34  C   UNL A   1      39.777  30.415  32.168  1.00  0.00     0.010 A 
ATOM     35  C   UNL A   1      38.702  31.493  30.275  1.00  0.00     0.010 A 
ATOM     36  C   UNL A   1      39.715  30.662  30.792  1.00  0.00    -0.014 A 
BRANCH  36  37
ATOM     37  C   UNL A   1      40.847  30.253  29.927  1.00  0.00     0.031 A 
ATOM     38  C   UNL A   1      40.777  28.900  29.270  1.00  0.00     0.074 A 
ATOM     39  C   UNL A   1      41.896  31.061  29.697  1.00  0.00     0.049 A 
ATOM     40  N   UNL A   1      41.662  28.293  28.525  1.00  0.00    -0.248 NA
ATOM     41  C   UNL A   1      39.537  28.134  29.482  1.00  0.00     0.031 C 
ATOM     42  C   UNL A   1      42.050  32.421  30.208  1.00  0.00     0.029 A 
ATOM     43  N   UNL A   1      43.038  30.842  28.966  1.00  0.00    -0.354 N 
ATOM     44  C   UNL A   1      41.088  27.074  28.184  1.00  0.00     0.074 A 
ATOM     45  C   UNL A   1      39.795  27.014  28.826  1.00  0.00     0.031 C 
ATOM     46  C   UNL A   1      43.225  32.915  29.777  1.00  0.00     0.029 A 
ATOM     47  C   UNL A   1      43.921  31.893  28.996  1.00  0.00     0.049 A 
ATOM     48  H   UNL A   1      43.206  30.010  28.467  1.00  0.00     0.167 HD
ATOM     49  C   UNL A   1      41.590  26.093  27.399  1.00  0.00     0.031 A 
ATOM     50  C   UNL A   1      45.159  32.004  28.472  1.00  0.00     0.031 A 
ATOM     51  C   UNL A   1      42.883  26.140  26.774  1.00  0.00     0.049 A 
ATOM     52  C   UNL A   1      45.746  30.848  27.702  1.00  0.00     0.074 A 
ATOM     53  C   UNL A   1      43.483  25.190  25.968  1.00  0.00     0.029 A 
ATOM     54  N   UNL A   1      43.778  27.192  26.890  1.00  0.00    -0.354 N 
ATOM     55  N   UNL A   1      45.198  29.699  27.385  1.00  0.00    -0.248 NA
ATOM     56  C   UNL A   1      47.126  31.005  27.219  1.00  0.00     0.031 C 
ATOM     57  C   UNL A   1      44.767  25.639  25.647  1.00  0.00     0.029 A 
ATOM     58  C   UNL A   1      44.939  26.899  26.197  1.00  0.00     0.049 A 
ATOM     59  H   UNL A   1      43.612  28.023  27.391  1.00  0.00     0.167 HD
ATOM     60  C   UNL A   1      46.155  29.009  26.648  1.00  0.00     0.074 A 
ATOM     61  C   UNL A   1      47.309  29.877  26.546  1.00  0.00     0.031 C 
ATOM     62  C   UNL A   1      46.084  27.768  26.107  1.00  0.00     0.031 A 
BRANCH  49  63
ATOM     63  C   UNL A   1      40.747  24.868  27.194  1.00  0.00    -0.014 A 
ATOM     64  C   UNL A   1      39.574  24.912  26.424  1.00  0.00     0.009 A 
ATOM     65  C   UNL A   1      41.159  23.640  27.737  1.00  0.00     0.009 A 
ATOM     66  C   UNL A   1      38.820  23.755  26.218  1.00  0.00     0.001 A 
ATOM     67  C   UNL A   1      40.419  22.480  27.505  1.00  0.00     0.001 A 
ATOM     68  C   UNL A   1      39.248  22.539  26.751  1.00  0.00     0.000 A 
ENDBRANCH  49  63
BRANCH  50  69
ATOM     69  C   UNL A   1      45.945  33.252  28.672  1.00  0.00    -0.014 A 
ATOM     70  C   UNL A   1      46.830  33.373  29.754  1.00  0.00     0.009 A 
ATOM     71  C   UNL A   1      45.801  34.338  27.792  1.00  0.00     0.009 A 
ATOM     72  C   UNL A   1      47.540  34.558  29.961  1.00  0.00     0.001 A 
ATOM     73  C   UNL A   1      46.535  35.510  27.983  1.00  0.00     0.001 A 
ATOM     74  C   UNL A   1      47.398  35.622  29.072  1.00  0.00     0.000 A 
ENDBRANCH  50  69
BRANCH  62  75
ATOM     75  C   UNL A   1      47.279  27.268  25.342  1.00  0.00    -0.014 A 
ATOM     76  C   UNL A   1      47.432  27.536  23.973  1.00  0.00     0.009 A 
ATOM     77  C   UNL A   1      48.305  26.586  26.018  1.00  0.00     0.009 A 
ATOM     78  C   UNL A   1      48.573  27.110  23.292  1.00  0.00     0.001 A 
ATOM     79  C   UNL A   1      49.460  26.190  25.342  1.00  0.00     0.001 A 
ATOM     80  C   UNL A   1      49.590  26.444  23.978  1.00  0.00     0.000 A 
ENDBRANCH  62  75
ENDBRANCH  36  37
ENDBRANCH  29  31
ENDBRANCH  28  29
ENDBRANCH  27  28
ENDBRANCH  26  27
ENDBRANCH  25  26
ENDBRANCH   1  25
TORSDOF 18
ENDMDL
MODEL 2
REMARK VINA RESULT:      -9.9      4.962      9.951
REMARK SMILES Cc1cc(Br)cc2c1O[C@H](C(F)(F)F)C(C(=O)OCCOCCOCCOC(=O)c1ccc(-c3c4nc(c(-c5ccccc5)c5ccc([nH]5)c(-c5ccccc5)c5nc(c(-c6ccccc6)c6ccc3[nH]6)C=C5)C=C4)cc1)=C2
REMARK SMILES IDX 23 1 22 2 21 3 20 4 19 5 18 6 16 7 17 8 15 9 1 10 2 11 3 12
REMARK SMILES IDX 8 13 4 14 7 15 9 16 5 17 6 18 78 19 10 20 11 21 12 22 13 23
REMARK SMILES IDX 14 24 24 25 25 26 26 27 27 28 28 29 29 30 30 31 31 32 77 33
REMARK SMILES IDX 32 34 76 35 33 36 34 37 35 38 70 39 36 40 75 41 69 42 71 43
REMARK SMILES IDX 37 44 74 45 68 46 67 47 38 49 60 50 45 51 59 52 46 53 49 54
REMARK SMILES IDX 58 55 72 56 47 57 48 58 57 60 73 61 50 62 39 63 40 64 44 65
REMARK SMILES IDX 41 66 43 67 42 68 61 69 62 70 66 71 63 72 65 73 64 74 51 75
REMARK SMILES IDX 52 76 56 77 53 78 55 79 54 80
REMARK H PARENT 71 48 49 59
REMARK Flexibility Score: inf
ROOT
ATOM      1  C   UNL A   1      40.970  19.904  26.836  1.00  0.00     0.188 C 
ENDROOT
BRANCH   1   2
ATOM      2  C   UNL A   1      40.434  21.021  25.918  1.00  0.00     0.188 C 
BRANCH   2   3
ATOM      3  O   UNL A   1      39.308  21.785  26.301  1.00  0.00    -0.376 OA
BRANCH   3   4
ATOM      4  C   UNL A   1      38.102  21.719  25.561  1.00  0.00     0.202 C 
BRANCH   4   5
ATOM      5  C   UNL A   1      36.751  22.196  26.118  1.00  0.00     0.261 C 
BRANCH   5   6
ATOM      6  O   UNL A   1      35.624  21.363  25.823  1.00  0.00    -0.460 OA
BRANCH   6   7
ATOM      7  C   UNL A   1      34.413  21.915  26.075  1.00  0.00     0.338 C 
ATOM      8  O   UNL A   1      33.702  21.704  27.044  1.00  0.00    -0.246 OA
BRANCH   7   9
ATOM      9  C   UNL A   1      34.123  22.957  25.070  1.00  0.00     0.087 C 
ATOM     10  C   UNL A   1      32.505  25.580  20.974  1.00  0.00     0.048 C 
ATOM     11  C   UNL A   1      32.949  25.923  22.369  1.00  0.00    -0.007 A 
ATOM     12  C   UNL A   1      32.791  27.238  22.835  1.00  0.00     0.023 A 
ATOM     13  C   UNL A   1      33.422  24.937  23.251  1.00  0.00     0.130 A 
ATOM     14  C   UNL A   1      33.138  27.565  24.145  1.00  0.00     0.019 A 
ATOM     15  C   UNL A   1      33.728  25.266  24.576  1.00  0.00     0.019 A 
ATOM     16  O   UNL A   1      33.553  23.671  22.751  1.00  0.00    -0.475 OA
ATOM     17  Br  UNL A   1      32.919  29.341  24.758  1.00  0.00    -0.051 Br
ATOM     18  C   UNL A   1      33.611  26.588  25.016  1.00  0.00     0.027 A 
ATOM     19  C   UNL A   1      34.091  24.219  25.517  1.00  0.00     0.027 C 
ATOM     20  C   UNL A   1      33.888  22.571  23.637  1.00  0.00     0.316 C 
BRANCH  20  21
ATOM     21  C   UNL A   1      32.803  21.496  23.493  1.00  0.00     0.430 C 
ATOM     22  F   UNL A   1      33.278  20.270  23.823  1.00  0.00    -0.167 F 
ATOM     23  F   UNL A   1      31.747  21.735  24.305  1.00  0.00    -0.167 F 
ATOM     24  F   UNL A   1      32.332  21.422  22.228  1.00  0.00    -0.167 F 
ENDBRANCH  20  21
ENDBRANCH   7   9
ENDBRANCH   6   7
ENDBRANCH   5   6
ENDBRANCH   4   5
ENDBRANCH   3   4
ENDBRANCH   2   3
ENDBRANCH   1   2
BRANCH   1  25
ATOM     25  O   UNL A   1      42.360  19.718  26.930  1.00  0.00    -0.376 OA
BRANCH  25  26
ATOM     26  C   UNL A   1      43.152  19.645  25.755  1.00  0.00     0.202 C 
BRANCH  26  27
ATOM     27  C   UNL A   1      44.281  20.621  25.360  1.00  0.00     0.261 C 
BRANCH  27  28
ATOM     28  O   UNL A   1      44.289  21.921  25.955  1.00  0.00    -0.460 OA
BRANCH  28  29
ATOM     29  C   UNL A   1      43.807  22.926  25.178  1.00  0.00     0.338 C 
ATOM     30  O   UNL A   1      43.773  22.973  23.964  1.00  0.00    -0.246 OA
BRANCH  29  31
ATOM     31  C   UNL A   1      43.120  23.904  26.045  1.00  0.00     0.060 A 
ATOM     32  C   UNL A   1      43.229  25.269  25.737  1.00  0.00     0.016 A 
ATOM     33  C   UNL A   1      42.398  23.484  27.160  1.00  0.00     0.016 A 
ATOM     34  C   UNL A   1      42.626  26.221  26.556  1.00  0.00     0.010 A 
ATOM     35  C   UNL A   1      41.824  24.441  28.002  1.00  0.00     0.010 A 
ATOM     36  C   UNL A   1      41.962  25.814  27.719  1.00  0.00    -0.014 A 
BRANCH  36  37
ATOM     37  C   UNL A   1      41.628  26.818  28.756  1.00  0.00     0.031 A 
ATOM     38  C   UNL A   1      42.529  26.914  29.958  1.00  0.00     0.074 A 
ATOM     39  C   UNL A   1      40.578  27.648  28.632  1.00  0.00     0.049 A 
ATOM     40  N   UNL A   1      42.415  27.663  31.023  1.00  0.00    -0.248 NA
ATOM     41  C   UNL A   1      43.722  26.050  29.952  1.00  0.00     0.031 C 
ATOM     42  C   UNL A   1      39.674  27.711  27.486  1.00  0.00     0.029 A 
ATOM     43  N   UNL A   1      40.098  28.602  29.495  1.00  0.00    -0.354 N 
ATOM     44  C   UNL A   1      43.516  27.357  31.814  1.00  0.00     0.074 A 
ATOM     45  C   UNL A   1      44.269  26.335  31.123  1.00  0.00     0.031 C 
ATOM     46  C   UNL A   1      38.744  28.654  27.720  1.00  0.00     0.029 A 
ATOM     47  C   UNL A   1      38.963  29.230  29.046  1.00  0.00     0.049 A 
ATOM     48  H   UNL A   1      40.528  28.817  30.355  1.00  0.00     0.167 HD
ATOM     49  C   UNL A   1      43.873  27.884  33.007  1.00  0.00     0.031 A 
ATOM     50  C   UNL A   1      38.178  30.146  29.649  1.00  0.00     0.031 A 
ATOM     51  C   UNL A   1      43.118  28.887  33.706  1.00  0.00     0.049 A 
ATOM     52  C   UNL A   1      38.533  30.631  31.033  1.00  0.00     0.074 A 
ATOM     53  C   UNL A   1      43.396  29.477  34.926  1.00  0.00     0.029 A 
ATOM     54  N   UNL A   1      41.933  29.443  33.250  1.00  0.00    -0.354 N 
ATOM     55  N   UNL A   1      39.574  30.336  31.773  1.00  0.00    -0.248 NA
ATOM     56  C   UNL A   1      37.598  31.576  31.664  1.00  0.00     0.031 C 
ATOM     57  C   UNL A   1      42.346  30.344  35.238  1.00  0.00     0.029 A 
ATOM     58  C   UNL A   1      41.450  30.346  34.181  1.00  0.00     0.049 A 
ATOM     59  H   UNL A   1      41.501  29.228  32.393  1.00  0.00     0.167 HD
ATOM     60  C   UNL A   1      39.432  31.074  32.944  1.00  0.00     0.074 A 
ATOM     61  C   UNL A   1      38.216  31.847  32.806  1.00  0.00     0.031 C 
ATOM     62  C   UNL A   1      40.236  31.106  34.035  1.00  0.00     0.031 A 
BRANCH  49  63
ATOM     63  C   UNL A   1      45.128  27.365  33.648  1.00  0.00    -0.014 A 
ATOM     64  C   UNL A   1      46.361  28.011  33.462  1.00  0.00     0.009 A 
ATOM     65  C   UNL A   1      45.066  26.244  34.491  1.00  0.00     0.009 A 
ATOM     66  C   UNL A   1      47.511  27.531  34.093  1.00  0.00     0.001 A 
ATOM     67  C   UNL A   1      46.212  25.785  35.143  1.00  0.00     0.001 A 
ATOM     68  C   UNL A   1      47.434  26.425  34.939  1.00  0.00     0.000 A 
ENDBRANCH  49  63
BRANCH  50  69
ATOM     69  C   UNL A   1      36.962  30.659  28.961  1.00  0.00    -0.014 A 
ATOM     70  C   UNL A   1      35.883  29.805  28.687  1.00  0.00     0.009 A 
ATOM     71  C   UNL A   1      36.881  32.001  28.555  1.00  0.00     0.009 A 
ATOM     72  C   UNL A   1      34.758  30.279  28.009  1.00  0.00     0.001 A 
ATOM     73  C   UNL A   1      35.742  32.479  27.904  1.00  0.00     0.001 A 
ATOM     74  C   UNL A   1      34.684  31.616  27.625  1.00  0.00     0.000 A 
ENDBRANCH  50  69
BRANCH  62  75
ATOM     75  C   UNL A   1      39.842  32.013  35.169  1.00  0.00    -0.014 A 
ATOM     76  C   UNL A   1      38.993  31.570  36.195  1.00  0.00     0.009 A 
ATOM     77  C   UNL A   1      40.390  33.304  35.253  1.00  0.00     0.009 A 
ATOM     78  C   UNL A   1      38.681  32.408  37.266  1.00  0.00     0.001 A 
ATOM     79  C   UNL A   1      40.103  34.128  36.343  1.00  0.00     0.001 A 
ATOM     80  C   UNL A   1      39.242  33.683  37.344  1.00  0.00     0.000 A 
ENDBRANCH  62  75
ENDBRANCH  36  37
ENDBRANCH  29  31
ENDBRANCH  28  29
ENDBRANCH  27  28
ENDBRANCH  26  27
ENDBRANCH  25  26
ENDBRANCH   1  25
TORSDOF 18
ENDMDL
MODEL 3
REMARK VINA RESULT:      -9.9      3.972      9.522
REMARK SMILES Cc1cc(Br)cc2c1O[C@H](C(F)(F)F)C(C(=O)OCCOCCOCCOC(=O)c1ccc(-c3c4nc(c(-c5ccccc5)c5ccc([nH]5)c(-c5ccccc5)c5nc(c(-c6ccccc6)c6ccc3[nH]6)C=C5)C=C4)cc1)=C2
REMARK SMILES IDX 23 1 22 2 21 3 20 4 19 5 18 6 16 7 17 8 15 9 1 10 2 11 3 12
REMARK SMILES IDX 8 13 4 14 7 15 9 16 5 17 6 18 78 19 10 20 11 21 12 22 13 23
REMARK SMILES IDX 14 24 24 25 25 26 26 27 27 28 28 29 29 30 30 31 31 32 77 33
REMARK SMILES IDX 32 34 76 35 33 36 34 37 35 38 70 39 36 40 75 41 69 42 71 43
REMARK SMILES IDX 37 44 74 45 68 46 67 47 38 49 60 50 45 51 59 52 46 53 49 54
REMARK SMILES IDX 58 55 72 56 47 57 48 58 57 60 73 61 50 62 39 63 40 64 44 65
REMARK SMILES IDX 41 66 43 67 42 68 61 69 62 70 66 71 63 72 65 73 64 74 51 75
REMARK SMILES IDX 52 76 56 77 53 78 55 79 54 80
REMARK H PARENT 71 48 49 59
REMARK Flexibility Score: inf
ROOT
ATOM      1  C   UNL A   1      40.723  20.263  27.269  1.00  0.00     0.188 C 
ENDROOT
BRANCH   1   2
ATOM      2  C   UNL A   1      40.488  21.461  26.326  1.00  0.00     0.188 C 
BRANCH   2   3
ATOM      3  O   UNL A   1      39.320  22.248  26.443  1.00  0.00    -0.376 OA
BRANCH   3   4
ATOM      4  C   UNL A   1      38.295  22.173  25.467  1.00  0.00     0.202 C 
BRANCH   4   5
ATOM      5  C   UNL A   1      37.296  21.008  25.391  1.00  0.00     0.261 C 
BRANCH   5   6
ATOM      6  O   UNL A   1      36.060  21.287  24.722  1.00  0.00    -0.460 OA
BRANCH   6   7
ATOM      7  C   UNL A   1      35.083  21.808  25.503  1.00  0.00     0.338 C 
ATOM      8  O   UNL A   1      34.794  21.465  26.637  1.00  0.00    -0.246 OA
BRANCH   7   9
ATOM      9  C   UNL A   1      34.494  22.989  24.840  1.00  0.00     0.087 C 
ATOM     10  C   UNL A   1      31.671  26.182  21.992  1.00  0.00     0.048 C 
ATOM     11  C   UNL A   1      32.540  26.306  23.213  1.00  0.00    -0.007 A 
ATOM     12  C   UNL A   1      32.549  27.515  23.928  1.00  0.00     0.023 A 
ATOM     13  C   UNL A   1      33.263  25.210  23.712  1.00  0.00     0.130 A 
ATOM     14  C   UNL A   1      33.298  27.633  25.097  1.00  0.00     0.019 A 
ATOM     15  C   UNL A   1      33.979  25.325  24.909  1.00  0.00     0.019 A 
ATOM     16  O   UNL A   1      33.218  24.055  22.983  1.00  0.00    -0.475 OA
ATOM     17  Br  UNL A   1      33.299  29.266  26.050  1.00  0.00    -0.051 Br
ATOM     18  C   UNL A   1      34.017  26.548  25.589  1.00  0.00     0.027 A 
ATOM     19  C   UNL A   1      34.615  24.155  25.489  1.00  0.00     0.027 C 
ATOM     20  C   UNL A   1      33.811  22.839  23.510  1.00  0.00     0.316 C 
BRANCH  20  21
ATOM     21  C   UNL A   1      32.729  21.751  23.529  1.00  0.00     0.430 C 
ATOM     22  F   UNL A   1      31.913  21.888  24.603  1.00  0.00    -0.167 F 
ATOM     23  F   UNL A   1      31.939  21.807  22.431  1.00  0.00    -0.167 F 
ATOM     24  F   UNL A   1      33.263  20.511  23.581  1.00  0.00    -0.167 F 
ENDBRANCH  20  21
ENDBRANCH   7   9
ENDBRANCH   6   7
ENDBRANCH   5   6
ENDBRANCH   4   5
ENDBRANCH   3   4
ENDBRANCH   2   3
ENDBRANCH   1   2
BRANCH   1  25
ATOM     25  O   UNL A   1      42.026  19.752  27.397  1.00  0.00    -0.376 OA
BRANCH  25  26
ATOM     26  C   UNL A   1      42.513  18.795  26.469  1.00  0.00     0.202 C 
BRANCH  26  27
ATOM     27  C   UNL A   1      43.585  19.045  25.387  1.00  0.00     0.261 C 
BRANCH  27  28
ATOM     28  O   UNL A   1      44.506  20.121  25.584  1.00  0.00    -0.460 OA
BRANCH  28  29
ATOM     29  C   UNL A   1      44.445  21.121  24.668  1.00  0.00     0.338 C 
ATOM     30  O   UNL A   1      44.522  21.024  23.459  1.00  0.00    -0.246 OA
BRANCH  29  31
ATOM     31  C   UNL A   1      44.058  22.369  25.356  1.00  0.00     0.060 A 
ATOM     32  C   UNL A   1      43.621  23.456  24.584  1.00  0.00     0.016 A 
ATOM     33  C   UNL A   1      44.148  22.474  26.743  1.00  0.00     0.016 A 
ATOM     34  C   UNL A   1      43.285  24.660  25.198  1.00  0.00     0.010 A 
ATOM     35  C   UNL A   1      43.847  23.694  27.355  1.00  0.00     0.010 A 
ATOM     36  C   UNL A   1      43.443  24.800  26.582  1.00  0.00    -0.014 A 
BRANCH  36  37
ATOM     37  C   UNL A   1      43.424  26.154  27.183  1.00  0.00     0.031 A 
ATOM     38  C   UNL A   1      44.746  26.818  27.463  1.00  0.00     0.074 A 
ATOM     39  C   UNL A   1      42.276  26.799  27.449  1.00  0.00     0.049 A 
ATOM     40  N   UNL A   1      44.993  27.965  28.038  1.00  0.00    -0.248 NA
ATOM     41  C   UNL A   1      45.949  26.088  27.029  1.00  0.00     0.031 C 
ATOM     42  C   UNL A   1      40.933  26.302  27.158  1.00  0.00     0.029 A 
ATOM     43  N   UNL A   1      42.064  28.024  28.033  1.00  0.00    -0.354 N 
ATOM     44  C   UNL A   1      46.378  28.091  28.039  1.00  0.00     0.074 A 
ATOM     45  C   UNL A   1      46.917  26.894  27.436  1.00  0.00     0.031 C 
ATOM     46  C   UNL A   1      40.035  27.215  27.569  1.00  0.00     0.029 A 
ATOM     47  C   UNL A   1      40.736  28.339  28.187  1.00  0.00     0.049 A 
ATOM     48  H   UNL A   1      42.796  28.621  28.313  1.00  0.00     0.167 HD
ATOM     49  C   UNL A   1      47.133  29.116  28.495  1.00  0.00     0.031 A 
ATOM     50  C   UNL A   1      40.157  29.401  28.782  1.00  0.00     0.031 A 
ATOM     51  C   UNL A   1      46.602  30.300  29.112  1.00  0.00     0.049 A 
ATOM     52  C   UNL A   1      41.024  30.475  29.392  1.00  0.00     0.074 A 
ATOM     53  C   UNL A   1      47.290  31.390  29.614  1.00  0.00     0.029 A 
ATOM     54  N   UNL A   1      45.253  30.546  29.316  1.00  0.00    -0.354 N 
ATOM     55  N   UNL A   1      42.331  30.586  29.389  1.00  0.00    -0.248 NA
ATOM     56  C   UNL A   1      40.333  31.570  30.089  1.00  0.00     0.031 C 
ATOM     57  C   UNL A   1      46.361  32.267  30.179  1.00  0.00     0.029 A 
ATOM     58  C   UNL A   1      45.090  31.756  29.968  1.00  0.00     0.049 A 
ATOM     59  H   UNL A   1      44.521  29.949  29.040  1.00  0.00     0.167 HD
ATOM     60  C   UNL A   1      42.615  31.770  30.061  1.00  0.00     0.074 A 
ATOM     61  C   UNL A   1      41.345  32.353  30.437  1.00  0.00     0.031 C 
ATOM     62  C   UNL A   1      43.821  32.323  30.342  1.00  0.00     0.031 A 
BRANCH  49  63
ATOM     63  C   UNL A   1      48.624  28.990  28.368  1.00  0.00    -0.014 A 
ATOM     64  C   UNL A   1      49.388  28.363  29.365  1.00  0.00     0.009 A 
ATOM     65  C   UNL A   1      49.266  29.459  27.211  1.00  0.00     0.009 A 
ATOM     66  C   UNL A   1      50.770  28.226  29.213  1.00  0.00     0.001 A 
ATOM     67  C   UNL A   1      50.643  29.294  27.050  1.00  0.00     0.001 A 
ATOM     68  C   UNL A   1      51.394  28.683  28.053  1.00  0.00     0.000 A 
ENDBRANCH  49  63
BRANCH  50  69
ATOM     69  C   UNL A   1      38.674  29.501  28.855  1.00  0.00    -0.014 A 
ATOM     70  C   UNL A   1      37.928  29.875  27.727  1.00  0.00     0.009 A 
ATOM     71  C   UNL A   1      37.997  29.243  30.058  1.00  0.00     0.009 A 
ATOM     72  C   UNL A   1      36.539  30.004  27.806  1.00  0.00     0.001 A 
ATOM     73  C   UNL A   1      36.606  29.343  30.126  1.00  0.00     0.001 A 
ATOM     74  C   UNL A   1      35.878  29.731  29.003  1.00  0.00     0.000 A 
ENDBRANCH  50  69
BRANCH  62  75
ATOM     75  C   UNL A   1      43.835  33.633  31.083  1.00  0.00    -0.014 A 
ATOM     76  C   UNL A   1      43.945  33.677  32.481  1.00  0.00     0.009 A 
ATOM     77  C   UNL A   1      43.816  34.841  30.366  1.00  0.00     0.009 A 
ATOM     78  C   UNL A   1      44.010  34.902  33.147  1.00  0.00     0.001 A 
ATOM     79  C   UNL A   1      43.915  36.064  31.031  1.00  0.00     0.001 A 
ATOM     80  C   UNL A   1      44.003  36.094  32.422  1.00  0.00     0.000 A 
ENDBRANCH  62  75
ENDBRANCH  36  37
ENDBRANCH  29  31
ENDBRANCH  28  29
ENDBRANCH  27  28
ENDBRANCH  26  27
ENDBRANCH  25  26
ENDBRANCH   1  25
TORSDOF 18
ENDMDL
