MODEL 1
REMARK VINA RESULT:     -10.3      0.000      0.000
REMARK SMILES O=C(COc1ccccc1[C@@H]1[NH2+]CCc2cc(O)c(O)cc21)OCCOCCOCCOC(=O)c1ccc(-c2c3nc(c(-c4ccccc4)c4ccc([nH]4)c(-c4ccccc4)c4nc(c(-c5ccccc5)c5ccc2[nH]5)C=C4)C=C3)cc1
REMARK SMILES IDX 27 1 26 2 25 3 24 4 23 5 2 6 1 7 3 8 4 9 5 10 6 11 10 12
REMARK SMILES IDX 7 13 9 14 8 15 11 16 12 17 22 18 13 19 15 22 21 23 14 24
REMARK SMILES IDX 16 25 19 26 17 27 20 28 18 30 28 32 29 33 30 34 31 35 32 36
REMARK SMILES IDX 33 37 34 38 35 39 36 40 82 41 37 42 81 43 38 44 39 45 40 46
REMARK SMILES IDX 75 47 41 48 80 49 74 50 76 51 42 52 79 53 73 54 72 55 43 57
REMARK SMILES IDX 65 58 50 59 64 60 51 61 54 62 63 63 77 64 52 65 53 66 62 68
REMARK SMILES IDX 78 69 55 70 44 71 45 72 49 73 46 74 48 75 47 76 66 77 67 78
REMARK SMILES IDX 71 79 68 80 70 81 69 82 56 83 57 84 61 85 58 86 60 87 59 88
REMARK H PARENT 12 20 12 21 20 29 18 31 76 56 54 67
REMARK Flexibility Score: inf
ROOT
ATOM      1  C   UNL A   1      41.166  22.328  27.388  1.00  0.00     0.188 C 
ENDROOT
BRANCH   1   2
ATOM      2  O   UNL A   1      39.806  22.699  27.368  1.00  0.00    -0.376 OA
BRANCH   2   3
ATOM      3  C   UNL A   1      39.155  23.695  26.598  1.00  0.00     0.202 C 
BRANCH   3   4
ATOM      4  C   UNL A   1      37.808  23.583  25.882  1.00  0.00     0.261 C 
BRANCH   4   5
ATOM      5  O   UNL A   1      37.252  22.285  25.897  1.00  0.00    -0.461 OA
BRANCH   5   6
ATOM      6  C   UNL A   1      36.602  21.783  24.823  1.00  0.00     0.344 C 
ATOM      7  O   UNL A   1      36.797  22.344  23.748  1.00  0.00    -0.248 OA
BRANCH   6   8
ATOM      8  C   UNL A   1      35.602  20.616  25.040  1.00  0.00     0.351 C 
BRANCH   8   9
ATOM      9  O   UNL A   1      34.324  21.012  25.440  1.00  0.00    -0.481 OA
BRANCH   9  10
ATOM     10  C   UNL A   1      33.329  21.170  24.510  1.00  0.00     0.129 A 
ATOM     11  C   UNL A   1      32.783  19.913  24.197  1.00  0.00     0.047 A 
ATOM     12  C   UNL A   1      33.038  22.302  23.710  1.00  0.00     0.056 A 
ATOM     13  C   UNL A   1      32.116  19.703  23.000  1.00  0.00     0.004 A 
ATOM     14  C   UNL A   1      32.450  22.031  22.457  1.00  0.00     0.014 A 
ATOM     15  C   UNL A   1      32.017  20.750  22.098  1.00  0.00     0.001 A 
BRANCH  12  16
ATOM     16  C   UNL A   1      33.413  23.745  24.052  1.00  0.00     0.249 C 
ATOM     17  N   UNL A   1      33.244  24.084  25.488  1.00  0.00    -0.336 N 
ATOM     18  C   UNL A   1      32.791  24.932  23.306  1.00  0.00     0.021 A 
ATOM     19  C   UNL A   1      31.843  24.263  25.911  1.00  0.00     0.266 C 
ATOM     20  H   UNL A   1      33.745  24.953  25.672  1.00  0.00     0.347 HD
ATOM     21  H   UNL A   1      33.608  23.293  26.019  1.00  0.00     0.347 HD
ATOM     22  C   UNL A   1      31.519  25.383  23.736  1.00  0.00    -0.029 A 
ATOM     23  C   UNL A   1      33.574  25.741  22.471  1.00  0.00     0.060 A 
ATOM     24  C   UNL A   1      30.832  24.560  24.793  1.00  0.00     0.097 C 
ATOM     25  C   UNL A   1      31.032  26.624  23.329  1.00  0.00     0.054 A 
ATOM     26  C   UNL A   1      33.099  26.997  22.116  1.00  0.00     0.157 A 
ATOM     27  C   UNL A   1      31.842  27.430  22.544  1.00  0.00     0.157 A 
BRANCH  26  28
ATOM     28  O   UNL A   1      33.867  27.881  21.408  1.00  0.00    -0.504 OA
ATOM     29  H   UNL A   1      33.822  28.798  21.598  1.00  0.00     0.293 HD
ENDBRANCH  26  28
BRANCH  27  30
ATOM     30  O   UNL A   1      31.429  28.700  22.252  1.00  0.00    -0.504 OA
ATOM     31  H   UNL A   1      31.033  29.227  22.917  1.00  0.00     0.293 HD
ENDBRANCH  27  30
ENDBRANCH  12  16
ENDBRANCH   9  10
ENDBRANCH   8   9
ENDBRANCH   6   8
ENDBRANCH   5   6
ENDBRANCH   4   5
ENDBRANCH   3   4
ENDBRANCH   2   3
ENDBRANCH   1   2
BRANCH   1  32
ATOM     32  C   UNL A   1      41.856  21.389  26.373  1.00  0.00     0.188 C 
BRANCH  32  33
ATOM     33  O   UNL A   1      42.279  20.090  26.713  1.00  0.00    -0.376 OA
BRANCH  33  34
ATOM     34  C   UNL A   1      42.455  19.138  25.686  1.00  0.00     0.202 C 
BRANCH  34  35
ATOM     35  C   UNL A   1      43.848  18.559  25.394  1.00  0.00     0.261 C 
BRANCH  35  36
ATOM     36  O   UNL A   1      44.469  19.003  24.173  1.00  0.00    -0.460 OA
BRANCH  36  37
ATOM     37  C   UNL A   1      45.600  19.740  24.315  1.00  0.00     0.338 C 
ATOM     38  O   UNL A   1      46.734  19.411  24.022  1.00  0.00    -0.246 OA
BRANCH  37  39
ATOM     39  C   UNL A   1      45.268  21.110  24.771  1.00  0.00     0.060 A 
ATOM     40  C   UNL A   1      44.763  22.030  23.837  1.00  0.00     0.016 A 
ATOM     41  C   UNL A   1      45.531  21.513  26.079  1.00  0.00     0.016 A 
ATOM     42  C   UNL A   1      44.551  23.365  24.200  1.00  0.00     0.010 A 
ATOM     43  C   UNL A   1      45.344  22.855  26.434  1.00  0.00     0.010 A 
ATOM     44  C   UNL A   1      44.886  23.796  25.489  1.00  0.00    -0.014 A 
BRANCH  44  45
ATOM     45  C   UNL A   1      44.974  25.242  25.822  1.00  0.00     0.031 A 
ATOM     46  C   UNL A   1      46.329  25.895  25.803  1.00  0.00     0.074 A 
ATOM     47  C   UNL A   1      43.901  25.956  26.204  1.00  0.00     0.049 A 
ATOM     48  N   UNL A   1      46.697  27.068  26.253  1.00  0.00    -0.248 NA
ATOM     49  C   UNL A   1      47.418  25.105  25.208  1.00  0.00     0.031 C 
ATOM     50  C   UNL A   1      42.522  25.479  26.214  1.00  0.00     0.029 A 
ATOM     51  N   UNL A   1      43.823  27.237  26.699  1.00  0.00    -0.354 N 
ATOM     52  C   UNL A   1      48.066  27.141  26.030  1.00  0.00     0.074 A 
ATOM     53  C   UNL A   1      48.462  25.894  25.412  1.00  0.00     0.031 C 
ATOM     54  C   UNL A   1      41.737  26.439  26.734  1.00  0.00     0.029 A 
ATOM     55  C   UNL A   1      42.567  27.576  27.138  1.00  0.00     0.049 A 
ATOM     56  H   UNL A   1      44.591  27.851  26.736  1.00  0.00     0.167 HD
ATOM     57  C   UNL A   1      48.923  28.149  26.324  1.00  0.00     0.031 A 
ATOM     58  C   UNL A   1      42.141  28.651  27.832  1.00  0.00     0.031 A 
ATOM     59  C   UNL A   1      48.539  29.381  26.960  1.00  0.00     0.049 A 
ATOM     60  C   UNL A   1      43.118  29.728  28.229  1.00  0.00     0.074 A 
ATOM     61  C   UNL A   1      49.331  30.470  27.277  1.00  0.00     0.029 A 
ATOM     62  N   UNL A   1      47.256  29.680  27.390  1.00  0.00    -0.354 N 
ATOM     63  N   UNL A   1      44.408  29.800  28.000  1.00  0.00    -0.248 NA
ATOM     64  C   UNL A   1      42.581  30.874  28.979  1.00  0.00     0.031 C 
ATOM     65  C   UNL A   1      48.542  31.399  27.963  1.00  0.00     0.029 A 
ATOM     66  C   UNL A   1      47.241  30.920  28.004  1.00  0.00     0.049 A 
ATOM     67  H   UNL A   1      46.471  29.096  27.277  1.00  0.00     0.167 HD
ATOM     68  C   UNL A   1      44.827  31.007  28.550  1.00  0.00     0.074 A 
ATOM     69  C   UNL A   1      43.657  31.638  29.121  1.00  0.00     0.031 C 
ATOM     70  C   UNL A   1      46.072  31.546  28.569  1.00  0.00     0.031 A 
BRANCH  57  71
ATOM     71  C   UNL A   1      50.379  27.920  26.023  1.00  0.00    -0.014 A 
ATOM     72  C   UNL A   1      50.954  28.320  24.807  1.00  0.00     0.009 A 
ATOM     73  C   UNL A   1      51.186  27.281  26.978  1.00  0.00     0.009 A 
ATOM     74  C   UNL A   1      52.295  28.038  24.533  1.00  0.00     0.001 A 
ATOM     75  C   UNL A   1      52.534  27.031  26.715  1.00  0.00     0.001 A 
ATOM     76  C   UNL A   1      53.083  27.396  25.488  1.00  0.00     0.000 A 
ENDBRANCH  57  71
BRANCH  58  77
ATOM     77  C   UNL A   1      40.715  28.737  28.247  1.00  0.00    -0.014 A 
ATOM     78  C   UNL A   1      40.298  28.253  29.495  1.00  0.00     0.009 A 
ATOM     79  C   UNL A   1      39.762  29.318  27.392  1.00  0.00     0.009 A 
ATOM     80  C   UNL A   1      38.957  28.340  29.876  1.00  0.00     0.001 A 
ATOM     81  C   UNL A   1      38.428  29.429  27.787  1.00  0.00     0.001 A 
ATOM     82  C   UNL A   1      38.025  28.934  29.026  1.00  0.00     0.000 A 
ENDBRANCH  58  77
BRANCH  70  83
ATOM     83  C   UNL A   1      46.242  32.911  29.181  1.00  0.00    -0.014 A 
ATOM     84  C   UNL A   1      46.602  33.076  30.527  1.00  0.00     0.009 A 
ATOM     85  C   UNL A   1      46.122  34.050  28.367  1.00  0.00     0.009 A 
ATOM     86  C   UNL A   1      46.818  34.356  31.048  1.00  0.00     0.001 A 
ATOM     87  C   UNL A   1      46.366  35.324  28.883  1.00  0.00     0.001 A 
ATOM     88  C   UNL A   1      46.709  35.476  30.224  1.00  0.00     0.000 A 
ENDBRANCH  70  83
ENDBRANCH  44  45
ENDBRANCH  37  39
ENDBRANCH  36  37
ENDBRANCH  35  36
ENDBRANCH  34  35
ENDBRANCH  33  34
ENDBRANCH  32  33
ENDBRANCH   1  32
TORSDOF 22
ENDMDL
MODEL 2
REMARK VINA RESULT:      -9.8      6.214     11.787
REMARK SMILES O=C(COc1ccccc1[C@@H]1[NH2+]CCc2cc(O)c(O)cc21)OCCOCCOCCOC(=O)c1ccc(-c2c3nc(c(-c4ccccc4)c4ccc([nH]4)c(-c4ccccc4)c4nc(c(-c5ccccc5)c5ccc2[nH]5)C=C4)C=C3)cc1
REMARK SMILES IDX 27 1 26 2 25 3 24 4 23 5 2 6 1 7 3 8 4 9 5 10 6 11 10 12
REMARK SMILES IDX 7 13 9 14 8 15 11 16 12 17 22 18 13 19 15 22 21 23 14 24
REMARK SMILES IDX 16 25 19 26 17 27 20 28 18 30 28 32 29 33 30 34 31 35 32 36
REMARK SMILES IDX 33 37 34 38 35 39 36 40 82 41 37 42 81 43 38 44 39 45 40 46
REMARK SMILES IDX 75 47 41 48 80 49 74 50 76 51 42 52 79 53 73 54 72 55 43 57
REMARK SMILES IDX 65 58 50 59 64 60 51 61 54 62 63 63 77 64 52 65 53 66 62 68
REMARK SMILES IDX 78 69 55 70 44 71 45 72 49 73 46 74 48 75 47 76 66 77 67 78
REMARK SMILES IDX 71 79 68 80 70 81 69 82 56 83 57 84 61 85 58 86 60 87 59 88
REMARK H PARENT 12 20 12 21 20 29 18 31 76 56 54 67
REMARK Flexibility Score: inf
ROOT
ATOM      1  C   UNL A   1      34.645  32.112  28.038  1.00  0.00     0.188 C 
ENDROOT
BRANCH   1   2
ATOM      2  O   UNL A   1      33.849  31.027  27.616  1.00  0.00    -0.376 OA
BRANCH   2   3
ATOM      3  C   UNL A   1      34.124  29.637  27.665  1.00  0.00     0.202 C 
BRANCH   3   4
ATOM      4  C   UNL A   1      34.553  28.734  26.509  1.00  0.00     0.261 C 
BRANCH   4   5
ATOM      5  O   UNL A   1      33.492  28.017  25.911  1.00  0.00    -0.461 OA
BRANCH   5   6
ATOM      6  C   UNL A   1      33.322  27.997  24.570  1.00  0.00     0.344 C 
ATOM      7  O   UNL A   1      33.224  29.085  24.010  1.00  0.00    -0.248 OA
BRANCH   6   8
ATOM      8  C   UNL A   1      33.168  26.624  23.863  1.00  0.00     0.351 C 
BRANCH   8   9
ATOM      9  O   UNL A   1      33.355  25.518  24.694  1.00  0.00    -0.481 OA
BRANCH   9  10
ATOM     10  C   UNL A   1      32.299  24.698  24.997  1.00  0.00     0.129 A 
ATOM     11  C   UNL A   1      31.209  25.480  25.418  1.00  0.00     0.047 A 
ATOM     12  C   UNL A   1      32.297  23.295  25.191  1.00  0.00     0.056 A 
ATOM     13  C   UNL A   1      30.205  24.938  26.204  1.00  0.00     0.004 A 
ATOM     14  C   UNL A   1      31.319  22.801  26.078  1.00  0.00     0.014 A 
ATOM     15  C   UNL A   1      30.303  23.612  26.595  1.00  0.00     0.001 A 
BRANCH  12  16
ATOM     16  C   UNL A   1      33.326  22.322  24.613  1.00  0.00     0.249 C 
ATOM     17  N   UNL A   1      33.898  22.756  23.313  1.00  0.00    -0.336 N 
ATOM     18  C   UNL A   1      32.997  20.838  24.406  1.00  0.00     0.021 A 
ATOM     19  C   UNL A   1      32.987  22.601  22.164  1.00  0.00     0.266 C 
ATOM     20  H   UNL A   1      34.736  22.204  23.132  1.00  0.00     0.347 HD
ATOM     21  H   UNL A   1      34.090  23.755  23.398  1.00  0.00     0.347 HD
ATOM     22  C   UNL A   1      32.306  20.479  23.223  1.00  0.00    -0.029 A 
ATOM     23  C   UNL A   1      33.636  19.851  25.169  1.00  0.00     0.060 A 
ATOM     24  C   UNL A   1      31.830  21.608  22.348  1.00  0.00     0.097 C 
ATOM     25  C   UNL A   1      32.245  19.148  22.813  1.00  0.00     0.054 A 
ATOM     26  C   UNL A   1      33.611  18.536  24.721  1.00  0.00     0.157 A 
ATOM     27  C   UNL A   1      32.924  18.193  23.555  1.00  0.00     0.157 A 
BRANCH  26  28
ATOM     28  O   UNL A   1      34.319  17.550  25.353  1.00  0.00    -0.504 OA
ATOM     29  H   UNL A   1      33.941  16.699  25.462  1.00  0.00     0.293 HD
ENDBRANCH  26  28
BRANCH  27  30
ATOM     30  O   UNL A   1      32.982  16.910  23.088  1.00  0.00    -0.504 OA
ATOM     31  H   UNL A   1      32.430  16.252  23.460  1.00  0.00     0.293 HD
ENDBRANCH  27  30
ENDBRANCH  12  16
ENDBRANCH   9  10
ENDBRANCH   8   9
ENDBRANCH   6   8
ENDBRANCH   5   6
ENDBRANCH   4   5
ENDBRANCH   3   4
ENDBRANCH   2   3
ENDBRANCH   1   2
BRANCH   1  32
ATOM     32  C   UNL A   1      34.296  33.091  29.182  1.00  0.00     0.188 C 
BRANCH  32  33
ATOM     33  O   UNL A   1      34.231  34.485  28.990  1.00  0.00    -0.376 OA
BRANCH  33  34
ATOM     34  C   UNL A   1      32.996  35.143  29.172  1.00  0.00     0.202 C 
BRANCH  34  35
ATOM     35  C   UNL A   1      32.901  36.376  30.084  1.00  0.00     0.261 C 
BRANCH  35  36
ATOM     36  O   UNL A   1      32.199  36.187  31.327  1.00  0.00    -0.460 OA
BRANCH  36  37
ATOM     37  C   UNL A   1      32.950  36.273  32.453  1.00  0.00     0.338 C 
ATOM     38  O   UNL A   1      32.764  37.002  33.409  1.00  0.00    -0.246 OA
BRANCH  37  39
ATOM     39  C   UNL A   1      34.008  35.234  32.447  1.00  0.00     0.060 A 
ATOM     40  C   UNL A   1      33.685  33.938  32.880  1.00  0.00     0.016 A 
ATOM     41  C   UNL A   1      35.321  35.551  32.103  1.00  0.00     0.016 A 
ATOM     42  C   UNL A   1      34.681  32.962  33.003  1.00  0.00     0.010 A 
ATOM     43  C   UNL A   1      36.321  34.582  32.252  1.00  0.00     0.010 A 
ATOM     44  C   UNL A   1      36.014  33.294  32.735  1.00  0.00    -0.014 A 
BRANCH  44  45
ATOM     45  C   UNL A   1      37.130  32.400  33.145  1.00  0.00     0.031 A 
ATOM     46  C   UNL A   1      37.832  32.690  34.443  1.00  0.00     0.074 A 
ATOM     47  C   UNL A   1      37.569  31.399  32.364  1.00  0.00     0.049 A 
ATOM     48  N   UNL A   1      38.951  32.200  34.914  1.00  0.00    -0.248 NA
ATOM     49  C   UNL A   1      37.187  33.680  35.319  1.00  0.00     0.031 C 
ATOM     50  C   UNL A   1      36.956  30.963  31.114  1.00  0.00     0.029 A 
ATOM     51  N   UNL A   1      38.674  30.591  32.502  1.00  0.00    -0.354 N 
ATOM     52  C   UNL A   1      39.163  32.850  36.124  1.00  0.00     0.074 A 
ATOM     53  C   UNL A   1      38.062  33.770  36.308  1.00  0.00     0.031 C 
ATOM     54  C   UNL A   1      37.717  29.995  30.573  1.00  0.00     0.029 A 
ATOM     55  C   UNL A   1      38.895  29.781  31.415  1.00  0.00     0.049 A 
ATOM     56  H   UNL A   1      39.250  30.593  33.300  1.00  0.00     0.167 HD
ATOM     57  C   UNL A   1      40.188  32.705  36.997  1.00  0.00     0.031 A 
ATOM     58  C   UNL A   1      39.949  28.997  31.106  1.00  0.00     0.031 A 
ATOM     59  C   UNL A   1      41.297  31.809  36.807  1.00  0.00     0.049 A 
ATOM     60  C   UNL A   1      41.124  28.907  32.046  1.00  0.00     0.074 A 
ATOM     61  C   UNL A   1      42.372  31.576  37.648  1.00  0.00     0.029 A 
ATOM     62  N   UNL A   1      41.483  31.010  35.690  1.00  0.00    -0.354 N 
ATOM     63  N   UNL A   1      41.311  29.511  33.195  1.00  0.00    -0.248 NA
ATOM     64  C   UNL A   1      42.234  28.028  31.646  1.00  0.00     0.031 C 
ATOM     65  C   UNL A   1      43.242  30.689  37.008  1.00  0.00     0.029 A 
ATOM     66  C   UNL A   1      42.672  30.311  35.802  1.00  0.00     0.049 A 
ATOM     67  H   UNL A   1      40.860  30.949  34.929  1.00  0.00     0.167 HD
ATOM     68  C   UNL A   1      42.540  29.061  33.668  1.00  0.00     0.074 A 
ATOM     69  C   UNL A   1      43.055  28.133  32.683  1.00  0.00     0.031 C 
ATOM     70  C   UNL A   1      43.179  29.385  34.820  1.00  0.00     0.031 A 
BRANCH  57  71
ATOM     71  C   UNL A   1      40.188  33.599  38.207  1.00  0.00    -0.014 A 
ATOM     72  C   UNL A   1      39.581  33.211  39.413  1.00  0.00     0.009 A 
ATOM     73  C   UNL A   1      40.802  34.859  38.132  1.00  0.00     0.009 A 
ATOM     74  C   UNL A   1      39.544  34.089  40.498  1.00  0.00     0.001 A 
ATOM     75  C   UNL A   1      40.794  35.720  39.230  1.00  0.00     0.001 A 
ATOM     76  C   UNL A   1      40.152  35.341  40.407  1.00  0.00     0.000 A 
ENDBRANCH  57  71
BRANCH  58  77
ATOM     77  C   UNL A   1      39.963  28.266  29.810  1.00  0.00    -0.014 A 
ATOM     78  C   UNL A   1      39.441  26.969  29.710  1.00  0.00     0.009 A 
ATOM     79  C   UNL A   1      40.493  28.874  28.660  1.00  0.00     0.009 A 
ATOM     80  C   UNL A   1      39.458  26.291  28.489  1.00  0.00     0.001 A 
ATOM     81  C   UNL A   1      40.483  28.206  27.434  1.00  0.00     0.001 A 
ATOM     82  C   UNL A   1      39.971  26.912  27.351  1.00  0.00     0.000 A 
ENDBRANCH  58  77
BRANCH  70  83
ATOM     83  C   UNL A   1      44.485  28.699  35.122  1.00  0.00    -0.014 A 
ATOM     84  C   UNL A   1      45.702  29.173  34.607  1.00  0.00     0.009 A 
ATOM     85  C   UNL A   1      44.501  27.609  36.006  1.00  0.00     0.009 A 
ATOM     86  C   UNL A   1      46.905  28.554  34.960  1.00  0.00     0.001 A 
ATOM     87  C   UNL A   1      45.707  27.011  36.379  1.00  0.00     0.001 A 
ATOM     88  C   UNL A   1      46.907  27.481  35.851  1.00  0.00     0.000 A 
ENDBRANCH  70  83
ENDBRANCH  44  45
ENDBRANCH  37  39
ENDBRANCH  36  37
ENDBRANCH  35  36
ENDBRANCH  34  35
ENDBRANCH  33  34
ENDBRANCH  32  33
ENDBRANCH   1  32
TORSDOF 22
ENDMDL
MODEL 3
REMARK VINA RESULT:      -9.7      6.444     11.754
REMARK SMILES O=C(COc1ccccc1[C@@H]1[NH2+]CCc2cc(O)c(O)cc21)OCCOCCOCCOC(=O)c1ccc(-c2c3nc(c(-c4ccccc4)c4ccc([nH]4)c(-c4ccccc4)c4nc(c(-c5ccccc5)c5ccc2[nH]5)C=C4)C=C3)cc1
REMARK SMILES IDX 27 1 26 2 25 3 24 4 23 5 2 6 1 7 3 8 4 9 5 10 6 11 10 12
REMARK SMILES IDX 7 13 9 14 8 15 11 16 12 17 22 18 13 19 15 22 21 23 14 24
REMARK SMILES IDX 16 25 19 26 17 27 20 28 18 30 28 32 29 33 30 34 31 35 32 36
REMARK SMILES IDX 33 37 34 38 35 39 36 40 82 41 37 42 81 43 38 44 39 45 40 46
REMARK SMILES IDX 75 47 41 48 80 49 74 50 76 51 42 52 79 53 73 54 72 55 43 57
REMARK SMILES IDX 65 58 50 59 64 60 51 61 54 62 63 63 77 64 52 65 53 66 62 68
REMARK SMILES IDX 78 69 55 70 44 71 45 72 49 73 46 74 48 75 47 76 66 77 67 78
REMARK SMILES IDX 71 79 68 80 70 81 69 82 56 83 57 84 61 85 58 86 60 87 59 88
REMARK H PARENT 12 20 12 21 20 29 18 31 76 56 54 67
REMARK Flexibility Score: inf
ROOT
ATOM      1  C   UNL A   1      34.788  32.734  28.145  1.00  0.00     0.188 C 
ENDROOT
BRANCH   1   2
ATOM      2  O   UNL A   1      34.468  31.368  28.283  1.00  0.00    -0.376 OA
BRANCH   2   3
ATOM      3  C   UNL A   1      34.351  30.365  27.288  1.00  0.00     0.202 C 
BRANCH   3   4
ATOM      4  C   UNL A   1      33.065  29.785  26.700  1.00  0.00     0.261 C 
BRANCH   4   5
ATOM      5  O   UNL A   1      32.842  28.428  27.024  1.00  0.00    -0.461 OA
BRANCH   5   6
ATOM      6  C   UNL A   1      33.115  27.438  26.146  1.00  0.00     0.344 C 
ATOM      7  O   UNL A   1      33.627  27.771  25.081  1.00  0.00    -0.248 OA
BRANCH   6   8
ATOM      8  C   UNL A   1      32.684  25.990  26.503  1.00  0.00     0.351 C 
BRANCH   8   9
ATOM      9  O   UNL A   1      33.469  24.991  25.924  1.00  0.00    -0.481 OA
BRANCH   9  10
ATOM     10  C   UNL A   1      33.120  23.672  26.064  1.00  0.00     0.129 A 
ATOM     11  C   UNL A   1      33.820  23.119  27.151  1.00  0.00     0.047 A 
ATOM     12  C   UNL A   1      32.434  22.838  25.148  1.00  0.00     0.056 A 
ATOM     13  C   UNL A   1      34.027  21.752  27.244  1.00  0.00     0.004 A 
ATOM     14  C   UNL A   1      32.752  21.465  25.214  1.00  0.00     0.014 A 
ATOM     15  C   UNL A   1      33.554  20.934  26.231  1.00  0.00     0.001 A 
BRANCH  12  16
ATOM     16  C   UNL A   1      31.490  23.323  24.048  1.00  0.00     0.249 C 
ATOM     17  N   UNL A   1      31.696  22.647  22.741  1.00  0.00    -0.336 N 
ATOM     18  C   UNL A   1      31.372  24.810  23.691  1.00  0.00     0.021 A 
ATOM     19  C   UNL A   1      32.900  23.084  22.012  1.00  0.00     0.266 C 
ATOM     20  H   UNL A   1      30.883  22.833  22.153  1.00  0.00     0.347 HD
ATOM     21  H   UNL A   1      31.823  21.655  22.942  1.00  0.00     0.347 HD
ATOM     22  C   UNL A   1      32.339  25.351  22.808  1.00  0.00    -0.029 A 
ATOM     23  C   UNL A   1      30.188  25.515  23.949  1.00  0.00     0.060 A 
ATOM     24  C   UNL A   1      33.478  24.448  22.417  1.00  0.00     0.097 C 
ATOM     25  C   UNL A   1      32.129  26.587  22.198  1.00  0.00     0.054 A 
ATOM     26  C   UNL A   1      29.969  26.720  23.293  1.00  0.00     0.157 A 
ATOM     27  C   UNL A   1      30.931  27.245  22.428  1.00  0.00     0.157 A 
BRANCH  26  28
ATOM     28  O   UNL A   1      28.783  27.393  23.406  1.00  0.00    -0.504 OA
ATOM     29  H   UNL A   1      28.318  27.656  22.636  1.00  0.00     0.293 HD
ENDBRANCH  26  28
BRANCH  27  30
ATOM     30  O   UNL A   1      30.660  28.389  21.731  1.00  0.00    -0.504 OA
ATOM     31  H   UNL A   1      30.207  29.095  22.147  1.00  0.00     0.293 HD
ENDBRANCH  27  30
ENDBRANCH  12  16
ENDBRANCH   9  10
ENDBRANCH   8   9
ENDBRANCH   6   8
ENDBRANCH   5   6
ENDBRANCH   4   5
ENDBRANCH   3   4
ENDBRANCH   2   3
ENDBRANCH   1   2
BRANCH   1  32
ATOM     32  C   UNL A   1      34.221  33.882  29.010  1.00  0.00     0.188 C 
BRANCH  32  33
ATOM     33  O   UNL A   1      34.321  35.234  28.631  1.00  0.00    -0.376 OA
BRANCH  33  34
ATOM     34  C   UNL A   1      33.193  36.070  28.775  1.00  0.00     0.202 C 
BRANCH  34  35
ATOM     35  C   UNL A   1      33.028  36.941  30.030  1.00  0.00     0.261 C 
BRANCH  35  36
ATOM     36  O   UNL A   1      32.106  36.449  31.021  1.00  0.00    -0.460 OA
BRANCH  36  37
ATOM     37  C   UNL A   1      32.590  36.345  32.284  1.00  0.00     0.338 C 
ATOM     38  O   UNL A   1      32.171  36.904  33.281  1.00  0.00    -0.246 OA
BRANCH  37  39
ATOM     39  C   UNL A   1      33.662  35.324  32.343  1.00  0.00     0.060 A 
ATOM     40  C   UNL A   1      33.344  34.034  32.796  1.00  0.00     0.016 A 
ATOM     41  C   UNL A   1      34.983  35.654  32.040  1.00  0.00     0.016 A 
ATOM     42  C   UNL A   1      34.349  33.078  32.979  1.00  0.00     0.010 A 
ATOM     43  C   UNL A   1      35.991  34.706  32.250  1.00  0.00     0.010 A 
ATOM     44  C   UNL A   1      35.686  33.425  32.752  1.00  0.00    -0.014 A 
BRANCH  44  45
ATOM     45  C   UNL A   1      36.800  32.560  33.226  1.00  0.00     0.031 A 
ATOM     46  C   UNL A   1      37.455  32.898  34.536  1.00  0.00     0.074 A 
ATOM     47  C   UNL A   1      37.278  31.541  32.490  1.00  0.00     0.049 A 
ATOM     48  N   UNL A   1      38.565  32.439  35.057  1.00  0.00    -0.248 NA
ATOM     49  C   UNL A   1      36.769  33.905  35.360  1.00  0.00     0.031 C 
ATOM     50  C   UNL A   1      36.711  31.060  31.235  1.00  0.00     0.029 A 
ATOM     51  N   UNL A   1      38.388  30.753  32.688  1.00  0.00    -0.354 N 
ATOM     52  C   UNL A   1      38.729  33.127  36.253  1.00  0.00     0.074 A 
ATOM     53  C   UNL A   1      37.610  34.038  36.374  1.00  0.00     0.031 C 
ATOM     54  C   UNL A   1      37.502  30.087  30.748  1.00  0.00     0.029 A 
ATOM     55  C   UNL A   1      38.655  29.914  31.634  1.00  0.00     0.049 A 
ATOM     56  H   UNL A   1      38.937  30.787  33.504  1.00  0.00     0.167 HD
ATOM     57  C   UNL A   1      39.727  33.024  37.163  1.00  0.00     0.031 A 
ATOM     58  C   UNL A   1      39.728  29.136  31.383  1.00  0.00     0.031 A 
ATOM     59  C   UNL A   1      40.853  32.138  37.036  1.00  0.00     0.049 A 
ATOM     60  C   UNL A   1      40.873  29.092  32.363  1.00  0.00     0.074 A 
ATOM     61  C   UNL A   1      41.902  31.945  37.918  1.00  0.00     0.029 A 
ATOM     62  N   UNL A   1      41.085  31.308  35.951  1.00  0.00    -0.354 N 
ATOM     63  N   UNL A   1      41.015  29.733  33.499  1.00  0.00    -0.248 NA
ATOM     64  C   UNL A   1      42.006  28.216  32.027  1.00  0.00     0.031 C 
ATOM     65  C   UNL A   1      42.805  31.052  37.334  1.00  0.00     0.029 A 
ATOM     66  C   UNL A   1      42.279  30.630  36.122  1.00  0.00     0.049 A 
ATOM     67  H   UNL A   1      40.489  31.215  35.172  1.00  0.00     0.167 HD
ATOM     68  C   UNL A   1      42.234  29.315  34.024  1.00  0.00     0.074 A 
ATOM     69  C   UNL A   1      42.792  28.364  33.086  1.00  0.00     0.031 C 
ATOM     70  C   UNL A   1      42.830  29.682  35.186  1.00  0.00     0.031 A 
BRANCH  57  71
ATOM     71  C   UNL A   1      39.675  33.954  38.345  1.00  0.00    -0.014 A 
ATOM     72  C   UNL A   1      39.038  33.592  39.543  1.00  0.00     0.009 A 
ATOM     73  C   UNL A   1      40.270  35.221  38.249  1.00  0.00     0.009 A 
ATOM     74  C   UNL A   1      38.954  34.501  40.600  1.00  0.00     0.001 A 
ATOM     75  C   UNL A   1      40.215  36.115  39.319  1.00  0.00     0.001 A 
ATOM     76  C   UNL A   1      39.544  35.760  40.488  1.00  0.00     0.000 A 
ENDBRANCH  57  71
BRANCH  58  77
ATOM     77  C   UNL A   1      39.794  28.367  30.112  1.00  0.00    -0.014 A 
ATOM     78  C   UNL A   1      39.210  27.097  30.009  1.00  0.00     0.009 A 
ATOM     79  C   UNL A   1      40.438  28.911  28.987  1.00  0.00     0.009 A 
ATOM     80  C   UNL A   1      39.276  26.383  28.810  1.00  0.00     0.001 A 
ATOM     81  C   UNL A   1      40.478  28.208  27.782  1.00  0.00     0.001 A 
ATOM     82  C   UNL A   1      39.902  26.941  27.696  1.00  0.00     0.000 A 
ENDBRANCH  58  77
BRANCH  70  83
ATOM     83  C   UNL A   1      44.134  29.024  35.551  1.00  0.00    -0.014 A 
ATOM     84  C   UNL A   1      44.176  27.807  36.248  1.00  0.00     0.009 A 
ATOM     85  C   UNL A   1      45.339  29.594  35.110  1.00  0.00     0.009 A 
ATOM     86  C   UNL A   1      45.401  27.187  36.513  1.00  0.00     0.001 A 
ATOM     87  C   UNL A   1      46.559  28.958  35.350  1.00  0.00     0.001 A 
ATOM     88  C   UNL A   1      46.589  27.758  36.056  1.00  0.00     0.000 A 
ENDBRANCH  70  83
ENDBRANCH  44  45
ENDBRANCH  37  39
ENDBRANCH  36  37
ENDBRANCH  35  36
ENDBRANCH  34  35
ENDBRANCH  33  34
ENDBRANCH  32  33
ENDBRANCH   1  32
TORSDOF 22
ENDMDL
