MODEL 1
REMARK VINA RESULT:      -8.9      0.000      0.000
REMARK SMILES CC[C@@H]1CCCN1C(=O)N(CC(=O)OCCOCCOCCOC(=O)c1ccc(-c2c3nc(c(-c4ccccc4)c4ccc([nH]4)c(-c4ccccc4)c4nc(c(-c5ccccc5)c5ccc2[nH]5)C=C4)C=C3)cc1)CC(F)(F)F
REMARK SMILES IDX 18 1 17 2 16 3 15 4 14 5 12 6 13 7 11 8 10 9 8 10 9 11 7 12
REMARK SMILES IDX 3 13 4 14 5 15 6 16 2 17 1 18 74 19 75 20 76 21 77 22 78 23
REMARK SMILES IDX 19 24 20 25 21 26 22 27 23 28 24 29 25 30 26 31 27 32 73 33
REMARK SMILES IDX 28 34 72 35 29 36 30 37 31 38 66 39 32 40 71 41 65 42 67 43
REMARK SMILES IDX 33 44 70 45 64 46 63 47 34 49 56 50 41 51 55 52 42 53 45 54
REMARK SMILES IDX 54 55 68 56 43 57 44 58 53 60 69 61 46 62 35 63 36 64 40 65
REMARK SMILES IDX 37 66 39 67 38 68 57 69 58 70 62 71 59 72 61 73 60 74 47 75
REMARK SMILES IDX 48 76 52 77 49 78 51 79 50 80
REMARK H PARENT 67 48 45 59
REMARK Flexibility Score: inf
ROOT
ATOM      1  C   UNL A   1      33.627  27.794  24.973  1.00  0.00     0.188 C 
ENDROOT
BRANCH   1   2
ATOM      2  O   UNL A   1      34.122  28.484  23.827  1.00  0.00    -0.376 OA
BRANCH   2   3
ATOM      3  C   UNL A   1      33.479  28.292  22.574  1.00  0.00     0.202 C 
BRANCH   3   4
ATOM      4  C   UNL A   1      33.114  26.847  22.229  1.00  0.00     0.261 C 
BRANCH   4   5
ATOM      5  O   UNL A   1      31.693  26.581  22.156  1.00  0.00    -0.462 OA
BRANCH   5   6
ATOM      6  C   UNL A   1      31.144  25.827  23.146  1.00  0.00     0.325 C 
ATOM      7  O   UNL A   1      30.449  26.285  24.048  1.00  0.00    -0.250 OA
BRANCH   6   8
ATOM      8  C   UNL A   1      31.498  24.318  23.096  1.00  0.00     0.244 C 
BRANCH   8   9
ATOM      9  N   UNL A   1      32.601  23.689  23.838  1.00  0.00    -0.304 N 
BRANCH   9  10
ATOM     10  C   UNL A   1      33.836  23.299  23.387  1.00  0.00     0.321 C 
ATOM     11  O   UNL A   1      34.055  23.444  22.174  1.00  0.00    -0.248 OA
BRANCH  10  12
ATOM     12  N   UNL A   1      34.828  22.746  24.143  1.00  0.00    -0.322 N 
ATOM     13  C   UNL A   1      35.204  21.413  24.665  1.00  0.00     0.086 C 
ATOM     14  C   UNL A   1      36.316  21.734  25.681  1.00  0.00     0.027 C 
ATOM     15  C   UNL A   1      37.048  22.894  25.061  1.00  0.00     0.024 C 
ATOM     16  C   UNL A   1      35.920  23.687  24.436  1.00  0.00     0.122 C 
BRANCH  13  17
ATOM     17  C   UNL A   1      34.164  20.582  25.411  1.00  0.00     0.022 C 
ATOM     18  C   UNL A   1      33.831  19.295  24.659  1.00  0.00     0.006 C 
ENDBRANCH  13  17
ENDBRANCH  10  12
ENDBRANCH   9  10
BRANCH   9  19
ATOM     19  C   UNL A   1      32.553  23.852  25.322  1.00  0.00     0.237 C 
BRANCH  19  20
ATOM     20  C   UNL A   1      31.430  23.134  26.110  1.00  0.00     0.406 C 
ATOM     21  F   UNL A   1      31.038  21.973  25.547  1.00  0.00    -0.169 F 
ATOM     22  F   UNL A   1      31.909  22.811  27.339  1.00  0.00    -0.169 F 
ATOM     23  F   UNL A   1      30.348  23.915  26.312  1.00  0.00    -0.169 F 
ENDBRANCH  19  20
ENDBRANCH   9  19
ENDBRANCH   8   9
ENDBRANCH   6   8
ENDBRANCH   5   6
ENDBRANCH   4   5
ENDBRANCH   3   4
ENDBRANCH   2   3
ENDBRANCH   1   2
BRANCH   1  24
ATOM     24  C   UNL A   1      32.859  28.591  26.035  1.00  0.00     0.188 C 
BRANCH  24  25
ATOM     25  O   UNL A   1      32.565  29.895  25.582  1.00  0.00    -0.376 OA
BRANCH  25  26
ATOM     26  C   UNL A   1      32.136  30.813  26.566  1.00  0.00     0.202 C 
BRANCH  26  27
ATOM     27  C   UNL A   1      33.292  31.521  27.279  1.00  0.00     0.261 C 
BRANCH  27  28
ATOM     28  O   UNL A   1      34.015  30.730  28.245  1.00  0.00    -0.460 OA
BRANCH  28  29
ATOM     29  C   UNL A   1      34.978  31.334  28.970  1.00  0.00     0.338 C 
ATOM     30  O   UNL A   1      34.869  32.352  29.644  1.00  0.00    -0.246 OA
BRANCH  29  31
ATOM     31  C   UNL A   1      36.170  30.457  28.977  1.00  0.00     0.060 A 
ATOM     32  C   UNL A   1      36.602  29.865  30.175  1.00  0.00     0.016 A 
ATOM     33  C   UNL A   1      36.871  30.235  27.793  1.00  0.00     0.016 A 
ATOM     34  C   UNL A   1      37.756  29.074  30.198  1.00  0.00     0.010 A 
ATOM     35  C   UNL A   1      38.037  29.467  27.821  1.00  0.00     0.010 A 
ATOM     36  C   UNL A   1      38.505  28.911  29.026  1.00  0.00    -0.014 A 
BRANCH  36  37
ATOM     37  C   UNL A   1      39.883  28.360  29.055  1.00  0.00     0.031 A 
ATOM     38  C   UNL A   1      41.015  29.321  29.292  1.00  0.00     0.074 A 
ATOM     39  C   UNL A   1      40.140  27.065  28.802  1.00  0.00     0.049 A 
ATOM     40  N   UNL A   1      42.301  29.155  29.119  1.00  0.00    -0.248 NA
ATOM     41  C   UNL A   1      40.637  30.660  29.776  1.00  0.00     0.031 C 
ATOM     42  C   UNL A   1      39.138  26.016  28.630  1.00  0.00     0.029 A 
ATOM     43  N   UNL A   1      41.340  26.423  28.612  1.00  0.00    -0.354 N 
ATOM     44  C   UNL A   1      42.880  30.379  29.434  1.00  0.00     0.074 A 
ATOM     45  C   UNL A   1      41.807  31.278  29.800  1.00  0.00     0.031 C 
ATOM     46  C   UNL A   1      39.764  24.864  28.328  1.00  0.00     0.029 A 
ATOM     47  C   UNL A   1      41.202  25.111  28.227  1.00  0.00     0.049 A 
ATOM     48  H   UNL A   1      42.212  26.860  28.740  1.00  0.00     0.167 HD
ATOM     49  C   UNL A   1      44.189  30.726  29.409  1.00  0.00     0.031 A 
ATOM     50  C   UNL A   1      42.127  24.229  27.796  1.00  0.00     0.031 A 
ATOM     51  C   UNL A   1      45.247  29.831  29.031  1.00  0.00     0.049 A 
ATOM     52  C   UNL A   1      43.567  24.661  27.684  1.00  0.00     0.074 A 
ATOM     53  C   UNL A   1      46.608  30.079  28.977  1.00  0.00     0.029 A 
ATOM     54  N   UNL A   1      45.062  28.516  28.637  1.00  0.00    -0.354 N 
ATOM     55  N   UNL A   1      44.109  25.820  27.973  1.00  0.00    -0.248 NA
ATOM     56  C   UNL A   1      44.524  23.663  27.181  1.00  0.00     0.031 C 
ATOM     57  C   UNL A   1      47.239  28.930  28.493  1.00  0.00     0.029 A 
ATOM     58  C   UNL A   1      46.281  27.945  28.316  1.00  0.00     0.049 A 
ATOM     59  H   UNL A   1      44.193  28.055  28.592  1.00  0.00     0.167 HD
ATOM     60  C   UNL A   1      45.471  25.676  27.729  1.00  0.00     0.074 A 
ATOM     61  C   UNL A   1      45.672  24.319  27.269  1.00  0.00     0.031 C 
ATOM     62  C   UNL A   1      46.466  26.585  27.879  1.00  0.00     0.031 A 
BRANCH  49  63
ATOM     63  C   UNL A   1      44.536  32.148  29.751  1.00  0.00    -0.014 A 
ATOM     64  C   UNL A   1      44.570  33.153  28.770  1.00  0.00     0.009 A 
ATOM     65  C   UNL A   1      44.810  32.493  31.084  1.00  0.00     0.009 A 
ATOM     66  C   UNL A   1      44.910  34.464  29.113  1.00  0.00     0.001 A 
ATOM     67  C   UNL A   1      45.117  33.810  31.428  1.00  0.00     0.001 A 
ATOM     68  C   UNL A   1      45.177  34.791  30.441  1.00  0.00     0.000 A 
ENDBRANCH  49  63
BRANCH  50  69
ATOM     69  C   UNL A   1      41.720  22.854  27.394  1.00  0.00    -0.014 A 
ATOM     70  C   UNL A   1      42.120  21.742  28.151  1.00  0.00     0.009 A 
ATOM     71  C   UNL A   1      40.949  22.643  26.239  1.00  0.00     0.009 A 
ATOM     72  C   UNL A   1      41.779  20.449  27.748  1.00  0.00     0.001 A 
ATOM     73  C   UNL A   1      40.582  21.350  25.856  1.00  0.00     0.001 A 
ATOM     74  C   UNL A   1      41.005  20.254  26.606  1.00  0.00     0.000 A 
ENDBRANCH  50  69
BRANCH  62  75
ATOM     75  C   UNL A   1      47.875  26.131  27.616  1.00  0.00    -0.014 A 
ATOM     76  C   UNL A   1      48.632  25.468  28.593  1.00  0.00     0.009 A 
ATOM     77  C   UNL A   1      48.420  26.301  26.333  1.00  0.00     0.009 A 
ATOM     78  C   UNL A   1      49.916  25.006  28.295  1.00  0.00     0.001 A 
ATOM     79  C   UNL A   1      49.691  25.813  26.029  1.00  0.00     0.001 A 
ATOM     80  C   UNL A   1      50.441  25.171  27.013  1.00  0.00     0.000 A 
ENDBRANCH  62  75
ENDBRANCH  36  37
ENDBRANCH  29  31
ENDBRANCH  28  29
ENDBRANCH  27  28
ENDBRANCH  26  27
ENDBRANCH  25  26
ENDBRANCH  24  25
ENDBRANCH   1  24
TORSDOF 23
ENDMDL
MODEL 2
REMARK VINA RESULT:      -8.8      2.342      7.772
REMARK SMILES CC[C@@H]1CCCN1C(=O)N(CC(=O)OCCOCCOCCOC(=O)c1ccc(-c2c3nc(c(-c4ccccc4)c4ccc([nH]4)c(-c4ccccc4)c4nc(c(-c5ccccc5)c5ccc2[nH]5)C=C4)C=C3)cc1)CC(F)(F)F
REMARK SMILES IDX 18 1 17 2 16 3 15 4 14 5 12 6 13 7 11 8 10 9 8 10 9 11 7 12
REMARK SMILES IDX 3 13 4 14 5 15 6 16 2 17 1 18 74 19 75 20 76 21 77 22 78 23
REMARK SMILES IDX 19 24 20 25 21 26 22 27 23 28 24 29 25 30 26 31 27 32 73 33
REMARK SMILES IDX 28 34 72 35 29 36 30 37 31 38 66 39 32 40 71 41 65 42 67 43
REMARK SMILES IDX 33 44 70 45 64 46 63 47 34 49 56 50 41 51 55 52 42 53 45 54
REMARK SMILES IDX 54 55 68 56 43 57 44 58 53 60 69 61 46 62 35 63 36 64 40 65
REMARK SMILES IDX 37 66 39 67 38 68 57 69 58 70 62 71 59 72 61 73 60 74 47 75
REMARK SMILES IDX 48 76 52 77 49 78 51 79 50 80
REMARK H PARENT 67 48 45 59
REMARK Flexibility Score: inf
ROOT
ATOM      1  C   UNL A   1      35.334  20.692  25.048  1.00  0.00     0.188 C 
ENDROOT
BRANCH   1   2
ATOM      2  O   UNL A   1      34.086  21.113  25.592  1.00  0.00    -0.376 OA
BRANCH   2   3
ATOM      3  C   UNL A   1      33.990  21.365  26.987  1.00  0.00     0.202 C 
BRANCH   3   4
ATOM      4  C   UNL A   1      33.341  22.693  27.380  1.00  0.00     0.261 C 
BRANCH   4   5
ATOM      5  O   UNL A   1      31.903  22.645  27.534  1.00  0.00    -0.462 OA
BRANCH   5   6
ATOM      6  C   UNL A   1      31.159  23.496  26.778  1.00  0.00     0.325 C 
ATOM      7  O   UNL A   1      30.115  24.017  27.161  1.00  0.00    -0.250 OA
BRANCH   6   8
ATOM      8  C   UNL A   1      31.696  23.739  25.344  1.00  0.00     0.244 C 
BRANCH   8   9
ATOM      9  N   UNL A   1      32.000  25.061  24.774  1.00  0.00    -0.304 N 
BRANCH   9  10
ATOM     10  C   UNL A   1      33.217  25.662  24.580  1.00  0.00     0.321 C 
ATOM     11  O   UNL A   1      34.212  25.043  24.988  1.00  0.00    -0.248 OA
BRANCH  10  12
ATOM     12  N   UNL A   1      33.428  26.881  24.005  1.00  0.00    -0.322 N 
ATOM     13  C   UNL A   1      33.775  28.255  24.430  1.00  0.00     0.086 C 
ATOM     14  C   UNL A   1      33.518  29.090  23.162  1.00  0.00     0.027 C 
ATOM     15  C   UNL A   1      33.925  28.175  22.038  1.00  0.00     0.024 C 
ATOM     16  C   UNL A   1      33.449  26.827  22.535  1.00  0.00     0.122 C 
BRANCH  13  17
ATOM     17  C   UNL A   1      32.976  28.915  25.550  1.00  0.00     0.022 C 
ATOM     18  C   UNL A   1      33.893  29.561  26.587  1.00  0.00     0.006 C 
ENDBRANCH  13  17
ENDBRANCH  10  12
ENDBRANCH   9  10
BRANCH   9  19
ATOM     19  C   UNL A   1      30.918  25.664  23.939  1.00  0.00     0.237 C 
BRANCH  19  20
ATOM     20  C   UNL A   1      29.973  26.704  24.589  1.00  0.00     0.406 C 
ATOM     21  F   UNL A   1      28.690  26.294  24.656  1.00  0.00    -0.169 F 
ATOM     22  F   UNL A   1      30.371  26.899  25.873  1.00  0.00    -0.169 F 
ATOM     23  F   UNL A   1      30.022  27.909  23.984  1.00  0.00    -0.169 F 
ENDBRANCH  19  20
ENDBRANCH   9  19
ENDBRANCH   8   9
ENDBRANCH   6   8
ENDBRANCH   5   6
ENDBRANCH   4   5
ENDBRANCH   3   4
ENDBRANCH   2   3
ENDBRANCH   1   2
BRANCH   1  24
ATOM     24  C   UNL A   1      36.607  21.441  25.461  1.00  0.00     0.188 C 
BRANCH  24  25
ATOM     25  O   UNL A   1      37.750  20.885  24.849  1.00  0.00    -0.376 OA
BRANCH  25  26
ATOM     26  C   UNL A   1      38.961  21.009  25.565  1.00  0.00     0.202 C 
BRANCH  26  27
ATOM     27  C   UNL A   1      39.594  19.660  25.923  1.00  0.00     0.261 C 
BRANCH  27  28
ATOM     28  O   UNL A   1      40.856  19.368  25.287  1.00  0.00    -0.460 OA
BRANCH  28  29
ATOM     29  C   UNL A   1      41.974  19.416  26.039  1.00  0.00     0.338 C 
ATOM     30  O   UNL A   1      42.804  18.528  26.192  1.00  0.00    -0.246 OA
BRANCH  29  31
ATOM     31  C   UNL A   1      42.147  20.806  26.518  1.00  0.00     0.060 A 
ATOM     32  C   UNL A   1      42.508  21.822  25.617  1.00  0.00     0.016 A 
ATOM     33  C   UNL A   1      41.967  21.099  27.869  1.00  0.00     0.016 A 
ATOM     34  C   UNL A   1      42.722  23.128  26.072  1.00  0.00     0.010 A 
ATOM     35  C   UNL A   1      42.205  22.397  28.326  1.00  0.00     0.010 A 
ATOM     36  C   UNL A   1      42.615  23.410  27.439  1.00  0.00    -0.014 A 
BRANCH  36  37
ATOM     37  C   UNL A   1      43.131  24.677  28.014  1.00  0.00     0.031 A 
ATOM     38  C   UNL A   1      42.128  25.723  28.415  1.00  0.00     0.074 A 
ATOM     39  C   UNL A   1      44.448  24.934  28.110  1.00  0.00     0.049 A 
ATOM     40  N   UNL A   1      42.307  26.986  28.700  1.00  0.00    -0.248 NA
ATOM     41  C   UNL A   1      40.724  25.280  28.486  1.00  0.00     0.031 C 
ATOM     42  C   UNL A   1      45.523  23.987  27.828  1.00  0.00     0.029 A 
ATOM     43  N   UNL A   1      45.098  26.098  28.442  1.00  0.00    -0.354 N 
ATOM     44  C   UNL A   1      41.037  27.497  28.944  1.00  0.00     0.074 A 
ATOM     45  C   UNL A   1      40.099  26.411  28.766  1.00  0.00     0.031 C 
ATOM     46  C   UNL A   1      46.704  24.617  27.970  1.00  0.00     0.029 A 
ATOM     47  C   UNL A   1      46.462  26.023  28.292  1.00  0.00     0.049 A 
ATOM     48  H   UNL A   1      44.633  26.906  28.758  1.00  0.00     0.167 HD
ATOM     49  C   UNL A   1      40.685  28.762  29.276  1.00  0.00     0.031 A 
ATOM     50  C   UNL A   1      47.400  26.990  28.357  1.00  0.00     0.031 A 
ATOM     51  C   UNL A   1      41.623  29.838  29.437  1.00  0.00     0.049 A 
ATOM     52  C   UNL A   1      46.979  28.411  28.635  1.00  0.00     0.074 A 
ATOM     53  C   UNL A   1      41.373  31.156  29.777  1.00  0.00     0.029 A 
ATOM     54  N   UNL A   1      42.993  29.721  29.263  1.00  0.00    -0.354 N 
ATOM     55  N   UNL A   1      45.779  28.892  28.856  1.00  0.00    -0.248 NA
ATOM     56  C   UNL A   1      48.044  29.426  28.667  1.00  0.00     0.031 C 
ATOM     57  C   UNL A   1      42.586  31.849  29.750  1.00  0.00     0.029 A 
ATOM     58  C   UNL A   1      43.599  30.948  29.467  1.00  0.00     0.049 A 
ATOM     59  H   UNL A   1      43.464  28.889  29.030  1.00  0.00     0.167 HD
ATOM     60  C   UNL A   1      45.950  30.251  29.095  1.00  0.00     0.074 A 
ATOM     61  C   UNL A   1      47.369  30.518  28.993  1.00  0.00     0.031 C 
ATOM     62  C   UNL A   1      45.016  31.192  29.381  1.00  0.00     0.031 A 
BRANCH  49  63
ATOM     63  C   UNL A   1      39.219  29.055  29.432  1.00  0.00    -0.014 A 
ATOM     64  C   UNL A   1      38.581  28.969  30.680  1.00  0.00     0.009 A 
ATOM     65  C   UNL A   1      38.468  29.447  28.312  1.00  0.00     0.009 A 
ATOM     66  C   UNL A   1      37.214  29.232  30.795  1.00  0.00     0.001 A 
ATOM     67  C   UNL A   1      37.110  29.741  28.436  1.00  0.00     0.001 A 
ATOM     68  C   UNL A   1      36.482  29.623  29.674  1.00  0.00     0.000 A 
ENDBRANCH  49  63
BRANCH  50  69
ATOM     69  C   UNL A   1      48.832  26.662  28.117  1.00  0.00    -0.014 A 
ATOM     70  C   UNL A   1      49.359  26.677  26.817  1.00  0.00     0.009 A 
ATOM     71  C   UNL A   1      49.675  26.308  29.183  1.00  0.00     0.009 A 
ATOM     72  C   UNL A   1      50.691  26.322  26.586  1.00  0.00     0.001 A 
ATOM     73  C   UNL A   1      51.015  25.985  28.953  1.00  0.00     0.001 A 
ATOM     74  C   UNL A   1      51.519  25.984  27.654  1.00  0.00     0.000 A 
ENDBRANCH  50  69
BRANCH  62  75
ATOM     75  C   UNL A   1      45.495  32.586  29.677  1.00  0.00    -0.014 A 
ATOM     76  C   UNL A   1      45.888  32.974  30.965  1.00  0.00     0.009 A 
ATOM     77  C   UNL A   1      45.629  33.502  28.620  1.00  0.00     0.009 A 
ATOM     78  C   UNL A   1      46.385  34.260  31.193  1.00  0.00     0.001 A 
ATOM     79  C   UNL A   1      46.153  34.775  28.844  1.00  0.00     0.001 A 
ATOM     80  C   UNL A   1      46.525  35.155  30.132  1.00  0.00     0.000 A 
ENDBRANCH  62  75
ENDBRANCH  36  37
ENDBRANCH  29  31
ENDBRANCH  28  29
ENDBRANCH  27  28
ENDBRANCH  26  27
ENDBRANCH  25  26
ENDBRANCH  24  25
ENDBRANCH   1  24
TORSDOF 23
ENDMDL
MODEL 3
REMARK VINA RESULT:      -8.7      3.557      4.933
REMARK SMILES CC[C@@H]1CCCN1C(=O)N(CC(=O)OCCOCCOCCOC(=O)c1ccc(-c2c3nc(c(-c4ccccc4)c4ccc([nH]4)c(-c4ccccc4)c4nc(c(-c5ccccc5)c5ccc2[nH]5)C=C4)C=C3)cc1)CC(F)(F)F
REMARK SMILES IDX 18 1 17 2 16 3 15 4 14 5 12 6 13 7 11 8 10 9 8 10 9 11 7 12
REMARK SMILES IDX 3 13 4 14 5 15 6 16 2 17 1 18 74 19 75 20 76 21 77 22 78 23
REMARK SMILES IDX 19 24 20 25 21 26 22 27 23 28 24 29 25 30 26 31 27 32 73 33
REMARK SMILES IDX 28 34 72 35 29 36 30 37 31 38 66 39 32 40 71 41 65 42 67 43
REMARK SMILES IDX 33 44 70 45 64 46 63 47 34 49 56 50 41 51 55 52 42 53 45 54
REMARK SMILES IDX 54 55 68 56 43 57 44 58 53 60 69 61 46 62 35 63 36 64 40 65
REMARK SMILES IDX 37 66 39 67 38 68 57 69 58 70 62 71 59 72 61 73 60 74 47 75
REMARK SMILES IDX 48 76 52 77 49 78 51 79 50 80
REMARK H PARENT 67 48 45 59
REMARK Flexibility Score: inf
ROOT
ATOM      1  C   UNL A   1      34.334  30.838  27.582  1.00  0.00     0.188 C 
ENDROOT
BRANCH   1   2
ATOM      2  O   UNL A   1      32.977  30.601  27.214  1.00  0.00    -0.376 OA
BRANCH   2   3
ATOM      3  C   UNL A   1      32.472  29.274  27.254  1.00  0.00     0.202 C 
BRANCH   3   4
ATOM      4  C   UNL A   1      33.410  28.189  26.721  1.00  0.00     0.261 C 
BRANCH   4   5
ATOM      5  O   UNL A   1      33.305  27.940  25.299  1.00  0.00    -0.462 OA
BRANCH   5   6
ATOM      6  C   UNL A   1      32.267  27.174  24.869  1.00  0.00     0.325 C 
ATOM      7  O   UNL A   1      31.406  27.565  24.086  1.00  0.00    -0.250 OA
BRANCH   6   8
ATOM      8  C   UNL A   1      32.203  25.752  25.484  1.00  0.00     0.244 C 
BRANCH   8   9
ATOM      9  N   UNL A   1      32.962  24.591  24.995  1.00  0.00    -0.304 N 
BRANCH   9  10
ATOM     10  C   UNL A   1      32.915  23.286  25.415  1.00  0.00     0.321 C 
ATOM     11  O   UNL A   1      31.831  22.888  25.869  1.00  0.00    -0.248 OA
BRANCH  10  12
ATOM     12  N   UNL A   1      33.953  22.400  25.400  1.00  0.00    -0.322 N 
ATOM     13  C   UNL A   1      35.283  22.250  26.032  1.00  0.00     0.086 C 
ATOM     14  C   UNL A   1      35.925  21.104  25.229  1.00  0.00     0.027 C 
ATOM     15  C   UNL A   1      34.771  20.189  24.917  1.00  0.00     0.024 C 
ATOM     16  C   UNL A   1      33.649  21.170  24.654  1.00  0.00     0.122 C 
BRANCH  13  17
ATOM     17  C   UNL A   1      36.268  23.414  25.986  1.00  0.00     0.022 C 
ATOM     18  C   UNL A   1      36.986  23.487  24.640  1.00  0.00     0.006 C 
ENDBRANCH  13  17
ENDBRANCH  10  12
ENDBRANCH   9  10
BRANCH   9  19
ATOM     19  C   UNL A   1      33.556  24.738  23.632  1.00  0.00     0.237 C 
BRANCH  19  20
ATOM     20  C   UNL A   1      32.683  24.387  22.402  1.00  0.00     0.406 C 
ATOM     21  F   UNL A   1      33.235  23.452  21.602  1.00  0.00    -0.169 F 
ATOM     22  F   UNL A   1      31.513  23.857  22.845  1.00  0.00    -0.169 F 
ATOM     23  F   UNL A   1      32.359  25.468  21.662  1.00  0.00    -0.169 F 
ENDBRANCH  19  20
ENDBRANCH   9  19
ENDBRANCH   8   9
ENDBRANCH   6   8
ENDBRANCH   5   6
ENDBRANCH   4   5
ENDBRANCH   3   4
ENDBRANCH   2   3
ENDBRANCH   1   2
BRANCH   1  24
ATOM     24  C   UNL A   1      34.737  32.246  28.038  1.00  0.00     0.188 C 
BRANCH  24  25
ATOM     25  O   UNL A   1      33.612  33.094  28.134  1.00  0.00    -0.376 OA
BRANCH  25  26
ATOM     26  C   UNL A   1      33.863  34.477  28.000  1.00  0.00     0.202 C 
BRANCH  26  27
ATOM     27  C   UNL A   1      33.220  35.319  29.106  1.00  0.00     0.261 C 
BRANCH  27  28
ATOM     28  O   UNL A   1      33.083  34.674  30.390  1.00  0.00    -0.460 OA
BRANCH  28  29
ATOM     29  C   UNL A   1      33.986  34.965  31.348  1.00  0.00     0.338 C 
ATOM     30  O   UNL A   1      33.908  35.844  32.198  1.00  0.00    -0.246 OA
BRANCH  29  31
ATOM     31  C   UNL A   1      35.028  33.914  31.333  1.00  0.00     0.060 A 
ATOM     32  C   UNL A   1      34.764  32.652  31.891  1.00  0.00     0.016 A 
ATOM     33  C   UNL A   1      36.278  34.188  30.781  1.00  0.00     0.016 A 
ATOM     34  C   UNL A   1      35.761  31.670  31.924  1.00  0.00     0.010 A 
ATOM     35  C   UNL A   1      37.280  33.217  30.837  1.00  0.00     0.010 A 
ATOM     36  C   UNL A   1      37.040  31.967  31.438  1.00  0.00    -0.014 A 
BRANCH  36  37
ATOM     37  C   UNL A   1      38.205  31.096  31.731  1.00  0.00     0.031 A 
ATOM     38  C   UNL A   1      39.096  31.482  32.880  1.00  0.00     0.074 A 
ATOM     39  C   UNL A   1      38.517  30.038  30.962  1.00  0.00     0.049 A 
ATOM     40  N   UNL A   1      40.291  31.053  33.189  1.00  0.00    -0.248 NA
ATOM     41  C   UNL A   1      38.565  32.508  33.794  1.00  0.00     0.031 C 
ATOM     42  C   UNL A   1      37.705  29.511  29.868  1.00  0.00     0.029 A 
ATOM     43  N   UNL A   1      39.634  29.238  30.972  1.00  0.00    -0.354 N 
ATOM     44  C   UNL A   1      40.671  31.785  34.309  1.00  0.00     0.074 A 
ATOM     45  C   UNL A   1      39.585  32.688  34.618  1.00  0.00     0.031 C 
ATOM     46  C   UNL A   1      38.366  28.492  29.290  1.00  0.00     0.029 A 
ATOM     47  C   UNL A   1      39.669  28.337  29.934  1.00  0.00     0.049 A 
ATOM     48  H   UNL A   1      40.339  29.303  31.655  1.00  0.00     0.167 HD
ATOM     49  C   UNL A   1      41.828  31.718  35.009  1.00  0.00     0.031 A 
ATOM     50  C   UNL A   1      40.661  27.520  29.524  1.00  0.00     0.031 A 
ATOM     51  C   UNL A   1      42.909  30.827  34.688  1.00  0.00     0.049 A 
ATOM     52  C   UNL A   1      41.977  27.527  30.260  1.00  0.00     0.074 A 
ATOM     53  C   UNL A   1      44.122  30.674  35.336  1.00  0.00     0.029 A 
ATOM     54  N   UNL A   1      42.907  29.941  33.622  1.00  0.00    -0.354 N 
ATOM     55  N   UNL A   1      42.336  28.225  31.310  1.00  0.00    -0.248 NA
ATOM     56  C   UNL A   1      43.029  26.634  29.749  1.00  0.00     0.031 C 
ATOM     57  C   UNL A   1      44.879  29.738  34.625  1.00  0.00     0.029 A 
ATOM     58  C   UNL A   1      44.108  29.255  33.580  1.00  0.00     0.049 A 
ATOM     59  H   UNL A   1      42.164  29.819  32.989  1.00  0.00     0.167 HD
ATOM     60  C   UNL A   1      43.634  27.825  31.610  1.00  0.00     0.074 A 
ATOM     61  C   UNL A   1      43.999  26.823  30.632  1.00  0.00     0.031 C 
ATOM     62  C   UNL A   1      44.447  28.245  32.611  1.00  0.00     0.031 A 
BRANCH  49  63
ATOM     63  C   UNL A   1      41.999  32.672  36.159  1.00  0.00    -0.014 A 
ATOM     64  C   UNL A   1      41.610  32.328  37.464  1.00  0.00     0.009 A 
ATOM     65  C   UNL A   1      42.583  33.929  35.934  1.00  0.00     0.009 A 
ATOM     66  C   UNL A   1      41.766  33.240  38.511  1.00  0.00     0.001 A 
ATOM     67  C   UNL A   1      42.768  34.824  36.988  1.00  0.00     0.001 A 
ATOM     68  C   UNL A   1      42.350  34.483  38.273  1.00  0.00     0.000 A 
ENDBRANCH  49  63
BRANCH  50  69
ATOM     69  C   UNL A   1      40.469  26.650  28.332  1.00  0.00    -0.014 A 
ATOM     70  C   UNL A   1      39.783  25.431  28.440  1.00  0.00     0.009 A 
ATOM     71  C   UNL A   1      40.992  27.022  27.082  1.00  0.00     0.009 A 
ATOM     72  C   UNL A   1      39.645  24.592  27.331  1.00  0.00     0.001 A 
ATOM     73  C   UNL A   1      40.824  26.196  25.967  1.00  0.00     0.001 A 
ATOM     74  C   UNL A   1      40.159  24.978  26.095  1.00  0.00     0.000 A 
ENDBRANCH  50  69
BRANCH  62  75
ATOM     75  C   UNL A   1      45.787  27.577  32.751  1.00  0.00    -0.014 A 
ATOM     76  C   UNL A   1      46.940  28.104  32.153  1.00  0.00     0.009 A 
ATOM     77  C   UNL A   1      45.903  26.441  33.569  1.00  0.00     0.009 A 
ATOM     78  C   UNL A   1      48.180  27.491  32.354  1.00  0.00     0.001 A 
ATOM     79  C   UNL A   1      47.146  25.849  33.792  1.00  0.00     0.001 A 
ATOM     80  C   UNL A   1      48.283  26.371  33.178  1.00  0.00     0.000 A 
ENDBRANCH  62  75
ENDBRANCH  36  37
ENDBRANCH  29  31
ENDBRANCH  28  29
ENDBRANCH  27  28
ENDBRANCH  26  27
ENDBRANCH  25  26
ENDBRANCH  24  25
ENDBRANCH   1  24
TORSDOF 23
ENDMDL
