MODEL 1
REMARK VINA RESULT:     -10.8      0.000      0.000
REMARK SMILES Cc1nc(-c2ccccc2Cl)nc2sc(C(=O)OCCOCCOCCOC(=O)c3ccc(-c4c5nc(c(-c6ccccc6)c6ccc([nH]6)c(-c6ccccc6)c6nc(c(-c7ccccc7)c7ccc4[nH]7)C=C6)C=C5)cc3)c(N)c12
REMARK SMILES IDX 23 1 22 2 21 3 20 4 19 5 18 6 16 7 17 8 15 9 1 10 2 11 3 12
REMARK SMILES IDX 80 13 4 14 13 15 78 16 12 17 14 18 5 19 6 20 10 21 7 22 9 23
REMARK SMILES IDX 11 24 8 25 79 26 24 29 25 30 26 31 27 32 28 33 29 34 30 35
REMARK SMILES IDX 31 36 77 37 32 38 76 39 33 40 34 41 35 42 70 43 36 44 75 45
REMARK SMILES IDX 69 46 71 47 37 48 74 49 68 50 67 51 38 53 60 54 45 55 59 56
REMARK SMILES IDX 46 57 49 58 58 59 72 60 47 61 48 62 57 64 73 65 50 66 39 67
REMARK SMILES IDX 40 68 44 69 41 70 43 71 42 72 61 73 62 74 66 75 63 76 65 77
REMARK SMILES IDX 64 78 51 79 52 80 56 81 53 82 55 83 54 84
REMARK H PARENT 79 27 79 28 71 52 49 63
REMARK Flexibility Score: inf
ROOT
ATOM      1  C   UNL A   1      31.813  30.146  26.883  1.00  0.00     0.188 C 
ENDROOT
BRANCH   1   2
ATOM      2  C   UNL A   1      31.720  30.061  25.343  1.00  0.00     0.188 C 
BRANCH   2   3
ATOM      3  O   UNL A   1      31.532  28.825  24.663  1.00  0.00    -0.376 OA
BRANCH   3   4
ATOM      4  C   UNL A   1      31.745  28.739  23.262  1.00  0.00     0.202 C 
BRANCH   4   5
ATOM      5  C   UNL A   1      33.125  28.302  22.748  1.00  0.00     0.261 C 
BRANCH   5   6
ATOM      6  O   UNL A   1      33.497  26.954  23.062  1.00  0.00    -0.459 OA
BRANCH   6   7
ATOM      7  C   UNL A   1      33.193  26.001  22.130  1.00  0.00     0.350 C 
ATOM      8  O   UNL A   1      33.278  26.170  20.918  1.00  0.00    -0.245 OA
BRANCH   7   9
ATOM      9  C   UNL A   1      32.917  24.723  22.763  1.00  0.00     0.138 A 
ATOM     10  C   UNL A   1      30.996  22.959  26.596  1.00  0.00     0.067 C 
ATOM     11  C   UNL A   1      31.633  22.358  25.380  1.00  0.00     0.052 A 
ATOM     12  N   UNL A   1      31.761  20.999  25.376  1.00  0.00    -0.233 NA
ATOM     13  C   UNL A   1      32.151  23.093  24.292  1.00  0.00     0.057 A 
ATOM     14  C   UNL A   1      32.342  20.387  24.329  1.00  0.00     0.162 A 
ATOM     15  C   UNL A   1      32.739  22.334  23.293  1.00  0.00     0.130 A 
ATOM     16  C   UNL A   1      32.239  24.491  23.951  1.00  0.00     0.069 A 
ATOM     17  N   UNL A   1      32.846  21.001  23.254  1.00  0.00    -0.217 NA
ATOM     18  S   UNL A   1      33.412  23.258  22.039  1.00  0.00    -0.106 S 
BRANCH  14  19
ATOM     19  C   UNL A   1      32.607  18.943  24.399  1.00  0.00     0.038 A 
ATOM     20  C   UNL A   1      32.903  18.384  25.667  1.00  0.00     0.013 A 
ATOM     21  C   UNL A   1      32.636  18.078  23.294  1.00  0.00     0.052 A 
ATOM     22  C   UNL A   1      33.231  17.039  25.827  1.00  0.00     0.001 A 
ATOM     23  C   UNL A   1      32.966  16.721  23.457  1.00  0.00     0.021 A 
ATOM     24  Cl  UNL A   1      32.344  18.615  21.675  1.00  0.00    -0.084 Cl
ATOM     25  C   UNL A   1      33.267  16.206  24.718  1.00  0.00     0.002 A 
ENDBRANCH  14  19
BRANCH  16  26
ATOM     26  N   UNL A   1      31.706  25.495  24.686  1.00  0.00    -0.397 N 
ATOM     27  H   UNL A   1      31.700  26.414  24.332  1.00  0.00     0.156 HD
ATOM     28  H   UNL A   1      31.325  25.306  25.574  1.00  0.00     0.156 HD
ENDBRANCH  16  26
ENDBRANCH   7   9
ENDBRANCH   6   7
ENDBRANCH   5   6
ENDBRANCH   4   5
ENDBRANCH   3   4
ENDBRANCH   2   3
ENDBRANCH   1   2
BRANCH   1  29
ATOM     29  O   UNL A   1      32.955  29.531  27.465  1.00  0.00    -0.376 OA
BRANCH  29  30
ATOM     30  C   UNL A   1      34.218  30.052  27.067  1.00  0.00     0.202 C 
BRANCH  30  31
ATOM     31  C   UNL A   1      34.730  31.172  27.970  1.00  0.00     0.261 C 
BRANCH  31  32
ATOM     32  O   UNL A   1      36.150  31.261  28.009  1.00  0.00    -0.460 OA
BRANCH  32  33
ATOM     33  C   UNL A   1      36.737  30.727  29.099  1.00  0.00     0.338 C 
ATOM     34  O   UNL A   1      36.655  31.109  30.251  1.00  0.00    -0.246 OA
BRANCH  33  35
ATOM     35  C   UNL A   1      37.555  29.592  28.665  1.00  0.00     0.060 A 
ATOM     36  C   UNL A   1      37.815  28.583  29.597  1.00  0.00     0.016 A 
ATOM     37  C   UNL A   1      38.262  29.703  27.462  1.00  0.00     0.016 A 
ATOM     38  C   UNL A   1      38.958  27.831  29.440  1.00  0.00     0.010 A 
ATOM     39  C   UNL A   1      39.421  28.983  27.326  1.00  0.00     0.010 A 
ATOM     40  C   UNL A   1      39.800  28.137  28.368  1.00  0.00    -0.014 A 
BRANCH  40  41
ATOM     41  C   UNL A   1      41.188  27.739  28.462  1.00  0.00     0.031 A 
ATOM     42  C   UNL A   1      41.578  26.506  27.755  1.00  0.00     0.074 A 
ATOM     43  C   UNL A   1      42.081  28.590  29.004  1.00  0.00     0.049 A 
ATOM     44  N   UNL A   1      42.130  25.448  28.246  1.00  0.00    -0.248 NA
ATOM     45  C   UNL A   1      41.250  26.417  26.324  1.00  0.00     0.031 C 
ATOM     46  C   UNL A   1      41.858  29.990  29.390  1.00  0.00     0.029 A 
ATOM     47  N   UNL A   1      43.420  28.430  29.174  1.00  0.00    -0.354 N 
ATOM     48  C   UNL A   1      42.356  24.612  27.161  1.00  0.00     0.074 A 
ATOM     49  C   UNL A   1      41.657  25.183  26.039  1.00  0.00     0.031 C 
ATOM     50  C   UNL A   1      43.054  30.607  29.511  1.00  0.00     0.029 A 
ATOM     51  C   UNL A   1      44.108  29.625  29.322  1.00  0.00     0.049 A 
ATOM     52  H   UNL A   1      43.859  27.549  29.190  1.00  0.00     0.167 HD
ATOM     53  C   UNL A   1      43.291  23.627  27.178  1.00  0.00     0.031 A 
ATOM     54  C   UNL A   1      45.443  29.800  29.180  1.00  0.00     0.031 A 
ATOM     55  C   UNL A   1      43.733  23.298  28.503  1.00  0.00     0.049 A 
ATOM     56  C   UNL A   1      46.087  28.466  29.252  1.00  0.00     0.074 A 
ATOM     57  C   UNL A   1      43.109  22.836  29.644  1.00  0.00     0.029 A 
ATOM     58  N   UNL A   1      44.953  23.782  28.908  1.00  0.00    -0.354 N 
ATOM     59  N   UNL A   1      46.144  27.739  30.331  1.00  0.00    -0.248 NA
ATOM     60  C   UNL A   1      46.319  27.746  28.008  1.00  0.00     0.031 C 
ATOM     61  C   UNL A   1      43.779  23.482  30.722  1.00  0.00     0.029 A 
ATOM     62  C   UNL A   1      44.787  24.280  30.176  1.00  0.00     0.049 A 
ATOM     63  H   UNL A   1      45.789  23.773  28.389  1.00  0.00     0.167 HD
ATOM     64  C   UNL A   1      46.007  26.429  29.890  1.00  0.00     0.074 A 
ATOM     65  C   UNL A   1      46.237  26.489  28.451  1.00  0.00     0.031 C 
ATOM     66  C   UNL A   1      45.439  25.470  30.680  1.00  0.00     0.031 A 
BRANCH  53  67
ATOM     67  C   UNL A   1      44.037  23.214  25.943  1.00  0.00    -0.014 A 
ATOM     68  C   UNL A   1      43.952  21.891  25.490  1.00  0.00     0.009 A 
ATOM     69  C   UNL A   1      45.005  24.040  25.334  1.00  0.00     0.009 A 
ATOM     70  C   UNL A   1      44.798  21.419  24.479  1.00  0.00     0.001 A 
ATOM     71  C   UNL A   1      45.815  23.588  24.292  1.00  0.00     0.001 A 
ATOM     72  C   UNL A   1      45.722  22.269  23.876  1.00  0.00     0.000 A 
ENDBRANCH  53  67
BRANCH  54  73
ATOM     73  C   UNL A   1      46.149  31.000  28.677  1.00  0.00    -0.014 A 
ATOM     74  C   UNL A   1      46.670  31.949  29.568  1.00  0.00     0.009 A 
ATOM     75  C   UNL A   1      46.523  31.102  27.323  1.00  0.00     0.009 A 
ATOM     76  C   UNL A   1      47.553  32.943  29.124  1.00  0.00     0.001 A 
ATOM     77  C   UNL A   1      47.395  32.100  26.877  1.00  0.00     0.001 A 
ATOM     78  C   UNL A   1      47.923  33.012  27.783  1.00  0.00     0.000 A 
ENDBRANCH  54  73
BRANCH  66  79
ATOM     79  C   UNL A   1      45.185  25.804  32.131  1.00  0.00    -0.014 A 
ATOM     80  C   UNL A   1      43.980  26.379  32.573  1.00  0.00     0.009 A 
ATOM     81  C   UNL A   1      46.103  25.366  33.097  1.00  0.00     0.009 A 
ATOM     82  C   UNL A   1      43.714  26.535  33.936  1.00  0.00     0.001 A 
ATOM     83  C   UNL A   1      45.829  25.502  34.461  1.00  0.00     0.001 A 
ATOM     84  C   UNL A   1      44.636  26.089  34.880  1.00  0.00     0.000 A 
ENDBRANCH  66  79
ENDBRANCH  40  41
ENDBRANCH  33  35
ENDBRANCH  32  33
ENDBRANCH  31  32
ENDBRANCH  30  31
ENDBRANCH  29  30
ENDBRANCH   1  29
TORSDOF 19
ENDMDL
MODEL 2
REMARK VINA RESULT:     -10.7      1.986      5.907
REMARK SMILES Cc1nc(-c2ccccc2Cl)nc2sc(C(=O)OCCOCCOCCOC(=O)c3ccc(-c4c5nc(c(-c6ccccc6)c6ccc([nH]6)c(-c6ccccc6)c6nc(c(-c7ccccc7)c7ccc4[nH]7)C=C6)C=C5)cc3)c(N)c12
REMARK SMILES IDX 23 1 22 2 21 3 20 4 19 5 18 6 16 7 17 8 15 9 1 10 2 11 3 12
REMARK SMILES IDX 80 13 4 14 13 15 78 16 12 17 14 18 5 19 6 20 10 21 7 22 9 23
REMARK SMILES IDX 11 24 8 25 79 26 24 29 25 30 26 31 27 32 28 33 29 34 30 35
REMARK SMILES IDX 31 36 77 37 32 38 76 39 33 40 34 41 35 42 70 43 36 44 75 45
REMARK SMILES IDX 69 46 71 47 37 48 74 49 68 50 67 51 38 53 60 54 45 55 59 56
REMARK SMILES IDX 46 57 49 58 58 59 72 60 47 61 48 62 57 64 73 65 50 66 39 67
REMARK SMILES IDX 40 68 44 69 41 70 43 71 42 72 61 73 62 74 66 75 63 76 65 77
REMARK SMILES IDX 64 78 51 79 52 80 56 81 53 82 55 83 54 84
REMARK H PARENT 79 27 79 28 71 52 49 63
REMARK Flexibility Score: inf
ROOT
ATOM      1  C   UNL A   1      31.674  29.940  25.563  1.00  0.00     0.188 C 
ENDROOT
BRANCH   1   2
ATOM      2  C   UNL A   1      30.833  29.723  24.284  1.00  0.00     0.188 C 
BRANCH   2   3
ATOM      3  O   UNL A   1      31.202  28.777  23.288  1.00  0.00    -0.376 OA
BRANCH   3   4
ATOM      4  C   UNL A   1      30.291  27.764  22.890  1.00  0.00     0.202 C 
BRANCH   4   5
ATOM      5  C   UNL A   1      30.405  26.372  23.531  1.00  0.00     0.261 C 
BRANCH   5   6
ATOM      6  O   UNL A   1      29.838  26.253  24.842  1.00  0.00    -0.459 OA
BRANCH   6   7
ATOM      7  C   UNL A   1      30.712  26.033  25.870  1.00  0.00     0.350 C 
ATOM      8  O   UNL A   1      30.714  26.664  26.920  1.00  0.00    -0.245 OA
BRANCH   7   9
ATOM      9  C   UNL A   1      31.523  24.853  25.620  1.00  0.00     0.138 A 
ATOM     10  C   UNL A   1      35.959  23.577  25.187  1.00  0.00     0.067 C 
ATOM     11  C   UNL A   1      34.654  22.841  25.133  1.00  0.00     0.052 A 
ATOM     12  N   UNL A   1      34.723  21.513  24.826  1.00  0.00    -0.233 NA
ATOM     13  C   UNL A   1      33.385  23.432  25.313  1.00  0.00     0.057 A 
ATOM     14  C   UNL A   1      33.593  20.789  24.737  1.00  0.00     0.162 A 
ATOM     15  C   UNL A   1      32.308  22.572  25.173  1.00  0.00     0.130 A 
ATOM     16  C   UNL A   1      32.908  24.761  25.603  1.00  0.00     0.069 A 
ATOM     17  N   UNL A   1      32.355  21.262  24.906  1.00  0.00    -0.217 NA
ATOM     18  S   UNL A   1      30.800  23.334  25.325  1.00  0.00    -0.106 S 
BRANCH  14  19
ATOM     19  C   UNL A   1      33.668  19.400  24.265  1.00  0.00     0.038 A 
ATOM     20  C   UNL A   1      34.547  18.516  24.938  1.00  0.00     0.013 A 
ATOM     21  C   UNL A   1      32.965  18.889  23.161  1.00  0.00     0.052 A 
ATOM     22  C   UNL A   1      34.735  17.198  24.525  1.00  0.00     0.001 A 
ATOM     23  C   UNL A   1      33.155  17.559  22.747  1.00  0.00     0.021 A 
ATOM     24  Cl  UNL A   1      31.890  19.852  22.207  1.00  0.00    -0.084 Cl
ATOM     25  C   UNL A   1      34.041  16.719  23.423  1.00  0.00     0.002 A 
ENDBRANCH  14  19
BRANCH  16  26
ATOM     26  N   UNL A   1      33.705  25.825  25.857  1.00  0.00    -0.397 N 
ATOM     27  H   UNL A   1      33.393  26.735  25.646  1.00  0.00     0.156 HD
ATOM     28  H   UNL A   1      34.596  25.688  26.253  1.00  0.00     0.156 HD
ENDBRANCH  16  26
ENDBRANCH   7   9
ENDBRANCH   6   7
ENDBRANCH   5   6
ENDBRANCH   4   5
ENDBRANCH   3   4
ENDBRANCH   2   3
ENDBRANCH   1   2
BRANCH   1  29
ATOM     29  O   UNL A   1      32.708  28.993  25.787  1.00  0.00    -0.376 OA
BRANCH  29  30
ATOM     30  C   UNL A   1      33.428  29.127  27.007  1.00  0.00     0.202 C 
BRANCH  30  31
ATOM     31  C   UNL A   1      33.976  30.534  27.242  1.00  0.00     0.261 C 
BRANCH  31  32
ATOM     32  O   UNL A   1      35.397  30.596  27.230  1.00  0.00    -0.460 OA
BRANCH  32  33
ATOM     33  C   UNL A   1      35.942  31.615  27.925  1.00  0.00     0.338 C 
ATOM     34  O   UNL A   1      35.813  32.807  27.723  1.00  0.00    -0.246 OA
BRANCH  33  35
ATOM     35  C   UNL A   1      36.781  31.046  28.983  1.00  0.00     0.060 A 
ATOM     36  C   UNL A   1      37.876  31.797  29.419  1.00  0.00     0.016 A 
ATOM     37  C   UNL A   1      36.627  29.691  29.297  1.00  0.00     0.016 A 
ATOM     38  C   UNL A   1      38.949  31.126  29.963  1.00  0.00     0.010 A 
ATOM     39  C   UNL A   1      37.709  29.017  29.801  1.00  0.00     0.010 A 
ATOM     40  C   UNL A   1      38.886  29.732  30.026  1.00  0.00    -0.014 A 
BRANCH  40  41
ATOM     41  C   UNL A   1      40.131  29.001  30.107  1.00  0.00     0.031 A 
ATOM     42  C   UNL A   1      40.698  28.794  31.451  1.00  0.00     0.074 A 
ATOM     43  C   UNL A   1      40.603  28.382  29.007  1.00  0.00     0.049 A 
ATOM     44  N   UNL A   1      41.864  29.141  31.885  1.00  0.00    -0.248 NA
ATOM     45  C   UNL A   1      39.827  28.179  32.464  1.00  0.00     0.031 C 
ATOM     46  C   UNL A   1      39.920  28.211  27.717  1.00  0.00     0.029 A 
ATOM     47  N   UNL A   1      41.730  27.636  28.863  1.00  0.00    -0.354 N 
ATOM     48  C   UNL A   1      41.933  28.656  33.184  1.00  0.00     0.074 A 
ATOM     49  C   UNL A   1      40.607  28.219  33.540  1.00  0.00     0.031 C 
ATOM     50  C   UNL A   1      40.528  27.222  27.027  1.00  0.00     0.029 A 
ATOM     51  C   UNL A   1      41.693  26.778  27.773  1.00  0.00     0.049 A 
ATOM     52  H   UNL A   1      42.498  27.697  29.475  1.00  0.00     0.167 HD
ATOM     53  C   UNL A   1      43.112  28.421  33.816  1.00  0.00     0.031 A 
ATOM     54  C   UNL A   1      42.499  25.709  27.570  1.00  0.00     0.031 A 
ATOM     55  C   UNL A   1      44.226  29.061  33.178  1.00  0.00     0.049 A 
ATOM     56  C   UNL A   1      43.670  25.847  28.469  1.00  0.00     0.074 A 
ATOM     57  C   UNL A   1      44.552  30.369  32.883  1.00  0.00     0.029 A 
ATOM     58  N   UNL A   1      45.054  28.282  32.406  1.00  0.00    -0.354 N 
ATOM     59  N   UNL A   1      44.591  26.758  28.336  1.00  0.00    -0.248 NA
ATOM     60  C   UNL A   1      43.609  25.214  29.780  1.00  0.00     0.031 C 
ATOM     61  C   UNL A   1      45.221  30.312  31.627  1.00  0.00     0.029 A 
ATOM     62  C   UNL A   1      45.286  28.971  31.242  1.00  0.00     0.049 A 
ATOM     63  H   UNL A   1      45.414  27.397  32.642  1.00  0.00     0.167 HD
ATOM     64  C   UNL A   1      44.944  27.104  29.634  1.00  0.00     0.074 A 
ATOM     65  C   UNL A   1      44.395  26.044  30.472  1.00  0.00     0.031 C 
ATOM     66  C   UNL A   1      45.395  28.358  29.935  1.00  0.00     0.031 A 
BRANCH  53  67
ATOM     67  C   UNL A   1      43.270  27.321  34.825  1.00  0.00    -0.014 A 
ATOM     68  C   UNL A   1      43.243  25.985  34.405  1.00  0.00     0.009 A 
ATOM     69  C   UNL A   1      43.222  27.558  36.215  1.00  0.00     0.009 A 
ATOM     70  C   UNL A   1      43.169  24.939  35.334  1.00  0.00     0.001 A 
ATOM     71  C   UNL A   1      43.199  26.518  37.144  1.00  0.00     0.001 A 
ATOM     72  C   UNL A   1      43.155  25.207  36.701  1.00  0.00     0.000 A 
ENDBRANCH  53  67
BRANCH  54  73
ATOM     73  C   UNL A   1      42.162  24.440  26.886  1.00  0.00    -0.014 A 
ATOM     74  C   UNL A   1      42.925  23.990  25.799  1.00  0.00     0.009 A 
ATOM     75  C   UNL A   1      41.233  23.543  27.448  1.00  0.00     0.009 A 
ATOM     76  C   UNL A   1      42.782  22.683  25.313  1.00  0.00     0.001 A 
ATOM     77  C   UNL A   1      41.081  22.243  26.956  1.00  0.00     0.001 A 
ATOM     78  C   UNL A   1      41.868  21.808  25.896  1.00  0.00     0.000 A 
ENDBRANCH  54  73
BRANCH  66  79
ATOM     79  C   UNL A   1      45.733  29.286  28.792  1.00  0.00    -0.014 A 
ATOM     80  C   UNL A   1      47.043  29.432  28.301  1.00  0.00     0.009 A 
ATOM     81  C   UNL A   1      44.686  29.886  28.077  1.00  0.00     0.009 A 
ATOM     82  C   UNL A   1      47.300  30.177  27.147  1.00  0.00     0.001 A 
ATOM     83  C   UNL A   1      44.940  30.613  26.910  1.00  0.00     0.001 A 
ATOM     84  C   UNL A   1      46.246  30.762  26.448  1.00  0.00     0.000 A 
ENDBRANCH  66  79
ENDBRANCH  40  41
ENDBRANCH  33  35
ENDBRANCH  32  33
ENDBRANCH  31  32
ENDBRANCH  30  31
ENDBRANCH  29  30
ENDBRANCH   1  29
TORSDOF 19
ENDMDL
MODEL 3
REMARK VINA RESULT:     -10.6      2.313      6.120
REMARK SMILES Cc1nc(-c2ccccc2Cl)nc2sc(C(=O)OCCOCCOCCOC(=O)c3ccc(-c4c5nc(c(-c6ccccc6)c6ccc([nH]6)c(-c6ccccc6)c6nc(c(-c7ccccc7)c7ccc4[nH]7)C=C6)C=C5)cc3)c(N)c12
REMARK SMILES IDX 23 1 22 2 21 3 20 4 19 5 18 6 16 7 17 8 15 9 1 10 2 11 3 12
REMARK SMILES IDX 80 13 4 14 13 15 78 16 12 17 14 18 5 19 6 20 10 21 7 22 9 23
REMARK SMILES IDX 11 24 8 25 79 26 24 29 25 30 26 31 27 32 28 33 29 34 30 35
REMARK SMILES IDX 31 36 77 37 32 38 76 39 33 40 34 41 35 42 70 43 36 44 75 45
REMARK SMILES IDX 69 46 71 47 37 48 74 49 68 50 67 51 38 53 60 54 45 55 59 56
REMARK SMILES IDX 46 57 49 58 58 59 72 60 47 61 48 62 57 64 73 65 50 66 39 67
REMARK SMILES IDX 40 68 44 69 41 70 43 71 42 72 61 73 62 74 66 75 63 76 65 77
REMARK SMILES IDX 64 78 51 79 52 80 56 81 53 82 55 83 54 84
REMARK H PARENT 79 27 79 28 71 52 49 63
REMARK Flexibility Score: inf
ROOT
ATOM      1  C   UNL A   1      34.834  31.020  27.636  1.00  0.00     0.188 C 
ENDROOT
BRANCH   1   2
ATOM      2  C   UNL A   1      33.768  30.008  27.156  1.00  0.00     0.188 C 
BRANCH   2   3
ATOM      3  O   UNL A   1      32.507  30.422  26.646  1.00  0.00    -0.376 OA
BRANCH   3   4
ATOM      4  C   UNL A   1      31.595  29.465  26.128  1.00  0.00     0.202 C 
BRANCH   4   5
ATOM      5  C   UNL A   1      31.293  29.467  24.622  1.00  0.00     0.261 C 
BRANCH   5   6
ATOM      6  O   UNL A   1      30.220  28.610  24.210  1.00  0.00    -0.459 OA
BRANCH   6   7
ATOM      7  C   UNL A   1      30.485  27.744  23.187  1.00  0.00     0.350 C 
ATOM      8  O   UNL A   1      30.300  27.999  22.002  1.00  0.00    -0.245 OA
BRANCH   7   9
ATOM      9  C   UNL A   1      31.164  26.555  23.673  1.00  0.00     0.138 A 
ATOM     10  C   UNL A   1      30.543  23.015  26.602  1.00  0.00     0.067 C 
ATOM     11  C   UNL A   1      31.646  23.412  25.669  1.00  0.00     0.052 A 
ATOM     12  N   UNL A   1      32.767  22.634  25.694  1.00  0.00    -0.233 NA
ATOM     13  C   UNL A   1      31.627  24.548  24.831  1.00  0.00     0.057 A 
ATOM     14  C   UNL A   1      33.810  22.939  24.901  1.00  0.00     0.162 A 
ATOM     15  C   UNL A   1      32.776  24.752  24.085  1.00  0.00     0.130 A 
ATOM     16  C   UNL A   1      30.680  25.600  24.557  1.00  0.00     0.069 A 
ATOM     17  N   UNL A   1      33.870  23.983  24.070  1.00  0.00    -0.217 NA
ATOM     18  S   UNL A   1      32.741  26.164  23.146  1.00  0.00    -0.106 S 
BRANCH  14  19
ATOM     19  C   UNL A   1      35.062  22.183  25.042  1.00  0.00     0.038 A 
ATOM     20  C   UNL A   1      36.253  22.912  25.284  1.00  0.00     0.013 A 
ATOM     21  C   UNL A   1      35.178  20.790  24.906  1.00  0.00     0.052 A 
ATOM     22  C   UNL A   1      37.498  22.292  25.369  1.00  0.00     0.001 A 
ATOM     23  C   UNL A   1      36.435  20.167  24.993  1.00  0.00     0.021 A 
ATOM     24  Cl  UNL A   1      33.827  19.766  24.563  1.00  0.00    -0.084 Cl
ATOM     25  C   UNL A   1      37.591  20.916  25.217  1.00  0.00     0.002 A 
ENDBRANCH  14  19
BRANCH  16  26
ATOM     26  N   UNL A   1      29.432  25.665  25.077  1.00  0.00    -0.397 N 
ATOM     27  H   UNL A   1      29.245  25.263  25.956  1.00  0.00     0.156 HD
ATOM     28  H   UNL A   1      28.713  26.114  24.577  1.00  0.00     0.156 HD
ENDBRANCH  16  26
ENDBRANCH   7   9
ENDBRANCH   6   7
ENDBRANCH   5   6
ENDBRANCH   4   5
ENDBRANCH   3   4
ENDBRANCH   2   3
ENDBRANCH   1   2
BRANCH   1  29
ATOM     29  O   UNL A   1      34.440  32.384  27.613  1.00  0.00    -0.376 OA
BRANCH  29  30
ATOM     30  C   UNL A   1      34.366  33.038  28.875  1.00  0.00     0.202 C 
BRANCH  30  31
ATOM     31  C   UNL A   1      34.776  32.149  30.048  1.00  0.00     0.261 C 
BRANCH  31  32
ATOM     32  O   UNL A   1      35.926  32.622  30.740  1.00  0.00    -0.460 OA
BRANCH  32  33
ATOM     33  C   UNL A   1      36.530  31.727  31.547  1.00  0.00     0.338 C 
ATOM     34  O   UNL A   1      36.494  31.677  32.761  1.00  0.00    -0.246 OA
BRANCH  33  35
ATOM     35  C   UNL A   1      37.301  30.807  30.708  1.00  0.00     0.060 A 
ATOM     36  C   UNL A   1      37.094  29.436  30.887  1.00  0.00     0.016 A 
ATOM     37  C   UNL A   1      38.391  31.314  29.990  1.00  0.00     0.016 A 
ATOM     38  C   UNL A   1      38.119  28.575  30.559  1.00  0.00     0.010 A 
ATOM     39  C   UNL A   1      39.426  30.464  29.702  1.00  0.00     0.010 A 
ATOM     40  C   UNL A   1      39.312  29.128  30.087  1.00  0.00    -0.014 A 
BRANCH  40  41
ATOM     41  C   UNL A   1      40.520  28.343  30.216  1.00  0.00     0.031 A 
ATOM     42  C   UNL A   1      41.132  28.274  31.554  1.00  0.00     0.074 A 
ATOM     43  C   UNL A   1      40.912  27.566  29.187  1.00  0.00     0.049 A 
ATOM     44  N   UNL A   1      42.332  28.605  31.898  1.00  0.00    -0.248 NA
ATOM     45  C   UNL A   1      40.274  27.840  32.667  1.00  0.00     0.031 C 
ATOM     46  C   UNL A   1      40.166  27.274  27.955  1.00  0.00     0.029 A 
ATOM     47  N   UNL A   1      41.991  26.744  29.098  1.00  0.00    -0.354 N 
ATOM     48  C   UNL A   1      42.431  28.283  33.245  1.00  0.00     0.074 A 
ATOM     49  C   UNL A   1      41.100  27.970  33.701  1.00  0.00     0.031 C 
ATOM     50  C   UNL A   1      40.692  26.174  27.374  1.00  0.00     0.029 A 
ATOM     51  C   UNL A   1      41.863  25.761  28.129  1.00  0.00     0.049 A 
ATOM     52  H   UNL A   1      42.786  26.837  29.670  1.00  0.00     0.167 HD
ATOM     53  C   UNL A   1      43.622  28.062  33.860  1.00  0.00     0.031 A 
ATOM     54  C   UNL A   1      42.603  24.631  28.034  1.00  0.00     0.031 A 
ATOM     55  C   UNL A   1      44.740  28.553  33.106  1.00  0.00     0.049 A 
ATOM     56  C   UNL A   1      43.817  24.813  28.866  1.00  0.00     0.074 A 
ATOM     57  C   UNL A   1      45.120  29.793  32.636  1.00  0.00     0.029 A 
ATOM     58  N   UNL A   1      45.492  27.637  32.410  1.00  0.00    -0.354 N 
ATOM     59  N   UNL A   1      44.778  25.646  28.586  1.00  0.00    -0.248 NA
ATOM     60  C   UNL A   1      43.779  24.354  30.248  1.00  0.00     0.031 C 
ATOM     61  C   UNL A   1      45.732  29.542  31.374  1.00  0.00     0.029 A 
ATOM     62  C   UNL A   1      45.710  28.162  31.161  1.00  0.00     0.049 A 
ATOM     63  H   UNL A   1      45.815  26.770  32.744  1.00  0.00     0.167 HD
ATOM     64  C   UNL A   1      45.203  26.131  29.816  1.00  0.00     0.074 A 
ATOM     65  C   UNL A   1      44.636  25.217  30.800  1.00  0.00     0.031 C 
ATOM     66  C   UNL A   1      45.731  27.386  29.939  1.00  0.00     0.031 A 
BRANCH  53  67
ATOM     67  C   UNL A   1      43.766  27.090  34.994  1.00  0.00    -0.014 A 
ATOM     68  C   UNL A   1      43.669  25.714  34.746  1.00  0.00     0.009 A 
ATOM     69  C   UNL A   1      43.771  27.499  36.344  1.00  0.00     0.009 A 
ATOM     70  C   UNL A   1      43.580  24.796  35.799  1.00  0.00     0.001 A 
ATOM     71  C   UNL A   1      43.734  26.584  37.396  1.00  0.00     0.001 A 
ATOM     72  C   UNL A   1      43.621  25.231  37.122  1.00  0.00     0.000 A 
ENDBRANCH  53  67
BRANCH  54  73
ATOM     73  C   UNL A   1      42.172  23.308  27.530  1.00  0.00    -0.014 A 
ATOM     74  C   UNL A   1      41.017  22.692  28.035  1.00  0.00     0.009 A 
ATOM     75  C   UNL A   1      42.760  22.747  26.379  1.00  0.00     0.009 A 
ATOM     76  C   UNL A   1      40.459  21.577  27.395  1.00  0.00     0.001 A 
ATOM     77  C   UNL A   1      42.212  21.628  25.748  1.00  0.00     0.001 A 
ATOM     78  C   UNL A   1      41.050  21.051  26.248  1.00  0.00     0.000 A 
ENDBRANCH  54  73
BRANCH  66  79
ATOM     79  C   UNL A   1      46.068  28.142  28.676  1.00  0.00    -0.014 A 
ATOM     80  C   UNL A   1      45.110  28.887  27.965  1.00  0.00     0.009 A 
ATOM     81  C   UNL A   1      47.412  28.255  28.294  1.00  0.00     0.009 A 
ATOM     82  C   UNL A   1      45.482  29.699  26.890  1.00  0.00     0.001 A 
ATOM     83  C   UNL A   1      47.789  29.083  27.232  1.00  0.00     0.001 A 
ATOM     84  C   UNL A   1      46.824  29.802  26.529  1.00  0.00     0.000 A 
ENDBRANCH  66  79
ENDBRANCH  40  41
ENDBRANCH  33  35
ENDBRANCH  32  33
ENDBRANCH  31  32
ENDBRANCH  30  31
ENDBRANCH  29  30
ENDBRANCH   1  29
TORSDOF 19
ENDMDL
