MODEL 1
REMARK VINA RESULT:      -8.1      0.000      0.000
REMARK SMILES Cc1nn(C)cc1-c1ccnc2nc(CCC(=O)OCCOCCOCCOC(=O)c3ccc(-c4c5nc(c(-c6ccccc6)c6ccc([nH]6)c(-c6ccccc6)c6nc(c(-c7ccccc7)c7ccc4[nH]7)C=C6)C=C5)cc3)nn12
REMARK SMILES IDX 23 1 22 2 21 3 20 4 19 5 17 6 18 7 16 8 15 9 14 10 8 11 9 12
REMARK SMILES IDX 80 13 10 14 12 15 79 16 11 17 13 18 7 19 1 20 2 21 3 22 4 23
REMARK SMILES IDX 6 24 5 25 24 26 25 27 26 28 27 29 28 30 29 31 30 32 31 33
REMARK SMILES IDX 32 34 78 35 33 36 77 37 34 38 35 39 36 40 71 41 37 42 76 43
REMARK SMILES IDX 70 44 72 45 38 46 75 47 69 48 68 49 39 51 61 52 46 53 60 54
REMARK SMILES IDX 47 55 50 56 59 57 73 58 48 59 49 60 58 62 74 63 51 64 40 65
REMARK SMILES IDX 41 66 45 67 42 68 44 69 43 70 62 71 63 72 67 73 64 74 66 75
REMARK SMILES IDX 65 76 52 77 53 78 57 79 54 80 56 81 55 82
REMARK H PARENT 72 50 50 61
REMARK Flexibility Score: inf
ROOT
ATOM      1  C   UNL A   1      33.652  36.591  28.706  1.00  0.00     0.188 C 
ENDROOT
BRANCH   1   2
ATOM      2  O   UNL A   1      33.228  37.231  29.907  1.00  0.00    -0.376 OA
BRANCH   2   3
ATOM      3  C   UNL A   1      32.528  36.407  30.845  1.00  0.00     0.202 C 
BRANCH   3   4
ATOM      4  C   UNL A   1      33.015  36.486  32.297  1.00  0.00     0.261 C 
BRANCH   4   5
ATOM      5  O   UNL A   1      33.227  35.186  32.890  1.00  0.00    -0.463 OA
BRANCH   5   6
ATOM      6  C   UNL A   1      34.499  34.886  33.233  1.00  0.00     0.306 C 
ATOM      7  O   UNL A   1      35.329  35.725  33.574  1.00  0.00    -0.252 OA
BRANCH   6   8
ATOM      8  C   UNL A   1      34.822  33.407  33.313  1.00  0.00     0.131 C 
BRANCH   8   9
ATOM      9  C   UNL A   1      35.425  32.637  32.148  1.00  0.00     0.091 C 
BRANCH   9  10
ATOM     10  C   UNL A   1      36.773  33.046  31.687  1.00  0.00     0.154 A 
ATOM     11  C   UNL A   1      40.148  33.871  32.046  1.00  0.00     0.081 A 
ATOM     12  C   UNL A   1      40.900  34.482  31.110  1.00  0.00     0.049 A 
ATOM     13  N   UNL A   1      38.799  33.609  31.735  1.00  0.00    -0.196 N 
ATOM     14  C   UNL A   1      40.217  34.841  29.841  1.00  0.00     0.117 A 
ATOM     15  C   UNL A   1      38.242  33.984  30.501  1.00  0.00     0.252 A 
ATOM     16  N   UNL A   1      37.839  33.015  32.482  1.00  0.00    -0.149 NA
ATOM     17  N   UNL A   1      38.976  34.620  29.544  1.00  0.00    -0.220 NA
ATOM     18  N   UNL A   1      36.973  33.632  30.473  1.00  0.00    -0.194 NA
BRANCH  11  19
ATOM     19  C   UNL A   1      40.692  33.506  33.320  1.00  0.00     0.041 A 
ATOM     20  C   UNL A   1      39.494  35.138  34.997  1.00  0.00     0.069 C 
ATOM     21  C   UNL A   1      40.423  34.049  34.605  1.00  0.00     0.069 A 
ATOM     22  N   UNL A   1      41.135  33.432  35.557  1.00  0.00    -0.178 NA
ATOM     23  N   UNL A   1      41.826  32.489  34.892  1.00  0.00    -0.275 N 
ATOM     24  C   UNL A   1      41.623  32.517  33.545  1.00  0.00     0.119 A 
ATOM     25  C   UNL A   1      42.673  31.585  35.631  1.00  0.00     0.173 C 
ENDBRANCH  11  19
ENDBRANCH   9  10
ENDBRANCH   8   9
ENDBRANCH   6   8
ENDBRANCH   5   6
ENDBRANCH   4   5
ENDBRANCH   3   4
ENDBRANCH   2   3
ENDBRANCH   1   2
BRANCH   1  26
ATOM     26  C   UNL A   1      33.948  35.091  28.808  1.00  0.00     0.188 C 
BRANCH  26  27
ATOM     27  O   UNL A   1      33.126  34.285  27.999  1.00  0.00    -0.376 OA
BRANCH  27  28
ATOM     28  C   UNL A   1      33.384  32.894  27.905  1.00  0.00     0.202 C 
BRANCH  28  29
ATOM     29  C   UNL A   1      34.852  32.405  27.938  1.00  0.00     0.261 C 
BRANCH  29  30
ATOM     30  O   UNL A   1      35.184  31.352  28.863  1.00  0.00    -0.460 OA
BRANCH  30  31
ATOM     31  C   UNL A   1      35.248  30.088  28.376  1.00  0.00     0.338 C 
ATOM     32  O   UNL A   1      34.362  29.495  27.778  1.00  0.00    -0.246 OA
BRANCH  31  33
ATOM     33  C   UNL A   1      36.675  29.656  28.408  1.00  0.00     0.060 A 
ATOM     34  C   UNL A   1      37.146  29.017  29.567  1.00  0.00     0.016 A 
ATOM     35  C   UNL A   1      37.511  29.773  27.294  1.00  0.00     0.016 A 
ATOM     36  C   UNL A   1      38.459  28.543  29.632  1.00  0.00     0.010 A 
ATOM     37  C   UNL A   1      38.836  29.318  27.369  1.00  0.00     0.010 A 
ATOM     38  C   UNL A   1      39.328  28.736  28.551  1.00  0.00    -0.014 A 
BRANCH  38  39
ATOM     39  C   UNL A   1      40.791  28.549  28.747  1.00  0.00     0.031 A 
ATOM     40  C   UNL A   1      41.393  27.229  28.339  1.00  0.00     0.074 A 
ATOM     41  C   UNL A   1      41.586  29.524  29.223  1.00  0.00     0.049 A 
ATOM     42  N   UNL A   1      42.637  26.824  28.396  1.00  0.00    -0.248 NA
ATOM     43  C   UNL A   1      40.460  26.230  27.791  1.00  0.00     0.031 C 
ATOM     44  C   UNL A   1      41.152  30.864  29.610  1.00  0.00     0.029 A 
ATOM     45  N   UNL A   1      42.940  29.528  29.456  1.00  0.00    -0.354 N 
ATOM     46  C   UNL A   1      42.633  25.528  27.896  1.00  0.00     0.074 A 
ATOM     47  C   UNL A   1      41.261  25.198  27.580  1.00  0.00     0.031 C 
ATOM     48  C   UNL A   1      42.222  31.563  30.030  1.00  0.00     0.029 A 
ATOM     49  C   UNL A   1      43.410  30.711  29.971  1.00  0.00     0.049 A 
ATOM     50  H   UNL A   1      43.520  28.754  29.272  1.00  0.00     0.167 HD
ATOM     51  C   UNL A   1      43.676  24.683  27.706  1.00  0.00     0.031 A 
ATOM     52  C   UNL A   1      44.652  31.064  30.359  1.00  0.00     0.031 A 
ATOM     53  C   UNL A   1      45.040  24.991  28.042  1.00  0.00     0.049 A 
ATOM     54  C   UNL A   1      45.783  30.074  30.223  1.00  0.00     0.074 A 
ATOM     55  C   UNL A   1      46.166  24.202  27.884  1.00  0.00     0.029 A 
ATOM     56  N   UNL A   1      45.462  26.181  28.614  1.00  0.00    -0.354 N 
ATOM     57  N   UNL A   1      45.771  28.860  29.728  1.00  0.00    -0.248 NA
ATOM     58  C   UNL A   1      47.106  30.519  30.689  1.00  0.00     0.031 C 
ATOM     59  C   UNL A   1      47.259  24.889  28.423  1.00  0.00     0.029 A 
ATOM     60  C   UNL A   1      46.827  26.136  28.843  1.00  0.00     0.049 A 
ATOM     61  H   UNL A   1      44.877  26.944  28.827  1.00  0.00     0.167 HD
ATOM     62  C   UNL A   1      47.086  28.409  29.791  1.00  0.00     0.074 A 
ATOM     63  C   UNL A   1      47.871  29.489  30.352  1.00  0.00     0.031 C 
ATOM     64  C   UNL A   1      47.599  27.212  29.413  1.00  0.00     0.031 A 
BRANCH  51  65
ATOM     65  C   UNL A   1      43.361  23.323  27.143  1.00  0.00    -0.014 A 
ATOM     66  C   UNL A   1      42.654  22.366  27.891  1.00  0.00     0.009 A 
ATOM     67  C   UNL A   1      43.773  22.997  25.842  1.00  0.00     0.009 A 
ATOM     68  C   UNL A   1      42.404  21.098  27.361  1.00  0.00     0.001 A 
ATOM     69  C   UNL A   1      43.491  21.741  25.302  1.00  0.00     0.001 A 
ATOM     70  C   UNL A   1      42.819  20.788  26.066  1.00  0.00     0.000 A 
ENDBRANCH  51  65
BRANCH  52  71
ATOM     71  C   UNL A   1      44.907  32.417  30.927  1.00  0.00    -0.014 A 
ATOM     72  C   UNL A   1      45.263  33.489  30.093  1.00  0.00     0.009 A 
ATOM     73  C   UNL A   1      44.833  32.634  32.311  1.00  0.00     0.009 A 
ATOM     74  C   UNL A   1      45.566  34.741  30.636  1.00  0.00     0.001 A 
ATOM     75  C   UNL A   1      45.102  33.895  32.848  1.00  0.00     0.001 A 
ATOM     76  C   UNL A   1      45.479  34.944  32.012  1.00  0.00     0.000 A 
ENDBRANCH  52  71
BRANCH  64  77
ATOM     77  C   UNL A   1      49.088  27.025  29.550  1.00  0.00    -0.014 A 
ATOM     78  C   UNL A   1      49.664  26.511  30.723  1.00  0.00     0.009 A 
ATOM     79  C   UNL A   1      49.929  27.360  28.476  1.00  0.00     0.009 A 
ATOM     80  C   UNL A   1      51.051  26.392  30.838  1.00  0.00     0.001 A 
ATOM     81  C   UNL A   1      51.313  27.203  28.580  1.00  0.00     0.001 A 
ATOM     82  C   UNL A   1      51.873  26.735  29.766  1.00  0.00     0.000 A 
ENDBRANCH  64  77
ENDBRANCH  38  39
ENDBRANCH  31  33
ENDBRANCH  30  31
ENDBRANCH  29  30
ENDBRANCH  28  29
ENDBRANCH  27  28
ENDBRANCH  26  27
ENDBRANCH   1  26
TORSDOF 20
ENDMDL
MODEL 2
REMARK VINA RESULT:      -8.0      6.298     10.877
REMARK SMILES Cc1nn(C)cc1-c1ccnc2nc(CCC(=O)OCCOCCOCCOC(=O)c3ccc(-c4c5nc(c(-c6ccccc6)c6ccc([nH]6)c(-c6ccccc6)c6nc(c(-c7ccccc7)c7ccc4[nH]7)C=C6)C=C5)cc3)nn12
REMARK SMILES IDX 23 1 22 2 21 3 20 4 19 5 17 6 18 7 16 8 15 9 14 10 8 11 9 12
REMARK SMILES IDX 80 13 10 14 12 15 79 16 11 17 13 18 7 19 1 20 2 21 3 22 4 23
REMARK SMILES IDX 6 24 5 25 24 26 25 27 26 28 27 29 28 30 29 31 30 32 31 33
REMARK SMILES IDX 32 34 78 35 33 36 77 37 34 38 35 39 36 40 71 41 37 42 76 43
REMARK SMILES IDX 70 44 72 45 38 46 75 47 69 48 68 49 39 51 61 52 46 53 60 54
REMARK SMILES IDX 47 55 50 56 59 57 73 58 48 59 49 60 58 62 74 63 51 64 40 65
REMARK SMILES IDX 41 66 45 67 42 68 44 69 43 70 62 71 63 72 67 73 64 74 66 75
REMARK SMILES IDX 65 76 52 77 53 78 57 79 54 80 56 81 55 82
REMARK H PARENT 72 50 50 61
REMARK Flexibility Score: inf
ROOT
ATOM      1  C   UNL A   1      38.201  22.338  25.770  1.00  0.00     0.188 C 
ENDROOT
BRANCH   1   2
ATOM      2  O   UNL A   1      37.621  21.724  24.622  1.00  0.00    -0.376 OA
BRANCH   2   3
ATOM      3  C   UNL A   1      36.662  22.509  23.905  1.00  0.00     0.202 C 
BRANCH   3   4
ATOM      4  C   UNL A   1      35.281  22.638  24.559  1.00  0.00     0.261 C 
BRANCH   4   5
ATOM      5  O   UNL A   1      34.519  21.412  24.507  1.00  0.00    -0.463 OA
BRANCH   5   6
ATOM      6  C   UNL A   1      33.198  21.539  24.251  1.00  0.00     0.306 C 
ATOM      7  O   UNL A   1      32.409  20.598  24.262  1.00  0.00    -0.252 OA
BRANCH   6   8
ATOM      8  C   UNL A   1      32.699  22.960  24.081  1.00  0.00     0.131 C 
BRANCH   8   9
ATOM      9  C   UNL A   1      31.386  23.444  24.678  1.00  0.00     0.091 C 
BRANCH   9  10
ATOM     10  C   UNL A   1      31.362  24.811  25.251  1.00  0.00     0.154 A 
ATOM     11  C   UNL A   1      31.269  28.301  25.163  1.00  0.00     0.081 A 
ATOM     12  C   UNL A   1      31.551  29.110  26.202  1.00  0.00     0.049 A 
ATOM     13  N   UNL A   1      31.354  26.910  25.372  1.00  0.00    -0.196 N 
ATOM     14  C   UNL A   1      31.948  28.446  27.470  1.00  0.00     0.117 A 
ATOM     15  C   UNL A   1      31.735  26.375  26.613  1.00  0.00     0.252 A 
ATOM     16  N   UNL A   1      31.125  25.891  24.512  1.00  0.00    -0.149 NA
ATOM     17  N   UNL A   1      32.043  27.172  27.677  1.00  0.00    -0.220 NA
ATOM     18  N   UNL A   1      31.741  25.060  26.536  1.00  0.00    -0.194 NA
BRANCH  11  19
ATOM     19  C   UNL A   1      30.905  28.830  23.882  1.00  0.00     0.041 A 
ATOM     20  C   UNL A   1      33.064  28.473  22.426  1.00  0.00     0.069 C 
ATOM     21  C   UNL A   1      31.672  28.915  22.690  1.00  0.00     0.069 A 
ATOM     22  N   UNL A   1      30.972  29.477  21.695  1.00  0.00    -0.178 NA
ATOM     23  N   UNL A   1      29.765  29.717  22.237  1.00  0.00    -0.275 N 
ATOM     24  C   UNL A   1      29.686  29.381  23.555  1.00  0.00     0.119 A 
ATOM     25  C   UNL A   1      28.723  30.279  21.412  1.00  0.00     0.173 C 
ENDBRANCH  11  19
ENDBRANCH   9  10
ENDBRANCH   8   9
ENDBRANCH   6   8
ENDBRANCH   5   6
ENDBRANCH   4   5
ENDBRANCH   3   4
ENDBRANCH   2   3
ENDBRANCH   1   2
BRANCH   1  26
ATOM     26  C   UNL A   1      39.329  21.559  26.455  1.00  0.00     0.188 C 
BRANCH  26  27
ATOM     27  O   UNL A   1      40.228  20.943  25.565  1.00  0.00    -0.376 OA
BRANCH  27  28
ATOM     28  C   UNL A   1      41.529  20.598  26.011  1.00  0.00     0.202 C 
BRANCH  28  29
ATOM     29  C   UNL A   1      42.588  21.717  26.156  1.00  0.00     0.261 C 
BRANCH  29  30
ATOM     30  O   UNL A   1      42.168  23.071  25.901  1.00  0.00    -0.460 OA
BRANCH  30  31
ATOM     31  C   UNL A   1      42.112  23.919  26.956  1.00  0.00     0.338 C 
ATOM     32  O   UNL A   1      41.481  23.751  27.989  1.00  0.00    -0.246 OA
BRANCH  31  33
ATOM     33  C   UNL A   1      43.193  24.934  26.787  1.00  0.00     0.060 A 
ATOM     34  C   UNL A   1      43.873  25.372  27.934  1.00  0.00     0.016 A 
ATOM     35  C   UNL A   1      43.608  25.372  25.526  1.00  0.00     0.016 A 
ATOM     36  C   UNL A   1      44.928  26.282  27.830  1.00  0.00     0.010 A 
ATOM     37  C   UNL A   1      44.653  26.302  25.424  1.00  0.00     0.010 A 
ATOM     38  C   UNL A   1      45.292  26.792  26.577  1.00  0.00    -0.014 A 
BRANCH  38  39
ATOM     39  C   UNL A   1      46.163  27.995  26.503  1.00  0.00     0.031 A 
ATOM     40  C   UNL A   1      47.640  27.785  26.290  1.00  0.00     0.074 A 
ATOM     41  C   UNL A   1      45.672  29.247  26.568  1.00  0.00     0.049 A 
ATOM     42  N   UNL A   1      48.603  28.665  26.179  1.00  0.00    -0.248 NA
ATOM     43  C   UNL A   1      48.089  26.386  26.190  1.00  0.00     0.031 C 
ATOM     44  C   UNL A   1      44.264  29.603  26.721  1.00  0.00     0.029 A 
ATOM     45  N   UNL A   1      46.321  30.457  26.508  1.00  0.00    -0.354 N 
ATOM     46  C   UNL A   1      49.767  27.927  25.999  1.00  0.00     0.074 A 
ATOM     47  C   UNL A   1      49.398  26.530  26.059  1.00  0.00     0.031 C 
ATOM     48  C   UNL A   1      44.154  30.943  26.738  1.00  0.00     0.029 A 
ATOM     49  C   UNL A   1      45.485  31.539  26.630  1.00  0.00     0.049 A 
ATOM     50  H   UNL A   1      47.294  30.540  26.389  1.00  0.00     0.167 HD
ATOM     51  C   UNL A   1      51.032  28.366  25.795  1.00  0.00     0.031 A 
ATOM     52  C   UNL A   1      45.763  32.859  26.662  1.00  0.00     0.031 A 
ATOM     53  C   UNL A   1      51.414  29.753  25.761  1.00  0.00     0.049 A 
ATOM     54  C   UNL A   1      47.191  33.322  26.523  1.00  0.00     0.074 A 
ATOM     55  C   UNL A   1      52.670  30.296  25.558  1.00  0.00     0.029 A 
ATOM     56  N   UNL A   1      50.543  30.814  25.947  1.00  0.00    -0.354 N 
ATOM     57  N   UNL A   1      48.280  32.616  26.332  1.00  0.00    -0.248 NA
ATOM     58  C   UNL A   1      47.422  34.773  26.591  1.00  0.00     0.031 C 
ATOM     59  C   UNL A   1      52.571  31.686  25.687  1.00  0.00     0.029 A 
ATOM     60  C   UNL A   1      51.239  32.011  25.892  1.00  0.00     0.049 A 
ATOM     61  H   UNL A   1      49.574  30.731  26.097  1.00  0.00     0.167 HD
ATOM     62  C   UNL A   1      49.317  33.537  26.222  1.00  0.00     0.074 A 
ATOM     63  C   UNL A   1      48.723  34.852  26.347  1.00  0.00     0.031 C 
ATOM     64  C   UNL A   1      50.641  33.315  26.028  1.00  0.00     0.031 A 
BRANCH  51  65
ATOM     65  C   UNL A   1      52.103  27.320  25.635  1.00  0.00    -0.014 A 
ATOM     66  C   UNL A   1      52.438  26.800  24.374  1.00  0.00     0.009 A 
ATOM     67  C   UNL A   1      52.791  26.852  26.765  1.00  0.00     0.009 A 
ATOM     68  C   UNL A   1      53.411  25.804  24.255  1.00  0.00     0.001 A 
ATOM     69  C   UNL A   1      53.787  25.883  26.639  1.00  0.00     0.001 A 
ATOM     70  C   UNL A   1      54.087  25.350  25.386  1.00  0.00     0.000 A 
ENDBRANCH  51  65
BRANCH  52  71
ATOM     71  C   UNL A   1      44.668  33.853  26.840  1.00  0.00    -0.014 A 
ATOM     72  C   UNL A   1      44.276  34.266  28.123  1.00  0.00     0.009 A 
ATOM     73  C   UNL A   1      43.983  34.364  25.727  1.00  0.00     0.009 A 
ATOM     74  C   UNL A   1      43.205  35.149  28.289  1.00  0.00     0.001 A 
ATOM     75  C   UNL A   1      42.935  35.272  25.893  1.00  0.00     0.001 A 
ATOM     76  C   UNL A   1      42.540  35.656  27.174  1.00  0.00     0.000 A 
ENDBRANCH  52  71
BRANCH  64  77
ATOM     77  C   UNL A   1      51.531  34.524  25.893  1.00  0.00    -0.014 A 
ATOM     78  C   UNL A   1      52.269  35.024  26.978  1.00  0.00     0.009 A 
ATOM     79  C   UNL A   1      51.640  35.167  24.649  1.00  0.00     0.009 A 
ATOM     80  C   UNL A   1      53.050  36.174  26.833  1.00  0.00     0.001 A 
ATOM     81  C   UNL A   1      52.451  36.293  24.497  1.00  0.00     0.001 A 
ATOM     82  C   UNL A   1      53.142  36.805  25.593  1.00  0.00     0.000 A 
ENDBRANCH  64  77
ENDBRANCH  38  39
ENDBRANCH  31  33
ENDBRANCH  30  31
ENDBRANCH  29  30
ENDBRANCH  28  29
ENDBRANCH  27  28
ENDBRANCH  26  27
ENDBRANCH   1  26
TORSDOF 20
ENDMDL
MODEL 3
REMARK VINA RESULT:      -8.0      4.925      8.002
REMARK SMILES Cc1nn(C)cc1-c1ccnc2nc(CCC(=O)OCCOCCOCCOC(=O)c3ccc(-c4c5nc(c(-c6ccccc6)c6ccc([nH]6)c(-c6ccccc6)c6nc(c(-c7ccccc7)c7ccc4[nH]7)C=C6)C=C5)cc3)nn12
REMARK SMILES IDX 23 1 22 2 21 3 20 4 19 5 17 6 18 7 16 8 15 9 14 10 8 11 9 12
REMARK SMILES IDX 80 13 10 14 12 15 79 16 11 17 13 18 7 19 1 20 2 21 3 22 4 23
REMARK SMILES IDX 6 24 5 25 24 26 25 27 26 28 27 29 28 30 29 31 30 32 31 33
REMARK SMILES IDX 32 34 78 35 33 36 77 37 34 38 35 39 36 40 71 41 37 42 76 43
REMARK SMILES IDX 70 44 72 45 38 46 75 47 69 48 68 49 39 51 61 52 46 53 60 54
REMARK SMILES IDX 47 55 50 56 59 57 73 58 48 59 49 60 58 62 74 63 51 64 40 65
REMARK SMILES IDX 41 66 45 67 42 68 44 69 43 70 62 71 63 72 67 73 64 74 66 75
REMARK SMILES IDX 65 76 52 77 53 78 57 79 54 80 56 81 55 82
REMARK H PARENT 72 50 50 61
REMARK Flexibility Score: inf
ROOT
ATOM      1  C   UNL A   1      35.256  32.015  29.396  1.00  0.00     0.188 C 
ENDROOT
BRANCH   1   2
ATOM      2  O   UNL A   1      36.272  31.016  29.373  1.00  0.00    -0.376 OA
BRANCH   2   3
ATOM      3  C   UNL A   1      35.902  29.754  28.806  1.00  0.00     0.202 C 
BRANCH   3   4
ATOM      4  C   UNL A   1      35.391  29.795  27.361  1.00  0.00     0.261 C 
BRANCH   4   5
ATOM      5  O   UNL A   1      34.038  29.309  27.230  1.00  0.00    -0.463 OA
BRANCH   5   6
ATOM      6  C   UNL A   1      33.808  28.444  26.218  1.00  0.00     0.306 C 
ATOM      7  O   UNL A   1      34.303  27.321  26.156  1.00  0.00    -0.252 OA
BRANCH   6   8
ATOM      8  C   UNL A   1      32.771  28.885  25.204  1.00  0.00     0.131 C 
BRANCH   8   9
ATOM      9  C   UNL A   1      32.885  28.560  23.723  1.00  0.00     0.091 C 
BRANCH   9  10
ATOM     10  C   UNL A   1      32.763  27.137  23.327  1.00  0.00     0.154 A 
ATOM     11  C   UNL A   1      32.301  23.714  23.846  1.00  0.00     0.081 A 
ATOM     12  C   UNL A   1      32.577  22.749  22.947  1.00  0.00     0.049 A 
ATOM     13  N   UNL A   1      32.546  25.050  23.471  1.00  0.00    -0.196 N 
ATOM     14  C   UNL A   1      33.138  23.197  21.646  1.00  0.00     0.117 A 
ATOM     15  C   UNL A   1      33.076  25.376  22.212  1.00  0.00     0.252 A 
ATOM     16  N   UNL A   1      32.359  26.193  24.171  1.00  0.00    -0.149 NA
ATOM     17  N   UNL A   1      33.381  24.417  21.290  1.00  0.00    -0.220 NA
ATOM     18  N   UNL A   1      33.213  26.682  22.123  1.00  0.00    -0.194 NA
BRANCH  11  19
ATOM     19  C   UNL A   1      31.785  23.399  25.145  1.00  0.00     0.041 A 
ATOM     20  C   UNL A   1      33.920  23.409  26.679  1.00  0.00     0.069 C 
ATOM     21  C   UNL A   1      32.474  23.258  26.379  1.00  0.00     0.069 A 
ATOM     22  N   UNL A   1      31.634  22.958  27.378  1.00  0.00    -0.178 NA
ATOM     23  N   UNL A   1      30.423  22.937  26.795  1.00  0.00    -0.275 N 
ATOM     24  C   UNL A   1      30.464  23.160  25.451  1.00  0.00     0.119 A 
ATOM     25  C   UNL A   1      29.254  22.695  27.606  1.00  0.00     0.173 C 
ENDBRANCH  11  19
ENDBRANCH   9  10
ENDBRANCH   8   9
ENDBRANCH   6   8
ENDBRANCH   5   6
ENDBRANCH   4   5
ENDBRANCH   3   4
ENDBRANCH   2   3
ENDBRANCH   1   2
BRANCH   1  26
ATOM     26  C   UNL A   1      34.765  32.446  30.782  1.00  0.00     0.188 C 
BRANCH  26  27
ATOM     27  O   UNL A   1      34.746  33.840  30.979  1.00  0.00    -0.376 OA
BRANCH  27  28
ATOM     28  C   UNL A   1      34.393  34.362  32.249  1.00  0.00     0.202 C 
BRANCH  28  29
ATOM     29  C   UNL A   1      35.509  34.592  33.296  1.00  0.00     0.261 C 
BRANCH  29  30
ATOM     30  O   UNL A   1      36.841  34.160  32.958  1.00  0.00    -0.460 OA
BRANCH  30  31
ATOM     31  C   UNL A   1      37.297  33.024  33.541  1.00  0.00     0.338 C 
ATOM     32  O   UNL A   1      36.832  32.478  34.529  1.00  0.00    -0.246 OA
BRANCH  31  33
ATOM     33  C   UNL A   1      38.258  32.379  32.598  1.00  0.00     0.060 A 
ATOM     34  C   UNL A   1      39.033  31.310  33.075  1.00  0.00     0.016 A 
ATOM     35  C   UNL A   1      38.327  32.737  31.249  1.00  0.00     0.016 A 
ATOM     36  C   UNL A   1      39.911  30.634  32.223  1.00  0.00     0.010 A 
ATOM     37  C   UNL A   1      39.224  32.073  30.400  1.00  0.00     0.010 A 
ATOM     38  C   UNL A   1      40.049  31.045  30.891  1.00  0.00    -0.014 A 
BRANCH  38  39
ATOM     39  C   UNL A   1      41.210  30.563  30.095  1.00  0.00     0.031 A 
ATOM     40  C   UNL A   1      41.089  29.226  29.410  1.00  0.00     0.074 A 
ATOM     41  C   UNL A   1      42.326  31.297  29.930  1.00  0.00     0.049 A 
ATOM     42  N   UNL A   1      41.950  28.594  28.653  1.00  0.00    -0.248 NA
ATOM     43  C   UNL A   1      39.821  28.506  29.610  1.00  0.00     0.031 C 
ATOM     44  C   UNL A   1      42.562  32.626  30.489  1.00  0.00     0.029 A 
ATOM     45  N   UNL A   1      43.474  31.017  29.230  1.00  0.00    -0.354 N 
ATOM     46  C   UNL A   1      41.328  27.405  28.291  1.00  0.00     0.074 A 
ATOM     47  C   UNL A   1      40.038  27.384  28.943  1.00  0.00     0.031 C 
ATOM     48  C   UNL A   1      43.781  33.047  30.107  1.00  0.00     0.029 A 
ATOM     49  C   UNL A   1      44.422  32.007  29.303  1.00  0.00     0.049 A 
ATOM     50  H   UNL A   1      43.606  30.183  28.723  1.00  0.00     0.167 HD
ATOM     51  C   UNL A   1      41.782  26.418  27.481  1.00  0.00     0.031 A 
ATOM     52  C   UNL A   1      45.668  32.064  28.789  1.00  0.00     0.031 A 
ATOM     53  C   UNL A   1      43.074  26.417  26.849  1.00  0.00     0.049 A 
ATOM     54  C   UNL A   1      46.187  30.912  27.965  1.00  0.00     0.074 A 
ATOM     55  C   UNL A   1      43.622  25.463  26.010  1.00  0.00     0.029 A 
ATOM     56  N   UNL A   1      44.024  27.414  26.996  1.00  0.00    -0.354 N 
ATOM     57  N   UNL A   1      45.582  29.804  27.611  1.00  0.00    -0.248 NA
ATOM     58  C   UNL A   1      47.562  31.033  27.457  1.00  0.00     0.031 C 
ATOM     59  C   UNL A   1      44.930  25.851  25.702  1.00  0.00     0.029 A 
ATOM     60  C   UNL A   1      45.168  27.085  26.287  1.00  0.00     0.049 A 
ATOM     61  H   UNL A   1      43.905  28.234  27.528  1.00  0.00     0.167 HD
ATOM     62  C   UNL A   1      46.488  29.113  26.813  1.00  0.00     0.074 A 
ATOM     63  C   UNL A   1      47.674  29.938  26.718  1.00  0.00     0.031 C 
ATOM     64  C   UNL A   1      46.348  27.907  26.207  1.00  0.00     0.031 A 
BRANCH  51  65
ATOM     65  C   UNL A   1      40.877  25.233  27.273  1.00  0.00    -0.014 A 
ATOM     66  C   UNL A   1      39.715  25.325  26.488  1.00  0.00     0.009 A 
ATOM     67  C   UNL A   1      41.196  24.002  27.868  1.00  0.00     0.009 A 
ATOM     68  C   UNL A   1      38.872  24.221  26.339  1.00  0.00     0.001 A 
ATOM     69  C   UNL A   1      40.370  22.891  27.687  1.00  0.00     0.001 A 
ATOM     70  C   UNL A   1      39.203  23.005  26.934  1.00  0.00     0.000 A 
ENDBRANCH  51  65
BRANCH  52  71
ATOM     71  C   UNL A   1      46.530  33.253  29.039  1.00  0.00    -0.014 A 
ATOM     72  C   UNL A   1      46.469  34.374  28.196  1.00  0.00     0.009 A 
ATOM     73  C   UNL A   1      47.448  33.255  30.101  1.00  0.00     0.009 A 
ATOM     74  C   UNL A   1      47.327  35.459  28.395  1.00  0.00     0.001 A 
ATOM     75  C   UNL A   1      48.280  34.356  30.319  1.00  0.00     0.001 A 
ATOM     76  C   UNL A   1      48.227  35.452  29.460  1.00  0.00     0.000 A 
ENDBRANCH  52  71
BRANCH  64  77
ATOM     77  C   UNL A   1      47.492  27.430  25.349  1.00  0.00    -0.014 A 
ATOM     78  C   UNL A   1      48.550  26.675  25.881  1.00  0.00     0.009 A 
ATOM     79  C   UNL A   1      47.502  27.733  23.978  1.00  0.00     0.009 A 
ATOM     80  C   UNL A   1      49.619  26.285  25.070  1.00  0.00     0.001 A 
ATOM     81  C   UNL A   1      48.553  27.309  23.162  1.00  0.00     0.001 A 
ATOM     82  C   UNL A   1      49.618  26.600  23.712  1.00  0.00     0.000 A 
ENDBRANCH  64  77
ENDBRANCH  38  39
ENDBRANCH  31  33
ENDBRANCH  30  31
ENDBRANCH  29  30
ENDBRANCH  28  29
ENDBRANCH  27  28
ENDBRANCH  26  27
ENDBRANCH   1  26
TORSDOF 20
ENDMDL
