MODEL 1
REMARK VINA RESULT:      -9.7      0.000      0.000
REMARK SMILES C[C@@H]1[C@@H](C(=O)OCCOCCOCCOC(=O)c2ccc(-c3c4nc(c(-c5ccccc5)c5ccc([nH]5)c(-c5ccccc5)c5nc(c(-c6ccccc6)c6ccc3[nH]6)C=C5)C=C4)cc2)CCN1C(=O)NC[C@@H]1COCCO1
REMARK SMILES IDX 10 1 9 2 8 3 7 4 6 5 4 6 5 7 3 8 1 9 2 10 68 11 66 12 67 13
REMARK SMILES IDX 69 14 70 15 71 16 72 18 73 19 74 20 78 21 75 22 77 23 76 24
REMARK SMILES IDX 11 25 12 26 13 27 14 28 15 29 16 30 17 31 18 32 19 33 65 34
REMARK SMILES IDX 20 35 64 36 21 37 22 38 23 39 58 40 24 41 63 42 57 43 59 44
REMARK SMILES IDX 25 45 62 46 56 47 55 48 26 50 48 51 33 52 47 53 34 54 37 55
REMARK SMILES IDX 46 56 60 57 35 58 36 59 45 61 61 62 38 63 27 64 28 65 32 66
REMARK SMILES IDX 29 67 31 68 30 69 49 70 50 71 54 72 51 73 53 74 52 75 39 76
REMARK SMILES IDX 40 77 44 78 41 79 43 80 42 81
REMARK H PARENT 71 17 59 49 37 60
REMARK Flexibility Score: inf
ROOT
ATOM      1  C   UNL A   1      34.866  31.645  27.915  1.00  0.00     0.188 C 
ENDROOT
BRANCH   1   2
ATOM      2  O   UNL A   1      33.763  31.424  27.065  1.00  0.00    -0.376 OA
BRANCH   2   3
ATOM      3  C   UNL A   1      32.907  30.306  27.253  1.00  0.00     0.202 C 
BRANCH   3   4
ATOM      4  C   UNL A   1      33.380  28.846  27.252  1.00  0.00     0.261 C 
BRANCH   4   5
ATOM      5  O   UNL A   1      32.977  28.063  26.124  1.00  0.00    -0.463 OA
BRANCH   5   6
ATOM      6  C   UNL A   1      32.061  27.095  26.401  1.00  0.00     0.311 C 
ATOM      7  O   UNL A   1      31.028  27.281  27.030  1.00  0.00    -0.252 OA
BRANCH   6   8
ATOM      8  C   UNL A   1      32.446  25.772  25.760  1.00  0.00     0.123 C 
ATOM      9  C   UNL A   1      33.889  24.966  23.829  1.00  0.00     0.032 C 
ATOM     10  C   UNL A   1      32.919  26.043  24.323  1.00  0.00     0.098 C 
ATOM     11  N   UNL A   1      31.685  26.033  23.539  1.00  0.00    -0.321 N 
ATOM     12  C   UNL A   1      31.241  24.866  25.576  1.00  0.00     0.039 C 
ATOM     13  C   UNL A   1      30.611  25.387  24.294  1.00  0.00     0.122 C 
BRANCH  11  14
ATOM     14  C   UNL A   1      31.320  26.744  22.438  1.00  0.00     0.317 C 
ATOM     15  O   UNL A   1      31.502  26.293  21.302  1.00  0.00    -0.249 OA
ATOM     16  N   UNL A   1      30.732  27.949  22.494  1.00  0.00    -0.335 N 
ATOM     17  H   UNL A   1      30.363  28.209  21.620  1.00  0.00     0.165 HD
BRANCH  16  18
ATOM     18  C   UNL A   1      30.496  28.976  23.498  1.00  0.00     0.152 C 
BRANCH  18  19
ATOM     19  C   UNL A   1      29.286  29.840  23.122  1.00  0.00     0.163 C 
ATOM     20  C   UNL A   1      29.284  30.132  21.617  1.00  0.00     0.194 C 
ATOM     21  O   UNL A   1      29.365  31.077  23.864  1.00  0.00    -0.372 OA
ATOM     22  O   UNL A   1      28.189  30.987  21.269  1.00  0.00    -0.376 OA
ATOM     23  C   UNL A   1      28.277  31.942  23.503  1.00  0.00     0.189 C 
ATOM     24  C   UNL A   1      28.287  32.219  22.000  1.00  0.00     0.188 C 
ENDBRANCH  18  19
ENDBRANCH  16  18
ENDBRANCH  11  14
ENDBRANCH   6   8
ENDBRANCH   5   6
ENDBRANCH   4   5
ENDBRANCH   3   4
ENDBRANCH   2   3
ENDBRANCH   1   2
BRANCH   1  25
ATOM     25  C   UNL A   1      35.286  33.086  28.265  1.00  0.00     0.188 C 
BRANCH  25  26
ATOM     26  O   UNL A   1      34.560  33.843  29.204  1.00  0.00    -0.376 OA
BRANCH  26  27
ATOM     27  C   UNL A   1      33.865  35.009  28.792  1.00  0.00     0.202 C 
BRANCH  27  28
ATOM     28  C   UNL A   1      32.727  35.665  29.595  1.00  0.00     0.261 C 
BRANCH  28  29
ATOM     29  O   UNL A   1      33.096  36.334  30.807  1.00  0.00    -0.460 OA
BRANCH  29  30
ATOM     30  C   UNL A   1      32.723  35.703  31.945  1.00  0.00     0.338 C 
ATOM     31  O   UNL A   1      31.588  35.564  32.383  1.00  0.00    -0.246 OA
BRANCH  30  32
ATOM     32  C   UNL A   1      33.883  35.004  32.518  1.00  0.00     0.060 A 
ATOM     33  C   UNL A   1      35.147  35.602  32.409  1.00  0.00     0.016 A 
ATOM     34  C   UNL A   1      33.737  33.745  33.102  1.00  0.00     0.016 A 
ATOM     35  C   UNL A   1      36.277  34.933  32.873  1.00  0.00     0.010 A 
ATOM     36  C   UNL A   1      34.875  33.062  33.537  1.00  0.00     0.010 A 
ATOM     37  C   UNL A   1      36.149  33.642  33.402  1.00  0.00    -0.014 A 
BRANCH  37  38
ATOM     38  C   UNL A   1      37.360  32.824  33.640  1.00  0.00     0.031 A 
ATOM     39  C   UNL A   1      38.127  33.033  34.916  1.00  0.00     0.074 A 
ATOM     40  C   UNL A   1      37.770  31.909  32.745  1.00  0.00     0.049 A 
ATOM     41  N   UNL A   1      39.247  32.485  35.309  1.00  0.00    -0.248 NA
ATOM     42  C   UNL A   1      37.556  33.997  35.872  1.00  0.00     0.031 C 
ATOM     43  C   UNL A   1      37.092  31.587  31.491  1.00  0.00     0.029 A 
ATOM     44  N   UNL A   1      38.865  31.085  32.760  1.00  0.00    -0.354 N 
ATOM     45  C   UNL A   1      39.523  33.046  36.550  1.00  0.00     0.074 A 
ATOM     46  C   UNL A   1      38.463  33.989  36.837  1.00  0.00     0.031 C 
ATOM     47  C   UNL A   1      37.786  30.623  30.859  1.00  0.00     0.029 A 
ATOM     48  C   UNL A   1      38.974  30.292  31.644  1.00  0.00     0.049 A 
ATOM     49  H   UNL A   1      39.512  31.062  33.501  1.00  0.00     0.167 HD
ATOM     50  C   UNL A   1      40.567  32.803  37.377  1.00  0.00     0.031 A 
ATOM     51  C   UNL A   1      39.936  29.418  31.290  1.00  0.00     0.031 A 
ATOM     52  C   UNL A   1      41.634  31.887  37.083  1.00  0.00     0.049 A 
ATOM     53  C   UNL A   1      41.129  29.225  32.192  1.00  0.00     0.074 A 
ATOM     54  C   UNL A   1      42.745  31.581  37.850  1.00  0.00     0.029 A 
ATOM     55  N   UNL A   1      41.728  31.131  35.925  1.00  0.00    -0.354 N 
ATOM     56  N   UNL A   1      41.376  29.755  33.365  1.00  0.00    -0.248 NA
ATOM     57  C   UNL A   1      42.180  28.315  31.711  1.00  0.00     0.031 C 
ATOM     58  C   UNL A   1      43.536  30.678  37.134  1.00  0.00     0.029 A 
ATOM     59  C   UNL A   1      42.887  30.377  35.946  1.00  0.00     0.049 A 
ATOM     60  H   UNL A   1      41.066  31.131  35.196  1.00  0.00     0.167 HD
ATOM     61  C   UNL A   1      42.596  29.226  33.772  1.00  0.00     0.074 A 
ATOM     62  C   UNL A   1      43.028  28.318  32.731  1.00  0.00     0.031 C 
ATOM     63  C   UNL A   1      43.298  29.472  34.905  1.00  0.00     0.031 A 
BRANCH  50  64
ATOM     64  C   UNL A   1      40.623  33.578  38.662  1.00  0.00    -0.014 A 
ATOM     65  C   UNL A   1      40.019  33.092  39.832  1.00  0.00     0.009 A 
ATOM     66  C   UNL A   1      41.310  34.801  38.707  1.00  0.00     0.009 A 
ATOM     67  C   UNL A   1      40.079  33.831  41.016  1.00  0.00     0.001 A 
ATOM     68  C   UNL A   1      41.391  35.524  39.898  1.00  0.00     0.001 A 
ATOM     69  C   UNL A   1      40.768  35.043  41.049  1.00  0.00     0.000 A 
ENDBRANCH  50  64
BRANCH  51  70
ATOM     70  C   UNL A   1      39.839  28.668  30.009  1.00  0.00    -0.014 A 
ATOM     71  C   UNL A   1      39.306  27.370  29.984  1.00  0.00     0.009 A 
ATOM     72  C   UNL A   1      40.317  29.229  28.815  1.00  0.00     0.009 A 
ATOM     73  C   UNL A   1      39.280  26.639  28.793  1.00  0.00     0.001 A 
ATOM     74  C   UNL A   1      40.260  28.507  27.621  1.00  0.00     0.001 A 
ATOM     75  C   UNL A   1      39.752  27.210  27.613  1.00  0.00     0.000 A 
ENDBRANCH  51  70
BRANCH  63  76
ATOM     76  C   UNL A   1      44.585  28.718  35.100  1.00  0.00    -0.014 A 
ATOM     77  C   UNL A   1      45.814  29.248  34.679  1.00  0.00     0.009 A 
ATOM     78  C   UNL A   1      44.568  27.478  35.759  1.00  0.00     0.009 A 
ATOM     79  C   UNL A   1      46.998  28.535  34.887  1.00  0.00     0.001 A 
ATOM     80  C   UNL A   1      45.756  26.782  35.991  1.00  0.00     0.001 A 
ATOM     81  C   UNL A   1      46.968  27.307  35.546  1.00  0.00     0.000 A 
ENDBRANCH  63  76
ENDBRANCH  37  38
ENDBRANCH  30  32
ENDBRANCH  29  30
ENDBRANCH  28  29
ENDBRANCH  27  28
ENDBRANCH  26  27
ENDBRANCH  25  26
ENDBRANCH   1  25
TORSDOF 20
ENDMDL
MODEL 2
REMARK VINA RESULT:      -9.6      3.171      5.367
REMARK SMILES C[C@@H]1[C@@H](C(=O)OCCOCCOCCOC(=O)c2ccc(-c3c4nc(c(-c5ccccc5)c5ccc([nH]5)c(-c5ccccc5)c5nc(c(-c6ccccc6)c6ccc3[nH]6)C=C5)C=C4)cc2)CCN1C(=O)NC[C@@H]1COCCO1
REMARK SMILES IDX 10 1 9 2 8 3 7 4 6 5 4 6 5 7 3 8 1 9 2 10 68 11 66 12 67 13
REMARK SMILES IDX 69 14 70 15 71 16 72 18 73 19 74 20 78 21 75 22 77 23 76 24
REMARK SMILES IDX 11 25 12 26 13 27 14 28 15 29 16 30 17 31 18 32 19 33 65 34
REMARK SMILES IDX 20 35 64 36 21 37 22 38 23 39 58 40 24 41 63 42 57 43 59 44
REMARK SMILES IDX 25 45 62 46 56 47 55 48 26 50 48 51 33 52 47 53 34 54 37 55
REMARK SMILES IDX 46 56 60 57 35 58 36 59 45 61 61 62 38 63 27 64 28 65 32 66
REMARK SMILES IDX 29 67 31 68 30 69 49 70 50 71 54 72 51 73 53 74 52 75 39 76
REMARK SMILES IDX 40 77 44 78 41 79 43 80 42 81
REMARK H PARENT 71 17 59 49 37 60
REMARK Flexibility Score: inf
ROOT
ATOM      1  C   UNL A   1      32.805  29.047  24.728  1.00  0.00     0.188 C 
ENDROOT
BRANCH   1   2
ATOM      2  O   UNL A   1      32.062  28.177  23.904  1.00  0.00    -0.376 OA
BRANCH   2   3
ATOM      3  C   UNL A   1      30.701  27.886  24.187  1.00  0.00     0.202 C 
BRANCH   3   4
ATOM      4  C   UNL A   1      30.231  26.723  25.072  1.00  0.00     0.261 C 
BRANCH   4   5
ATOM      5  O   UNL A   1      31.131  26.334  26.115  1.00  0.00    -0.463 OA
BRANCH   5   6
ATOM      6  C   UNL A   1      31.389  24.998  26.175  1.00  0.00     0.311 C 
ATOM      7  O   UNL A   1      31.073  24.275  27.109  1.00  0.00    -0.252 OA
BRANCH   6   8
ATOM      8  C   UNL A   1      32.048  24.507  24.896  1.00  0.00     0.123 C 
ATOM      9  C   UNL A   1      32.213  22.341  23.575  1.00  0.00     0.032 C 
ATOM     10  C   UNL A   1      32.178  22.977  24.968  1.00  0.00     0.098 C 
ATOM     11  N   UNL A   1      33.443  22.765  25.671  1.00  0.00    -0.321 N 
ATOM     12  C   UNL A   1      33.485  24.984  24.787  1.00  0.00     0.039 C 
ATOM     13  C   UNL A   1      34.245  23.988  25.648  1.00  0.00     0.122 C 
BRANCH  11  14
ATOM     14  C   UNL A   1      33.831  21.791  26.538  1.00  0.00     0.317 C 
ATOM     15  O   UNL A   1      33.744  21.957  27.759  1.00  0.00    -0.249 OA
ATOM     16  N   UNL A   1      34.307  20.598  26.149  1.00  0.00    -0.335 N 
ATOM     17  H   UNL A   1      34.339  19.962  26.900  1.00  0.00     0.165 HD
BRANCH  16  18
ATOM     18  C   UNL A   1      34.791  19.991  24.918  1.00  0.00     0.152 C 
BRANCH  18  19
ATOM     19  C   UNL A   1      33.877  18.841  24.479  1.00  0.00     0.163 C 
ATOM     20  C   UNL A   1      32.876  18.499  25.589  1.00  0.00     0.194 C 
ATOM     21  O   UNL A   1      34.702  17.692  24.188  1.00  0.00    -0.372 OA
ATOM     22  O   UNL A   1      32.058  17.387  25.207  1.00  0.00    -0.376 OA
ATOM     23  C   UNL A   1      33.881  16.572  23.822  1.00  0.00     0.189 C 
ATOM     24  C   UNL A   1      32.887  16.248  24.937  1.00  0.00     0.188 C 
ENDBRANCH  18  19
ENDBRANCH  16  18
ENDBRANCH  11  14
ENDBRANCH   6   8
ENDBRANCH   5   6
ENDBRANCH   4   5
ENDBRANCH   3   4
ENDBRANCH   2   3
ENDBRANCH   1   2
BRANCH   1  25
ATOM     25  C   UNL A   1      32.081  29.906  25.784  1.00  0.00     0.188 C 
BRANCH  25  26
ATOM     26  O   UNL A   1      32.637  30.101  27.062  1.00  0.00    -0.376 OA
BRANCH  26  27
ATOM     27  C   UNL A   1      33.313  31.311  27.366  1.00  0.00     0.202 C 
BRANCH  27  28
ATOM     28  C   UNL A   1      32.609  32.665  27.567  1.00  0.00     0.261 C 
BRANCH  28  29
ATOM     29  O   UNL A   1      33.452  33.811  27.740  1.00  0.00    -0.460 OA
BRANCH  29  30
ATOM     30  C   UNL A   1      33.542  34.267  29.011  1.00  0.00     0.338 C 
ATOM     31  O   UNL A   1      32.708  34.915  29.631  1.00  0.00    -0.246 OA
BRANCH  30  32
ATOM     32  C   UNL A   1      34.737  33.699  29.652  1.00  0.00     0.060 A 
ATOM     33  C   UNL A   1      35.997  34.033  29.135  1.00  0.00     0.016 A 
ATOM     34  C   UNL A   1      34.616  32.799  30.710  1.00  0.00     0.016 A 
ATOM     35  C   UNL A   1      37.145  33.454  29.667  1.00  0.00     0.010 A 
ATOM     36  C   UNL A   1      35.767  32.194  31.222  1.00  0.00     0.010 A 
ATOM     37  C   UNL A   1      37.031  32.500  30.687  1.00  0.00    -0.014 A 
BRANCH  37  38
ATOM     38  C   UNL A   1      38.208  31.685  31.066  1.00  0.00     0.031 A 
ATOM     39  C   UNL A   1      38.976  32.067  32.300  1.00  0.00     0.074 A 
ATOM     40  C   UNL A   1      38.586  30.625  30.332  1.00  0.00     0.049 A 
ATOM     41  N   UNL A   1      40.073  31.548  32.788  1.00  0.00    -0.248 NA
ATOM     42  C   UNL A   1      38.439  33.193  33.084  1.00  0.00     0.031 C 
ATOM     43  C   UNL A   1      37.902  30.131  29.139  1.00  0.00     0.029 A 
ATOM     44  N   UNL A   1      39.648  29.773  30.492  1.00  0.00    -0.354 N 
ATOM     45  C   UNL A   1      40.365  32.290  33.925  1.00  0.00     0.074 A 
ATOM     46  C   UNL A   1      39.341  33.306  34.047  1.00  0.00     0.031 C 
ATOM     47  C   UNL A   1      38.561  29.053  28.678  1.00  0.00     0.029 A 
ATOM     48  C   UNL A   1      39.732  28.808  29.518  1.00  0.00     0.049 A 
ATOM     49  H   UNL A   1      40.291  29.845  31.234  1.00  0.00     0.167 HD
ATOM     50  C   UNL A   1      41.395  32.143  34.791  1.00  0.00     0.031 A 
ATOM     51  C   UNL A   1      40.661  27.853  29.318  1.00  0.00     0.031 A 
ATOM     52  C   UNL A   1      42.427  31.152  34.660  1.00  0.00     0.049 A 
ATOM     53  C   UNL A   1      41.841  27.763  30.252  1.00  0.00     0.074 A 
ATOM     54  C   UNL A   1      43.522  30.932  35.478  1.00  0.00     0.029 A 
ATOM     55  N   UNL A   1      42.496  30.218  33.638  1.00  0.00    -0.354 N 
ATOM     56  N   UNL A   1      42.103  28.464  31.328  1.00  0.00    -0.248 NA
ATOM     57  C   UNL A   1      42.859  26.749  29.934  1.00  0.00     0.031 C 
ATOM     58  C   UNL A   1      44.281  29.897  34.923  1.00  0.00     0.029 A 
ATOM     59  C   UNL A   1      43.626  29.434  33.792  1.00  0.00     0.049 A 
ATOM     60  H   UNL A   1      41.839  30.126  32.912  1.00  0.00     0.167 HD
ATOM     61  C   UNL A   1      43.300  27.961  31.827  1.00  0.00     0.074 A 
ATOM     62  C   UNL A   1      43.701  26.883  30.949  1.00  0.00     0.031 C 
ATOM     63  C   UNL A   1      44.006  28.359  32.914  1.00  0.00     0.031 A 
BRANCH  50  64
ATOM     64  C   UNL A   1      41.475  33.111  35.937  1.00  0.00    -0.014 A 
ATOM     65  C   UNL A   1      40.777  32.884  37.133  1.00  0.00     0.009 A 
ATOM     66  C   UNL A   1      42.280  34.256  35.825  1.00  0.00     0.009 A 
ATOM     67  C   UNL A   1      40.861  33.800  38.184  1.00  0.00     0.001 A 
ATOM     68  C   UNL A   1      42.384  35.155  36.887  1.00  0.00     0.001 A 
ATOM     69  C   UNL A   1      41.668  34.931  38.062  1.00  0.00     0.000 A 
ENDBRANCH  50  64
BRANCH  51  70
ATOM     70  C   UNL A   1      40.540  26.912  28.173  1.00  0.00    -0.014 A 
ATOM     71  C   UNL A   1      39.820  25.714  28.309  1.00  0.00     0.009 A 
ATOM     72  C   UNL A   1      41.179  27.185  26.953  1.00  0.00     0.009 A 
ATOM     73  C   UNL A   1      39.767  24.798  27.256  1.00  0.00     0.001 A 
ATOM     74  C   UNL A   1      41.097  26.280  25.893  1.00  0.00     0.001 A 
ATOM     75  C   UNL A   1      40.400  25.084  26.048  1.00  0.00     0.000 A 
ENDBRANCH  51  70
BRANCH  63  76
ATOM     76  C   UNL A   1      45.262  27.598  33.240  1.00  0.00    -0.014 A 
ATOM     77  C   UNL A   1      45.232  26.448  34.043  1.00  0.00     0.009 A 
ATOM     78  C   UNL A   1      46.487  28.015  32.692  1.00  0.00     0.009 A 
ATOM     79  C   UNL A   1      46.410  25.749  34.317  1.00  0.00     0.001 A 
ATOM     80  C   UNL A   1      47.657  27.297  32.945  1.00  0.00     0.001 A 
ATOM     81  C   UNL A   1      47.618  26.170  33.765  1.00  0.00     0.000 A 
ENDBRANCH  63  76
ENDBRANCH  37  38
ENDBRANCH  30  32
ENDBRANCH  29  30
ENDBRANCH  28  29
ENDBRANCH  27  28
ENDBRANCH  26  27
ENDBRANCH  25  26
ENDBRANCH   1  25
TORSDOF 20
ENDMDL
MODEL 3
REMARK VINA RESULT:      -9.4      8.210     12.324
REMARK SMILES C[C@@H]1[C@@H](C(=O)OCCOCCOCCOC(=O)c2ccc(-c3c4nc(c(-c5ccccc5)c5ccc([nH]5)c(-c5ccccc5)c5nc(c(-c6ccccc6)c6ccc3[nH]6)C=C5)C=C4)cc2)CCN1C(=O)NC[C@@H]1COCCO1
REMARK SMILES IDX 10 1 9 2 8 3 7 4 6 5 4 6 5 7 3 8 1 9 2 10 68 11 66 12 67 13
REMARK SMILES IDX 69 14 70 15 71 16 72 18 73 19 74 20 78 21 75 22 77 23 76 24
REMARK SMILES IDX 11 25 12 26 13 27 14 28 15 29 16 30 17 31 18 32 19 33 65 34
REMARK SMILES IDX 20 35 64 36 21 37 22 38 23 39 58 40 24 41 63 42 57 43 59 44
REMARK SMILES IDX 25 45 62 46 56 47 55 48 26 50 48 51 33 52 47 53 34 54 37 55
REMARK SMILES IDX 46 56 60 57 35 58 36 59 45 61 61 62 38 63 27 64 28 65 32 66
REMARK SMILES IDX 29 67 31 68 30 69 49 70 50 71 54 72 51 73 53 74 52 75 39 76
REMARK SMILES IDX 40 77 44 78 41 79 43 80 42 81
REMARK H PARENT 71 17 59 49 37 60
REMARK Flexibility Score: inf
ROOT
ATOM      1  C   UNL A   1      39.783  20.400  25.887  1.00  0.00     0.188 C 
ENDROOT
BRANCH   1   2
ATOM      2  O   UNL A   1      39.110  21.632  26.018  1.00  0.00    -0.376 OA
BRANCH   2   3
ATOM      3  C   UNL A   1      37.757  21.774  25.609  1.00  0.00     0.202 C 
BRANCH   3   4
ATOM      4  C   UNL A   1      37.129  23.095  25.145  1.00  0.00     0.261 C 
BRANCH   4   5
ATOM      5  O   UNL A   1      35.702  23.101  25.039  1.00  0.00    -0.463 OA
BRANCH   5   6
ATOM      6  C   UNL A   1      35.222  23.552  23.847  1.00  0.00     0.311 C 
ATOM      7  O   UNL A   1      35.581  23.134  22.755  1.00  0.00    -0.252 OA
BRANCH   6   8
ATOM      8  C   UNL A   1      34.125  24.584  24.051  1.00  0.00     0.123 C 
ATOM      9  C   UNL A   1      32.677  25.442  25.956  1.00  0.00     0.032 C 
ATOM     10  C   UNL A   1      33.333  24.215  25.315  1.00  0.00     0.098 C 
ATOM     11  N   UNL A   1      32.322  23.274  24.834  1.00  0.00    -0.321 N 
ATOM     12  C   UNL A   1      33.086  24.522  22.946  1.00  0.00     0.039 C 
ATOM     13  C   UNL A   1      32.187  23.375  23.381  1.00  0.00     0.122 C 
BRANCH  11  14
ATOM     14  C   UNL A   1      31.755  22.190  25.430  1.00  0.00     0.317 C 
ATOM     15  O   UNL A   1      30.684  22.287  26.037  1.00  0.00    -0.249 OA
ATOM     16  N   UNL A   1      32.287  20.959  25.391  1.00  0.00    -0.335 N 
ATOM     17  H   UNL A   1      31.643  20.279  25.695  1.00  0.00     0.165 HD
BRANCH  16  18
ATOM     18  C   UNL A   1      33.561  20.357  25.022  1.00  0.00     0.152 C 
BRANCH  18  19
ATOM     19  C   UNL A   1      33.379  18.882  24.643  1.00  0.00     0.163 C 
ATOM     20  C   UNL A   1      32.610  18.138  25.740  1.00  0.00     0.194 C 
ATOM     21  O   UNL A   1      34.687  18.294  24.472  1.00  0.00    -0.372 OA
ATOM     22  O   UNL A   1      32.488  16.748  25.418  1.00  0.00    -0.376 OA
ATOM     23  C   UNL A   1      34.566  16.897  24.167  1.00  0.00     0.189 C 
ATOM     24  C   UNL A   1      33.794  16.171  25.267  1.00  0.00     0.188 C 
ENDBRANCH  18  19
ENDBRANCH  16  18
ENDBRANCH  11  14
ENDBRANCH   6   8
ENDBRANCH   5   6
ENDBRANCH   4   5
ENDBRANCH   3   4
ENDBRANCH   2   3
ENDBRANCH   1   2
BRANCH   1  25
ATOM     25  C   UNL A   1      40.885  20.018  26.894  1.00  0.00     0.188 C 
BRANCH  25  26
ATOM     26  O   UNL A   1      42.117  19.497  26.455  1.00  0.00    -0.376 OA
BRANCH  26  27
ATOM     27  C   UNL A   1      43.022  20.320  25.737  1.00  0.00     0.202 C 
BRANCH  27  28
ATOM     28  C   UNL A   1      43.398  21.754  26.150  1.00  0.00     0.261 C 
BRANCH  28  29
ATOM     29  O   UNL A   1      42.520  22.801  25.719  1.00  0.00    -0.460 OA
BRANCH  29  30
ATOM     30  C   UNL A   1      42.090  23.626  26.702  1.00  0.00     0.338 C 
ATOM     31  O   UNL A   1      41.268  23.380  27.576  1.00  0.00    -0.246 OA
BRANCH  30  32
ATOM     32  C   UNL A   1      42.910  24.847  26.709  1.00  0.00     0.060 A 
ATOM     33  C   UNL A   1      43.309  25.393  25.481  1.00  0.00     0.016 A 
ATOM     34  C   UNL A   1      43.333  25.412  27.912  1.00  0.00     0.016 A 
ATOM     35  C   UNL A   1      44.149  26.503  25.451  1.00  0.00     0.010 A 
ATOM     36  C   UNL A   1      44.201  26.506  27.880  1.00  0.00     0.010 A 
ATOM     37  C   UNL A   1      44.631  27.039  26.652  1.00  0.00    -0.014 A 
BRANCH  37  38
ATOM     38  C   UNL A   1      45.728  28.033  26.624  1.00  0.00     0.031 A 
ATOM     39  C   UNL A   1      45.376  29.492  26.719  1.00  0.00     0.074 A 
ATOM     40  C   UNL A   1      47.012  27.651  26.521  1.00  0.00     0.049 A 
ATOM     41  N   UNL A   1      46.156  30.539  26.647  1.00  0.00    -0.248 NA
ATOM     42  C   UNL A   1      43.951  29.810  26.911  1.00  0.00     0.031 C 
ATOM     43  C   UNL A   1      47.483  26.269  26.461  1.00  0.00     0.029 A 
ATOM     44  N   UNL A   1      48.156  28.403  26.447  1.00  0.00    -0.354 N 
ATOM     45  C   UNL A   1      45.317  31.640  26.771  1.00  0.00     0.074 A 
ATOM     46  C   UNL A   1      43.968  31.134  26.906  1.00  0.00     0.031 C 
ATOM     47  C   UNL A   1      48.825  26.273  26.367  1.00  0.00     0.029 A 
ATOM     48  C   UNL A   1      49.300  27.654  26.319  1.00  0.00     0.049 A 
ATOM     49  H   UNL A   1      48.158  29.386  26.481  1.00  0.00     0.167 HD
ATOM     50  C   UNL A   1      45.639  32.954  26.770  1.00  0.00     0.031 A 
ATOM     51  C   UNL A   1      50.580  28.044  26.161  1.00  0.00     0.031 A 
ATOM     52  C   UNL A   1      46.974  33.460  26.611  1.00  0.00     0.049 A 
ATOM     53  C   UNL A   1      50.901  29.515  26.082  1.00  0.00     0.074 A 
ATOM     54  C   UNL A   1      47.401  34.776  26.582  1.00  0.00     0.029 A 
ATOM     55  N   UNL A   1      48.102  32.670  26.447  1.00  0.00    -0.354 N 
ATOM     56  N   UNL A   1      50.102  30.546  26.209  1.00  0.00    -0.248 NA
ATOM     57  C   UNL A   1      52.306  29.872  25.831  1.00  0.00     0.031 C 
ATOM     58  C   UNL A   1      48.780  34.784  26.350  1.00  0.00     0.029 A 
ATOM     59  C   UNL A   1      49.220  33.470  26.294  1.00  0.00     0.049 A 
ATOM     60  H   UNL A   1      48.105  31.686  26.441  1.00  0.00     0.167 HD
ATOM     61  C   UNL A   1      50.909  31.671  26.076  1.00  0.00     0.074 A 
ATOM     62  C   UNL A   1      52.262  31.196  25.881  1.00  0.00     0.031 C 
ATOM     63  C   UNL A   1      50.561  32.981  26.109  1.00  0.00     0.031 A 
BRANCH  50  64
ATOM     64  C   UNL A   1      44.513  33.939  26.904  1.00  0.00    -0.014 A 
ATOM     65  C   UNL A   1      43.838  34.432  25.775  1.00  0.00     0.009 A 
ATOM     66  C   UNL A   1      44.105  34.362  28.179  1.00  0.00     0.009 A 
ATOM     67  C   UNL A   1      42.797  35.351  25.921  1.00  0.00     0.001 A 
ATOM     68  C   UNL A   1      43.047  35.259  28.323  1.00  0.00     0.001 A 
ATOM     69  C   UNL A   1      42.399  35.760  27.194  1.00  0.00     0.000 A 
ENDBRANCH  50  64
BRANCH  51  70
ATOM     70  C   UNL A   1      51.666  27.035  26.037  1.00  0.00    -0.014 A 
ATOM     71  C   UNL A   1      52.392  26.629  27.167  1.00  0.00     0.009 A 
ATOM     72  C   UNL A   1      52.008  26.504  24.784  1.00  0.00     0.009 A 
ATOM     73  C   UNL A   1      53.458  25.735  27.040  1.00  0.00     0.001 A 
ATOM     74  C   UNL A   1      53.054  25.586  24.665  1.00  0.00     0.001 A 
ATOM     75  C   UNL A   1      53.784  25.210  25.791  1.00  0.00     0.000 A 
ENDBRANCH  51  70
BRANCH  63  76
ATOM     76  C   UNL A   1      51.664  33.994  25.974  1.00  0.00    -0.014 A 
ATOM     77  C   UNL A   1      52.399  34.427  27.088  1.00  0.00     0.009 A 
ATOM     78  C   UNL A   1      52.003  34.485  24.703  1.00  0.00     0.009 A 
ATOM     79  C   UNL A   1      53.431  35.357  26.935  1.00  0.00     0.001 A 
ATOM     80  C   UNL A   1      53.053  35.391  24.549  1.00  0.00     0.001 A 
ATOM     81  C   UNL A   1      53.760  35.833  25.666  1.00  0.00     0.000 A 
ENDBRANCH  63  76
ENDBRANCH  37  38
ENDBRANCH  30  32
ENDBRANCH  29  30
ENDBRANCH  28  29
ENDBRANCH  27  28
ENDBRANCH  26  27
ENDBRANCH  25  26
ENDBRANCH   1  25
TORSDOF 20
ENDMDL
