MODEL 1
REMARK VINA RESULT:     -11.8      0.000      0.000
REMARK SMILES Cc1cccc(-c2ccc(Cl)c(C(=O)OCCOCCOCCOC(=O)c3ccc(-c4c5nc(c(-c6ccccc6)c6ccc([nH]6)c(-c6ccccc6)c6nc(c(-c7ccccc7)c7ccc4[nH]7)C=C6)C=C5)cc3)c2)c1
REMARK SMILES IDX 20 1 19 2 18 3 17 4 16 5 15 6 13 7 14 8 12 9 7 10 8 11 75 12
REMARK SMILES IDX 9 13 10 14 11 15 6 16 1 17 2 18 3 19 76 20 4 21 5 22 21 23
REMARK SMILES IDX 22 24 23 25 24 26 25 27 26 28 27 29 28 30 74 31 29 32 73 33
REMARK SMILES IDX 30 34 31 35 32 36 67 37 33 38 72 39 66 40 68 41 34 42 71 43
REMARK SMILES IDX 65 44 64 45 35 47 57 48 42 49 56 50 43 51 46 52 55 53 69 54
REMARK SMILES IDX 44 55 45 56 54 58 70 59 47 60 36 61 37 62 41 63 38 64 40 65
REMARK SMILES IDX 39 66 58 67 59 68 63 69 60 70 62 71 61 72 48 73 49 74 53 75
REMARK SMILES IDX 50 76 52 77 51 78
REMARK H PARENT 68 46 46 57
REMARK Flexibility Score: inf
ROOT
ATOM      1  C   UNL A   1      41.517  19.787  27.645  1.00  0.00     0.188 C 
ENDROOT
BRANCH   1   2
ATOM      2  C   UNL A   1      40.983  20.420  26.362  1.00  0.00     0.188 C 
BRANCH   2   3
ATOM      3  O   UNL A   1      39.806  21.256  26.274  1.00  0.00    -0.376 OA
BRANCH   3   4
ATOM      4  C   UNL A   1      39.767  22.681  26.106  1.00  0.00     0.202 C 
BRANCH   4   5
ATOM      5  C   UNL A   1      38.524  23.804  26.575  1.00  0.00     0.261 C 
BRANCH   5   6
ATOM      6  O   UNL A   1      36.845  23.859  26.353  1.00  0.00    -0.460 OA
BRANCH   6   7
ATOM      7  C   UNL A   1      35.903  23.681  25.302  1.00  0.00     0.339 C 
ATOM      8  O   UNL A   1      36.106  23.288  24.153  1.00  0.00    -0.246 OA
BRANCH   7   9
ATOM      9  C   UNL A   1      34.436  23.877  25.332  1.00  0.00     0.079 A 
ATOM     10  C   UNL A   1      32.730  25.658  25.913  1.00  0.00    -0.017 A 
ATOM     11  C   UNL A   1      31.976  24.642  26.505  1.00  0.00     0.010 A 
ATOM     12  C   UNL A   1      33.958  25.247  25.347  1.00  0.00     0.026 A 
ATOM     13  C   UNL A   1      32.431  23.308  26.536  1.00  0.00     0.022 A 
ATOM     14  C   UNL A   1      33.658  22.926  25.970  1.00  0.00     0.055 A 
ATOM     15  Cl  UNL A   1      34.226  21.321  26.247  1.00  0.00    -0.083 Cl
BRANCH  10  16
ATOM     16  C   UNL A   1      32.237  27.069  25.885  1.00  0.00    -0.018 A 
ATOM     17  C   UNL A   1      30.541  29.620  23.523  1.00  0.00     0.044 C 
ATOM     18  C   UNL A   1      31.218  29.006  24.720  1.00  0.00    -0.051 A 
ATOM     19  C   UNL A   1      31.603  29.842  25.772  1.00  0.00     0.003 A 
ATOM     20  C   UNL A   1      31.542  27.629  24.783  1.00  0.00     0.012 A 
ATOM     21  C   UNL A   1      32.250  29.309  26.882  1.00  0.00     0.001 A 
ATOM     22  C   UNL A   1      32.549  27.942  26.942  1.00  0.00     0.009 A 
ENDBRANCH  10  16
ENDBRANCH   7   9
ENDBRANCH   6   7
ENDBRANCH   5   6
ENDBRANCH   4   5
ENDBRANCH   3   4
ENDBRANCH   2   3
ENDBRANCH   1   2
BRANCH   1  23
ATOM     23  O   UNL A   1      42.613  18.937  27.369  1.00  0.00    -0.376 OA
BRANCH  23  24
ATOM     24  C   UNL A   1      42.696  18.504  26.018  1.00  0.00     0.202 C 
BRANCH  24  25
ATOM     25  C   UNL A   1      44.140  18.478  25.463  1.00  0.00     0.261 C 
BRANCH  25  26
ATOM     26  O   UNL A   1      44.718  19.807  25.458  1.00  0.00    -0.460 OA
BRANCH  26  27
ATOM     27  C   UNL A   1      44.646  20.550  24.305  1.00  0.00     0.338 C 
ATOM     28  O   UNL A   1      44.533  20.084  23.178  1.00  0.00    -0.246 OA
BRANCH  27  29
ATOM     29  C   UNL A   1      45.000  21.985  24.597  1.00  0.00     0.060 A 
ATOM     30  C   UNL A   1      45.929  22.448  25.546  1.00  0.00     0.016 A 
ATOM     31  C   UNL A   1      44.064  22.883  24.233  1.00  0.00     0.016 A 
ATOM     32  C   UNL A   1      45.763  23.733  26.236  1.00  0.00     0.010 A 
ATOM     33  C   UNL A   1      43.821  23.886  25.169  1.00  0.00     0.010 A 
ATOM     34  C   UNL A   1      44.609  24.513  26.125  1.00  0.00    -0.014 A 
BRANCH  34  35
ATOM     35  C   UNL A   1      44.067  25.679  27.090  1.00  0.00     0.031 A 
ATOM     36  C   UNL A   1      42.665  26.508  27.237  1.00  0.00     0.074 A 
ATOM     37  C   UNL A   1      44.971  26.101  28.004  1.00  0.00     0.049 A 
ATOM     38  N   UNL A   1      42.599  27.802  27.528  1.00  0.00    -0.248 NA
ATOM     39  C   UNL A   1      41.257  26.066  26.997  1.00  0.00     0.031 C 
ATOM     40  C   UNL A   1      44.782  27.008  29.133  1.00  0.00     0.029 A 
ATOM     41  N   UNL A   1      46.349  25.875  27.987  1.00  0.00    -0.354 N 
ATOM     42  C   UNL A   1      41.249  28.166  27.608  1.00  0.00     0.074 A 
ATOM     43  C   UNL A   1      40.557  27.180  26.907  1.00  0.00     0.031 C 
ATOM     44  C   UNL A   1      45.980  27.512  29.473  1.00  0.00     0.029 A 
ATOM     45  C   UNL A   1      46.947  27.026  28.504  1.00  0.00     0.049 A 
ATOM     46  H   UNL A   1      46.809  25.063  27.673  1.00  0.00     0.167 HD
ATOM     47  C   UNL A   1      40.707  29.117  28.416  1.00  0.00     0.031 A 
ATOM     48  C   UNL A   1      47.776  27.766  27.719  1.00  0.00     0.031 A 
ATOM     49  C   UNL A   1      41.760  29.935  28.956  1.00  0.00     0.049 A 
ATOM     50  C   UNL A   1      47.288  29.187  27.546  1.00  0.00     0.074 A 
ATOM     51  C   UNL A   1      42.407  29.983  30.174  1.00  0.00     0.029 A 
ATOM     52  N   UNL A   1      42.556  30.610  28.047  1.00  0.00    -0.354 N 
ATOM     53  N   UNL A   1      46.127  29.617  27.959  1.00  0.00    -0.248 NA
ATOM     54  C   UNL A   1      48.054  30.235  26.877  1.00  0.00     0.031 C 
ATOM     55  C   UNL A   1      43.690  30.564  29.943  1.00  0.00     0.029 A 
ATOM     56  C   UNL A   1      43.772  30.931  28.610  1.00  0.00     0.049 A 
ATOM     57  H   UNL A   1      42.290  30.830  27.125  1.00  0.00     0.167 HD
ATOM     58  C   UNL A   1      45.945  30.914  27.571  1.00  0.00     0.074 A 
ATOM     59  C   UNL A   1      47.199  31.272  26.934  1.00  0.00     0.031 C 
ATOM     60  C   UNL A   1      44.768  31.576  27.765  1.00  0.00     0.031 A 
BRANCH  47  61
ATOM     61  C   UNL A   1      39.227  29.126  28.867  1.00  0.00    -0.014 A 
ATOM     62  C   UNL A   1      38.234  29.594  27.990  1.00  0.00     0.009 A 
ATOM     63  C   UNL A   1      38.739  28.791  30.156  1.00  0.00     0.009 A 
ATOM     64  C   UNL A   1      36.886  29.753  28.389  1.00  0.00     0.001 A 
ATOM     65  C   UNL A   1      37.403  28.937  30.562  1.00  0.00     0.001 A 
ATOM     66  C   UNL A   1      36.471  29.434  29.677  1.00  0.00     0.000 A 
ENDBRANCH  47  61
BRANCH  48  67
ATOM     67  C   UNL A   1      48.586  26.948  26.755  1.00  0.00    -0.014 A 
ATOM     68  C   UNL A   1      48.177  26.953  25.397  1.00  0.00     0.009 A 
ATOM     69  C   UNL A   1      49.864  26.449  27.041  1.00  0.00     0.009 A 
ATOM     70  C   UNL A   1      49.046  26.592  24.362  1.00  0.00     0.001 A 
ATOM     71  C   UNL A   1      50.727  26.055  25.998  1.00  0.00     0.001 A 
ATOM     72  C   UNL A   1      50.328  26.154  24.663  1.00  0.00     0.000 A 
ENDBRANCH  48  67
BRANCH  60  73
ATOM     73  C   UNL A   1      44.394  32.892  27.130  1.00  0.00    -0.014 A 
ATOM     74  C   UNL A   1      44.188  33.066  25.757  1.00  0.00     0.009 A 
ATOM     75  C   UNL A   1      44.045  33.975  27.970  1.00  0.00     0.009 A 
ATOM     76  C   UNL A   1      43.695  34.273  25.245  1.00  0.00     0.001 A 
ATOM     77  C   UNL A   1      43.498  35.157  27.469  1.00  0.00     0.001 A 
ATOM     78  C   UNL A   1      43.334  35.309  26.101  1.00  0.00     0.000 A 
ENDBRANCH  60  73
ENDBRANCH  34  35
ENDBRANCH  27  29
ENDBRANCH  26  27
ENDBRANCH  25  26
ENDBRANCH  24  25
ENDBRANCH  23  24
ENDBRANCH   1  23
TORSDOF 18
ENDMDL
MODEL 2
REMARK VINA RESULT:     -11.8      1.943      3.611
REMARK SMILES Cc1cccc(-c2ccc(Cl)c(C(=O)OCCOCCOCCOC(=O)c3ccc(-c4c5nc(c(-c6ccccc6)c6ccc([nH]6)c(-c6ccccc6)c6nc(c(-c7ccccc7)c7ccc4[nH]7)C=C6)C=C5)cc3)c2)c1
REMARK SMILES IDX 20 1 19 2 18 3 17 4 16 5 15 6 13 7 14 8 12 9 7 10 8 11 75 12
REMARK SMILES IDX 9 13 10 14 11 15 6 16 1 17 2 18 3 19 76 20 4 21 5 22 21 23
REMARK SMILES IDX 22 24 23 25 24 26 25 27 26 28 27 29 28 30 74 31 29 32 73 33
REMARK SMILES IDX 30 34 31 35 32 36 67 37 33 38 72 39 66 40 68 41 34 42 71 43
REMARK SMILES IDX 65 44 64 45 35 47 57 48 42 49 56 50 43 51 46 52 55 53 69 54
REMARK SMILES IDX 44 55 45 56 54 58 70 59 47 60 36 61 37 62 41 63 38 64 40 65
REMARK SMILES IDX 39 66 58 67 59 68 63 69 60 70 62 71 61 72 48 73 49 74 53 75
REMARK SMILES IDX 50 76 52 77 51 78
REMARK H PARENT 68 46 46 57
REMARK Flexibility Score: inf
ROOT
ATOM      1  C   UNL A   1      41.689  19.827  27.489  1.00  0.00     0.188 C 
ENDROOT
BRANCH   1   2
ATOM      2  C   UNL A   1      40.643  20.383  26.524  1.00  0.00     0.188 C 
BRANCH   2   3
ATOM      3  O   UNL A   1      39.704  21.438  26.833  1.00  0.00    -0.376 OA
BRANCH   3   4
ATOM      4  C   UNL A   1      39.947  22.853  26.794  1.00  0.00     0.202 C 
BRANCH   4   5
ATOM      5  C   UNL A   1      38.810  24.153  26.589  1.00  0.00     0.261 C 
BRANCH   5   6
ATOM      6  O   UNL A   1      37.163  24.223  26.199  1.00  0.00    -0.460 OA
BRANCH   6   7
ATOM      7  C   UNL A   1      36.276  23.697  25.218  1.00  0.00     0.339 C 
ATOM      8  O   UNL A   1      36.468  23.563  24.010  1.00  0.00    -0.246 OA
BRANCH   7   9
ATOM      9  C   UNL A   1      34.921  23.134  25.405  1.00  0.00     0.079 A 
ATOM     10  C   UNL A   1      33.465  21.253  24.531  1.00  0.00    -0.017 A 
ATOM     11  C   UNL A   1      32.406  22.164  24.539  1.00  0.00     0.010 A 
ATOM     12  C   UNL A   1      34.710  21.770  24.958  1.00  0.00     0.026 A 
ATOM     13  C   UNL A   1      32.589  23.504  24.936  1.00  0.00     0.022 A 
ATOM     14  C   UNL A   1      33.838  23.995  25.351  1.00  0.00     0.055 A 
ATOM     15  Cl  UNL A   1      34.009  25.692  25.609  1.00  0.00    -0.083 Cl
BRANCH  10  16
ATOM     16  C   UNL A   1      33.260  19.833  24.110  1.00  0.00    -0.018 A 
ATOM     17  C   UNL A   1      34.666  16.280  24.709  1.00  0.00     0.044 C 
ATOM     18  C   UNL A   1      33.863  17.429  24.157  1.00  0.00    -0.051 A 
ATOM     19  C   UNL A   1      33.044  17.201  23.049  1.00  0.00     0.003 A 
ATOM     20  C   UNL A   1      33.968  18.743  24.676  1.00  0.00     0.012 A 
ATOM     21  C   UNL A   1      32.307  18.246  22.501  1.00  0.00     0.001 A 
ATOM     22  C   UNL A   1      32.405  19.539  23.033  1.00  0.00     0.009 A 
ENDBRANCH  10  16
ENDBRANCH   7   9
ENDBRANCH   6   7
ENDBRANCH   5   6
ENDBRANCH   4   5
ENDBRANCH   3   4
ENDBRANCH   2   3
ENDBRANCH   1   2
BRANCH   1  23
ATOM     23  O   UNL A   1      42.794  19.297  26.784  1.00  0.00    -0.376 OA
BRANCH  23  24
ATOM     24  C   UNL A   1      42.907  19.749  25.441  1.00  0.00     0.202 C 
BRANCH  24  25
ATOM     25  C   UNL A   1      44.147  19.193  24.703  1.00  0.00     0.261 C 
BRANCH  25  26
ATOM     26  O   UNL A   1      45.201  20.187  24.639  1.00  0.00    -0.460 OA
BRANCH  26  27
ATOM     27  C   UNL A   1      44.888  21.450  24.197  1.00  0.00     0.338 C 
ATOM     28  O   UNL A   1      44.425  21.709  23.094  1.00  0.00    -0.246 OA
BRANCH  27  29
ATOM     29  C   UNL A   1      45.446  22.478  25.145  1.00  0.00     0.060 A 
ATOM     30  C   UNL A   1      45.606  22.344  26.536  1.00  0.00     0.016 A 
ATOM     31  C   UNL A   1      45.385  23.749  24.701  1.00  0.00     0.016 A 
ATOM     32  C   UNL A   1      45.505  23.491  27.446  1.00  0.00     0.010 A 
ATOM     33  C   UNL A   1      44.970  24.680  25.649  1.00  0.00     0.010 A 
ATOM     34  C   UNL A   1      45.091  24.759  27.030  1.00  0.00    -0.014 A 
BRANCH  34  35
ATOM     35  C   UNL A   1      44.517  25.984  27.899  1.00  0.00     0.031 A 
ATOM     36  C   UNL A   1      43.068  26.727  28.044  1.00  0.00     0.074 A 
ATOM     37  C   UNL A   1      45.435  26.562  28.707  1.00  0.00     0.049 A 
ATOM     38  N   UNL A   1      42.923  28.037  28.202  1.00  0.00    -0.248 NA
ATOM     39  C   UNL A   1      41.685  26.168  27.938  1.00  0.00     0.031 C 
ATOM     40  C   UNL A   1      45.241  27.571  29.745  1.00  0.00     0.029 A 
ATOM     41  N   UNL A   1      46.823  26.428  28.630  1.00  0.00    -0.354 N 
ATOM     42  C   UNL A   1      41.556  28.317  28.325  1.00  0.00     0.074 A 
ATOM     43  C   UNL A   1      40.901  27.216  27.775  1.00  0.00     0.031 C 
ATOM     44  C   UNL A   1      46.414  28.188  29.957  1.00  0.00     0.029 A 
ATOM     45  C   UNL A   1      47.361  27.666  28.987  1.00  0.00     0.049 A 
ATOM     46  H   UNL A   1      47.323  25.620  28.375  1.00  0.00     0.167 HD
ATOM     47  C   UNL A   1      40.989  29.311  29.061  1.00  0.00     0.031 A 
ATOM     48  C   UNL A   1      48.091  28.372  28.080  1.00  0.00     0.031 A 
ATOM     49  C   UNL A   1      42.006  30.251  29.448  1.00  0.00     0.049 A 
ATOM     50  C   UNL A   1      47.491  29.729  27.790  1.00  0.00     0.074 A 
ATOM     51  C   UNL A   1      42.711  30.474  30.613  1.00  0.00     0.029 A 
ATOM     52  N   UNL A   1      42.700  30.876  28.427  1.00  0.00    -0.354 N 
ATOM     53  N   UNL A   1      46.325  30.122  28.226  1.00  0.00    -0.248 NA
ATOM     54  C   UNL A   1      48.141  30.748  26.970  1.00  0.00     0.031 C 
ATOM     55  C   UNL A   1      43.934  31.112  30.245  1.00  0.00     0.029 A 
ATOM     56  C   UNL A   1      43.918  31.337  28.878  1.00  0.00     0.049 A 
ATOM     57  H   UNL A   1      42.370  30.976  27.505  1.00  0.00     0.167 HD
ATOM     58  C   UNL A   1      46.028  31.354  27.717  1.00  0.00     0.074 A 
ATOM     59  C   UNL A   1      47.216  31.725  26.971  1.00  0.00     0.031 C 
ATOM     60  C   UNL A   1      44.817  31.952  27.912  1.00  0.00     0.031 A 
BRANCH  47  61
ATOM     61  C   UNL A   1      39.538  29.268  29.598  1.00  0.00    -0.014 A 
ATOM     62  C   UNL A   1      38.651  30.314  29.292  1.00  0.00     0.009 A 
ATOM     63  C   UNL A   1      38.998  28.301  30.484  1.00  0.00     0.009 A 
ATOM     64  C   UNL A   1      37.359  30.401  29.861  1.00  0.00     0.001 A 
ATOM     65  C   UNL A   1      37.714  28.371  31.050  1.00  0.00     0.001 A 
ATOM     66  C   UNL A   1      36.893  29.435  30.747  1.00  0.00     0.000 A 
ENDBRANCH  47  61
BRANCH  48  67
ATOM     67  C   UNL A   1      48.906  27.510  27.159  1.00  0.00    -0.014 A 
ATOM     68  C   UNL A   1      48.373  27.254  25.870  1.00  0.00     0.009 A 
ATOM     69  C   UNL A   1      50.260  27.213  27.368  1.00  0.00     0.009 A 
ATOM     70  C   UNL A   1      49.180  26.837  24.807  1.00  0.00     0.001 A 
ATOM     71  C   UNL A   1      51.064  26.761  26.302  1.00  0.00     0.001 A 
ATOM     72  C   UNL A   1      50.532  26.602  25.020  1.00  0.00     0.000 A 
ENDBRANCH  48  67
BRANCH  60  73
ATOM     73  C   UNL A   1      44.315  33.164  27.167  1.00  0.00    -0.014 A 
ATOM     74  C   UNL A   1      44.093  33.195  25.786  1.00  0.00     0.009 A 
ATOM     75  C   UNL A   1      43.859  34.277  27.912  1.00  0.00     0.009 A 
ATOM     76  C   UNL A   1      43.481  34.297  25.174  1.00  0.00     0.001 A 
ATOM     77  C   UNL A   1      43.197  35.350  27.314  1.00  0.00     0.001 A 
ATOM     78  C   UNL A   1      43.019  35.364  25.939  1.00  0.00     0.000 A 
ENDBRANCH  60  73
ENDBRANCH  34  35
ENDBRANCH  27  29
ENDBRANCH  26  27
ENDBRANCH  25  26
ENDBRANCH  24  25
ENDBRANCH  23  24
ENDBRANCH   1  23
TORSDOF 18
ENDMDL
MODEL 3
REMARK VINA RESULT:     -11.4      5.473     11.026
REMARK SMILES Cc1cccc(-c2ccc(Cl)c(C(=O)OCCOCCOCCOC(=O)c3ccc(-c4c5nc(c(-c6ccccc6)c6ccc([nH]6)c(-c6ccccc6)c6nc(c(-c7ccccc7)c7ccc4[nH]7)C=C6)C=C5)cc3)c2)c1
REMARK SMILES IDX 20 1 19 2 18 3 17 4 16 5 15 6 13 7 14 8 12 9 7 10 8 11 75 12
REMARK SMILES IDX 9 13 10 14 11 15 6 16 1 17 2 18 3 19 76 20 4 21 5 22 21 23
REMARK SMILES IDX 22 24 23 25 24 26 25 27 26 28 27 29 28 30 74 31 29 32 73 33
REMARK SMILES IDX 30 34 31 35 32 36 67 37 33 38 72 39 66 40 68 41 34 42 71 43
REMARK SMILES IDX 65 44 64 45 35 47 57 48 42 49 56 50 43 51 46 52 55 53 69 54
REMARK SMILES IDX 44 55 45 56 54 58 70 59 47 60 36 61 37 62 41 63 38 64 40 65
REMARK SMILES IDX 39 66 58 67 59 68 63 69 60 70 62 71 61 72 48 73 49 74 53 75
REMARK SMILES IDX 50 76 52 77 51 78
REMARK H PARENT 68 46 46 57
REMARK Flexibility Score: inf
ROOT
ATOM      1  C   UNL A   1      34.507  33.767  29.340  1.00  0.00     0.188 C 
ENDROOT
BRANCH   1   2
ATOM      2  C   UNL A   1      35.251  33.226  28.120  1.00  0.00     0.188 C 
BRANCH   2   3
ATOM      3  O   UNL A   1      34.935  31.994  27.431  1.00  0.00    -0.376 OA
BRANCH   3   4
ATOM      4  C   UNL A   1      34.731  30.701  28.019  1.00  0.00     0.202 C 
BRANCH   4   5
ATOM      5  C   UNL A   1      35.063  29.130  27.349  1.00  0.00     0.261 C 
BRANCH   5   6
ATOM      6  O   UNL A   1      34.321  28.179  26.160  1.00  0.00    -0.460 OA
BRANCH   6   7
ATOM      7  C   UNL A   1      33.007  27.808  25.759  1.00  0.00     0.339 C 
ATOM      8  O   UNL A   1      32.079  27.407  26.461  1.00  0.00    -0.246 OA
BRANCH   7   9
ATOM      9  C   UNL A   1      32.405  27.856  24.407  1.00  0.00     0.079 A 
ATOM     10  C   UNL A   1      30.467  28.934  23.184  1.00  0.00    -0.017 A 
ATOM     11  C   UNL A   1      30.284  27.709  22.539  1.00  0.00     0.010 A 
ATOM     12  C   UNL A   1      31.526  28.973  24.120  1.00  0.00     0.026 A 
ATOM     13  C   UNL A   1      31.102  26.597  22.822  1.00  0.00     0.022 A 
ATOM     14  C   UNL A   1      32.146  26.659  23.761  1.00  0.00     0.055 A 
ATOM     15  Cl  UNL A   1      32.947  25.195  24.196  1.00  0.00    -0.083 Cl
BRANCH  10  16
ATOM     16  C   UNL A   1      29.594  30.109  22.874  1.00  0.00    -0.018 A 
ATOM     17  C   UNL A   1      27.847  31.861  19.901  1.00  0.00     0.044 C 
ATOM     18  C   UNL A   1      28.360  31.556  21.285  1.00  0.00    -0.051 A 
ATOM     19  C   UNL A   1      28.203  32.521  22.283  1.00  0.00     0.003 A 
ATOM     20  C   UNL A   1      29.057  30.361  21.587  1.00  0.00     0.012 A 
ATOM     21  C   UNL A   1      28.685  32.279  23.566  1.00  0.00     0.001 A 
ATOM     22  C   UNL A   1      29.359  31.085  23.858  1.00  0.00     0.009 A 
ENDBRANCH  10  16
ENDBRANCH   7   9
ENDBRANCH   6   7
ENDBRANCH   5   6
ENDBRANCH   4   5
ENDBRANCH   3   4
ENDBRANCH   2   3
ENDBRANCH   1   2
BRANCH   1  23
ATOM     23  O   UNL A   1      33.360  34.495  28.948  1.00  0.00    -0.376 OA
BRANCH  23  24
ATOM     24  C   UNL A   1      32.923  35.459  29.896  1.00  0.00     0.202 C 
BRANCH  24  25
ATOM     25  C   UNL A   1      33.939  35.716  31.034  1.00  0.00     0.261 C 
BRANCH  25  26
ATOM     26  O   UNL A   1      33.506  35.088  32.267  1.00  0.00    -0.460 OA
BRANCH  26  27
ATOM     27  C   UNL A   1      34.207  35.351  33.419  1.00  0.00     0.338 C 
ATOM     28  O   UNL A   1      34.272  36.446  33.963  1.00  0.00    -0.246 OA
BRANCH  27  29
ATOM     29  C   UNL A   1      35.093  34.182  33.758  1.00  0.00     0.060 A 
ATOM     30  C   UNL A   1      36.293  34.217  34.491  1.00  0.00     0.016 A 
ATOM     31  C   UNL A   1      34.954  33.114  32.948  1.00  0.00     0.016 A 
ATOM     32  C   UNL A   1      37.391  33.277  34.235  1.00  0.00     0.010 A 
ATOM     33  C   UNL A   1      36.151  32.517  32.557  1.00  0.00     0.010 A 
ATOM     34  C   UNL A   1      37.396  32.389  33.157  1.00  0.00    -0.014 A 
BRANCH  34  35
ATOM     35  C   UNL A   1      38.631  31.619  32.472  1.00  0.00     0.031 A 
ATOM     36  C   UNL A   1      38.796  30.286  31.539  1.00  0.00     0.074 A 
ATOM     37  C   UNL A   1      39.835  32.183  32.720  1.00  0.00     0.049 A 
ATOM     38  N   UNL A   1      39.800  29.426  31.652  1.00  0.00    -0.248 NA
ATOM     39  C   UNL A   1      37.881  29.720  30.501  1.00  0.00     0.031 C 
ATOM     40  C   UNL A   1      41.137  31.865  32.136  1.00  0.00     0.029 A 
ATOM     41  N   UNL A   1      40.137  33.116  33.714  1.00  0.00    -0.354 N 
ATOM     42  C   UNL A   1      39.640  28.433  30.677  1.00  0.00     0.074 A 
ATOM     43  C   UNL A   1      38.295  28.482  30.315  1.00  0.00     0.031 C 
ATOM     44  C   UNL A   1      42.091  32.308  32.971  1.00  0.00     0.029 A 
ATOM     45  C   UNL A   1      41.428  32.822  34.157  1.00  0.00     0.049 A 
ATOM     46  H   UNL A   1      39.553  33.840  34.038  1.00  0.00     0.167 HD
ATOM     47  C   UNL A   1      40.628  27.757  30.030  1.00  0.00     0.031 A 
ATOM     48  C   UNL A   1      41.628  32.440  35.448  1.00  0.00     0.031 A 
ATOM     49  C   UNL A   1      41.874  27.970  30.717  1.00  0.00     0.049 A 
ATOM     50  C   UNL A   1      42.249  31.066  35.552  1.00  0.00     0.074 A 
ATOM     51  C   UNL A   1      42.967  28.780  30.490  1.00  0.00     0.029 A 
ATOM     52  N   UNL A   1      41.935  27.568  32.040  1.00  0.00    -0.354 N 
ATOM     53  N   UNL A   1      42.425  30.263  34.538  1.00  0.00    -0.248 NA
ATOM     54  C   UNL A   1      42.705  30.472  36.806  1.00  0.00     0.031 C 
ATOM     55  C   UNL A   1      43.602  28.990  31.751  1.00  0.00     0.029 A 
ATOM     56  C   UNL A   1      42.934  28.242  32.707  1.00  0.00     0.049 A 
ATOM     57  H   UNL A   1      41.344  26.894  32.448  1.00  0.00     0.167 HD
ATOM     58  C   UNL A   1      42.921  29.067  34.971  1.00  0.00     0.074 A 
ATOM     59  C   UNL A   1      43.121  29.260  36.394  1.00  0.00     0.031 C 
ATOM     60  C   UNL A   1      43.087  28.000  34.135  1.00  0.00     0.031 A 
BRANCH  47  61
ATOM     61  C   UNL A   1      40.457  27.096  28.642  1.00  0.00    -0.014 A 
ATOM     62  C   UNL A   1      39.783  25.868  28.532  1.00  0.00     0.009 A 
ATOM     63  C   UNL A   1      41.008  27.556  27.418  1.00  0.00     0.009 A 
ATOM     64  C   UNL A   1      39.711  25.149  27.316  1.00  0.00     0.001 A 
ATOM     65  C   UNL A   1      40.937  26.856  26.202  1.00  0.00     0.001 A 
ATOM     66  C   UNL A   1      40.295  25.638  26.153  1.00  0.00     0.000 A 
ENDBRANCH  47  61
BRANCH  48  67
ATOM     67  C   UNL A   1      40.703  33.108  36.425  1.00  0.00    -0.014 A 
ATOM     68  C   UNL A   1      40.725  34.525  36.473  1.00  0.00     0.009 A 
ATOM     69  C   UNL A   1      39.628  32.459  37.047  1.00  0.00     0.009 A 
ATOM     70  C   UNL A   1      39.665  35.263  37.009  1.00  0.00     0.001 A 
ATOM     71  C   UNL A   1      38.576  33.205  37.616  1.00  0.00     0.001 A 
ATOM     72  C   UNL A   1      38.581  34.601  37.570  1.00  0.00     0.000 A 
ENDBRANCH  48  67
BRANCH  60  73
ATOM     73  C   UNL A   1      43.359  26.583  34.576  1.00  0.00    -0.014 A 
ATOM     74  C   UNL A   1      44.632  26.004  34.602  1.00  0.00     0.009 A 
ATOM     75  C   UNL A   1      42.310  25.847  35.176  1.00  0.00     0.009 A 
ATOM     76  C   UNL A   1      44.842  24.738  35.164  1.00  0.00     0.001 A 
ATOM     77  C   UNL A   1      42.526  24.613  35.789  1.00  0.00     0.001 A 
ATOM     78  C   UNL A   1      43.794  24.053  35.772  1.00  0.00     0.000 A 
ENDBRANCH  60  73
ENDBRANCH  34  35
ENDBRANCH  27  29
ENDBRANCH  26  27
ENDBRANCH  25  26
ENDBRANCH  24  25
ENDBRANCH  23  24
ENDBRANCH   1  23
TORSDOF 18
ENDMDL
