MODEL 1
REMARK VINA RESULT:      -8.5      0.000      0.000
REMARK SMILES COc1ccc(CN(CC(=O)OCCOCCOCCOC(=O)c2ccc(-c3c4nc(c(-c5ccccc5)c5ccc([nH]5)c(-c5ccccc5)c5nc(c(-c6ccccc6)c6ccc3[nH]6)C=C5)C=C4)cc2)N=O)cc1
REMARK SMILES IDX 16 1 15 2 14 3 13 4 12 5 10 6 11 7 9 8 8 9 7 10 6 11 3 12
REMARK SMILES IDX 4 13 75 14 5 15 74 16 2 17 1 18 72 19 73 20 17 21 18 22
REMARK SMILES IDX 19 23 20 24 21 25 22 26 23 27 24 28 25 29 71 30 26 31 70 32
REMARK SMILES IDX 27 33 28 34 29 35 64 36 30 37 69 38 63 39 65 40 31 41 68 42
REMARK SMILES IDX 62 43 61 44 32 46 54 47 39 48 53 49 40 50 43 51 52 52 66 53
REMARK SMILES IDX 41 54 42 55 51 57 67 58 44 59 33 60 34 61 38 62 35 63 37 64
REMARK SMILES IDX 36 65 55 66 56 67 60 68 57 69 59 70 58 71 45 72 46 73 50 74
REMARK SMILES IDX 47 75 49 76 48 77
REMARK H PARENT 65 45 43 56
REMARK Flexibility Score: inf
ROOT
ATOM      1  C   UNL A   1      39.799  22.973  26.526  1.00  0.00     0.188 C 
ENDROOT
BRANCH   1   2
ATOM      2  O   UNL A   1      38.443  23.417  26.591  1.00  0.00    -0.376 OA
BRANCH   2   3
ATOM      3  C   UNL A   1      37.533  22.917  25.624  1.00  0.00     0.202 C 
BRANCH   3   4
ATOM      4  C   UNL A   1      36.564  23.946  25.034  1.00  0.00     0.261 C 
BRANCH   4   5
ATOM      5  O   UNL A   1      35.201  23.776  25.478  1.00  0.00    -0.462 OA
BRANCH   5   6
ATOM      6  C   UNL A   1      34.349  24.805  25.220  1.00  0.00     0.327 C 
ATOM      7  O   UNL A   1      34.024  25.650  26.051  1.00  0.00    -0.250 OA
BRANCH   6   8
ATOM      8  C   UNL A   1      33.749  24.821  23.816  1.00  0.00     0.264 C 
BRANCH   8   9
ATOM      9  N   UNL A   1      33.684  23.496  23.181  1.00  0.00    -0.245 NA
BRANCH   9  10
ATOM     10  C   UNL A   1      32.611  22.621  23.687  1.00  0.00     0.178 C 
BRANCH  10  11
ATOM     11  C   UNL A   1      33.027  21.189  24.004  1.00  0.00    -0.027 A 
ATOM     12  C   UNL A   1      33.917  18.548  24.449  1.00  0.00     0.118 A 
ATOM     13  C   UNL A   1      32.681  18.789  23.849  1.00  0.00     0.047 A 
ATOM     14  C   UNL A   1      34.707  19.626  24.842  1.00  0.00     0.047 A 
ATOM     15  C   UNL A   1      32.226  20.096  23.648  1.00  0.00     0.009 A 
ATOM     16  C   UNL A   1      34.264  20.937  24.623  1.00  0.00     0.009 A 
BRANCH  12  17
ATOM     17  O   UNL A   1      34.269  17.230  24.543  1.00  0.00    -0.497 OA
ATOM     18  C   UNL A   1      34.133  16.461  23.353  1.00  0.00     0.278 C 
ENDBRANCH  12  17
ENDBRANCH  10  11
ENDBRANCH   9  10
BRANCH   9  19
ATOM     19  N   UNL A   1      33.978  23.332  21.908  1.00  0.00     0.053 NA
ATOM     20  O   UNL A   1      33.387  24.109  21.155  1.00  0.00    -0.125 OA
ENDBRANCH   9  19
ENDBRANCH   8   9
ENDBRANCH   6   8
ENDBRANCH   5   6
ENDBRANCH   4   5
ENDBRANCH   3   4
ENDBRANCH   2   3
ENDBRANCH   1   2
BRANCH   1  21
ATOM     21  C   UNL A   1      40.089  21.468  26.424  1.00  0.00     0.188 C 
BRANCH  21  22
ATOM     22  O   UNL A   1      41.469  21.223  26.164  1.00  0.00    -0.376 OA
BRANCH  22  23
ATOM     23  C   UNL A   1      41.958  20.019  26.740  1.00  0.00     0.202 C 
BRANCH  23  24
ATOM     24  C   UNL A   1      42.521  19.120  25.638  1.00  0.00     0.261 C 
BRANCH  24  25
ATOM     25  O   UNL A   1      43.960  19.124  25.557  1.00  0.00    -0.460 OA
BRANCH  25  26
ATOM     26  C   UNL A   1      44.499  19.707  24.466  1.00  0.00     0.338 C 
ATOM     27  O   UNL A   1      44.606  19.216  23.349  1.00  0.00    -0.246 OA
BRANCH  26  28
ATOM     28  C   UNL A   1      44.839  21.105  24.792  1.00  0.00     0.060 A 
ATOM     29  C   UNL A   1      45.378  21.402  26.048  1.00  0.00     0.016 A 
ATOM     30  C   UNL A   1      44.585  22.131  23.878  1.00  0.00     0.016 A 
ATOM     31  C   UNL A   1      45.641  22.727  26.406  1.00  0.00     0.010 A 
ATOM     32  C   UNL A   1      44.832  23.458  24.243  1.00  0.00     0.010 A 
ATOM     33  C   UNL A   1      45.335  23.769  25.520  1.00  0.00    -0.014 A 
BRANCH  33  34
ATOM     34  C   UNL A   1      45.382  25.186  25.964  1.00  0.00     0.031 A 
ATOM     35  C   UNL A   1      46.705  25.905  25.949  1.00  0.00     0.074 A 
ATOM     36  C   UNL A   1      44.281  25.827  26.397  1.00  0.00     0.049 A 
ATOM     37  N   UNL A   1      47.010  27.096  26.401  1.00  0.00    -0.248 NA
ATOM     38  C   UNL A   1      47.837  25.181  25.347  1.00  0.00     0.031 C 
ATOM     39  C   UNL A   1      42.930  25.272  26.427  1.00  0.00     0.029 A 
ATOM     40  N   UNL A   1      44.137  27.093  26.915  1.00  0.00    -0.354 N 
ATOM     41  C   UNL A   1      48.371  27.252  26.162  1.00  0.00     0.074 A 
ATOM     42  C   UNL A   1      48.834  26.033  25.536  1.00  0.00     0.031 C 
ATOM     43  C   UNL A   1      42.095  26.185  26.954  1.00  0.00     0.029 A 
ATOM     44  C   UNL A   1      42.859  27.372  27.336  1.00  0.00     0.049 A 
ATOM     45  H   UNL A   1      44.878  27.737  26.978  1.00  0.00     0.167 HD
ATOM     46  C   UNL A   1      49.164  28.314  26.440  1.00  0.00     0.031 A 
ATOM     47  C   UNL A   1      42.368  28.448  27.984  1.00  0.00     0.031 A 
ATOM     48  C   UNL A   1      48.710  29.531  27.055  1.00  0.00     0.049 A 
ATOM     49  C   UNL A   1      43.286  29.591  28.338  1.00  0.00     0.074 A 
ATOM     50  C   UNL A   1      49.440  30.671  27.349  1.00  0.00     0.029 A 
ATOM     51  N   UNL A   1      47.412  29.767  27.475  1.00  0.00    -0.354 N 
ATOM     52  N   UNL A   1      44.564  29.736  28.085  1.00  0.00    -0.248 NA
ATOM     53  C   UNL A   1      42.688  30.722  29.065  1.00  0.00     0.031 C 
ATOM     54  C   UNL A   1      48.594  31.576  27.996  1.00  0.00     0.029 A 
ATOM     55  C   UNL A   1      47.326  31.024  28.052  1.00  0.00     0.049 A 
ATOM     56  H   UNL A   1      46.662  29.137  27.378  1.00  0.00     0.167 HD
ATOM     57  C   UNL A   1      44.913  30.982  28.594  1.00  0.00     0.074 A 
ATOM     58  C   UNL A   1      43.712  31.559  29.157  1.00  0.00     0.031 C 
ATOM     59  C   UNL A   1      46.122  31.592  28.598  1.00  0.00     0.031 A 
BRANCH  46  60
ATOM     60  C   UNL A   1      50.625  28.195  26.112  1.00  0.00    -0.014 A 
ATOM     61  C   UNL A   1      51.136  28.627  24.879  1.00  0.00     0.009 A 
ATOM     62  C   UNL A   1      51.512  27.698  27.080  1.00  0.00     0.009 A 
ATOM     63  C   UNL A   1      52.505  28.540  24.614  1.00  0.00     0.001 A 
ATOM     64  C   UNL A   1      52.881  27.635  26.822  1.00  0.00     0.001 A 
ATOM     65  C   UNL A   1      53.376  28.051  25.587  1.00  0.00     0.000 A 
ENDBRANCH  46  60
BRANCH  47  66
ATOM     66  C   UNL A   1      40.938  28.490  28.396  1.00  0.00    -0.014 A 
ATOM     67  C   UNL A   1      39.974  29.110  27.585  1.00  0.00     0.009 A 
ATOM     68  C   UNL A   1      40.540  27.954  29.630  1.00  0.00     0.009 A 
ATOM     69  C   UNL A   1      38.650  29.222  28.019  1.00  0.00     0.001 A 
ATOM     70  C   UNL A   1      39.211  28.040  30.048  1.00  0.00     0.001 A 
ATOM     71  C   UNL A   1      38.269  28.684  29.247  1.00  0.00     0.000 A 
ENDBRANCH  47  66
BRANCH  59  72
ATOM     72  C   UNL A   1      46.203  32.975  29.184  1.00  0.00    -0.014 A 
ATOM     73  C   UNL A   1      46.528  33.179  30.534  1.00  0.00     0.009 A 
ATOM     74  C   UNL A   1      45.999  34.092  28.357  1.00  0.00     0.009 A 
ATOM     75  C   UNL A   1      46.615  34.475  31.050  1.00  0.00     0.001 A 
ATOM     76  C   UNL A   1      46.114  35.385  28.868  1.00  0.00     0.001 A 
ATOM     77  C   UNL A   1      46.413  35.575  30.216  1.00  0.00     0.000 A 
ENDBRANCH  59  72
ENDBRANCH  33  34
ENDBRANCH  26  28
ENDBRANCH  25  26
ENDBRANCH  24  25
ENDBRANCH  23  24
ENDBRANCH  22  23
ENDBRANCH  21  22
ENDBRANCH   1  21
TORSDOF 22
ENDMDL
MODEL 2
REMARK VINA RESULT:      -8.5      4.503      8.679
REMARK SMILES COc1ccc(CN(CC(=O)OCCOCCOCCOC(=O)c2ccc(-c3c4nc(c(-c5ccccc5)c5ccc([nH]5)c(-c5ccccc5)c5nc(c(-c6ccccc6)c6ccc3[nH]6)C=C5)C=C4)cc2)N=O)cc1
REMARK SMILES IDX 16 1 15 2 14 3 13 4 12 5 10 6 11 7 9 8 8 9 7 10 6 11 3 12
REMARK SMILES IDX 4 13 75 14 5 15 74 16 2 17 1 18 72 19 73 20 17 21 18 22
REMARK SMILES IDX 19 23 20 24 21 25 22 26 23 27 24 28 25 29 71 30 26 31 70 32
REMARK SMILES IDX 27 33 28 34 29 35 64 36 30 37 69 38 63 39 65 40 31 41 68 42
REMARK SMILES IDX 62 43 61 44 32 46 54 47 39 48 53 49 40 50 43 51 52 52 66 53
REMARK SMILES IDX 41 54 42 55 51 57 67 58 44 59 33 60 34 61 38 62 35 63 37 64
REMARK SMILES IDX 36 65 55 66 56 67 60 68 57 69 59 70 58 71 45 72 46 73 50 74
REMARK SMILES IDX 47 75 49 76 48 77
REMARK H PARENT 65 45 43 56
REMARK Flexibility Score: inf
ROOT
ATOM      1  C   UNL A   1      41.606  19.755  26.191  1.00  0.00     0.188 C 
ENDROOT
BRANCH   1   2
ATOM      2  O   UNL A   1      41.345  20.843  27.079  1.00  0.00    -0.376 OA
BRANCH   2   3
ATOM      3  C   UNL A   1      40.177  21.617  26.857  1.00  0.00     0.202 C 
BRANCH   3   4
ATOM      4  C   UNL A   1      39.247  21.109  25.751  1.00  0.00     0.261 C 
BRANCH   4   5
ATOM      5  O   UNL A   1      37.939  21.719  25.771  1.00  0.00    -0.462 OA
BRANCH   5   6
ATOM      6  C   UNL A   1      36.946  21.043  25.131  1.00  0.00     0.327 C 
ATOM      7  O   UNL A   1      36.938  19.824  24.975  1.00  0.00    -0.250 OA
BRANCH   6   8
ATOM      8  C   UNL A   1      35.837  21.913  24.544  1.00  0.00     0.264 C 
BRANCH   8   9
ATOM      9  N   UNL A   1      34.746  22.203  25.486  1.00  0.00    -0.245 NA
BRANCH   9  10
ATOM     10  C   UNL A   1      34.851  23.505  26.170  1.00  0.00     0.178 C 
BRANCH  10  11
ATOM     11  C   UNL A   1      34.042  24.639  25.551  1.00  0.00    -0.027 A 
ATOM     12  C   UNL A   1      32.415  26.614  24.360  1.00  0.00     0.118 A 
ATOM     13  C   UNL A   1      33.562  26.154  23.713  1.00  0.00     0.047 A 
ATOM     14  C   UNL A   1      32.083  26.098  25.611  1.00  0.00     0.047 A 
ATOM     15  C   UNL A   1      34.383  25.193  24.310  1.00  0.00     0.009 A 
ATOM     16  C   UNL A   1      32.893  25.120  26.204  1.00  0.00     0.009 A 
BRANCH  12  17
ATOM     17  O   UNL A   1      31.670  27.515  23.650  1.00  0.00    -0.497 OA
ATOM     18  C   UNL A   1      32.403  28.450  22.867  1.00  0.00     0.278 C 
ENDBRANCH  12  17
ENDBRANCH  10  11
ENDBRANCH   9  10
BRANCH   9  19
ATOM     19  N   UNL A   1      33.515  21.797  25.254  1.00  0.00     0.053 NA
ATOM     20  O   UNL A   1      33.439  20.882  24.432  1.00  0.00    -0.125 OA
ENDBRANCH   9  19
ENDBRANCH   8   9
ENDBRANCH   6   8
ENDBRANCH   5   6
ENDBRANCH   4   5
ENDBRANCH   3   4
ENDBRANCH   2   3
ENDBRANCH   1   2
BRANCH   1  21
ATOM     21  C   UNL A   1      43.062  19.342  25.923  1.00  0.00     0.188 C 
BRANCH  21  22
ATOM     22  O   UNL A   1      43.555  19.933  24.723  1.00  0.00    -0.376 OA
BRANCH  22  23
ATOM     23  C   UNL A   1      44.761  20.666  24.897  1.00  0.00     0.202 C 
BRANCH  23  24
ATOM     24  C   UNL A   1      44.539  22.118  24.470  1.00  0.00     0.261 C 
BRANCH  24  25
ATOM     25  O   UNL A   1      44.181  22.998  25.552  1.00  0.00    -0.460 OA
BRANCH  25  26
ATOM     26  C   UNL A   1      44.516  24.297  25.407  1.00  0.00     0.338 C 
ATOM     27  O   UNL A   1      45.246  24.774  24.547  1.00  0.00    -0.246 OA
BRANCH  26  28
ATOM     28  C   UNL A   1      43.758  25.097  26.387  1.00  0.00     0.060 A 
ATOM     29  C   UNL A   1      44.067  26.452  26.548  1.00  0.00     0.016 A 
ATOM     30  C   UNL A   1      42.772  24.504  27.181  1.00  0.00     0.016 A 
ATOM     31  C   UNL A   1      43.411  27.213  27.521  1.00  0.00     0.010 A 
ATOM     32  C   UNL A   1      42.130  25.261  28.165  1.00  0.00     0.010 A 
ATOM     33  C   UNL A   1      42.464  26.613  28.362  1.00  0.00    -0.014 A 
BRANCH  33  34
ATOM     34  C   UNL A   1      41.933  27.335  29.548  1.00  0.00     0.031 A 
ATOM     35  C   UNL A   1      40.645  28.102  29.410  1.00  0.00     0.074 A 
ATOM     36  C   UNL A   1      42.586  27.334  30.725  1.00  0.00     0.049 A 
ATOM     37  N   UNL A   1      40.056  28.901  30.266  1.00  0.00    -0.248 NA
ATOM     38  C   UNL A   1      39.927  27.955  28.133  1.00  0.00     0.031 C 
ATOM     39  C   UNL A   1      43.816  26.602  31.015  1.00  0.00     0.029 A 
ATOM     40  N   UNL A   1      42.302  27.995  31.897  1.00  0.00    -0.354 N 
ATOM     41  C   UNL A   1      38.916  29.368  29.623  1.00  0.00     0.074 A 
ATOM     42  C   UNL A   1      38.901  28.775  28.303  1.00  0.00     0.031 C 
ATOM     43  C   UNL A   1      44.194  26.868  32.278  1.00  0.00     0.029 A 
ATOM     44  C   UNL A   1      43.255  27.820  32.871  1.00  0.00     0.049 A 
ATOM     45  H   UNL A   1      41.493  28.541  32.026  1.00  0.00     0.167 HD
ATOM     46  C   UNL A   1      37.968  30.215  30.087  1.00  0.00     0.031 A 
ATOM     47  C   UNL A   1      43.375  28.387  34.088  1.00  0.00     0.031 A 
ATOM     48  C   UNL A   1      37.972  30.803  31.399  1.00  0.00     0.049 A 
ATOM     49  C   UNL A   1      42.337  29.376  34.558  1.00  0.00     0.074 A 
ATOM     50  C   UNL A   1      37.036  31.653  31.963  1.00  0.00     0.029 A 
ATOM     51  N   UNL A   1      38.961  30.609  32.348  1.00  0.00    -0.354 N 
ATOM     52  N   UNL A   1      41.252  29.791  33.950  1.00  0.00    -0.248 NA
ATOM     53  C   UNL A   1      42.543  29.973  35.887  1.00  0.00     0.031 C 
ATOM     54  C   UNL A   1      37.487  32.015  33.237  1.00  0.00     0.029 A 
ATOM     55  C   UNL A   1      38.672  31.344  33.485  1.00  0.00     0.049 A 
ATOM     56  H   UNL A   1      39.752  30.032  32.232  1.00  0.00     0.167 HD
ATOM     57  C   UNL A   1      40.635  30.670  34.832  1.00  0.00     0.074 A 
ATOM     58  C   UNL A   1      41.455  30.719  36.022  1.00  0.00     0.031 C 
ATOM     59  C   UNL A   1      39.490  31.376  34.668  1.00  0.00     0.031 A 
BRANCH  46  60
ATOM     60  C   UNL A   1      36.854  30.593  29.152  1.00  0.00    -0.014 A 
ATOM     61  C   UNL A   1      35.870  29.666  28.776  1.00  0.00     0.009 A 
ATOM     62  C   UNL A   1      36.758  31.914  28.690  1.00  0.00     0.009 A 
ATOM     63  C   UNL A   1      34.824  30.053  27.935  1.00  0.00     0.001 A 
ATOM     64  C   UNL A   1      35.698  32.304  27.871  1.00  0.00     0.001 A 
ATOM     65  C   UNL A   1      34.735  31.371  27.489  1.00  0.00     0.000 A 
ENDBRANCH  46  60
BRANCH  47  66
ATOM     66  C   UNL A   1      44.549  28.079  34.950  1.00  0.00    -0.014 A 
ATOM     67  C   UNL A   1      44.477  27.081  35.934  1.00  0.00     0.009 A 
ATOM     68  C   UNL A   1      45.734  28.821  34.823  1.00  0.00     0.009 A 
ATOM     69  C   UNL A   1      45.555  26.859  36.796  1.00  0.00     0.001 A 
ATOM     70  C   UNL A   1      46.820  28.575  35.665  1.00  0.00     0.001 A 
ATOM     71  C   UNL A   1      46.726  27.603  36.659  1.00  0.00     0.000 A 
ENDBRANCH  47  66
BRANCH  59  72
ATOM     72  C   UNL A   1      39.027  32.227  35.819  1.00  0.00    -0.014 A 
ATOM     73  C   UNL A   1      38.178  31.714  36.812  1.00  0.00     0.009 A 
ATOM     74  C   UNL A   1      39.491  33.547  35.936  1.00  0.00     0.009 A 
ATOM     75  C   UNL A   1      37.777  32.518  37.881  1.00  0.00     0.001 A 
ATOM     76  C   UNL A   1      39.111  34.339  37.020  1.00  0.00     0.001 A 
ATOM     77  C   UNL A   1      38.248  33.828  37.987  1.00  0.00     0.000 A 
ENDBRANCH  59  72
ENDBRANCH  33  34
ENDBRANCH  26  28
ENDBRANCH  25  26
ENDBRANCH  24  25
ENDBRANCH  23  24
ENDBRANCH  22  23
ENDBRANCH  21  22
ENDBRANCH   1  21
TORSDOF 22
ENDMDL
MODEL 3
REMARK VINA RESULT:      -8.3      1.770      3.419
REMARK SMILES COc1ccc(CN(CC(=O)OCCOCCOCCOC(=O)c2ccc(-c3c4nc(c(-c5ccccc5)c5ccc([nH]5)c(-c5ccccc5)c5nc(c(-c6ccccc6)c6ccc3[nH]6)C=C5)C=C4)cc2)N=O)cc1
REMARK SMILES IDX 16 1 15 2 14 3 13 4 12 5 10 6 11 7 9 8 8 9 7 10 6 11 3 12
REMARK SMILES IDX 4 13 75 14 5 15 74 16 2 17 1 18 72 19 73 20 17 21 18 22
REMARK SMILES IDX 19 23 20 24 21 25 22 26 23 27 24 28 25 29 71 30 26 31 70 32
REMARK SMILES IDX 27 33 28 34 29 35 64 36 30 37 69 38 63 39 65 40 31 41 68 42
REMARK SMILES IDX 62 43 61 44 32 46 54 47 39 48 53 49 40 50 43 51 52 52 66 53
REMARK SMILES IDX 41 54 42 55 51 57 67 58 44 59 33 60 34 61 38 62 35 63 37 64
REMARK SMILES IDX 36 65 55 66 56 67 60 68 57 69 59 70 58 71 45 72 46 73 50 74
REMARK SMILES IDX 47 75 49 76 48 77
REMARK H PARENT 65 45 43 56
REMARK Flexibility Score: inf
ROOT
ATOM      1  C   UNL A   1      39.232  22.648  26.323  1.00  0.00     0.188 C 
ENDROOT
BRANCH   1   2
ATOM      2  O   UNL A   1      37.842  22.809  26.038  1.00  0.00    -0.376 OA
BRANCH   2   3
ATOM      3  C   UNL A   1      37.287  22.046  24.978  1.00  0.00     0.202 C 
BRANCH   3   4
ATOM      4  C   UNL A   1      35.976  22.579  24.395  1.00  0.00     0.261 C 
BRANCH   4   5
ATOM      5  O   UNL A   1      34.802  21.918  24.913  1.00  0.00    -0.462 OA
BRANCH   5   6
ATOM      6  C   UNL A   1      34.437  22.240  26.184  1.00  0.00     0.327 C 
ATOM      7  O   UNL A   1      34.435  21.443  27.119  1.00  0.00    -0.250 OA
BRANCH   6   8
ATOM      8  C   UNL A   1      33.957  23.676  26.382  1.00  0.00     0.264 C 
BRANCH   8   9
ATOM      9  N   UNL A   1      32.494  23.817  26.407  1.00  0.00    -0.245 NA
BRANCH   9  10
ATOM     10  C   UNL A   1      31.866  23.976  25.083  1.00  0.00     0.178 C 
BRANCH  10  11
ATOM     11  C   UNL A   1      31.352  25.376  24.763  1.00  0.00    -0.027 A 
ATOM     12  C   UNL A   1      30.445  27.935  23.994  1.00  0.00     0.118 A 
ATOM     13  C   UNL A   1      31.658  27.784  24.667  1.00  0.00     0.047 A 
ATOM     14  C   UNL A   1      29.674  26.809  23.715  1.00  0.00     0.047 A 
ATOM     15  C   UNL A   1      32.099  26.520  25.070  1.00  0.00     0.009 A 
ATOM     16  C   UNL A   1      30.123  25.538  24.100  1.00  0.00     0.009 A 
BRANCH  12  17
ATOM     17  O   UNL A   1      30.151  29.214  23.609  1.00  0.00    -0.497 OA
ATOM     18  C   UNL A   1      30.009  29.428  22.210  1.00  0.00     0.278 C 
ENDBRANCH  12  17
ENDBRANCH  10  11
ENDBRANCH   9  10
BRANCH   9  19
ATOM     19  N   UNL A   1      31.760  23.182  27.295  1.00  0.00     0.053 NA
ATOM     20  O   UNL A   1      30.593  23.576  27.353  1.00  0.00    -0.125 OA
ENDBRANCH   9  19
ENDBRANCH   8   9
ENDBRANCH   6   8
ENDBRANCH   5   6
ENDBRANCH   4   5
ENDBRANCH   3   4
ENDBRANCH   2   3
ENDBRANCH   1   2
BRANCH   1  21
ATOM     21  C   UNL A   1      39.807  21.229  26.464  1.00  0.00     0.188 C 
BRANCH  21  22
ATOM     22  O   UNL A   1      41.099  21.133  25.870  1.00  0.00    -0.376 OA
BRANCH  22  23
ATOM     23  C   UNL A   1      41.980  20.249  26.551  1.00  0.00     0.202 C 
BRANCH  23  24
ATOM     24  C   UNL A   1      42.509  19.203  25.568  1.00  0.00     0.261 C 
BRANCH  24  25
ATOM     25  O   UNL A   1      43.947  19.128  25.511  1.00  0.00    -0.460 OA
BRANCH  25  26
ATOM     26  C   UNL A   1      44.536  19.694  24.437  1.00  0.00     0.338 C 
ATOM     27  O   UNL A   1      44.690  19.187  23.333  1.00  0.00    -0.246 OA
BRANCH  26  28
ATOM     28  C   UNL A   1      44.867  21.095  24.759  1.00  0.00     0.060 A 
ATOM     29  C   UNL A   1      45.420  21.396  26.008  1.00  0.00     0.016 A 
ATOM     30  C   UNL A   1      44.592  22.119  23.849  1.00  0.00     0.016 A 
ATOM     31  C   UNL A   1      45.677  22.724  26.364  1.00  0.00     0.010 A 
ATOM     32  C   UNL A   1      44.832  23.448  24.212  1.00  0.00     0.010 A 
ATOM     33  C   UNL A   1      45.349  23.763  25.482  1.00  0.00    -0.014 A 
BRANCH  33  34
ATOM     34  C   UNL A   1      45.389  25.180  25.926  1.00  0.00     0.031 A 
ATOM     35  C   UNL A   1      46.708  25.907  25.907  1.00  0.00     0.074 A 
ATOM     36  C   UNL A   1      44.286  25.815  26.362  1.00  0.00     0.049 A 
ATOM     37  N   UNL A   1      47.008  27.099  26.359  1.00  0.00    -0.248 NA
ATOM     38  C   UNL A   1      47.843  25.189  25.302  1.00  0.00     0.031 C 
ATOM     39  C   UNL A   1      42.938  25.252  26.395  1.00  0.00     0.029 A 
ATOM     40  N   UNL A   1      44.136  27.080  26.880  1.00  0.00    -0.354 N 
ATOM     41  C   UNL A   1      48.367  27.263  26.116  1.00  0.00     0.074 A 
ATOM     42  C   UNL A   1      48.836  26.047  25.489  1.00  0.00     0.031 C 
ATOM     43  C   UNL A   1      42.099  26.160  26.924  1.00  0.00     0.029 A 
ATOM     44  C   UNL A   1      42.858  27.352  27.304  1.00  0.00     0.049 A 
ATOM     45  H   UNL A   1      44.874  27.728  26.941  1.00  0.00     0.167 HD
ATOM     46  C   UNL A   1      49.155  28.330  26.392  1.00  0.00     0.031 A 
ATOM     47  C   UNL A   1      42.363  28.424  27.954  1.00  0.00     0.031 A 
ATOM     48  C   UNL A   1      48.696  29.544  27.008  1.00  0.00     0.049 A 
ATOM     49  C   UNL A   1      43.275  29.573  28.305  1.00  0.00     0.074 A 
ATOM     50  C   UNL A   1      49.420  30.687  27.301  1.00  0.00     0.029 A 
ATOM     51  N   UNL A   1      47.398  29.773  27.432  1.00  0.00    -0.354 N 
ATOM     52  N   UNL A   1      44.551  29.726  28.049  1.00  0.00    -0.248 NA
ATOM     53  C   UNL A   1      42.672  30.700  29.034  1.00  0.00     0.031 C 
ATOM     54  C   UNL A   1      48.571  31.588  27.950  1.00  0.00     0.029 A 
ATOM     55  C   UNL A   1      47.306  31.028  28.009  1.00  0.00     0.049 A 
ATOM     56  H   UNL A   1      46.651  29.138  27.336  1.00  0.00     0.167 HD
ATOM     57  C   UNL A   1      44.894  30.973  28.558  1.00  0.00     0.074 A 
ATOM     58  C   UNL A   1      43.692  31.543  29.123  1.00  0.00     0.031 C 
ATOM     59  C   UNL A   1      46.101  31.590  28.558  1.00  0.00     0.031 A 
BRANCH  46  60
ATOM     60  C   UNL A   1      50.616  28.219  26.060  1.00  0.00    -0.014 A 
ATOM     61  C   UNL A   1      51.117  28.629  24.816  1.00  0.00     0.009 A 
ATOM     62  C   UNL A   1      51.512  27.751  27.035  1.00  0.00     0.009 A 
ATOM     63  C   UNL A   1      52.486  28.550  24.547  1.00  0.00     0.001 A 
ATOM     64  C   UNL A   1      52.880  27.697  26.772  1.00  0.00     0.001 A 
ATOM     65  C   UNL A   1      53.366  28.092  25.526  1.00  0.00     0.000 A 
ENDBRANCH  46  60
BRANCH  47  66
ATOM     66  C   UNL A   1      40.933  28.459  28.369  1.00  0.00    -0.014 A 
ATOM     67  C   UNL A   1      39.965  29.079  27.564  1.00  0.00     0.009 A 
ATOM     68  C   UNL A   1      40.541  27.915  29.602  1.00  0.00     0.009 A 
ATOM     69  C   UNL A   1      38.642  29.183  28.002  1.00  0.00     0.001 A 
ATOM     70  C   UNL A   1      39.212  27.993  30.023  1.00  0.00     0.001 A 
ATOM     71  C   UNL A   1      38.265  28.637  29.229  1.00  0.00     0.000 A 
ENDBRANCH  47  66
BRANCH  59  72
ATOM     72  C   UNL A   1      46.175  32.973  29.144  1.00  0.00    -0.014 A 
ATOM     73  C   UNL A   1      45.914  34.112  28.367  1.00  0.00     0.009 A 
ATOM     74  C   UNL A   1      46.461  33.133  30.509  1.00  0.00     0.009 A 
ATOM     75  C   UNL A   1      45.970  35.385  28.939  1.00  0.00     0.001 A 
ATOM     76  C   UNL A   1      46.488  34.404  31.085  1.00  0.00     0.001 A 
ATOM     77  C   UNL A   1      46.252  35.530  30.298  1.00  0.00     0.000 A 
ENDBRANCH  59  72
ENDBRANCH  33  34
ENDBRANCH  26  28
ENDBRANCH  25  26
ENDBRANCH  24  25
ENDBRANCH  23  24
ENDBRANCH  22  23
ENDBRANCH  21  22
ENDBRANCH   1  21
TORSDOF 22
ENDMDL
