MODEL 1
REMARK VINA RESULT:     -11.4      0.000      0.000
REMARK SMILES O=C(C[C@]12CSc3[nH]c(=O)sc3[C@H]1c1cc(Cl)ccc1OC2=O)OCCOCCOCCOC(=O)c1ccc(-c2c3nc(c(-c4ccccc4)c4ccc([nH]4)c(-c4ccccc4)c4nc(c(-c5ccccc5)c5ccc2[nH]5)C=C4)C=C3)cc1
REMARK SMILES IDX 29 1 28 2 27 3 26 4 25 5 24 6 2 7 1 8 3 9 4 10 5 11 13 12
REMARK SMILES IDX 22 13 6 14 12 15 14 16 21 17 23 18 7 19 11 20 15 21 20 22
REMARK SMILES IDX 8 23 9 24 16 25 19 26 10 28 17 29 18 30 30 31 31 32 32 33
REMARK SMILES IDX 33 34 34 35 35 36 36 37 37 38 83 39 38 40 82 41 39 42 40 43
REMARK SMILES IDX 41 44 76 45 42 46 81 47 75 48 77 49 43 50 80 51 74 52 73 53
REMARK SMILES IDX 44 55 66 56 51 57 65 58 52 59 55 60 64 61 78 62 53 63 54 64
REMARK SMILES IDX 63 66 79 67 56 68 45 69 46 70 50 71 47 72 49 73 48 74 67 75
REMARK SMILES IDX 68 76 72 77 69 78 71 79 70 80 57 81 58 82 62 83 59 84 61 85
REMARK SMILES IDX 60 86
REMARK H PARENT 8 27 77 54 55 65
REMARK Flexibility Score: inf
ROOT
ATOM      1  C   UNL A   1      34.127  31.384  27.605  1.00  0.00     0.188 C 
ENDROOT
BRANCH   1   2
ATOM      2  C   UNL A   1      32.997  30.431  27.205  1.00  0.00     0.188 C 
BRANCH   2   3
ATOM      3  O   UNL A   1      32.908  30.313  25.789  1.00  0.00    -0.376 OA
BRANCH   3   4
ATOM      4  C   UNL A   1      31.728  29.717  25.266  1.00  0.00     0.202 C 
BRANCH   4   5
ATOM      5  C   UNL A   1      31.527  28.229  25.554  1.00  0.00     0.261 C 
BRANCH   5   6
ATOM      6  O   UNL A   1      32.401  27.242  24.973  1.00  0.00    -0.463 OA
BRANCH   6   7
ATOM      7  C   UNL A   1      33.491  26.685  25.514  1.00  0.00     0.307 C 
ATOM      8  O   UNL A   1      33.960  27.136  26.557  1.00  0.00    -0.252 OA
BRANCH   7   9
ATOM      9  C   UNL A   1      34.044  25.433  24.903  1.00  0.00     0.143 C 
BRANCH   9  10
ATOM     10  C   UNL A   1      33.482  24.056  25.326  1.00  0.00     0.100 C 
ATOM     11  C   UNL A   1      34.232  23.470  26.556  1.00  0.00     0.097 C 
ATOM     12  C   UNL A   1      33.511  23.145  24.040  1.00  0.00     0.085 C 
ATOM     13  C   UNL A   1      32.019  24.198  25.807  1.00  0.00     0.319 C 
ATOM     14  S   UNL A   1      35.553  22.316  26.100  1.00  0.00    -0.106 SA
ATOM     15  C   UNL A   1      33.558  21.701  24.393  1.00  0.00     0.049 A 
ATOM     16  C   UNL A   1      32.505  23.746  23.062  1.00  0.00     0.006 A 
ATOM     17  O   UNL A   1      30.992  23.931  24.912  1.00  0.00    -0.426 OA
ATOM     18  O   UNL A   1      31.748  24.516  26.963  1.00  0.00    -0.251 OA
ATOM     19  C   UNL A   1      34.481  21.277  25.271  1.00  0.00     0.090 A 
ATOM     20  S   UNL A   1      32.508  20.407  23.938  1.00  0.00    -0.077 S 
ATOM     21  C   UNL A   1      33.009  24.391  21.931  1.00  0.00     0.028 A 
ATOM     22  C   UNL A   1      31.295  24.216  23.578  1.00  0.00     0.134 A 
ATOM     23  N   UNL A   1      34.370  19.988  25.642  1.00  0.00    -0.307 N 
ATOM     24  C   UNL A   1      33.356  19.288  25.046  1.00  0.00     0.305 A 
ATOM     25  C   UNL A   1      32.477  25.654  21.664  1.00  0.00     0.041 A 
ATOM     26  C   UNL A   1      30.551  25.246  22.981  1.00  0.00     0.049 A 
ATOM     27  H   UNL A   1      34.977  19.576  26.300  1.00  0.00     0.171 HD
ATOM     28  O   UNL A   1      33.044  18.134  25.261  1.00  0.00    -0.257 OA
ATOM     29  Cl  UNL A   1      33.615  26.946  21.887  1.00  0.00    -0.084 Cl
ATOM     30  C   UNL A   1      31.179  26.010  22.014  1.00  0.00     0.024 A 
ENDBRANCH   9  10
ENDBRANCH   7   9
ENDBRANCH   6   7
ENDBRANCH   5   6
ENDBRANCH   4   5
ENDBRANCH   3   4
ENDBRANCH   2   3
ENDBRANCH   1   2
BRANCH   1  31
ATOM     31  O   UNL A   1      33.656  32.670  28.015  1.00  0.00    -0.376 OA
BRANCH  31  32
ATOM     32  C   UNL A   1      34.678  33.651  28.244  1.00  0.00     0.202 C 
BRANCH  32  33
ATOM     33  C   UNL A   1      36.104  33.084  28.139  1.00  0.00     0.261 C 
BRANCH  33  34
ATOM     34  O   UNL A   1      36.718  33.080  29.437  1.00  0.00    -0.460 OA
BRANCH  34  35
ATOM     35  C   UNL A   1      36.637  31.944  30.173  1.00  0.00     0.338 C 
ATOM     36  O   UNL A   1      35.818  31.658  31.020  1.00  0.00    -0.246 OA
BRANCH  35  37
ATOM     37  C   UNL A   1      37.689  31.052  29.643  1.00  0.00     0.060 A 
ATOM     38  C   UNL A   1      37.403  29.721  29.342  1.00  0.00     0.016 A 
ATOM     39  C   UNL A   1      39.015  31.501  29.709  1.00  0.00     0.016 A 
ATOM     40  C   UNL A   1      38.466  28.812  29.267  1.00  0.00     0.010 A 
ATOM     41  C   UNL A   1      40.069  30.590  29.617  1.00  0.00     0.010 A 
ATOM     42  C   UNL A   1      39.804  29.224  29.484  1.00  0.00    -0.014 A 
BRANCH  42  43
ATOM     43  C   UNL A   1      40.881  28.202  29.441  1.00  0.00     0.031 A 
ATOM     44  C   UNL A   1      41.608  28.052  30.734  1.00  0.00     0.074 A 
ATOM     45  C   UNL A   1      41.170  27.331  28.442  1.00  0.00     0.049 A 
ATOM     46  N   UNL A   1      42.886  28.076  30.949  1.00  0.00    -0.248 NA
ATOM     47  C   UNL A   1      40.783  27.982  31.953  1.00  0.00     0.031 C 
ATOM     48  C   UNL A   1      40.477  27.174  27.162  1.00  0.00     0.029 A 
ATOM     49  N   UNL A   1      42.089  26.300  28.412  1.00  0.00    -0.354 N 
ATOM     50  C   UNL A   1      43.028  27.855  32.313  1.00  0.00     0.074 A 
ATOM     51  C   UNL A   1      41.716  27.973  32.898  1.00  0.00     0.031 C 
ATOM     52  C   UNL A   1      40.811  25.984  26.612  1.00  0.00     0.029 A 
ATOM     53  C   UNL A   1      41.813  25.336  27.442  1.00  0.00     0.049 A 
ATOM     54  H   UNL A   1      42.864  26.251  29.018  1.00  0.00     0.167 HD
ATOM     55  C   UNL A   1      44.157  27.338  32.864  1.00  0.00     0.031 A 
ATOM     56  C   UNL A   1      42.295  24.068  27.350  1.00  0.00     0.031 A 
ATOM     57  C   UNL A   1      45.317  27.487  32.035  1.00  0.00     0.049 A 
ATOM     58  C   UNL A   1      43.496  23.935  28.196  1.00  0.00     0.074 A 
ATOM     59  C   UNL A   1      45.958  28.558  31.444  1.00  0.00     0.029 A 
ATOM     60  N   UNL A   1      45.854  26.361  31.465  1.00  0.00    -0.354 N 
ATOM     61  N   UNL A   1      44.686  24.325  27.857  1.00  0.00    -0.248 NA
ATOM     62  C   UNL A   1      43.326  23.594  29.598  1.00  0.00     0.031 C 
ATOM     63  C   UNL A   1      46.518  28.046  30.242  1.00  0.00     0.029 A 
ATOM     64  C   UNL A   1      46.229  26.683  30.186  1.00  0.00     0.049 A 
ATOM     65  H   UNL A   1      45.953  25.482  31.895  1.00  0.00     0.167 HD
ATOM     66  C   UNL A   1      45.264  24.735  29.044  1.00  0.00     0.074 A 
ATOM     67  C   UNL A   1      44.443  24.132  30.088  1.00  0.00     0.031 C 
ATOM     68  C   UNL A   1      46.163  25.764  29.071  1.00  0.00     0.031 A 
BRANCH  55  69
ATOM     69  C   UNL A   1      44.086  26.365  34.010  1.00  0.00    -0.014 A 
ATOM     70  C   UNL A   1      44.152  26.787  35.356  1.00  0.00     0.009 A 
ATOM     71  C   UNL A   1      43.698  25.037  33.780  1.00  0.00     0.009 A 
ATOM     72  C   UNL A   1      43.891  25.927  36.421  1.00  0.00     0.001 A 
ATOM     73  C   UNL A   1      43.383  24.185  34.846  1.00  0.00     0.001 A 
ATOM     74  C   UNL A   1      43.486  24.627  36.163  1.00  0.00     0.000 A 
ENDBRANCH  55  69
BRANCH  56  75
ATOM     75  C   UNL A   1      41.692  22.851  26.752  1.00  0.00    -0.014 A 
ATOM     76  C   UNL A   1      40.305  22.638  26.826  1.00  0.00     0.009 A 
ATOM     77  C   UNL A   1      42.498  21.758  26.381  1.00  0.00     0.009 A 
ATOM     78  C   UNL A   1      39.751  21.373  26.595  1.00  0.00     0.001 A 
ATOM     79  C   UNL A   1      41.945  20.490  26.158  1.00  0.00     0.001 A 
ATOM     80  C   UNL A   1      40.572  20.294  26.283  1.00  0.00     0.000 A 
ENDBRANCH  56  75
BRANCH  68  81
ATOM     81  C   UNL A   1      46.901  26.148  27.806  1.00  0.00    -0.014 A 
ATOM     82  C   UNL A   1      47.993  25.350  27.417  1.00  0.00     0.009 A 
ATOM     83  C   UNL A   1      46.619  27.279  27.025  1.00  0.00     0.009 A 
ATOM     84  C   UNL A   1      48.759  25.658  26.291  1.00  0.00     0.001 A 
ATOM     85  C   UNL A   1      47.337  27.546  25.855  1.00  0.00     0.001 A 
ATOM     86  C   UNL A   1      48.413  26.741  25.493  1.00  0.00     0.000 A 
ENDBRANCH  68  81
ENDBRANCH  42  43
ENDBRANCH  35  37
ENDBRANCH  34  35
ENDBRANCH  33  34
ENDBRANCH  32  33
ENDBRANCH  31  32
ENDBRANCH   1  31
TORSDOF 18
ENDMDL
MODEL 2
REMARK VINA RESULT:     -11.2      1.538      2.103
REMARK SMILES O=C(C[C@]12CSc3[nH]c(=O)sc3[C@H]1c1cc(Cl)ccc1OC2=O)OCCOCCOCCOC(=O)c1ccc(-c2c3nc(c(-c4ccccc4)c4ccc([nH]4)c(-c4ccccc4)c4nc(c(-c5ccccc5)c5ccc2[nH]5)C=C4)C=C3)cc1
REMARK SMILES IDX 29 1 28 2 27 3 26 4 25 5 24 6 2 7 1 8 3 9 4 10 5 11 13 12
REMARK SMILES IDX 22 13 6 14 12 15 14 16 21 17 23 18 7 19 11 20 15 21 20 22
REMARK SMILES IDX 8 23 9 24 16 25 19 26 10 28 17 29 18 30 30 31 31 32 32 33
REMARK SMILES IDX 33 34 34 35 35 36 36 37 37 38 83 39 38 40 82 41 39 42 40 43
REMARK SMILES IDX 41 44 76 45 42 46 81 47 75 48 77 49 43 50 80 51 74 52 73 53
REMARK SMILES IDX 44 55 66 56 51 57 65 58 52 59 55 60 64 61 78 62 53 63 54 64
REMARK SMILES IDX 63 66 79 67 56 68 45 69 46 70 50 71 47 72 49 73 48 74 67 75
REMARK SMILES IDX 68 76 72 77 69 78 71 79 70 80 57 81 58 82 62 83 59 84 61 85
REMARK SMILES IDX 60 86
REMARK H PARENT 8 27 77 54 55 65
REMARK Flexibility Score: inf
ROOT
ATOM      1  C   UNL A   1      33.600  31.201  27.649  1.00  0.00     0.188 C 
ENDROOT
BRANCH   1   2
ATOM      2  C   UNL A   1      33.783  29.853  26.947  1.00  0.00     0.188 C 
BRANCH   2   3
ATOM      3  O   UNL A   1      32.526  29.252  26.663  1.00  0.00    -0.376 OA
BRANCH   3   4
ATOM      4  C   UNL A   1      32.184  28.090  27.409  1.00  0.00     0.202 C 
BRANCH   4   5
ATOM      5  C   UNL A   1      31.349  27.033  26.685  1.00  0.00     0.261 C 
BRANCH   5   6
ATOM      6  O   UNL A   1      31.655  25.631  26.824  1.00  0.00    -0.463 OA
BRANCH   6   7
ATOM      7  C   UNL A   1      31.026  24.591  26.265  1.00  0.00     0.307 C 
ATOM      8  O   UNL A   1      30.055  24.085  26.824  1.00  0.00    -0.252 OA
BRANCH   7   9
ATOM      9  C   UNL A   1      31.440  24.145  24.895  1.00  0.00     0.143 C 
BRANCH   9  10
ATOM     10  C   UNL A   1      32.695  23.261  24.719  1.00  0.00     0.100 C 
ATOM     11  C   UNL A   1      32.770  22.132  25.787  1.00  0.00     0.097 C 
ATOM     12  C   UNL A   1      33.933  24.236  24.702  1.00  0.00     0.085 C 
ATOM     13  C   UNL A   1      32.634  22.504  23.371  1.00  0.00     0.319 C 
ATOM     14  S   UNL A   1      33.799  22.569  27.213  1.00  0.00    -0.106 SA
ATOM     15  C   UNL A   1      35.183  23.541  25.113  1.00  0.00     0.049 A 
ATOM     16  C   UNL A   1      33.807  25.072  23.432  1.00  0.00     0.006 A 
ATOM     17  O   UNL A   1      33.305  23.032  22.277  1.00  0.00    -0.426 OA
ATOM     18  O   UNL A   1      32.030  21.439  23.256  1.00  0.00    -0.251 OA
ATOM     19  C   UNL A   1      35.184  22.825  26.248  1.00  0.00     0.090 A 
ATOM     20  S   UNL A   1      36.695  23.386  24.290  1.00  0.00    -0.077 S 
ATOM     21  C   UNL A   1      33.462  26.417  23.575  1.00  0.00     0.028 A 
ATOM     22  C   UNL A   1      33.388  24.427  22.265  1.00  0.00     0.134 A 
ATOM     23  N   UNL A   1      36.306  22.117  26.478  1.00  0.00    -0.307 N 
ATOM     24  C   UNL A   1      37.294  22.256  25.540  1.00  0.00     0.305 A 
ATOM     25  C   UNL A   1      32.428  26.870  22.751  1.00  0.00     0.041 A 
ATOM     26  C   UNL A   1      32.706  25.079  21.227  1.00  0.00     0.049 A 
ATOM     27  H   UNL A   1      36.409  21.536  27.267  1.00  0.00     0.171 HD
ATOM     28  O   UNL A   1      38.364  21.682  25.521  1.00  0.00    -0.257 OA
ATOM     29  Cl  UNL A   1      30.975  27.264  23.617  1.00  0.00    -0.084 Cl
ATOM     30  C   UNL A   1      32.180  26.331  21.495  1.00  0.00     0.024 A 
ENDBRANCH   9  10
ENDBRANCH   7   9
ENDBRANCH   6   7
ENDBRANCH   5   6
ENDBRANCH   4   5
ENDBRANCH   3   4
ENDBRANCH   2   3
ENDBRANCH   1   2
BRANCH   1  31
ATOM     31  O   UNL A   1      34.679  32.108  27.410  1.00  0.00    -0.376 OA
BRANCH  31  32
ATOM     32  C   UNL A   1      34.648  33.315  28.185  1.00  0.00     0.202 C 
BRANCH  32  33
ATOM     33  C   UNL A   1      35.299  33.167  29.572  1.00  0.00     0.261 C 
BRANCH  33  34
ATOM     34  O   UNL A   1      36.459  32.326  29.471  1.00  0.00    -0.460 OA
BRANCH  34  35
ATOM     35  C   UNL A   1      36.562  31.283  30.332  1.00  0.00     0.338 C 
ATOM     36  O   UNL A   1      35.912  31.071  31.333  1.00  0.00    -0.246 OA
BRANCH  35  37
ATOM     37  C   UNL A   1      37.557  30.371  29.731  1.00  0.00     0.060 A 
ATOM     38  C   UNL A   1      37.451  28.992  29.909  1.00  0.00     0.016 A 
ATOM     39  C   UNL A   1      38.733  30.937  29.222  1.00  0.00     0.016 A 
ATOM     40  C   UNL A   1      38.596  28.206  29.719  1.00  0.00     0.010 A 
ATOM     41  C   UNL A   1      39.864  30.144  29.021  1.00  0.00     0.010 A 
ATOM     42  C   UNL A   1      39.835  28.786  29.352  1.00  0.00    -0.014 A 
BRANCH  42  43
ATOM     43  C   UNL A   1      41.023  27.904  29.218  1.00  0.00     0.031 A 
ATOM     44  C   UNL A   1      41.962  27.996  30.371  1.00  0.00     0.074 A 
ATOM     45  C   UNL A   1      41.265  26.964  28.270  1.00  0.00     0.049 A 
ATOM     46  N   UNL A   1      43.242  28.200  30.355  1.00  0.00    -0.248 NA
ATOM     47  C   UNL A   1      41.363  27.968  31.716  1.00  0.00     0.031 C 
ATOM     48  C   UNL A   1      40.403  26.576  27.152  1.00  0.00     0.029 A 
ATOM     49  N   UNL A   1      42.302  26.056  28.177  1.00  0.00    -0.354 N 
ATOM     50  C   UNL A   1      43.632  28.158  31.688  1.00  0.00     0.074 A 
ATOM     51  C   UNL A   1      42.429  28.183  32.480  1.00  0.00     0.031 C 
ATOM     52  C   UNL A   1      40.807  25.380  26.666  1.00  0.00     0.029 A 
ATOM     53  C   UNL A   1      42.011  24.960  27.365  1.00  0.00     0.049 A 
ATOM     54  H   UNL A   1      43.164  26.173  28.639  1.00  0.00     0.167 HD
ATOM     55  C   UNL A   1      44.896  27.850  32.079  1.00  0.00     0.031 A 
ATOM     56  C   UNL A   1      42.644  23.757  27.311  1.00  0.00     0.031 A 
ATOM     57  C   UNL A   1      45.874  28.042  31.048  1.00  0.00     0.049 A 
ATOM     58  C   UNL A   1      43.972  23.871  27.941  1.00  0.00     0.074 A 
ATOM     59  C   UNL A   1      46.257  29.106  30.256  1.00  0.00     0.029 A 
ATOM     60  N   UNL A   1      46.465  26.931  30.502  1.00  0.00    -0.354 N 
ATOM     61  N   UNL A   1      45.025  24.361  27.363  1.00  0.00    -0.248 NA
ATOM     62  C   UNL A   1      44.080  23.678  29.377  1.00  0.00     0.031 C 
ATOM     63  C   UNL A   1      46.680  28.529  29.028  1.00  0.00     0.029 A 
ATOM     64  C   UNL A   1      46.580  27.145  29.153  1.00  0.00     0.049 A 
ATOM     65  H   UNL A   1      46.753  26.126  30.989  1.00  0.00     0.167 HD
ATOM     66  C   UNL A   1      45.725  24.973  28.387  1.00  0.00     0.074 A 
ATOM     67  C   UNL A   1      45.176  24.401  29.611  1.00  0.00     0.031 C 
ATOM     68  C   UNL A   1      46.463  26.100  28.158  1.00  0.00     0.031 A 
BRANCH  55  69
ATOM     69  C   UNL A   1      45.148  27.017  33.306  1.00  0.00    -0.014 A 
ATOM     70  C   UNL A   1      44.644  25.704  33.435  1.00  0.00     0.009 A 
ATOM     71  C   UNL A   1      46.100  27.426  34.250  1.00  0.00     0.009 A 
ATOM     72  C   UNL A   1      45.032  24.855  34.471  1.00  0.00     0.001 A 
ATOM     73  C   UNL A   1      46.531  26.558  35.260  1.00  0.00     0.001 A 
ATOM     74  C   UNL A   1      45.993  25.278  35.374  1.00  0.00     0.000 A 
ENDBRANCH  55  69
BRANCH  56  75
ATOM     75  C   UNL A   1      42.127  22.415  26.945  1.00  0.00    -0.014 A 
ATOM     76  C   UNL A   1      41.220  21.751  27.786  1.00  0.00     0.009 A 
ATOM     77  C   UNL A   1      42.751  21.657  25.935  1.00  0.00     0.009 A 
ATOM     78  C   UNL A   1      40.986  20.376  27.664  1.00  0.00     0.001 A 
ATOM     79  C   UNL A   1      42.524  20.279  25.817  1.00  0.00     0.001 A 
ATOM     80  C   UNL A   1      41.654  19.636  26.694  1.00  0.00     0.000 A 
ENDBRANCH  56  75
BRANCH  68  81
ATOM     81  C   UNL A   1      46.927  26.421  26.753  1.00  0.00    -0.014 A 
ATOM     82  C   UNL A   1      48.205  25.976  26.367  1.00  0.00     0.009 A 
ATOM     83  C   UNL A   1      46.204  27.186  25.825  1.00  0.00     0.009 A 
ATOM     84  C   UNL A   1      48.731  26.267  25.107  1.00  0.00     0.001 A 
ATOM     85  C   UNL A   1      46.697  27.414  24.537  1.00  0.00     0.001 A 
ATOM     86  C   UNL A   1      47.964  26.963  24.181  1.00  0.00     0.000 A 
ENDBRANCH  68  81
ENDBRANCH  42  43
ENDBRANCH  35  37
ENDBRANCH  34  35
ENDBRANCH  33  34
ENDBRANCH  32  33
ENDBRANCH  31  32
ENDBRANCH   1  31
TORSDOF 18
ENDMDL
MODEL 3
REMARK VINA RESULT:     -11.2      3.987      9.032
REMARK SMILES O=C(C[C@]12CSc3[nH]c(=O)sc3[C@H]1c1cc(Cl)ccc1OC2=O)OCCOCCOCCOC(=O)c1ccc(-c2c3nc(c(-c4ccccc4)c4ccc([nH]4)c(-c4ccccc4)c4nc(c(-c5ccccc5)c5ccc2[nH]5)C=C4)C=C3)cc1
REMARK SMILES IDX 29 1 28 2 27 3 26 4 25 5 24 6 2 7 1 8 3 9 4 10 5 11 13 12
REMARK SMILES IDX 22 13 6 14 12 15 14 16 21 17 23 18 7 19 11 20 15 21 20 22
REMARK SMILES IDX 8 23 9 24 16 25 19 26 10 28 17 29 18 30 30 31 31 32 32 33
REMARK SMILES IDX 33 34 34 35 35 36 36 37 37 38 83 39 38 40 82 41 39 42 40 43
REMARK SMILES IDX 41 44 76 45 42 46 81 47 75 48 77 49 43 50 80 51 74 52 73 53
REMARK SMILES IDX 44 55 66 56 51 57 65 58 52 59 55 60 64 61 78 62 53 63 54 64
REMARK SMILES IDX 63 66 79 67 56 68 45 69 46 70 50 71 47 72 49 73 48 74 67 75
REMARK SMILES IDX 68 76 72 77 69 78 71 79 70 80 57 81 58 82 62 83 59 84 61 85
REMARK SMILES IDX 60 86
REMARK H PARENT 8 27 77 54 55 65
REMARK Flexibility Score: inf
ROOT
ATOM      1  C   UNL A   1      37.862  21.043  24.996  1.00  0.00     0.188 C 
ENDROOT
BRANCH   1   2
ATOM      2  C   UNL A   1      36.339  20.889  25.032  1.00  0.00     0.188 C 
BRANCH   2   3
ATOM      3  O   UNL A   1      35.709  22.121  25.361  1.00  0.00    -0.376 OA
BRANCH   3   4
ATOM      4  C   UNL A   1      35.970  23.227  24.506  1.00  0.00     0.202 C 
BRANCH   4   5
ATOM      5  C   UNL A   1      35.138  23.314  23.226  1.00  0.00     0.261 C 
BRANCH   5   6
ATOM      6  O   UNL A   1      34.410  24.515  22.902  1.00  0.00    -0.463 OA
BRANCH   6   7
ATOM      7  C   UNL A   1      33.200  24.618  22.339  1.00  0.00     0.307 C 
ATOM      8  O   UNL A   1      33.069  24.457  21.127  1.00  0.00    -0.252 OA
BRANCH   7   9
ATOM      9  C   UNL A   1      32.003  24.801  23.222  1.00  0.00     0.143 C 
BRANCH   9  10
ATOM     10  C   UNL A   1      31.772  26.151  23.937  1.00  0.00     0.100 C 
ATOM     11  C   UNL A   1      32.053  27.364  23.004  1.00  0.00     0.097 C 
ATOM     12  C   UNL A   1      32.638  26.118  25.254  1.00  0.00     0.085 C 
ATOM     13  C   UNL A   1      30.282  26.307  24.322  1.00  0.00     0.319 C 
ATOM     14  S   UNL A   1      33.726  28.034  23.194  1.00  0.00    -0.106 SA
ATOM     15  C   UNL A   1      32.973  27.489  25.724  1.00  0.00     0.049 A 
ATOM     16  C   UNL A   1      32.026  25.041  26.145  1.00  0.00     0.006 A 
ATOM     17  O   UNL A   1      29.886  25.977  25.610  1.00  0.00    -0.426 OA
ATOM     18  O   UNL A   1      29.451  26.738  23.523  1.00  0.00    -0.251 OA
ATOM     19  C   UNL A   1      33.503  28.362  24.854  1.00  0.00     0.090 A 
ATOM     20  S   UNL A   1      32.684  28.245  27.251  1.00  0.00    -0.077 S 
ATOM     21  C   UNL A   1      32.744  23.855  26.313  1.00  0.00     0.028 A 
ATOM     22  C   UNL A   1      30.633  24.957  26.204  1.00  0.00     0.134 A 
ATOM     23  N   UNL A   1      33.647  29.618  25.319  1.00  0.00    -0.307 N 
ATOM     24  C   UNL A   1      33.267  29.813  26.619  1.00  0.00     0.305 A 
ATOM     25  C   UNL A   1      32.018  22.675  26.135  1.00  0.00     0.041 A 
ATOM     26  C   UNL A   1      29.945  23.766  26.481  1.00  0.00     0.049 A 
ATOM     27  H   UNL A   1      34.002  30.348  24.760  1.00  0.00     0.171 HD
ATOM     28  O   UNL A   1      33.268  30.864  27.227  1.00  0.00    -0.257 OA
ATOM     29  Cl  UNL A   1      32.483  21.783  24.719  1.00  0.00    -0.084 Cl
ATOM     30  C   UNL A   1      30.659  22.583  26.410  1.00  0.00     0.024 A 
ENDBRANCH   9  10
ENDBRANCH   7   9
ENDBRANCH   6   7
ENDBRANCH   5   6
ENDBRANCH   4   5
ENDBRANCH   3   4
ENDBRANCH   2   3
ENDBRANCH   1   2
BRANCH   1  31
ATOM     31  O   UNL A   1      38.373  21.804  26.094  1.00  0.00    -0.376 OA
BRANCH  31  32
ATOM     32  C   UNL A   1      39.794  21.735  26.277  1.00  0.00     0.202 C 
BRANCH  32  33
ATOM     33  C   UNL A   1      40.310  22.649  27.402  1.00  0.00     0.261 C 
BRANCH  33  34
ATOM     34  O   UNL A   1      41.687  22.976  27.164  1.00  0.00    -0.460 OA
BRANCH  34  35
ATOM     35  C   UNL A   1      41.957  24.111  26.471  1.00  0.00     0.338 C 
ATOM     36  O   UNL A   1      42.483  24.217  25.384  1.00  0.00    -0.246 OA
BRANCH  35  37
ATOM     37  C   UNL A   1      41.360  25.209  27.260  1.00  0.00     0.060 A 
ATOM     38  C   UNL A   1      40.460  26.096  26.670  1.00  0.00     0.016 A 
ATOM     39  C   UNL A   1      41.921  25.488  28.513  1.00  0.00     0.016 A 
ATOM     40  C   UNL A   1      40.255  27.340  27.280  1.00  0.00     0.010 A 
ATOM     41  C   UNL A   1      41.699  26.725  29.121  1.00  0.00     0.010 A 
ATOM     42  C   UNL A   1      40.936  27.698  28.470  1.00  0.00    -0.014 A 
BRANCH  42  43
ATOM     43  C   UNL A   1      40.714  29.053  29.039  1.00  0.00     0.031 A 
ATOM     44  C   UNL A   1      41.889  29.957  28.892  1.00  0.00     0.074 A 
ATOM     45  C   UNL A   1      39.562  29.576  29.529  1.00  0.00     0.049 A 
ATOM     46  N   UNL A   1      42.482  30.663  29.802  1.00  0.00    -0.248 NA
ATOM     47  C   UNL A   1      42.548  29.977  27.575  1.00  0.00     0.031 C 
ATOM     48  C   UNL A   1      38.247  28.937  29.603  1.00  0.00     0.029 A 
ATOM     49  N   UNL A   1      39.295  30.861  29.962  1.00  0.00    -0.354 N 
ATOM     50  C   UNL A   1      43.489  31.347  29.132  1.00  0.00     0.074 A 
ATOM     51  C   UNL A   1      43.590  30.765  27.817  1.00  0.00     0.031 C 
ATOM     52  C   UNL A   1      37.298  29.881  29.796  1.00  0.00     0.029 A 
ATOM     53  C   UNL A   1      37.936  31.178  29.961  1.00  0.00     0.049 A 
ATOM     54  H   UNL A   1      39.997  31.491  30.246  1.00  0.00     0.167 HD
ATOM     55  C   UNL A   1      44.017  32.515  29.583  1.00  0.00     0.031 A 
ATOM     56  C   UNL A   1      37.355  32.406  30.007  1.00  0.00     0.031 A 
ATOM     57  C   UNL A   1      43.813  32.728  30.986  1.00  0.00     0.049 A 
ATOM     58  C   UNL A   1      38.340  33.399  30.477  1.00  0.00     0.074 A 
ATOM     59  C   UNL A   1      44.113  32.018  32.131  1.00  0.00     0.029 A 
ATOM     60  N   UNL A   1      42.947  33.720  31.371  1.00  0.00    -0.354 N 
ATOM     61  N   UNL A   1      38.659  33.592  31.720  1.00  0.00    -0.248 NA
ATOM     62  C   UNL A   1      39.213  34.029  29.502  1.00  0.00     0.031 C 
ATOM     63  C   UNL A   1      43.077  32.330  33.052  1.00  0.00     0.029 A 
ATOM     64  C   UNL A   1      42.228  33.249  32.438  1.00  0.00     0.049 A 
ATOM     65  H   UNL A   1      42.858  34.608  30.956  1.00  0.00     0.167 HD
ATOM     66  C   UNL A   1      39.997  33.941  31.680  1.00  0.00     0.074 A 
ATOM     67  C   UNL A   1      40.241  34.332  30.296  1.00  0.00     0.031 C 
ATOM     68  C   UNL A   1      40.845  33.592  32.692  1.00  0.00     0.031 A 
BRANCH  55  69
ATOM     69  C   UNL A   1      44.389  33.617  28.629  1.00  0.00    -0.014 A 
ATOM     70  C   UNL A   1      45.733  33.908  28.309  1.00  0.00     0.009 A 
ATOM     71  C   UNL A   1      43.403  34.223  27.837  1.00  0.00     0.009 A 
ATOM     72  C   UNL A   1      46.082  34.788  27.285  1.00  0.00     0.001 A 
ATOM     73  C   UNL A   1      43.751  35.066  26.775  1.00  0.00     0.001 A 
ATOM     74  C   UNL A   1      45.087  35.352  26.504  1.00  0.00     0.000 A 
ENDBRANCH  55  69
BRANCH  56  75
ATOM     75  C   UNL A   1      36.053  32.874  29.472  1.00  0.00    -0.014 A 
ATOM     76  C   UNL A   1      35.914  33.178  28.108  1.00  0.00     0.009 A 
ATOM     77  C   UNL A   1      35.036  33.314  30.343  1.00  0.00     0.009 A 
ATOM     78  C   UNL A   1      34.836  33.938  27.638  1.00  0.00     0.001 A 
ATOM     79  C   UNL A   1      33.961  34.082  29.874  1.00  0.00     0.001 A 
ATOM     80  C   UNL A   1      33.872  34.409  28.523  1.00  0.00     0.000 A 
ENDBRANCH  56  75
BRANCH  68  81
ATOM     81  C   UNL A   1      40.286  33.263  34.061  1.00  0.00    -0.014 A 
ATOM     82  C   UNL A   1      40.254  34.292  35.020  1.00  0.00     0.009 A 
ATOM     83  C   UNL A   1      39.855  31.991  34.466  1.00  0.00     0.009 A 
ATOM     84  C   UNL A   1      39.798  34.066  36.320  1.00  0.00     0.001 A 
ATOM     85  C   UNL A   1      39.327  31.781  35.744  1.00  0.00     0.001 A 
ATOM     86  C   UNL A   1      39.308  32.815  36.673  1.00  0.00     0.000 A 
ENDBRANCH  68  81
ENDBRANCH  42  43
ENDBRANCH  35  37
ENDBRANCH  34  35
ENDBRANCH  33  34
ENDBRANCH  32  33
ENDBRANCH  31  32
ENDBRANCH   1  31
TORSDOF 18
ENDMDL
