MODEL 1
REMARK VINA RESULT:     -10.7      0.000      0.000
REMARK SMILES O=C(OCCOCCOCCOC(=O)[C@@H](c1cccc(O)c1)[NH+]1CC[NH+](C2CCCC2)CC1)c1ccc(-c2c3nc(c(-c4ccccc4)c4ccc([nH]4)c(-c4ccccc4)c4nc(c(-c5ccccc5)c5ccc2[nH]5)C=C4)C=C3)cc1
REMARK SMILES IDX 7 1 6 2 5 3 4 4 3 5 2 6 1 7 34 8 35 9 81 10 36 11 80 12
REMARK SMILES IDX 37 13 38 14 39 15 74 16 40 17 79 18 73 19 75 20 41 21 78 22
REMARK SMILES IDX 72 23 71 24 42 26 64 27 49 28 63 29 50 30 53 31 62 32 76 33
REMARK SMILES IDX 51 34 52 35 61 37 77 38 54 39 43 40 44 41 48 42 45 43 47 44
REMARK SMILES IDX 46 45 65 46 66 47 70 48 67 49 69 50 68 51 55 52 56 53 60 54
REMARK SMILES IDX 57 55 59 56 58 57 8 58 9 59 10 60 11 61 12 62 13 63 14 64
REMARK SMILES IDX 15 65 16 66 17 67 22 68 18 69 20 70 19 71 21 72 23 74 24 75
REMARK SMILES IDX 33 76 25 78 32 79 26 80 27 82 28 83 31 84 29 85 30 86
REMARK H PARENT 75 25 53 36 21 73 23 77 26 81
REMARK Flexibility Score: inf
ROOT
ATOM      1  C   UNL A   1      41.241  21.520  27.033  1.00  0.00     0.188 C 
ENDROOT
BRANCH   1   2
ATOM      2  O   UNL A   1      41.779  21.027  25.793  1.00  0.00    -0.376 OA
BRANCH   2   3
ATOM      3  C   UNL A   1      43.199  20.830  25.841  1.00  0.00     0.202 C 
BRANCH   3   4
ATOM      4  C   UNL A   1      44.026  21.808  24.996  1.00  0.00     0.261 C 
BRANCH   4   5
ATOM      5  O   UNL A   1      44.616  22.854  25.773  1.00  0.00    -0.460 OA
BRANCH   5   6
ATOM      6  C   UNL A   1      44.543  24.190  25.567  1.00  0.00     0.338 C 
ATOM      7  O   UNL A   1      44.974  24.631  24.505  1.00  0.00    -0.246 OA
BRANCH   6   8
ATOM      8  C   UNL A   1      43.946  25.176  26.528  1.00  0.00     0.060 A 
ATOM      9  C   UNL A   1      44.243  26.539  26.636  1.00  0.00     0.016 A 
ATOM     10  C   UNL A   1      42.887  24.683  27.311  1.00  0.00     0.016 A 
ATOM     11  C   UNL A   1      43.563  27.370  27.539  1.00  0.00     0.010 A 
ATOM     12  C   UNL A   1      42.143  25.527  28.140  1.00  0.00     0.010 A 
ATOM     13  C   UNL A   1      42.510  26.870  28.304  1.00  0.00    -0.014 A 
BRANCH  13  14
ATOM     14  C   UNL A   1      41.912  27.675  29.402  1.00  0.00     0.031 A 
ATOM     15  C   UNL A   1      42.557  27.599  30.754  1.00  0.00     0.074 A 
ATOM     16  C   UNL A   1      40.806  28.425  29.240  1.00  0.00     0.049 A 
ATOM     17  N   UNL A   1      42.184  28.149  31.878  1.00  0.00    -0.248 NA
ATOM     18  C   UNL A   1      43.736  26.725  30.867  1.00  0.00     0.031 C 
ATOM     19  C   UNL A   1      40.031  28.516  28.012  1.00  0.00     0.029 A 
ATOM     20  N   UNL A   1      40.128  29.241  30.117  1.00  0.00    -0.354 N 
ATOM     21  C   UNL A   1      43.053  27.640  32.831  1.00  0.00     0.074 A 
ATOM     22  C   UNL A   1      43.881  26.655  32.176  1.00  0.00     0.031 C 
ATOM     23  C   UNL A   1      38.993  29.348  28.210  1.00  0.00     0.029 A 
ATOM     24  C   UNL A   1      39.039  29.874  29.559  1.00  0.00     0.049 A 
ATOM     25  H   UNL A   1      40.397  29.361  31.055  1.00  0.00     0.167 HD
ATOM     26  C   UNL A   1      43.202  28.002  34.124  1.00  0.00     0.031 A 
ATOM     27  C   UNL A   1      38.194  30.792  30.067  1.00  0.00     0.031 A 
ATOM     28  C   UNL A   1      42.413  29.013  34.760  1.00  0.00     0.049 A 
ATOM     29  C   UNL A   1      38.407  31.224  31.492  1.00  0.00     0.074 A 
ATOM     30  C   UNL A   1      42.503  29.505  36.047  1.00  0.00     0.029 A 
ATOM     31  N   UNL A   1      41.384  29.699  34.132  1.00  0.00    -0.354 N 
ATOM     32  N   UNL A   1      39.317  30.822  32.346  1.00  0.00    -0.248 NA
ATOM     33  C   UNL A   1      37.494  32.249  32.014  1.00  0.00     0.031 C 
ATOM     34  C   UNL A   1      41.506  30.475  36.208  1.00  0.00     0.029 A 
ATOM     35  C   UNL A   1      40.827  30.613  35.006  1.00  0.00     0.049 A 
ATOM     36  H   UNL A   1      41.093  29.557  33.202  1.00  0.00     0.167 HD
ATOM     37  C   UNL A   1      39.106  31.572  33.494  1.00  0.00     0.074 A 
ATOM     38  C   UNL A   1      38.010  32.476  33.212  1.00  0.00     0.031 C 
ATOM     39  C   UNL A   1      39.752  31.512  34.682  1.00  0.00     0.031 A 
BRANCH  26  40
ATOM     40  C   UNL A   1      44.272  27.268  34.879  1.00  0.00    -0.014 A 
ATOM     41  C   UNL A   1      45.608  27.710  34.842  1.00  0.00     0.009 A 
ATOM     42  C   UNL A   1      43.976  26.042  35.486  1.00  0.00     0.009 A 
ATOM     43  C   UNL A   1      46.635  26.890  35.307  1.00  0.00     0.001 A 
ATOM     44  C   UNL A   1      45.003  25.242  35.989  1.00  0.00     0.001 A 
ATOM     45  C   UNL A   1      46.332  25.653  35.874  1.00  0.00     0.000 A 
ENDBRANCH  26  40
BRANCH  27  46
ATOM     46  C   UNL A   1      37.111  31.438  29.265  1.00  0.00    -0.014 A 
ATOM     47  C   UNL A   1      37.297  32.736  28.754  1.00  0.00     0.009 A 
ATOM     48  C   UNL A   1      35.854  30.835  29.104  1.00  0.00     0.009 A 
ATOM     49  C   UNL A   1      36.239  33.437  28.168  1.00  0.00     0.001 A 
ATOM     50  C   UNL A   1      34.808  31.525  28.478  1.00  0.00     0.001 A 
ATOM     51  C   UNL A   1      34.996  32.831  28.024  1.00  0.00     0.000 A 
ENDBRANCH  27  46
BRANCH  39  52
ATOM     52  C   UNL A   1      39.316  32.493  35.726  1.00  0.00    -0.014 A 
ATOM     53  C   UNL A   1      39.899  33.765  35.824  1.00  0.00     0.009 A 
ATOM     54  C   UNL A   1      38.296  32.133  36.619  1.00  0.00     0.009 A 
ATOM     55  C   UNL A   1      39.494  34.647  36.826  1.00  0.00     0.001 A 
ATOM     56  C   UNL A   1      37.869  33.030  37.597  1.00  0.00     0.001 A 
ATOM     57  C   UNL A   1      38.476  34.280  37.706  1.00  0.00     0.000 A 
ENDBRANCH  39  52
ENDBRANCH  13  14
ENDBRANCH   6   8
ENDBRANCH   5   6
ENDBRANCH   4   5
ENDBRANCH   3   4
ENDBRANCH   2   3
ENDBRANCH   1   2
BRANCH   1  58
ATOM     58  C   UNL A   1      39.896  22.239  26.865  1.00  0.00     0.188 C 
BRANCH  58  59
ATOM     59  O   UNL A   1      38.981  21.689  25.924  1.00  0.00    -0.376 OA
BRANCH  59  60
ATOM     60  C   UNL A   1      38.058  22.570  25.306  1.00  0.00     0.202 C 
BRANCH  60  61
ATOM     61  C   UNL A   1      37.176  23.469  26.179  1.00  0.00     0.261 C 
BRANCH  61  62
ATOM     62  O   UNL A   1      36.049  24.101  25.558  1.00  0.00    -0.459 OA
BRANCH  62  63
ATOM     63  C   UNL A   1      34.829  23.696  26.035  1.00  0.00     0.369 C 
ATOM     64  O   UNL A   1      34.689  23.095  27.098  1.00  0.00    -0.245 OA
BRANCH  63  65
ATOM     65  C   UNL A   1      33.671  23.870  25.004  1.00  0.00     0.326 C 
BRANCH  65  66
ATOM     66  C   UNL A   1      33.620  25.163  24.175  1.00  0.00     0.025 A 
ATOM     67  C   UNL A   1      33.852  26.440  24.692  1.00  0.00     0.011 A 
ATOM     68  C   UNL A   1      33.246  25.115  22.817  1.00  0.00     0.056 A 
ATOM     69  C   UNL A   1      33.745  27.581  23.888  1.00  0.00     0.004 A 
ATOM     70  C   UNL A   1      33.321  26.231  21.987  1.00  0.00     0.116 A 
ATOM     71  C   UNL A   1      33.547  27.480  22.517  1.00  0.00     0.046 A 
BRANCH  70  72
ATOM     72  O   UNL A   1      33.198  26.049  20.644  1.00  0.00    -0.508 OA
ATOM     73  H   UNL A   1      32.426  25.647  20.294  1.00  0.00     0.293 HD
ENDBRANCH  70  72
ENDBRANCH  65  66
BRANCH  65  74
ATOM     74  N   UNL A   1      33.578  22.570  24.277  1.00  0.00    -0.310 N 
ATOM     75  C   UNL A   1      34.813  21.806  24.061  1.00  0.00     0.325 C 
ATOM     76  C   UNL A   1      32.450  21.704  24.612  1.00  0.00     0.325 C 
ATOM     77  H   UNL A   1      33.365  22.961  23.359  1.00  0.00     0.349 HD
ATOM     78  C   UNL A   1      35.046  20.521  24.922  1.00  0.00     0.324 C 
ATOM     79  C   UNL A   1      32.778  20.764  25.758  1.00  0.00     0.324 C 
ATOM     80  N   UNL A   1      33.853  19.834  25.432  1.00  0.00    -0.323 N 
ATOM     81  H   UNL A   1      34.118  19.442  26.334  1.00  0.00     0.348 HD
BRANCH  80  82
ATOM     82  C   UNL A   1      33.489  18.600  24.753  1.00  0.00     0.184 C 
ATOM     83  C   UNL A   1      34.629  17.785  24.130  1.00  0.00     0.065 C 
ATOM     84  C   UNL A   1      32.661  17.565  25.521  1.00  0.00     0.065 C 
ATOM     85  C   UNL A   1      33.949  16.489  23.742  1.00  0.00     0.006 C 
ATOM     86  C   UNL A   1      33.015  16.208  24.910  1.00  0.00     0.006 C 
ENDBRANCH  80  82
ENDBRANCH  65  74
ENDBRANCH  63  65
ENDBRANCH  62  63
ENDBRANCH  61  62
ENDBRANCH  60  61
ENDBRANCH  59  60
ENDBRANCH  58  59
ENDBRANCH   1  58
TORSDOF 21
ENDMDL
MODEL 2
REMARK VINA RESULT:     -10.4      2.931      8.135
REMARK SMILES O=C(OCCOCCOCCOC(=O)[C@@H](c1cccc(O)c1)[NH+]1CC[NH+](C2CCCC2)CC1)c1ccc(-c2c3nc(c(-c4ccccc4)c4ccc([nH]4)c(-c4ccccc4)c4nc(c(-c5ccccc5)c5ccc2[nH]5)C=C4)C=C3)cc1
REMARK SMILES IDX 7 1 6 2 5 3 4 4 3 5 2 6 1 7 34 8 35 9 81 10 36 11 80 12
REMARK SMILES IDX 37 13 38 14 39 15 74 16 40 17 79 18 73 19 75 20 41 21 78 22
REMARK SMILES IDX 72 23 71 24 42 26 64 27 49 28 63 29 50 30 53 31 62 32 76 33
REMARK SMILES IDX 51 34 52 35 61 37 77 38 54 39 43 40 44 41 48 42 45 43 47 44
REMARK SMILES IDX 46 45 65 46 66 47 70 48 67 49 69 50 68 51 55 52 56 53 60 54
REMARK SMILES IDX 57 55 59 56 58 57 8 58 9 59 10 60 11 61 12 62 13 63 14 64
REMARK SMILES IDX 15 65 16 66 17 67 22 68 18 69 20 70 19 71 21 72 23 74 24 75
REMARK SMILES IDX 33 76 25 78 32 79 26 80 27 82 28 83 31 84 29 85 30 86
REMARK H PARENT 75 25 53 36 21 73 23 77 26 81
REMARK Flexibility Score: inf
ROOT
ATOM      1  C   UNL A   1      31.677  27.751  25.954  1.00  0.00     0.188 C 
ENDROOT
BRANCH   1   2
ATOM      2  O   UNL A   1      31.270  28.814  25.076  1.00  0.00    -0.376 OA
BRANCH   2   3
ATOM      3  C   UNL A   1      31.775  30.095  25.479  1.00  0.00     0.202 C 
BRANCH   3   4
ATOM      4  C   UNL A   1      33.042  30.058  26.345  1.00  0.00     0.261 C 
BRANCH   4   5
ATOM      5  O   UNL A   1      33.132  31.164  27.247  1.00  0.00    -0.460 OA
BRANCH   5   6
ATOM      6  C   UNL A   1      34.244  31.818  27.657  1.00  0.00     0.338 C 
ATOM      7  O   UNL A   1      34.295  33.032  27.479  1.00  0.00    -0.246 OA
BRANCH   6   8
ATOM      8  C   UNL A   1      35.414  31.176  28.345  1.00  0.00     0.060 A 
ATOM      9  C   UNL A   1      35.546  29.832  28.711  1.00  0.00     0.016 A 
ATOM     10  C   UNL A   1      36.536  32.005  28.516  1.00  0.00     0.016 A 
ATOM     11  C   UNL A   1      36.724  29.342  29.294  1.00  0.00     0.010 A 
ATOM     12  C   UNL A   1      37.744  31.499  29.005  1.00  0.00     0.010 A 
ATOM     13  C   UNL A   1      37.833  30.173  29.452  1.00  0.00    -0.014 A 
BRANCH  13  14
ATOM     14  C   UNL A   1      39.014  29.732  30.242  1.00  0.00     0.031 A 
ATOM     15  C   UNL A   1      39.174  30.289  31.625  1.00  0.00     0.074 A 
ATOM     16  C   UNL A   1      39.950  28.898  29.753  1.00  0.00     0.049 A 
ATOM     17  N   UNL A   1      40.147  30.112  32.477  1.00  0.00    -0.248 NA
ATOM     18  C   UNL A   1      38.135  31.228  32.077  1.00  0.00     0.031 C 
ATOM     19  C   UNL A   1      39.966  28.360  28.401  1.00  0.00     0.029 A 
ATOM     20  N   UNL A   1      41.083  28.370  30.329  1.00  0.00    -0.354 N 
ATOM     21  C   UNL A   1      39.857  30.961  33.534  1.00  0.00     0.074 A 
ATOM     22  C   UNL A   1      38.695  31.731  33.160  1.00  0.00     0.031 C 
ATOM     23  C   UNL A   1      41.045  27.571  28.256  1.00  0.00     0.029 A 
ATOM     24  C   UNL A   1      41.782  27.519  29.503  1.00  0.00     0.049 A 
ATOM     25  H   UNL A   1      41.366  28.581  31.247  1.00  0.00     0.167 HD
ATOM     26  C   UNL A   1      40.458  31.051  34.741  1.00  0.00     0.031 A 
ATOM     27  C   UNL A   1      42.873  26.762  29.732  1.00  0.00     0.031 A 
ATOM     28  C   UNL A   1      41.580  30.252  35.129  1.00  0.00     0.049 A 
ATOM     29  C   UNL A   1      43.498  26.834  31.098  1.00  0.00     0.074 A 
ATOM     30  C   UNL A   1      42.243  30.215  36.340  1.00  0.00     0.029 A 
ATOM     31  N   UNL A   1      42.199  29.332  34.296  1.00  0.00    -0.354 N 
ATOM     32  N   UNL A   1      43.134  27.552  32.133  1.00  0.00    -0.248 NA
ATOM     33  C   UNL A   1      44.667  25.977  31.335  1.00  0.00     0.031 C 
ATOM     34  C   UNL A   1      43.286  29.286  36.231  1.00  0.00     0.029 A 
ATOM     35  C   UNL A   1      43.240  28.719  34.966  1.00  0.00     0.049 A 
ATOM     36  H   UNL A   1      41.936  29.143  33.366  1.00  0.00     0.167 HD
ATOM     37  C   UNL A   1      44.008  27.206  33.152  1.00  0.00     0.074 A 
ATOM     38  C   UNL A   1      44.892  26.188  32.622  1.00  0.00     0.031 C 
ATOM     39  C   UNL A   1      44.084  27.693  34.413  1.00  0.00     0.031 A 
BRANCH  26  40
ATOM     40  C   UNL A   1      39.865  32.061  35.681  1.00  0.00    -0.014 A 
ATOM     41  C   UNL A   1      40.466  33.322  35.850  1.00  0.00     0.009 A 
ATOM     42  C   UNL A   1      38.809  31.690  36.521  1.00  0.00     0.009 A 
ATOM     43  C   UNL A   1      40.086  34.148  36.908  1.00  0.00     0.001 A 
ATOM     44  C   UNL A   1      38.403  32.538  37.553  1.00  0.00     0.001 A 
ATOM     45  C   UNL A   1      39.059  33.751  37.763  1.00  0.00     0.000 A 
ENDBRANCH  26  40
BRANCH  27  46
ATOM     46  C   UNL A   1      43.441  25.819  28.721  1.00  0.00    -0.014 A 
ATOM     47  C   UNL A   1      44.320  26.300  27.731  1.00  0.00     0.009 A 
ATOM     48  C   UNL A   1      43.030  24.480  28.649  1.00  0.00     0.009 A 
ATOM     49  C   UNL A   1      44.715  25.489  26.664  1.00  0.00     0.001 A 
ATOM     50  C   UNL A   1      43.463  23.657  27.601  1.00  0.00     0.001 A 
ATOM     51  C   UNL A   1      44.292  24.166  26.601  1.00  0.00     0.000 A 
ENDBRANCH  27  46
BRANCH  39  52
ATOM     52  C   UNL A   1      45.122  27.080  35.302  1.00  0.00    -0.014 A 
ATOM     53  C   UNL A   1      46.417  27.612  35.389  1.00  0.00     0.009 A 
ATOM     54  C   UNL A   1      44.787  25.956  36.070  1.00  0.00     0.009 A 
ATOM     55  C   UNL A   1      47.372  27.002  36.202  1.00  0.00     0.001 A 
ATOM     56  C   UNL A   1      45.734  25.369  36.908  1.00  0.00     0.001 A 
ATOM     57  C   UNL A   1      47.027  25.887  36.964  1.00  0.00     0.000 A 
ENDBRANCH  39  52
ENDBRANCH  13  14
ENDBRANCH   6   8
ENDBRANCH   5   6
ENDBRANCH   4   5
ENDBRANCH   3   4
ENDBRANCH   2   3
ENDBRANCH   1   2
BRANCH   1  58
ATOM     58  C   UNL A   1      31.201  26.368  25.491  1.00  0.00     0.188 C 
BRANCH  58  59
ATOM     59  O   UNL A   1      30.771  25.460  26.500  1.00  0.00    -0.376 OA
BRANCH  59  60
ATOM     60  C   UNL A   1      31.628  24.378  26.824  1.00  0.00     0.202 C 
BRANCH  60  61
ATOM     61  C   UNL A   1      31.396  23.012  26.168  1.00  0.00     0.261 C 
BRANCH  61  62
ATOM     62  O   UNL A   1      31.018  22.993  24.785  1.00  0.00    -0.459 OA
BRANCH  62  63
ATOM     63  C   UNL A   1      32.016  22.622  23.922  1.00  0.00     0.369 C 
ATOM     64  O   UNL A   1      32.009  22.904  22.726  1.00  0.00    -0.245 OA
BRANCH  63  65
ATOM     65  C   UNL A   1      33.038  21.624  24.550  1.00  0.00     0.326 C 
BRANCH  65  66
ATOM     66  C   UNL A   1      32.854  20.123  24.279  1.00  0.00     0.025 A 
ATOM     67  C   UNL A   1      32.533  19.580  23.032  1.00  0.00     0.011 A 
ATOM     68  C   UNL A   1      32.930  19.201  25.342  1.00  0.00     0.056 A 
ATOM     69  C   UNL A   1      32.336  18.205  22.866  1.00  0.00     0.004 A 
ATOM     70  C   UNL A   1      32.913  17.824  25.132  1.00  0.00     0.116 A 
ATOM     71  C   UNL A   1      32.592  17.311  23.897  1.00  0.00     0.046 A 
BRANCH  70  72
ATOM     72  O   UNL A   1      33.253  17.007  26.167  1.00  0.00    -0.508 OA
ATOM     73  H   UNL A   1      34.118  16.649  26.217  1.00  0.00     0.293 HD
ENDBRANCH  70  72
ENDBRANCH  65  66
BRANCH  65  74
ATOM     74  N   UNL A   1      34.385  22.218  24.306  1.00  0.00    -0.310 N 
ATOM     75  C   UNL A   1      34.592  23.632  24.644  1.00  0.00     0.325 C 
ATOM     76  C   UNL A   1      35.543  21.397  24.655  1.00  0.00     0.325 C 
ATOM     77  H   UNL A   1      34.338  22.211  23.287  1.00  0.00     0.349 HD
ATOM     78  C   UNL A   1      35.432  23.971  25.919  1.00  0.00     0.324 C 
ATOM     79  C   UNL A   1      35.975  21.610  26.095  1.00  0.00     0.324 C 
ATOM     80  N   UNL A   1      36.419  22.975  26.352  1.00  0.00    -0.323 N 
ATOM     81  H   UNL A   1      36.451  23.033  27.369  1.00  0.00     0.348 HD
BRANCH  80  82
ATOM     82  C   UNL A   1      37.811  23.292  26.070  1.00  0.00     0.184 C 
ATOM     83  C   UNL A   1      38.440  24.437  26.873  1.00  0.00     0.065 C 
ATOM     84  C   UNL A   1      38.844  22.164  26.147  1.00  0.00     0.065 C 
ATOM     85  C   UNL A   1      39.909  24.333  26.518  1.00  0.00     0.006 C 
ATOM     86  C   UNL A   1      40.171  22.835  26.501  1.00  0.00     0.006 C 
ENDBRANCH  80  82
ENDBRANCH  65  74
ENDBRANCH  63  65
ENDBRANCH  62  63
ENDBRANCH  61  62
ENDBRANCH  60  61
ENDBRANCH  59  60
ENDBRANCH  58  59
ENDBRANCH   1  58
TORSDOF 21
ENDMDL
MODEL 3
REMARK VINA RESULT:     -10.4      3.742      9.301
REMARK SMILES O=C(OCCOCCOCCOC(=O)[C@@H](c1cccc(O)c1)[NH+]1CC[NH+](C2CCCC2)CC1)c1ccc(-c2c3nc(c(-c4ccccc4)c4ccc([nH]4)c(-c4ccccc4)c4nc(c(-c5ccccc5)c5ccc2[nH]5)C=C4)C=C3)cc1
REMARK SMILES IDX 7 1 6 2 5 3 4 4 3 5 2 6 1 7 34 8 35 9 81 10 36 11 80 12
REMARK SMILES IDX 37 13 38 14 39 15 74 16 40 17 79 18 73 19 75 20 41 21 78 22
REMARK SMILES IDX 72 23 71 24 42 26 64 27 49 28 63 29 50 30 53 31 62 32 76 33
REMARK SMILES IDX 51 34 52 35 61 37 77 38 54 39 43 40 44 41 48 42 45 43 47 44
REMARK SMILES IDX 46 45 65 46 66 47 70 48 67 49 69 50 68 51 55 52 56 53 60 54
REMARK SMILES IDX 57 55 59 56 58 57 8 58 9 59 10 60 11 61 12 62 13 63 14 64
REMARK SMILES IDX 15 65 16 66 17 67 22 68 18 69 20 70 19 71 21 72 23 74 24 75
REMARK SMILES IDX 33 76 25 78 32 79 26 80 27 82 28 83 31 84 29 85 30 86
REMARK H PARENT 75 25 53 36 21 73 23 77 26 81
REMARK Flexibility Score: inf
ROOT
ATOM      1  C   UNL A   1      34.801  33.400  28.101  1.00  0.00     0.188 C 
ENDROOT
BRANCH   1   2
ATOM      2  O   UNL A   1      33.658  34.270  28.039  1.00  0.00    -0.376 OA
BRANCH   2   3
ATOM      3  C   UNL A   1      33.954  35.611  28.454  1.00  0.00     0.202 C 
BRANCH   3   4
ATOM      4  C   UNL A   1      32.893  36.273  29.343  1.00  0.00     0.261 C 
BRANCH   4   5
ATOM      5  O   UNL A   1      33.271  36.319  30.722  1.00  0.00    -0.460 OA
BRANCH   5   6
ATOM      6  C   UNL A   1      33.286  35.304  31.618  1.00  0.00     0.338 C 
ATOM      7  O   UNL A   1      32.278  35.119  32.293  1.00  0.00    -0.246 OA
BRANCH   6   8
ATOM      8  C   UNL A   1      34.437  34.364  31.830  1.00  0.00     0.060 A 
ATOM      9  C   UNL A   1      34.374  33.032  32.256  1.00  0.00     0.016 A 
ATOM     10  C   UNL A   1      35.693  34.855  31.431  1.00  0.00     0.016 A 
ATOM     11  C   UNL A   1      35.526  32.237  32.353  1.00  0.00     0.010 A 
ATOM     12  C   UNL A   1      36.826  34.037  31.433  1.00  0.00     0.010 A 
ATOM     13  C   UNL A   1      36.765  32.734  31.948  1.00  0.00    -0.014 A 
BRANCH  13  14
ATOM     14  C   UNL A   1      38.018  31.985  32.226  1.00  0.00     0.031 A 
ATOM     15  C   UNL A   1      38.717  32.253  33.525  1.00  0.00     0.074 A 
ATOM     16  C   UNL A   1      38.561  31.119  31.351  1.00  0.00     0.049 A 
ATOM     17  N   UNL A   1      39.853  31.780  33.964  1.00  0.00    -0.248 NA
ATOM     18  C   UNL A   1      38.089  33.244  34.414  1.00  0.00     0.031 C 
ATOM     19  C   UNL A   1      38.040  30.835  30.022  1.00  0.00     0.029 A 
ATOM     20  N   UNL A   1      39.686  30.329  31.436  1.00  0.00    -0.354 N 
ATOM     21  C   UNL A   1      40.090  32.461  35.148  1.00  0.00     0.074 A 
ATOM     22  C   UNL A   1      39.052  33.454  35.289  1.00  0.00     0.031 C 
ATOM     23  C   UNL A   1      38.833  29.929  29.424  1.00  0.00     0.029 A 
ATOM     24  C   UNL A   1      39.899  29.543  30.326  1.00  0.00     0.049 A 
ATOM     25  H   UNL A   1      40.281  30.327  32.219  1.00  0.00     0.167 HD
ATOM     26  C   UNL A   1      41.047  32.241  36.077  1.00  0.00     0.031 A 
ATOM     27  C   UNL A   1      40.828  28.600  30.074  1.00  0.00     0.031 A 
ATOM     28  C   UNL A   1      42.047  31.224  35.958  1.00  0.00     0.049 A 
ATOM     29  C   UNL A   1      41.854  28.331  31.141  1.00  0.00     0.074 A 
ATOM     30  C   UNL A   1      43.037  30.870  36.854  1.00  0.00     0.029 A 
ATOM     31  N   UNL A   1      42.170  30.384  34.861  1.00  0.00    -0.354 N 
ATOM     32  N   UNL A   1      41.990  28.899  32.315  1.00  0.00    -0.248 NA
ATOM     33  C   UNL A   1      42.838  27.277  30.859  1.00  0.00     0.031 C 
ATOM     34  C   UNL A   1      43.779  29.827  36.285  1.00  0.00     0.029 A 
ATOM     35  C   UNL A   1      43.222  29.509  35.056  1.00  0.00     0.049 A 
ATOM     36  H   UNL A   1      41.594  30.407  34.063  1.00  0.00     0.167 HD
ATOM     37  C   UNL A   1      43.052  28.246  32.924  1.00  0.00     0.074 A 
ATOM     38  C   UNL A   1      43.496  27.217  32.006  1.00  0.00     0.031 C 
ATOM     39  C   UNL A   1      43.620  28.483  34.129  1.00  0.00     0.031 A 
BRANCH  26  40
ATOM     40  C   UNL A   1      41.001  33.144  37.274  1.00  0.00    -0.014 A 
ATOM     41  C   UNL A   1      41.893  34.227  37.391  1.00  0.00     0.009 A 
ATOM     42  C   UNL A   1      40.185  32.813  38.362  1.00  0.00     0.009 A 
ATOM     43  C   UNL A   1      42.037  34.894  38.608  1.00  0.00     0.001 A 
ATOM     44  C   UNL A   1      40.302  33.510  39.566  1.00  0.00     0.001 A 
ATOM     45  C   UNL A   1      41.246  34.529  39.696  1.00  0.00     0.000 A 
ENDBRANCH  26  40
BRANCH  27  46
ATOM     46  C   UNL A   1      40.843  27.778  28.827  1.00  0.00    -0.014 A 
ATOM     47  C   UNL A   1      41.477  28.272  27.671  1.00  0.00     0.009 A 
ATOM     48  C   UNL A   1      40.135  26.571  28.731  1.00  0.00     0.009 A 
ATOM     49  C   UNL A   1      41.345  27.619  26.442  1.00  0.00     0.001 A 
ATOM     50  C   UNL A   1      40.040  25.896  27.507  1.00  0.00     0.001 A 
ATOM     51  C   UNL A   1      40.632  26.427  26.361  1.00  0.00     0.000 A 
ENDBRANCH  27  46
BRANCH  39  52
ATOM     52  C   UNL A   1      44.738  27.570  34.529  1.00  0.00    -0.014 A 
ATOM     53  C   UNL A   1      46.069  27.847  34.181  1.00  0.00     0.009 A 
ATOM     54  C   UNL A   1      44.447  26.417  35.274  1.00  0.00     0.009 A 
ATOM     55  C   UNL A   1      47.086  26.963  34.540  1.00  0.00     0.001 A 
ATOM     56  C   UNL A   1      45.470  25.554  35.661  1.00  0.00     0.001 A 
ATOM     57  C   UNL A   1      46.785  25.822  35.284  1.00  0.00     0.000 A 
ENDBRANCH  39  52
ENDBRANCH  13  14
ENDBRANCH   6   8
ENDBRANCH   5   6
ENDBRANCH   4   5
ENDBRANCH   3   4
ENDBRANCH   2   3
ENDBRANCH   1   2
BRANCH   1  58
ATOM     58  C   UNL A   1      34.471  32.004  28.644  1.00  0.00     0.188 C 
BRANCH  58  59
ATOM     59  O   UNL A   1      34.193  30.986  27.688  1.00  0.00    -0.376 OA
BRANCH  59  60
ATOM     60  C   UNL A   1      34.804  29.721  27.873  1.00  0.00     0.202 C 
BRANCH  60  61
ATOM     61  C   UNL A   1      34.979  28.787  26.670  1.00  0.00     0.261 C 
BRANCH  61  62
ATOM     62  O   UNL A   1      33.939  27.835  26.410  1.00  0.00    -0.459 OA
BRANCH  62  63
ATOM     63  C   UNL A   1      33.773  27.512  25.088  1.00  0.00     0.369 C 
ATOM     64  O   UNL A   1      34.277  28.157  24.171  1.00  0.00    -0.245 OA
BRANCH  63  65
ATOM     65  C   UNL A   1      32.711  26.394  24.852  1.00  0.00     0.326 C 
BRANCH  65  66
ATOM     66  C   UNL A   1      32.813  25.104  25.680  1.00  0.00     0.025 A 
ATOM     67  C   UNL A   1      34.012  24.452  25.981  1.00  0.00     0.011 A 
ATOM     68  C   UNL A   1      31.642  24.458  26.125  1.00  0.00     0.056 A 
ATOM     69  C   UNL A   1      34.028  23.255  26.704  1.00  0.00     0.004 A 
ATOM     70  C   UNL A   1      31.679  23.372  26.995  1.00  0.00     0.116 A 
ATOM     71  C   UNL A   1      32.870  22.742  27.275  1.00  0.00     0.046 A 
BRANCH  70  72
ATOM     72  O   UNL A   1      30.517  22.972  27.583  1.00  0.00    -0.508 OA
ATOM     73  H   UNL A   1      30.515  22.236  28.164  1.00  0.00     0.293 HD
ENDBRANCH  70  72
ENDBRANCH  65  66
BRANCH  65  74
ATOM     74  N   UNL A   1      31.393  27.091  24.803  1.00  0.00    -0.310 N 
ATOM     75  C   UNL A   1      31.245  28.349  25.547  1.00  0.00     0.325 C 
ATOM     76  C   UNL A   1      30.716  27.138  23.509  1.00  0.00     0.325 C 
ATOM     77  H   UNL A   1      30.877  26.411  25.361  1.00  0.00     0.349 HD
ATOM     78  C   UNL A   1      31.206  29.685  24.736  1.00  0.00     0.324 C 
ATOM     79  C   UNL A   1      31.121  28.359  22.702  1.00  0.00     0.324 C 
ATOM     80  N   UNL A   1      30.737  29.609  23.346  1.00  0.00    -0.323 N 
ATOM     81  H   UNL A   1      31.260  30.318  22.834  1.00  0.00     0.348 HD
BRANCH  80  82
ATOM     82  C   UNL A   1      29.392  30.107  23.100  1.00  0.00     0.184 C 
ATOM     83  C   UNL A   1      28.965  31.367  23.862  1.00  0.00     0.065 C 
ATOM     84  C   UNL A   1      28.973  30.380  21.652  1.00  0.00     0.065 C 
ATOM     85  C   UNL A   1      27.653  31.735  23.202  1.00  0.00     0.006 C 
ATOM     86  C   UNL A   1      27.906  31.473  21.725  1.00  0.00     0.006 C 
ENDBRANCH  80  82
ENDBRANCH  65  74
ENDBRANCH  63  65
ENDBRANCH  62  63
ENDBRANCH  61  62
ENDBRANCH  60  61
ENDBRANCH  59  60
ENDBRANCH  58  59
ENDBRANCH   1  58
TORSDOF 21
ENDMDL
