MODEL 1
REMARK VINA RESULT:      -9.9      0.000      0.000
REMARK SMILES Cc1cc(NC(=O)Nc2sc(C)c(C)c2C(=O)OCCOCCOCCOC(=O)c2ccc(-c3c4nc(c(-c5ccccc5)c5ccc([nH]5)c(-c5ccccc5)c5nc(c(-c6ccccc6)c6ccc3[nH]6)C=C5)C=C4)cc2)ccn1
REMARK SMILES IDX 22 1 21 2 20 3 19 4 18 5 16 6 17 7 15 8 9 9 10 10 11 11
REMARK SMILES IDX 13 12 12 13 14 14 8 15 5 16 6 17 7 19 4 21 1 22 2 23 3 24
REMARK SMILES IDX 80 25 79 26 78 27 23 28 24 29 25 30 26 31 27 32 28 33 29 34
REMARK SMILES IDX 30 35 31 36 77 37 32 38 76 39 33 40 34 41 35 42 70 43 36 44
REMARK SMILES IDX 75 45 69 46 71 47 37 48 74 49 68 50 67 51 38 53 60 54 45 55
REMARK SMILES IDX 59 56 46 57 49 58 58 59 72 60 47 61 48 62 57 64 73 65 50 66
REMARK SMILES IDX 39 67 40 68 44 69 41 70 43 71 42 72 61 73 62 74 66 75 63 76
REMARK SMILES IDX 65 77 64 78 51 79 52 80 56 81 53 82 55 83 54 84
REMARK H PARENT 5 18 8 20 71 52 49 63
REMARK Flexibility Score: inf
ROOT
ATOM      1  C   UNL A   1      31.378  29.175  24.950  1.00  0.00     0.188 C 
ENDROOT
BRANCH   1   2
ATOM      2  O   UNL A   1      31.193  28.342  23.807  1.00  0.00    -0.376 OA
BRANCH   2   3
ATOM      3  C   UNL A   1      30.164  27.366  23.792  1.00  0.00     0.202 C 
BRANCH   3   4
ATOM      4  C   UNL A   1      30.681  25.938  23.987  1.00  0.00     0.261 C 
BRANCH   4   5
ATOM      5  O   UNL A   1      31.113  25.314  22.764  1.00  0.00    -0.460 OA
BRANCH   5   6
ATOM      6  C   UNL A   1      32.412  25.571  22.420  1.00  0.00     0.341 C 
ATOM      7  O   UNL A   1      32.746  26.465  21.650  1.00  0.00    -0.246 OA
BRANCH   6   8
ATOM      8  C   UNL A   1      33.395  24.680  23.049  1.00  0.00     0.098 A 
ATOM      9  C   UNL A   1      33.523  23.310  22.863  1.00  0.00     0.112 A 
ATOM     10  S   UNL A   1      35.069  22.781  23.357  1.00  0.00    -0.122 S 
ATOM     11  C   UNL A   1      35.235  24.112  24.407  1.00  0.00     0.007 A 
ATOM     12  C   UNL A   1      34.306  25.098  24.116  1.00  0.00    -0.021 A 
ATOM     13  C   UNL A   1      36.292  24.097  25.459  1.00  0.00     0.057 C 
ATOM     14  C   UNL A   1      34.203  26.406  24.842  1.00  0.00     0.046 C 
BRANCH   9  15
ATOM     15  N   UNL A   1      32.660  22.420  22.254  1.00  0.00    -0.298 N 
ATOM     16  N   UNL A   1      32.067  20.842  23.967  1.00  0.00    -0.308 N 
ATOM     17  C   UNL A   1      32.211  21.207  22.666  1.00  0.00     0.324 C 
ATOM     18  H   UNL A   1      32.113  19.869  24.105  1.00  0.00     0.171 HD
ATOM     19  O   UNL A   1      31.881  20.383  21.803  1.00  0.00    -0.248 OA
ATOM     20  H   UNL A   1      32.316  22.712  21.379  1.00  0.00     0.172 HD
BRANCH  16  21
ATOM     21  C   UNL A   1      31.866  21.564  25.164  1.00  0.00     0.046 A 
ATOM     22  C   UNL A   1      33.920  22.564  28.190  1.00  0.00     0.067 C 
ATOM     23  C   UNL A   1      32.788  22.418  27.219  1.00  0.00     0.039 A 
ATOM     24  C   UNL A   1      32.926  21.638  26.072  1.00  0.00     0.049 A 
ATOM     25  N   UNL A   1      31.668  23.125  27.485  1.00  0.00    -0.261 NA
ATOM     26  C   UNL A   1      30.648  23.004  26.616  1.00  0.00     0.113 A 
ATOM     27  C   UNL A   1      30.680  22.208  25.485  1.00  0.00     0.046 A 
ENDBRANCH  16  21
ENDBRANCH   9  15
ENDBRANCH   6   8
ENDBRANCH   5   6
ENDBRANCH   4   5
ENDBRANCH   3   4
ENDBRANCH   2   3
ENDBRANCH   1   2
BRANCH   1  28
ATOM     28  C   UNL A   1      31.775  28.594  26.315  1.00  0.00     0.188 C 
BRANCH  28  29
ATOM     29  O   UNL A   1      31.984  29.594  27.306  1.00  0.00    -0.376 OA
BRANCH  29  30
ATOM     30  C   UNL A   1      32.196  30.912  26.810  1.00  0.00     0.202 C 
BRANCH  30  31
ATOM     31  C   UNL A   1      33.257  31.649  27.633  1.00  0.00     0.261 C 
BRANCH  31  32
ATOM     32  O   UNL A   1      33.257  33.073  27.428  1.00  0.00    -0.460 OA
BRANCH  32  33
ATOM     33  C   UNL A   1      33.412  33.825  28.539  1.00  0.00     0.338 C 
ATOM     34  O   UNL A   1      32.589  34.565  29.047  1.00  0.00    -0.246 OA
BRANCH  33  35
ATOM     35  C   UNL A   1      34.702  33.477  29.164  1.00  0.00     0.060 A 
ATOM     36  C   UNL A   1      35.873  33.903  28.529  1.00  0.00     0.016 A 
ATOM     37  C   UNL A   1      34.765  32.722  30.336  1.00  0.00     0.016 A 
ATOM     38  C   UNL A   1      37.119  33.562  29.057  1.00  0.00     0.010 A 
ATOM     39  C   UNL A   1      36.011  32.358  30.851  1.00  0.00     0.010 A 
ATOM     40  C   UNL A   1      37.192  32.757  30.201  1.00  0.00    -0.014 A 
BRANCH  40  41
ATOM     41  C   UNL A   1      38.493  32.192  30.627  1.00  0.00     0.031 A 
ATOM     42  C   UNL A   1      38.937  30.882  30.040  1.00  0.00     0.074 A 
ATOM     43  C   UNL A   1      39.267  32.824  31.525  1.00  0.00     0.049 A 
ATOM     44  N   UNL A   1      40.016  30.185  30.291  1.00  0.00    -0.248 NA
ATOM     45  C   UNL A   1      38.046  30.279  29.036  1.00  0.00     0.031 C 
ATOM     46  C   UNL A   1      38.973  34.115  32.142  1.00  0.00     0.029 A 
ATOM     47  N   UNL A   1      40.465  32.448  32.077  1.00  0.00    -0.354 N 
ATOM     48  C   UNL A   1      39.938  29.067  29.471  1.00  0.00     0.074 A 
ATOM     49  C   UNL A   1      38.695  29.163  28.736  1.00  0.00     0.031 C 
ATOM     50  C   UNL A   1      39.963  34.421  32.999  1.00  0.00     0.029 A 
ATOM     51  C   UNL A   1      40.943  33.336  33.009  1.00  0.00     0.049 A 
ATOM     52  H   UNL A   1      40.937  31.620  31.830  1.00  0.00     0.167 HD
ATOM     53  C   UNL A   1      40.820  28.049  29.337  1.00  0.00     0.031 A 
ATOM     54  C   UNL A   1      42.037  33.270  33.791  1.00  0.00     0.031 A 
ATOM     55  C   UNL A   1      42.039  27.924  30.087  1.00  0.00     0.049 A 
ATOM     56  C   UNL A   1      42.951  32.076  33.699  1.00  0.00     0.074 A 
ATOM     57  C   UNL A   1      42.997  26.927  30.017  1.00  0.00     0.029 A 
ATOM     58  N   UNL A   1      42.459  28.818  31.058  1.00  0.00    -0.354 N 
ATOM     59  N   UNL A   1      42.880  31.039  32.901  1.00  0.00    -0.248 NA
ATOM     60  C   UNL A   1      44.097  32.049  34.621  1.00  0.00     0.031 C 
ATOM     61  C   UNL A   1      43.977  27.197  30.979  1.00  0.00     0.029 A 
ATOM     62  C   UNL A   1      43.649  28.383  31.614  1.00  0.00     0.049 A 
ATOM     63  H   UNL A   1      41.983  29.641  31.313  1.00  0.00     0.167 HD
ATOM     64  C   UNL A   1      43.982  30.249  33.206  1.00  0.00     0.074 A 
ATOM     65  C   UNL A   1      44.710  30.931  34.257  1.00  0.00     0.031 C 
ATOM     66  C   UNL A   1      44.361  29.068  32.660  1.00  0.00     0.031 A 
BRANCH  53  67
ATOM     67  C   UNL A   1      40.470  26.972  28.354  1.00  0.00    -0.014 A 
ATOM     68  C   UNL A   1      40.966  27.002  27.042  1.00  0.00     0.009 A 
ATOM     69  C   UNL A   1      39.639  25.912  28.747  1.00  0.00     0.009 A 
ATOM     70  C   UNL A   1      40.611  26.006  26.131  1.00  0.00     0.001 A 
ATOM     71  C   UNL A   1      39.302  24.906  27.840  1.00  0.00     0.001 A 
ATOM     72  C   UNL A   1      39.782  24.958  26.532  1.00  0.00     0.000 A 
ENDBRANCH  53  67
BRANCH  54  73
ATOM     73  C   UNL A   1      42.330  34.359  34.754  1.00  0.00    -0.014 A 
ATOM     74  C   UNL A   1      41.799  34.323  36.052  1.00  0.00     0.009 A 
ATOM     75  C   UNL A   1      43.119  35.455  34.372  1.00  0.00     0.009 A 
ATOM     76  C   UNL A   1      42.034  35.374  36.941  1.00  0.00     0.001 A 
ATOM     77  C   UNL A   1      43.370  36.493  35.270  1.00  0.00     0.001 A 
ATOM     78  C   UNL A   1      42.821  36.456  36.550  1.00  0.00     0.000 A 
ENDBRANCH  54  73
BRANCH  66  79
ATOM     79  C   UNL A   1      45.632  28.450  33.168  1.00  0.00    -0.014 A 
ATOM     80  C   UNL A   1      45.621  27.525  34.222  1.00  0.00     0.009 A 
ATOM     81  C   UNL A   1      46.853  28.765  32.550  1.00  0.00     0.009 A 
ATOM     82  C   UNL A   1      46.811  26.946  34.664  1.00  0.00     0.001 A 
ATOM     83  C   UNL A   1      48.038  28.168  32.980  1.00  0.00     0.001 A 
ATOM     84  C   UNL A   1      48.017  27.264  34.040  1.00  0.00     0.000 A 
ENDBRANCH  66  79
ENDBRANCH  40  41
ENDBRANCH  33  35
ENDBRANCH  32  33
ENDBRANCH  31  32
ENDBRANCH  30  31
ENDBRANCH  29  30
ENDBRANCH  28  29
ENDBRANCH   1  28
TORSDOF 19
ENDMDL
MODEL 2
REMARK VINA RESULT:      -9.8      2.384      3.778
REMARK SMILES Cc1cc(NC(=O)Nc2sc(C)c(C)c2C(=O)OCCOCCOCCOC(=O)c2ccc(-c3c4nc(c(-c5ccccc5)c5ccc([nH]5)c(-c5ccccc5)c5nc(c(-c6ccccc6)c6ccc3[nH]6)C=C5)C=C4)cc2)ccn1
REMARK SMILES IDX 22 1 21 2 20 3 19 4 18 5 16 6 17 7 15 8 9 9 10 10 11 11
REMARK SMILES IDX 13 12 12 13 14 14 8 15 5 16 6 17 7 19 4 21 1 22 2 23 3 24
REMARK SMILES IDX 80 25 79 26 78 27 23 28 24 29 25 30 26 31 27 32 28 33 29 34
REMARK SMILES IDX 30 35 31 36 77 37 32 38 76 39 33 40 34 41 35 42 70 43 36 44
REMARK SMILES IDX 75 45 69 46 71 47 37 48 74 49 68 50 67 51 38 53 60 54 45 55
REMARK SMILES IDX 59 56 46 57 49 58 58 59 72 60 47 61 48 62 57 64 73 65 50 66
REMARK SMILES IDX 39 67 40 68 44 69 41 70 43 71 42 72 61 73 62 74 66 75 63 76
REMARK SMILES IDX 65 77 64 78 51 79 52 80 56 81 53 82 55 83 54 84
REMARK H PARENT 5 18 8 20 71 52 49 63
REMARK Flexibility Score: inf
ROOT
ATOM      1  C   UNL A   1      35.254  30.617  28.364  1.00  0.00     0.188 C 
ENDROOT
BRANCH   1   2
ATOM      2  O   UNL A   1      34.545  29.684  27.550  1.00  0.00    -0.376 OA
BRANCH   2   3
ATOM      3  C   UNL A   1      33.594  30.141  26.602  1.00  0.00     0.202 C 
BRANCH   3   4
ATOM      4  C   UNL A   1      32.149  29.814  26.989  1.00  0.00     0.261 C 
BRANCH   4   5
ATOM      5  O   UNL A   1      31.519  28.870  26.103  1.00  0.00    -0.460 OA
BRANCH   5   6
ATOM      6  C   UNL A   1      31.611  27.564  26.503  1.00  0.00     0.341 C 
ATOM      7  O   UNL A   1      31.802  27.222  27.665  1.00  0.00    -0.246 OA
BRANCH   6   8
ATOM      8  C   UNL A   1      31.464  26.586  25.418  1.00  0.00     0.098 A 
ATOM      9  C   UNL A   1      30.750  25.395  25.455  1.00  0.00     0.112 A 
ATOM     10  S   UNL A   1      30.419  24.847  23.874  1.00  0.00    -0.122 S 
ATOM     11  C   UNL A   1      31.751  25.706  23.251  1.00  0.00     0.007 A 
ATOM     12  C   UNL A   1      32.204  26.653  24.157  1.00  0.00    -0.021 A 
ATOM     13  C   UNL A   1      32.265  25.388  21.887  1.00  0.00     0.057 C 
ATOM     14  C   UNL A   1      33.348  27.589  23.904  1.00  0.00     0.046 C 
BRANCH   9  15
ATOM     15  N   UNL A   1      30.209  24.726  26.537  1.00  0.00    -0.298 N 
ATOM     16  N   UNL A   1      31.264  22.567  26.535  1.00  0.00    -0.308 N 
ATOM     17  C   UNL A   1      30.253  23.411  26.870  1.00  0.00     0.324 C 
ATOM     18  H   UNL A   1      30.986  21.624  26.500  1.00  0.00     0.171 HD
ATOM     19  O   UNL A   1      29.327  22.951  27.549  1.00  0.00    -0.248 OA
ATOM     20  H   UNL A   1      29.711  25.296  27.167  1.00  0.00     0.172 HD
BRANCH  16  21
ATOM     21  C   UNL A   1      32.629  22.756  26.227  1.00  0.00     0.046 A 
ATOM     22  C   UNL A   1      34.761  23.060  23.107  1.00  0.00     0.067 C 
ATOM     23  C   UNL A   1      34.330  23.016  24.541  1.00  0.00     0.039 A 
ATOM     24  C   UNL A   1      33.006  22.741  24.881  1.00  0.00     0.049 A 
ATOM     25  N   UNL A   1      35.270  23.314  25.465  1.00  0.00    -0.261 NA
ATOM     26  C   UNL A   1      34.890  23.282  26.756  1.00  0.00     0.113 A 
ATOM     27  C   UNL A   1      33.613  22.964  27.182  1.00  0.00     0.046 A 
ENDBRANCH  16  21
ENDBRANCH   9  15
ENDBRANCH   6   8
ENDBRANCH   5   6
ENDBRANCH   4   5
ENDBRANCH   3   4
ENDBRANCH   2   3
ENDBRANCH   1   2
BRANCH   1  28
ATOM     28  C   UNL A   1      35.229  32.124  28.071  1.00  0.00     0.188 C 
BRANCH  28  29
ATOM     29  O   UNL A   1      34.454  32.860  29.011  1.00  0.00    -0.376 OA
BRANCH  29  30
ATOM     30  C   UNL A   1      34.297  34.246  28.724  1.00  0.00     0.202 C 
BRANCH  30  31
ATOM     31  C   UNL A   1      33.078  34.827  29.445  1.00  0.00     0.261 C 
BRANCH  31  32
ATOM     32  O   UNL A   1      33.416  35.698  30.539  1.00  0.00    -0.460 OA
BRANCH  32  33
ATOM     33  C   UNL A   1      33.111  35.237  31.771  1.00  0.00     0.338 C 
ATOM     34  O   UNL A   1      32.006  35.175  32.280  1.00  0.00    -0.246 OA
BRANCH  33  35
ATOM     35  C   UNL A   1      34.324  34.642  32.362  1.00  0.00     0.060 A 
ATOM     36  C   UNL A   1      35.534  35.322  32.198  1.00  0.00     0.016 A 
ATOM     37  C   UNL A   1      34.282  33.423  33.042  1.00  0.00     0.016 A 
ATOM     38  C   UNL A   1      36.716  34.779  32.701  1.00  0.00     0.010 A 
ATOM     39  C   UNL A   1      35.468  32.865  33.523  1.00  0.00     0.010 A 
ATOM     40  C   UNL A   1      36.693  33.530  33.335  1.00  0.00    -0.014 A 
BRANCH  40  41
ATOM     41  C   UNL A   1      37.962  32.837  33.654  1.00  0.00     0.031 A 
ATOM     42  C   UNL A   1      38.486  31.810  32.690  1.00  0.00     0.074 A 
ATOM     43  C   UNL A   1      38.638  33.107  34.783  1.00  0.00     0.049 A 
ATOM     44  N   UNL A   1      39.553  31.058  32.779  1.00  0.00    -0.248 NA
ATOM     45  C   UNL A   1      37.701  31.607  31.461  1.00  0.00     0.031 C 
ATOM     46  C   UNL A   1      38.261  34.103  35.783  1.00  0.00     0.029 A 
ATOM     47  N   UNL A   1      39.789  32.548  35.277  1.00  0.00    -0.354 N 
ATOM     48  C   UNL A   1      39.573  30.298  31.617  1.00  0.00     0.074 A 
ATOM     49  C   UNL A   1      38.400  30.660  30.851  1.00  0.00     0.031 C 
ATOM     50  C   UNL A   1      39.163  34.079  36.780  1.00  0.00     0.029 A 
ATOM     51  C   UNL A   1      40.162  33.049  36.500  1.00  0.00     0.049 A 
ATOM     52  H   UNL A   1      40.300  31.854  34.800  1.00  0.00     0.167 HD
ATOM     53  C   UNL A   1      40.485  29.382  31.218  1.00  0.00     0.031 A 
ATOM     54  C   UNL A   1      41.183  32.701  37.306  1.00  0.00     0.031 A 
ATOM     55  C   UNL A   1      41.635  28.989  31.985  1.00  0.00     0.049 A 
ATOM     56  C   UNL A   1      42.127  31.605  36.887  1.00  0.00     0.074 A 
ATOM     57  C   UNL A   1      42.617  28.070  31.660  1.00  0.00     0.029 A 
ATOM     58  N   UNL A   1      41.946  29.482  33.241  1.00  0.00    -0.354 N 
ATOM     59  N   UNL A   1      42.151  30.913  35.775  1.00  0.00    -0.248 NA
ATOM     60  C   UNL A   1      43.186  31.244  37.843  1.00  0.00     0.031 C 
ATOM     61  C   UNL A   1      43.500  27.975  32.741  1.00  0.00     0.029 A 
ATOM     62  C   UNL A   1      43.091  28.868  33.718  1.00  0.00     0.049 A 
ATOM     63  H   UNL A   1      41.431  30.169  33.723  1.00  0.00     0.167 HD
ATOM     64  C   UNL A   1      43.238  30.055  35.885  1.00  0.00     0.074 A 
ATOM     65  C   UNL A   1      43.853  30.317  37.170  1.00  0.00     0.031 C 
ATOM     66  C   UNL A   1      43.690  29.135  34.998  1.00  0.00     0.031 A 
BRANCH  53  67
ATOM     67  C   UNL A   1      40.249  28.721  29.893  1.00  0.00    -0.014 A 
ATOM     68  C   UNL A   1      39.567  27.497  29.808  1.00  0.00     0.009 A 
ATOM     69  C   UNL A   1      40.707  29.332  28.716  1.00  0.00     0.009 A 
ATOM     70  C   UNL A   1      39.377  26.881  28.569  1.00  0.00     0.001 A 
ATOM     71  C   UNL A   1      40.498  28.724  27.478  1.00  0.00     0.001 A 
ATOM     72  C   UNL A   1      39.840  27.496  27.406  1.00  0.00     0.000 A 
ENDBRANCH  53  67
BRANCH  54  73
ATOM     73  C   UNL A   1      41.364  33.381  38.613  1.00  0.00    -0.014 A 
ATOM     74  C   UNL A   1      42.203  34.501  38.720  1.00  0.00     0.009 A 
ATOM     75  C   UNL A   1      40.724  32.897  39.763  1.00  0.00     0.009 A 
ATOM     76  C   UNL A   1      42.413  35.109  39.959  1.00  0.00     0.001 A 
ATOM     77  C   UNL A   1      40.919  33.520  40.996  1.00  0.00     0.001 A 
ATOM     78  C   UNL A   1      41.769  34.620  41.095  1.00  0.00     0.000 A 
ENDBRANCH  54  73
BRANCH  66  79
ATOM     79  C   UNL A   1      44.924  28.365  35.372  1.00  0.00    -0.014 A 
ATOM     80  C   UNL A   1      44.838  27.133  36.038  1.00  0.00     0.009 A 
ATOM     81  C   UNL A   1      46.187  28.858  35.010  1.00  0.00     0.009 A 
ATOM     82  C   UNL A   1      45.996  26.423  36.357  1.00  0.00     0.001 A 
ATOM     83  C   UNL A   1      47.342  28.135  35.312  1.00  0.00     0.001 A 
ATOM     84  C   UNL A   1      47.246  26.922  35.990  1.00  0.00     0.000 A 
ENDBRANCH  66  79
ENDBRANCH  40  41
ENDBRANCH  33  35
ENDBRANCH  32  33
ENDBRANCH  31  32
ENDBRANCH  30  31
ENDBRANCH  29  30
ENDBRANCH  28  29
ENDBRANCH   1  28
TORSDOF 19
ENDMDL
MODEL 3
REMARK VINA RESULT:      -9.8      3.439      8.345
REMARK SMILES Cc1cc(NC(=O)Nc2sc(C)c(C)c2C(=O)OCCOCCOCCOC(=O)c2ccc(-c3c4nc(c(-c5ccccc5)c5ccc([nH]5)c(-c5ccccc5)c5nc(c(-c6ccccc6)c6ccc3[nH]6)C=C5)C=C4)cc2)ccn1
REMARK SMILES IDX 22 1 21 2 20 3 19 4 18 5 16 6 17 7 15 8 9 9 10 10 11 11
REMARK SMILES IDX 13 12 12 13 14 14 8 15 5 16 6 17 7 19 4 21 1 22 2 23 3 24
REMARK SMILES IDX 80 25 79 26 78 27 23 28 24 29 25 30 26 31 27 32 28 33 29 34
REMARK SMILES IDX 30 35 31 36 77 37 32 38 76 39 33 40 34 41 35 42 70 43 36 44
REMARK SMILES IDX 75 45 69 46 71 47 37 48 74 49 68 50 67 51 38 53 60 54 45 55
REMARK SMILES IDX 59 56 46 57 49 58 58 59 72 60 47 61 48 62 57 64 73 65 50 66
REMARK SMILES IDX 39 67 40 68 44 69 41 70 43 71 42 72 61 73 62 74 66 75 63 76
REMARK SMILES IDX 65 77 64 78 51 79 52 80 56 81 53 82 55 83 54 84
REMARK H PARENT 5 18 8 20 71 52 49 63
REMARK Flexibility Score: inf
ROOT
ATOM      1  C   UNL A   1      35.123  21.052  25.221  1.00  0.00     0.188 C 
ENDROOT
BRANCH   1   2
ATOM      2  O   UNL A   1      33.897  20.897  24.508  1.00  0.00    -0.376 OA
BRANCH   2   3
ATOM      3  C   UNL A   1      33.052  22.013  24.287  1.00  0.00     0.202 C 
BRANCH   3   4
ATOM      4  C   UNL A   1      33.224  23.118  25.334  1.00  0.00     0.261 C 
BRANCH   4   5
ATOM      5  O   UNL A   1      33.204  24.445  24.774  1.00  0.00    -0.460 OA
BRANCH   5   6
ATOM      6  C   UNL A   1      33.903  25.377  25.492  1.00  0.00     0.341 C 
ATOM      7  O   UNL A   1      35.100  25.283  25.743  1.00  0.00    -0.246 OA
BRANCH   6   8
ATOM      8  C   UNL A   1      33.100  26.518  25.950  1.00  0.00     0.098 A 
ATOM      9  C   UNL A   1      31.889  26.471  26.627  1.00  0.00     0.112 A 
ATOM     10  S   UNL A   1      31.580  27.958  27.404  1.00  0.00    -0.122 S 
ATOM     11  C   UNL A   1      32.584  28.789  26.307  1.00  0.00     0.007 A 
ATOM     12  C   UNL A   1      33.396  27.909  25.608  1.00  0.00    -0.021 A 
ATOM     13  C   UNL A   1      32.506  30.275  26.212  1.00  0.00     0.057 C 
ATOM     14  C   UNL A   1      34.409  28.324  24.583  1.00  0.00     0.046 C 
BRANCH   9  15
ATOM     15  N   UNL A   1      31.036  25.404  26.833  1.00  0.00    -0.298 N 
ATOM     16  N   UNL A   1      29.258  25.700  25.244  1.00  0.00    -0.308 N 
ATOM     17  C   UNL A   1      29.768  25.193  26.397  1.00  0.00     0.324 C 
ATOM     18  H   UNL A   1      28.277  25.790  25.260  1.00  0.00     0.171 HD
ATOM     19  O   UNL A   1      29.031  24.467  27.075  1.00  0.00    -0.248 OA
ATOM     20  H   UNL A   1      31.408  24.680  27.386  1.00  0.00     0.172 HD
BRANCH  16  21
ATOM     21  C   UNL A   1      29.835  26.127  24.028  1.00  0.00     0.046 A 
ATOM     22  C   UNL A   1      30.293  29.393  22.159  1.00  0.00     0.067 C 
ATOM     23  C   UNL A   1      30.353  27.944  22.534  1.00  0.00     0.039 A 
ATOM     24  C   UNL A   1      29.716  27.476  23.682  1.00  0.00     0.049 A 
ATOM     25  N   UNL A   1      31.101  27.145  21.742  1.00  0.00    -0.261 NA
ATOM     26  C   UNL A   1      31.165  25.842  22.074  1.00  0.00     0.113 A 
ATOM     27  C   UNL A   1      30.519  25.285  23.163  1.00  0.00     0.046 A 
ENDBRANCH  16  21
ENDBRANCH   9  15
ENDBRANCH   6   8
ENDBRANCH   5   6
ENDBRANCH   4   5
ENDBRANCH   3   4
ENDBRANCH   2   3
ENDBRANCH   1   2
BRANCH   1  28
ATOM     28  C   UNL A   1      36.260  21.935  24.685  1.00  0.00     0.188 C 
BRANCH  28  29
ATOM     29  O   UNL A   1      37.457  21.208  24.434  1.00  0.00    -0.376 OA
BRANCH  29  30
ATOM     30  C   UNL A   1      37.418  19.826  24.774  1.00  0.00     0.202 C 
BRANCH  30  31
ATOM     31  C   UNL A   1      38.727  19.379  25.430  1.00  0.00     0.261 C 
BRANCH  31  32
ATOM     32  O   UNL A   1      39.521  20.469  25.931  1.00  0.00    -0.460 OA
BRANCH  32  33
ATOM     33  C   UNL A   1      40.833  20.204  26.112  1.00  0.00     0.338 C 
ATOM     34  O   UNL A   1      41.436  19.205  25.763  1.00  0.00    -0.246 OA
BRANCH  33  35
ATOM     35  C   UNL A   1      41.484  21.411  26.654  1.00  0.00     0.060 A 
ATOM     36  C   UNL A   1      41.464  21.601  28.038  1.00  0.00     0.016 A 
ATOM     37  C   UNL A   1      42.080  22.357  25.818  1.00  0.00     0.016 A 
ATOM     38  C   UNL A   1      42.027  22.749  28.597  1.00  0.00     0.010 A 
ATOM     39  C   UNL A   1      42.621  23.519  26.372  1.00  0.00     0.010 A 
ATOM     40  C   UNL A   1      42.577  23.729  27.761  1.00  0.00    -0.014 A 
BRANCH  40  41
ATOM     41  C   UNL A   1      42.957  25.048  28.317  1.00  0.00     0.031 A 
ATOM     42  C   UNL A   1      41.891  26.096  28.480  1.00  0.00     0.074 A 
ATOM     43  C   UNL A   1      44.225  25.319  28.667  1.00  0.00     0.049 A 
ATOM     44  N   UNL A   1      41.998  27.327  28.911  1.00  0.00    -0.248 NA
ATOM     45  C   UNL A   1      40.523  25.700  28.108  1.00  0.00     0.031 C 
ATOM     46  C   UNL A   1      45.345  24.383  28.595  1.00  0.00     0.029 A 
ATOM     47  N   UNL A   1      44.780  26.478  29.148  1.00  0.00    -0.354 N 
ATOM     48  C   UNL A   1      40.713  27.850  28.869  1.00  0.00     0.074 A 
ATOM     49  C   UNL A   1      39.847  26.815  28.348  1.00  0.00     0.031 C 
ATOM     50  C   UNL A   1      46.460  25.010  29.010  1.00  0.00     0.029 A 
ATOM     51  C   UNL A   1      46.135  26.395  29.349  1.00  0.00     0.049 A 
ATOM     52  H   UNL A   1      44.256  27.291  29.331  1.00  0.00     0.167 HD
ATOM     53  C   UNL A   1      40.286  29.081  29.235  1.00  0.00     0.031 A 
ATOM     54  C   UNL A   1      47.014  27.336  29.744  1.00  0.00     0.031 A 
ATOM     55  C   UNL A   1      41.141  30.130  29.721  1.00  0.00     0.049 A 
ATOM     56  C   UNL A   1      46.531  28.730  30.046  1.00  0.00     0.074 A 
ATOM     57  C   UNL A   1      40.797  31.410  30.118  1.00  0.00     0.029 A 
ATOM     58  N   UNL A   1      42.514  30.021  29.859  1.00  0.00    -0.354 N 
ATOM     59  N   UNL A   1      45.310  29.205  30.029  1.00  0.00    -0.248 NA
ATOM     60  C   UNL A   1      47.556  29.717  30.421  1.00  0.00     0.031 C 
ATOM     61  C   UNL A   1      41.971  32.092  30.455  1.00  0.00     0.029 A 
ATOM     62  C   UNL A   1      43.038  31.220  30.310  1.00  0.00     0.049 A 
ATOM     63  H   UNL A   1      43.041  29.211  29.666  1.00  0.00     0.167 HD
ATOM     64  C   UNL A   1      45.415  30.536  30.414  1.00  0.00     0.074 A 
ATOM     65  C   UNL A   1      46.819  30.792  30.665  1.00  0.00     0.031 C 
ATOM     66  C   UNL A   1      44.435  31.462  30.553  1.00  0.00     0.031 A 
BRANCH  53  67
ATOM     67  C   UNL A   1      38.821  29.363  29.088  1.00  0.00    -0.014 A 
ATOM     68  C   UNL A   1      38.280  29.752  27.853  1.00  0.00     0.009 A 
ATOM     69  C   UNL A   1      37.970  29.233  30.196  1.00  0.00     0.009 A 
ATOM     70  C   UNL A   1      36.918  30.035  27.738  1.00  0.00     0.001 A 
ATOM     71  C   UNL A   1      36.606  29.498  30.074  1.00  0.00     0.001 A 
ATOM     72  C   UNL A   1      36.083  29.906  28.847  1.00  0.00     0.000 A 
ENDBRANCH  53  67
BRANCH  54  73
ATOM     73  C   UNL A   1      48.456  27.005  29.862  1.00  0.00    -0.014 A 
ATOM     74  C   UNL A   1      48.977  26.523  31.072  1.00  0.00     0.009 A 
ATOM     75  C   UNL A   1      49.322  27.198  28.775  1.00  0.00     0.009 A 
ATOM     76  C   UNL A   1      50.343  26.261  31.197  1.00  0.00     0.001 A 
ATOM     77  C   UNL A   1      50.683  26.914  28.897  1.00  0.00     0.001 A 
ATOM     78  C   UNL A   1      51.194  26.455  30.110  1.00  0.00     0.000 A 
ENDBRANCH  54  73
BRANCH  66  79
ATOM     79  C   UNL A   1      44.841  32.830  31.024  1.00  0.00    -0.014 A 
ATOM     80  C   UNL A   1      44.972  33.898  30.125  1.00  0.00     0.009 A 
ATOM     81  C   UNL A   1      45.049  33.060  32.393  1.00  0.00     0.009 A 
ATOM     82  C   UNL A   1      45.329  35.167  30.586  1.00  0.00     0.001 A 
ATOM     83  C   UNL A   1      45.384  34.334  32.853  1.00  0.00     0.001 A 
ATOM     84  C   UNL A   1      45.531  35.384  31.949  1.00  0.00     0.000 A 
ENDBRANCH  66  79
ENDBRANCH  40  41
ENDBRANCH  33  35
ENDBRANCH  32  33
ENDBRANCH  31  32
ENDBRANCH  30  31
ENDBRANCH  29  30
ENDBRANCH  28  29
ENDBRANCH   1  28
TORSDOF 19
ENDMDL
