MODEL 1
REMARK VINA RESULT:     -12.8      0.000      0.000
REMARK SMILES Cc1ccc(-c2cc(Cl)cc3c2O[C@@H](C(F)(F)F)C(C(=O)OCCOCCOCCOC(=O)c2ccc(-c4c5nc(c(-c6ccccc6)c6ccc([nH]6)c(-c6ccccc6)c6nc(c(-c7ccccc7)c7ccc4[nH]7)C=C6)C=C5)cc2)=C3)cc1
REMARK SMILES IDX 27 1 26 2 25 3 24 4 23 5 22 6 20 7 21 8 19 9 6 10 7 11 12 12
REMARK SMILES IDX 8 13 11 14 13 15 9 16 10 17 82 18 14 19 5 20 1 21 2 22 3 23
REMARK SMILES IDX 84 24 4 25 83 26 15 27 16 28 17 29 18 30 28 31 29 32 30 33
REMARK SMILES IDX 31 34 32 35 33 36 34 37 35 38 81 39 36 40 80 41 37 42 38 43
REMARK SMILES IDX 39 44 74 45 40 46 79 47 73 48 75 49 41 50 78 51 72 52 71 53
REMARK SMILES IDX 42 55 64 56 49 57 63 58 50 59 53 60 62 61 76 62 51 63 52 64
REMARK SMILES IDX 61 66 77 67 54 68 43 69 44 70 48 71 45 72 47 73 46 74 65 75
REMARK SMILES IDX 66 76 70 77 67 78 69 79 68 80 55 81 56 82 60 83 57 84 59 85
REMARK SMILES IDX 58 86
REMARK H PARENT 75 54 53 65
REMARK Flexibility Score: inf
ROOT
ATOM      1  C   UNL A   1      34.527  32.033  28.672  1.00  0.00     0.188 C 
ENDROOT
BRANCH   1   2
ATOM      2  C   UNL A   1      35.429  31.306  27.714  1.00  0.00     0.188 C 
BRANCH   2   3
ATOM      3  O   UNL A   1      35.419  29.872  27.623  1.00  0.00    -0.376 OA
BRANCH   3   4
ATOM      4  C   UNL A   1      34.477  28.947  26.988  1.00  0.00     0.202 C 
BRANCH   4   5
ATOM      5  C   UNL A   1      33.789  28.570  25.307  1.00  0.00     0.261 C 
BRANCH   5   6
ATOM      6  O   UNL A   1      33.925  27.021  24.154  1.00  0.00    -0.460 OA
BRANCH   6   7
ATOM      7  C   UNL A   1      33.394  26.443  22.685  1.00  0.00     0.338 C 
ATOM      8  O   UNL A   1      33.802  26.877  21.597  1.00  0.00    -0.246 OA
BRANCH   7   9
ATOM      9  C   UNL A   1      32.396  25.313  22.306  1.00  0.00     0.087 C 
ATOM     10  C   UNL A   1      34.038  22.021  24.595  1.00  0.00     0.026 A 
ATOM     11  C   UNL A   1      33.545  20.753  24.375  1.00  0.00     0.033 A 
ATOM     12  C   UNL A   1      33.384  23.111  23.722  1.00  0.00     0.135 A 
ATOM     13  C   UNL A   1      32.654  20.578  23.305  1.00  0.00     0.042 A 
ATOM     14  C   UNL A   1      32.909  22.884  22.445  1.00  0.00     0.019 A 
ATOM     15  O   UNL A   1      32.263  24.043  24.352  1.00  0.00    -0.475 OA
ATOM     16  Cl  UNL A   1      31.816  19.068  23.217  1.00  0.00    -0.084 Cl
ATOM     17  C   UNL A   1      32.410  21.585  22.304  1.00  0.00     0.032 A 
ATOM     18  C   UNL A   1      32.759  24.168  21.605  1.00  0.00     0.027 C 
ATOM     19  C   UNL A   1      31.476  24.866  23.362  1.00  0.00     0.316 C 
BRANCH  10  20
ATOM     20  C   UNL A   1      35.590  22.125  25.492  1.00  0.00    -0.015 A 
ATOM     21  C   UNL A   1      40.688  22.127  26.363  1.00  0.00     0.044 C 
ATOM     22  C   UNL A   1      39.233  22.147  25.971  1.00  0.00    -0.051 A 
ATOM     23  C   UNL A   1      38.433  23.651  26.336  1.00  0.00     0.004 A 
ATOM     24  C   UNL A   1      38.354  20.688  25.420  1.00  0.00     0.004 A 
ATOM     25  C   UNL A   1      36.661  23.732  26.149  1.00  0.00     0.009 A 
ATOM     26  C   UNL A   1      36.575  20.627  25.175  1.00  0.00     0.009 A 
ENDBRANCH  10  20
BRANCH  19  27
ATOM     27  C   UNL A   1      30.570  26.098  23.606  1.00  0.00     0.430 C 
ATOM     28  F   UNL A   1      29.300  25.693  23.945  1.00  0.00    -0.167 F 
ATOM     29  F   UNL A   1      30.987  26.820  24.672  1.00  0.00    -0.167 F 
ATOM     30  F   UNL A   1      30.436  26.925  22.566  1.00  0.00    -0.167 F 
ENDBRANCH  19  27
ENDBRANCH   7   9
ENDBRANCH   6   7
ENDBRANCH   5   6
ENDBRANCH   4   5
ENDBRANCH   3   4
ENDBRANCH   2   3
ENDBRANCH   1   2
BRANCH   1  31
ATOM     31  O   UNL A   1      33.850  33.030  27.949  1.00  0.00    -0.376 OA
BRANCH  31  32
ATOM     32  C   UNL A   1      33.699  34.247  28.639  1.00  0.00     0.202 C 
BRANCH  32  33
ATOM     33  C   UNL A   1      34.500  34.289  29.946  1.00  0.00     0.261 C 
BRANCH  33  34
ATOM     34  O   UNL A   1      33.623  34.205  31.091  1.00  0.00    -0.460 OA
BRANCH  34  35
ATOM     35  C   UNL A   1      34.052  34.892  32.193  1.00  0.00     0.338 C 
ATOM     36  O   UNL A   1      33.774  36.048  32.460  1.00  0.00    -0.246 OA
BRANCH  35  37
ATOM     37  C   UNL A   1      35.140  34.124  32.830  1.00  0.00     0.060 A 
ATOM     38  C   UNL A   1      36.331  34.652  33.285  1.00  0.00     0.016 A 
ATOM     39  C   UNL A   1      35.106  32.781  32.847  1.00  0.00     0.016 A 
ATOM     40  C   UNL A   1      37.567  33.862  33.242  1.00  0.00     0.010 A 
ATOM     41  C   UNL A   1      36.352  32.149  32.853  1.00  0.00     0.010 A 
ATOM     42  C   UNL A   1      37.740  32.650  32.677  1.00  0.00    -0.014 A 
BRANCH  42  43
ATOM     43  C   UNL A   1      39.380  31.782  32.362  1.00  0.00     0.031 A 
ATOM     44  C   UNL A   1      39.615  30.204  31.364  1.00  0.00     0.074 A 
ATOM     45  C   UNL A   1      40.621  32.226  32.757  1.00  0.00     0.049 A 
ATOM     46  N   UNL A   1      40.642  29.408  31.380  1.00  0.00    -0.248 NA
ATOM     47  C   UNL A   1      38.506  29.358  30.516  1.00  0.00     0.031 C 
ATOM     48  C   UNL A   1      41.942  31.760  32.308  1.00  0.00     0.029 A 
ATOM     49  N   UNL A   1      40.998  33.208  33.691  1.00  0.00    -0.354 N 
ATOM     50  C   UNL A   1      40.392  28.327  30.524  1.00  0.00     0.074 A 
ATOM     51  C   UNL A   1      39.021  28.181  30.291  1.00  0.00     0.031 C 
ATOM     52  C   UNL A   1      42.882  32.173  33.181  1.00  0.00     0.029 A 
ATOM     53  C   UNL A   1      42.172  32.752  34.311  1.00  0.00     0.049 A 
ATOM     54  H   UNL A   1      40.528  34.054  33.874  1.00  0.00     0.167 HD
ATOM     55  C   UNL A   1      41.405  27.732  29.868  1.00  0.00     0.031 A 
ATOM     56  C   UNL A   1      42.189  32.337  35.618  1.00  0.00     0.031 A 
ATOM     57  C   UNL A   1      42.609  27.983  30.617  1.00  0.00     0.049 A 
ATOM     58  C   UNL A   1      42.725  30.861  35.694  1.00  0.00     0.074 A 
ATOM     59  C   UNL A   1      43.685  28.835  30.491  1.00  0.00     0.029 A 
ATOM     60  N   UNL A   1      42.532  27.665  31.962  1.00  0.00    -0.354 N 
ATOM     61  N   UNL A   1      42.993  30.107  34.646  1.00  0.00    -0.248 NA
ATOM     62  C   UNL A   1      43.002  30.107  36.920  1.00  0.00     0.031 C 
ATOM     63  C   UNL A   1      44.266  28.985  31.794  1.00  0.00     0.029 A 
ATOM     64  C   UNL A   1      43.562  28.199  32.687  1.00  0.00     0.049 A 
ATOM     65  H   UNL A   1      41.817  27.115  32.354  1.00  0.00     0.167 HD
ATOM     66  C   UNL A   1      43.359  28.831  35.010  1.00  0.00     0.074 A 
ATOM     67  C   UNL A   1      43.343  28.886  36.459  1.00  0.00     0.031 C 
ATOM     68  C   UNL A   1      43.611  27.833  34.098  1.00  0.00     0.031 A 
BRANCH  55  69
ATOM     69  C   UNL A   1      41.249  27.186  28.461  1.00  0.00    -0.014 A 
ATOM     70  C   UNL A   1      41.717  25.892  28.221  1.00  0.00     0.009 A 
ATOM     71  C   UNL A   1      40.826  27.898  27.306  1.00  0.00     0.009 A 
ATOM     72  C   UNL A   1      41.808  25.365  26.924  1.00  0.00     0.001 A 
ATOM     73  C   UNL A   1      40.897  27.374  26.008  1.00  0.00     0.001 A 
ATOM     74  C   UNL A   1      41.407  26.105  25.817  1.00  0.00     0.000 A 
ENDBRANCH  55  69
BRANCH  56  75
ATOM     75  C   UNL A   1      41.009  33.025  36.540  1.00  0.00    -0.014 A 
ATOM     76  C   UNL A   1      38.996  33.239  36.655  1.00  0.00     0.009 A 
ATOM     77  C   UNL A   1      41.870  33.614  38.017  1.00  0.00     0.009 A 
ATOM     78  C   UNL A   1      38.195  33.940  38.073  1.00  0.00     0.001 A 
ATOM     79  C   UNL A   1      40.844  34.299  39.370  1.00  0.00     0.001 A 
ATOM     80  C   UNL A   1      39.124  34.442  39.369  1.00  0.00     0.000 A 
ENDBRANCH  56  75
BRANCH  68  81
ATOM     81  C   UNL A   1      43.882  26.348  34.383  1.00  0.00    -0.014 A 
ATOM     82  C   UNL A   1      43.002  25.516  35.074  1.00  0.00     0.009 A 
ATOM     83  C   UNL A   1      45.147  25.766  34.073  1.00  0.00     0.009 A 
ATOM     84  C   UNL A   1      43.358  24.193  35.408  1.00  0.00     0.001 A 
ATOM     85  C   UNL A   1      45.513  24.461  34.409  1.00  0.00     0.001 A 
ATOM     86  C   UNL A   1      44.608  23.667  35.080  1.00  0.00     0.000 A 
ENDBRANCH  68  81
ENDBRANCH  42  43
ENDBRANCH  35  37
ENDBRANCH  34  35
ENDBRANCH  33  34
ENDBRANCH  32  33
ENDBRANCH  31  32
ENDBRANCH   1  31
TORSDOF 19
ENDMDL
MODEL 2
REMARK VINA RESULT:     -11.9      1.837      2.695
REMARK SMILES Cc1ccc(-c2cc(Cl)cc3c2O[C@@H](C(F)(F)F)C(C(=O)OCCOCCOCCOC(=O)c2ccc(-c4c5nc(c(-c6ccccc6)c6ccc([nH]6)c(-c6ccccc6)c6nc(c(-c7ccccc7)c7ccc4[nH]7)C=C6)C=C5)cc2)=C3)cc1
REMARK SMILES IDX 27 1 26 2 25 3 24 4 23 5 22 6 20 7 21 8 19 9 6 10 7 11 12 12
REMARK SMILES IDX 8 13 11 14 13 15 9 16 10 17 82 18 14 19 5 20 1 21 2 22 3 23
REMARK SMILES IDX 84 24 4 25 83 26 15 27 16 28 17 29 18 30 28 31 29 32 30 33
REMARK SMILES IDX 31 34 32 35 33 36 34 37 35 38 81 39 36 40 80 41 37 42 38 43
REMARK SMILES IDX 39 44 74 45 40 46 79 47 73 48 75 49 41 50 78 51 72 52 71 53
REMARK SMILES IDX 42 55 64 56 49 57 63 58 50 59 53 60 62 61 76 62 51 63 52 64
REMARK SMILES IDX 61 66 77 67 54 68 43 69 44 70 48 71 45 72 47 73 46 74 65 75
REMARK SMILES IDX 66 76 70 77 67 78 69 79 68 80 55 81 56 82 60 83 57 84 59 85
REMARK SMILES IDX 58 86
REMARK H PARENT 75 54 53 65
REMARK Flexibility Score: inf
ROOT
ATOM      1  C   UNL A   1      33.015  31.875  27.891  1.00  0.00     0.188 C 
ENDROOT
BRANCH   1   2
ATOM      2  C   UNL A   1      32.641  30.571  27.243  1.00  0.00     0.188 C 
BRANCH   2   3
ATOM      3  O   UNL A   1      33.559  29.875  26.383  1.00  0.00    -0.376 OA
BRANCH   3   4
ATOM      4  C   UNL A   1      33.333  28.975  25.250  1.00  0.00     0.202 C 
BRANCH   4   5
ATOM      5  C   UNL A   1      33.947  27.352  24.597  1.00  0.00     0.261 C 
BRANCH   5   6
ATOM      6  O   UNL A   1      33.901  26.547  22.836  1.00  0.00    -0.460 OA
BRANCH   6   7
ATOM      7  C   UNL A   1      33.112  25.363  21.969  1.00  0.00     0.338 C 
ATOM      8  O   UNL A   1      33.232  25.227  20.742  1.00  0.00    -0.246 OA
BRANCH   7   9
ATOM      9  C   UNL A   1      32.159  24.213  22.400  1.00  0.00     0.087 C 
ATOM     10  C   UNL A   1      34.821  21.889  24.906  1.00  0.00     0.026 A 
ATOM     11  C   UNL A   1      34.407  20.646  25.336  1.00  0.00     0.033 A 
ATOM     12  C   UNL A   1      33.796  22.622  24.018  1.00  0.00     0.135 A 
ATOM     13  C   UNL A   1      33.213  20.137  24.801  1.00  0.00     0.042 A 
ATOM     14  C   UNL A   1      32.919  21.974  23.169  1.00  0.00     0.019 A 
ATOM     15  O   UNL A   1      32.890  23.761  24.653  1.00  0.00    -0.475 OA
ATOM     16  Cl  UNL A   1      32.549  18.730  25.555  1.00  0.00    -0.084 Cl
ATOM     17  C   UNL A   1      32.531  20.730  23.679  1.00  0.00     0.032 A 
ATOM     18  C   UNL A   1      32.356  22.880  22.056  1.00  0.00     0.027 C 
ATOM     19  C   UNL A   1      31.725  24.208  23.804  1.00  0.00     0.316 C 
BRANCH  10  20
ATOM     20  C   UNL A   1      36.573  22.242  25.074  1.00  0.00    -0.015 A 
ATOM     21  C   UNL A   1      41.036  23.674  27.261  1.00  0.00     0.044 C 
ATOM     22  C   UNL A   1      39.683  23.242  26.756  1.00  0.00    -0.051 A 
ATOM     23  C   UNL A   1      39.636  21.585  26.221  1.00  0.00     0.004 A 
ATOM     24  C   UNL A   1      38.330  24.386  26.497  1.00  0.00     0.004 A 
ATOM     25  C   UNL A   1      38.172  21.011  25.378  1.00  0.00     0.009 A 
ATOM     26  C   UNL A   1      36.794  23.946  25.677  1.00  0.00     0.009 A 
ENDBRANCH  10  20
BRANCH  19  27
ATOM     27  C   UNL A   1      30.852  25.482  23.924  1.00  0.00     0.430 C 
ATOM     28  F   UNL A   1      29.613  25.162  24.427  1.00  0.00    -0.167 F 
ATOM     29  F   UNL A   1      31.364  26.354  24.823  1.00  0.00    -0.167 F 
ATOM     30  F   UNL A   1      30.636  26.136  22.780  1.00  0.00    -0.167 F 
ENDBRANCH  19  27
ENDBRANCH   7   9
ENDBRANCH   6   7
ENDBRANCH   5   6
ENDBRANCH   4   5
ENDBRANCH   3   4
ENDBRANCH   2   3
ENDBRANCH   1   2
BRANCH   1  31
ATOM     31  O   UNL A   1      34.331  32.183  27.508  1.00  0.00    -0.376 OA
BRANCH  31  32
ATOM     32  C   UNL A   1      34.777  33.450  27.925  1.00  0.00     0.202 C 
BRANCH  32  33
ATOM     33  C   UNL A   1      34.347  33.785  29.358  1.00  0.00     0.261 C 
BRANCH  33  34
ATOM     34  O   UNL A   1      35.499  33.943  30.217  1.00  0.00    -0.460 OA
BRANCH  34  35
ATOM     35  C   UNL A   1      35.824  32.836  30.951  1.00  0.00     0.338 C 
ATOM     36  O   UNL A   1      35.405  32.576  32.065  1.00  0.00    -0.246 OA
BRANCH  35  37
ATOM     37  C   UNL A   1      36.987  32.180  30.320  1.00  0.00     0.060 A 
ATOM     38  C   UNL A   1      37.161  30.818  30.183  1.00  0.00     0.016 A 
ATOM     39  C   UNL A   1      38.073  32.896  29.984  1.00  0.00     0.016 A 
ATOM     40  C   UNL A   1      38.502  30.224  30.223  1.00  0.00     0.010 A 
ATOM     41  C   UNL A   1      39.284  32.201  30.014  1.00  0.00     0.010 A 
ATOM     42  C   UNL A   1      39.661  30.851  30.506  1.00  0.00    -0.014 A 
BRANCH  42  43
ATOM     43  C   UNL A   1      41.323  30.035  30.848  1.00  0.00     0.031 A 
ATOM     44  C   UNL A   1      41.999  28.509  29.981  1.00  0.00     0.074 A 
ATOM     45  C   UNL A   1      42.285  30.491  31.721  1.00  0.00     0.049 A 
ATOM     46  N   UNL A   1      42.964  27.737  30.383  1.00  0.00    -0.248 NA
ATOM     47  C   UNL A   1      41.355  27.674  28.734  1.00  0.00     0.031 C 
ATOM     48  C   UNL A   1      43.692  30.077  31.825  1.00  0.00     0.029 A 
ATOM     49  N   UNL A   1      42.219  31.440  32.758  1.00  0.00    -0.354 N 
ATOM     50  C   UNL A   1      43.120  26.689  29.466  1.00  0.00     0.074 A 
ATOM     51  C   UNL A   1      41.963  26.520  28.699  1.00  0.00     0.031 C 
ATOM     52  C   UNL A   1      44.187  30.473  33.014  1.00  0.00     0.029 A 
ATOM     53  C   UNL A   1      43.064  30.986  33.782  1.00  0.00     0.049 A 
ATOM     54  H   UNL A   1      41.681  32.266  32.763  1.00  0.00     0.167 HD
ATOM     55  C   UNL A   1      44.333  26.146  29.253  1.00  0.00     0.031 A 
ATOM     56  C   UNL A   1      42.572  30.515  34.973  1.00  0.00     0.031 A 
ATOM     57  C   UNL A   1      45.126  26.393  30.430  1.00  0.00     0.049 A 
ATOM     58  C   UNL A   1      43.091  29.049  35.212  1.00  0.00     0.074 A 
ATOM     59  C   UNL A   1      46.128  27.275  30.771  1.00  0.00     0.029 A 
ATOM     60  N   UNL A   1      44.531  26.015  31.621  1.00  0.00    -0.354 N 
ATOM     61  N   UNL A   1      43.785  28.349  34.338  1.00  0.00    -0.248 NA
ATOM     62  C   UNL A   1      42.884  28.250  36.423  1.00  0.00     0.031 C 
ATOM     63  C   UNL A   1      46.134  27.382  32.202  1.00  0.00     0.029 A 
ATOM     64  C   UNL A   1      45.163  26.541  32.714  1.00  0.00     0.049 A 
ATOM     65  H   UNL A   1      43.740  25.432  31.676  1.00  0.00     0.167 HD
ATOM     66  C   UNL A   1      44.024  27.066  34.778  1.00  0.00     0.074 A 
ATOM     67  C   UNL A   1      43.428  27.058  36.100  1.00  0.00     0.031 C 
ATOM     68  C   UNL A   1      44.658  26.115  34.014  1.00  0.00     0.031 A 
BRANCH  55  69
ATOM     69  C   UNL A   1      44.774  25.659  27.886  1.00  0.00    -0.014 A 
ATOM     70  C   UNL A   1      44.708  24.286  27.645  1.00  0.00     0.009 A 
ATOM     71  C   UNL A   1      45.403  26.422  26.865  1.00  0.00     0.009 A 
ATOM     72  C   UNL A   1      45.274  23.706  26.499  1.00  0.00     0.001 A 
ATOM     73  C   UNL A   1      45.955  25.854  25.708  1.00  0.00     0.001 A 
ATOM     74  C   UNL A   1      45.904  24.485  25.535  1.00  0.00     0.000 A 
ENDBRANCH  55  69
BRANCH  56  75
ATOM     75  C   UNL A   1      41.097  31.134  35.365  1.00  0.00    -0.014 A 
ATOM     76  C   UNL A   1      39.115  30.874  35.020  1.00  0.00     0.009 A 
ATOM     77  C   UNL A   1      41.437  32.323  36.684  1.00  0.00     0.009 A 
ATOM     78  C   UNL A   1      37.871  31.745  35.936  1.00  0.00     0.001 A 
ATOM     79  C   UNL A   1      39.998  33.104  37.502  1.00  0.00     0.001 A 
ATOM     80  C   UNL A   1      38.337  32.817  37.131  1.00  0.00     0.000 A 
ENDBRANCH  56  75
BRANCH  68  81
ATOM     81  C   UNL A   1      44.851  24.627  34.339  1.00  0.00    -0.014 A 
ATOM     82  C   UNL A   1      46.091  24.041  34.593  1.00  0.00     0.009 A 
ATOM     83  C   UNL A   1      43.758  23.714  34.253  1.00  0.00     0.009 A 
ATOM     84  C   UNL A   1      46.217  22.647  34.770  1.00  0.00     0.001 A 
ATOM     85  C   UNL A   1      43.875  22.333  34.415  1.00  0.00     0.001 A 
ATOM     86  C   UNL A   1      45.116  21.796  34.678  1.00  0.00     0.000 A 
ENDBRANCH  68  81
ENDBRANCH  42  43
ENDBRANCH  35  37
ENDBRANCH  34  35
ENDBRANCH  33  34
ENDBRANCH  32  33
ENDBRANCH  31  32
ENDBRANCH   1  31
TORSDOF 19
ENDMDL
MODEL 3
REMARK VINA RESULT:     -11.8      4.440      8.903
REMARK SMILES Cc1ccc(-c2cc(Cl)cc3c2O[C@@H](C(F)(F)F)C(C(=O)OCCOCCOCCOC(=O)c2ccc(-c4c5nc(c(-c6ccccc6)c6ccc([nH]6)c(-c6ccccc6)c6nc(c(-c7ccccc7)c7ccc4[nH]7)C=C6)C=C5)cc2)=C3)cc1
REMARK SMILES IDX 27 1 26 2 25 3 24 4 23 5 22 6 20 7 21 8 19 9 6 10 7 11 12 12
REMARK SMILES IDX 8 13 11 14 13 15 9 16 10 17 82 18 14 19 5 20 1 21 2 22 3 23
REMARK SMILES IDX 84 24 4 25 83 26 15 27 16 28 17 29 18 30 28 31 29 32 30 33
REMARK SMILES IDX 31 34 32 35 33 36 34 37 35 38 81 39 36 40 80 41 37 42 38 43
REMARK SMILES IDX 39 44 74 45 40 46 79 47 73 48 75 49 41 50 78 51 72 52 71 53
REMARK SMILES IDX 42 55 64 56 49 57 63 58 50 59 53 60 62 61 76 62 51 63 52 64
REMARK SMILES IDX 61 66 77 67 54 68 43 69 44 70 48 71 45 72 47 73 46 74 65 75
REMARK SMILES IDX 66 76 70 77 67 78 69 79 68 80 55 81 56 82 60 83 57 84 59 85
REMARK SMILES IDX 58 86
REMARK H PARENT 75 54 53 65
REMARK Flexibility Score: inf
ROOT
ATOM      1  C   UNL A   1      37.244  33.634  31.314  1.00  0.00     0.188 C 
ENDROOT
BRANCH   1   2
ATOM      2  C   UNL A   1      36.276  33.289  30.217  1.00  0.00     0.188 C 
BRANCH   2   3
ATOM      3  O   UNL A   1      36.614  32.336  29.196  1.00  0.00    -0.376 OA
BRANCH   3   4
ATOM      4  C   UNL A   1      35.866  31.207  28.637  1.00  0.00     0.202 C 
BRANCH   4   5
ATOM      5  C   UNL A   1      36.161  29.697  27.601  1.00  0.00     0.261 C 
BRANCH   5   6
ATOM      6  O   UNL A   1      34.986  28.597  26.525  1.00  0.00    -0.460 OA
BRANCH   6   7
ATOM      7  C   UNL A   1      34.072  28.648  25.132  1.00  0.00     0.338 C 
ATOM      8  O   UNL A   1      34.314  27.952  24.135  1.00  0.00    -0.246 OA
BRANCH   7   9
ATOM      9  C   UNL A   1      32.794  29.447  24.752  1.00  0.00     0.087 C 
ATOM     10  C   UNL A   1      29.885  26.241  24.591  1.00  0.00     0.026 A 
ATOM     11  C   UNL A   1      28.633  26.509  24.081  1.00  0.00     0.033 A 
ATOM     12  C   UNL A   1      30.837  27.453  24.595  1.00  0.00     0.135 A 
ATOM     13  C   UNL A   1      28.427  27.765  23.491  1.00  0.00     0.042 A 
ATOM     14  C   UNL A   1      30.798  28.459  23.647  1.00  0.00     0.019 A 
ATOM     15  O   UNL A   1      31.071  28.255  25.946  1.00  0.00    -0.475 OA
ATOM     16  Cl  UNL A   1      26.795  28.206  23.125  1.00  0.00    -0.084 Cl
ATOM     17  C   UNL A   1      29.495  28.685  23.190  1.00  0.00     0.032 A 
ATOM     18  C   UNL A   1      32.104  29.272  23.557  1.00  0.00     0.027 C 
ATOM     19  C   UNL A   1      31.768  29.585  25.795  1.00  0.00     0.316 C 
BRANCH  10  20
ATOM     20  C   UNL A   1      30.323  24.507  24.746  1.00  0.00    -0.015 A 
ATOM     21  C   UNL A   1      33.132  20.175  24.426  1.00  0.00     0.044 C 
ATOM     22  C   UNL A   1      32.435  21.509  24.503  1.00  0.00    -0.051 A 
ATOM     23  C   UNL A   1      32.019  21.987  26.125  1.00  0.00     0.004 A 
ATOM     24  C   UNL A   1      31.868  22.395  23.054  1.00  0.00     0.004 A 
ATOM     25  C   UNL A   1      30.982  23.422  26.344  1.00  0.00     0.009 A 
ATOM     26  C   UNL A   1      30.832  23.861  23.122  1.00  0.00     0.009 A 
ENDBRANCH  10  20
BRANCH  19  27
ATOM     27  C   UNL A   1      32.452  30.465  26.870  1.00  0.00     0.430 C 
ATOM     28  F   UNL A   1      33.562  31.081  26.343  1.00  0.00    -0.167 F 
ATOM     29  F   UNL A   1      31.654  31.487  27.259  1.00  0.00    -0.167 F 
ATOM     30  F   UNL A   1      32.865  29.816  27.961  1.00  0.00    -0.167 F 
ENDBRANCH  19  27
ENDBRANCH   7   9
ENDBRANCH   6   7
ENDBRANCH   5   6
ENDBRANCH   4   5
ENDBRANCH   3   4
ENDBRANCH   2   3
ENDBRANCH   1   2
BRANCH   1  31
ATOM     31  O   UNL A   1      37.110  32.666  32.324  1.00  0.00    -0.376 OA
BRANCH  31  32
ATOM     32  C   UNL A   1      38.210  31.798  32.445  1.00  0.00     0.202 C 
BRANCH  32  33
ATOM     33  C   UNL A   1      37.844  30.471  33.120  1.00  0.00     0.261 C 
BRANCH  33  34
ATOM     34  O   UNL A   1      38.386  29.352  32.385  1.00  0.00    -0.460 OA
BRANCH  34  35
ATOM     35  C   UNL A   1      37.774  29.101  31.188  1.00  0.00     0.338 C 
ATOM     36  O   UNL A   1      36.576  28.960  31.021  1.00  0.00    -0.246 OA
BRANCH  35  37
ATOM     37  C   UNL A   1      38.807  28.720  30.203  1.00  0.00     0.060 A 
ATOM     38  C   UNL A   1      39.251  27.435  29.966  1.00  0.00     0.016 A 
ATOM     39  C   UNL A   1      39.531  29.663  29.578  1.00  0.00     0.016 A 
ATOM     40  C   UNL A   1      40.640  27.183  29.567  1.00  0.00     0.010 A 
ATOM     41  C   UNL A   1      40.822  29.280  29.205  1.00  0.00     0.010 A 
ATOM     42  C   UNL A   1      41.644  28.079  29.503  1.00  0.00    -0.014 A 
BRANCH  42  43
ATOM     43  C   UNL A   1      43.475  27.700  29.283  1.00  0.00     0.031 A 
ATOM     44  C   UNL A   1      44.819  28.957  28.891  1.00  0.00     0.074 A 
ATOM     45  C   UNL A   1      44.075  26.473  29.453  1.00  0.00     0.049 A 
ATOM     46  N   UNL A   1      46.009  28.718  28.426  1.00  0.00    -0.248 NA
ATOM     47  C   UNL A   1      44.694  30.580  28.767  1.00  0.00     0.031 C 
ATOM     48  C   UNL A   1      45.508  26.168  29.578  1.00  0.00     0.029 A 
ATOM     49  N   UNL A   1      43.528  25.180  29.534  1.00  0.00    -0.354 N 
ATOM     50  C   UNL A   1      46.674  29.936  28.234  1.00  0.00     0.074 A 
ATOM     51  C   UNL A   1      45.765  30.995  28.148  1.00  0.00     0.031 C 
ATOM     52  C   UNL A   1      45.705  24.853  29.359  1.00  0.00     0.029 A 
ATOM     53  C   UNL A   1      44.433  24.313  28.903  1.00  0.00     0.049 A 
ATOM     54  H   UNL A   1      42.672  24.930  29.954  1.00  0.00     0.167 HD
ATOM     55  C   UNL A   1      48.010  30.011  28.379  1.00  0.00     0.031 A 
ATOM     56  C   UNL A   1      44.153  23.722  27.697  1.00  0.00     0.031 A 
ATOM     57  C   UNL A   1      48.540  28.690  28.160  1.00  0.00     0.049 A 
ATOM     58  C   UNL A   1      45.273  24.094  26.657  1.00  0.00     0.074 A 
ATOM     59  C   UNL A   1      49.008  27.674  28.965  1.00  0.00     0.029 A 
ATOM     60  N   UNL A   1      48.125  28.085  26.987  1.00  0.00    -0.354 N 
ATOM     61  N   UNL A   1      46.255  24.943  26.885  1.00  0.00    -0.248 NA
ATOM     62  C   UNL A   1      45.394  23.563  25.296  1.00  0.00     0.031 C 
ATOM     63  C   UNL A   1      48.891  26.453  28.222  1.00  0.00     0.029 A 
ATOM     64  C   UNL A   1      48.389  26.743  26.966  1.00  0.00     0.049 A 
ATOM     65  H   UNL A   1      47.689  28.567  26.248  1.00  0.00     0.167 HD
ATOM     66  C   UNL A   1      47.032  25.144  25.767  1.00  0.00     0.074 A 
ATOM     67  C   UNL A   1      46.440  24.250  24.792  1.00  0.00     0.031 C 
ATOM     68  C   UNL A   1      48.070  26.045  25.726  1.00  0.00     0.031 A 
BRANCH  55  69
ATOM     69  C   UNL A   1      48.695  31.234  28.961  1.00  0.00    -0.014 A 
ATOM     70  C   UNL A   1      49.159  32.195  28.061  1.00  0.00     0.009 A 
ATOM     71  C   UNL A   1      49.067  31.446  30.316  1.00  0.00     0.009 A 
ATOM     72  C   UNL A   1      49.979  33.259  28.470  1.00  0.00     0.001 A 
ATOM     73  C   UNL A   1      49.869  32.515  30.737  1.00  0.00     0.001 A 
ATOM     74  C   UNL A   1      50.341  33.416  29.803  1.00  0.00     0.000 A 
ENDBRANCH  55  69
BRANCH  56  75
ATOM     75  C   UNL A   1      42.540  23.543  27.414  1.00  0.00    -0.014 A 
ATOM     76  C   UNL A   1      40.866  24.608  26.995  1.00  0.00     0.009 A 
ATOM     77  C   UNL A   1      42.299  21.757  27.270  1.00  0.00     0.009 A 
ATOM     78  C   UNL A   1      39.337  23.833  26.542  1.00  0.00     0.001 A 
ATOM     79  C   UNL A   1      40.634  21.171  26.782  1.00  0.00     0.001 A 
ATOM     80  C   UNL A   1      39.263  22.165  26.449  1.00  0.00     0.000 A 
ENDBRANCH  56  75
BRANCH  68  81
ATOM     81  C   UNL A   1      48.908  26.456  24.506  1.00  0.00    -0.014 A 
ATOM     82  C   UNL A   1      50.293  26.611  24.531  1.00  0.00     0.009 A 
ATOM     83  C   UNL A   1      48.278  26.851  23.289  1.00  0.00     0.009 A 
ATOM     84  C   UNL A   1      50.993  27.104  23.410  1.00  0.00     0.001 A 
ATOM     85  C   UNL A   1      48.960  27.351  22.179  1.00  0.00     0.001 A 
ATOM     86  C   UNL A   1      50.331  27.476  22.240  1.00  0.00     0.000 A 
ENDBRANCH  68  81
ENDBRANCH  42  43
ENDBRANCH  35  37
ENDBRANCH  34  35
ENDBRANCH  33  34
ENDBRANCH  32  33
ENDBRANCH  31  32
ENDBRANCH   1  31
TORSDOF 19
ENDMDL
