MODEL 1
REMARK VINA RESULT:      -9.7      0.000      0.000
REMARK SMILES O=C(OCCOCCOCCOC(=O)c1ccc(C[NH2+][C@@H]2CCCC[C@H]2O)nc1)c1ccc(-c2c3nc(c(-c4ccccc4)c4ccc([nH]4)c(-c4ccccc4)c4nc(c(-c5ccccc5)c5ccc2[nH]5)C=C4)C=C3)cc1
REMARK SMILES IDX 8 1 7 2 6 3 5 4 4 5 3 6 2 7 1 8 30 9 31 10 77 11 32 12 76 13
REMARK SMILES IDX 33 14 34 15 35 16 70 17 36 18 75 19 69 20 71 21 37 22 74 23
REMARK SMILES IDX 68 24 67 25 38 27 60 28 45 29 59 30 46 31 49 32 58 33 72 34
REMARK SMILES IDX 47 35 48 36 57 38 73 39 50 40 39 41 40 42 44 43 41 44 43 45
REMARK SMILES IDX 42 46 61 47 62 48 66 49 63 50 65 51 64 52 51 53 52 54 56 55
REMARK SMILES IDX 53 56 55 57 54 58 9 59 10 60 11 61 12 62 13 63 14 64 15 65
REMARK SMILES IDX 16 66 29 67 17 68 28 69 18 70 19 71 20 72 21 75 22 76 26 77
REMARK SMILES IDX 23 78 25 79 24 80 27 81
REMARK H PARENT 71 26 49 37 20 73 20 74 27 82
REMARK Flexibility Score: inf
ROOT
ATOM      1  C   UNL A   1      33.618  21.830  24.223  1.00  0.00     0.188 C 
ENDROOT
BRANCH   1   2
ATOM      2  C   UNL A   1      34.592  21.490  25.357  1.00  0.00     0.188 C 
BRANCH   2   3
ATOM      3  O   UNL A   1      35.419  20.369  25.010  1.00  0.00    -0.376 OA
BRANCH   3   4
ATOM      4  C   UNL A   1      36.820  20.661  25.045  1.00  0.00     0.202 C 
BRANCH   4   5
ATOM      5  C   UNL A   1      37.167  22.013  25.680  1.00  0.00     0.261 C 
BRANCH   5   6
ATOM      6  O   UNL A   1      38.552  22.347  25.507  1.00  0.00    -0.460 OA
BRANCH   6   7
ATOM      7  C   UNL A   1      39.466  22.657  26.461  1.00  0.00     0.338 C 
ATOM      8  O   UNL A   1      40.156  21.750  26.923  1.00  0.00    -0.246 OA
BRANCH   7   9
ATOM      9  C   UNL A   1      39.725  24.049  26.948  1.00  0.00     0.060 A 
ATOM     10  C   UNL A   1      40.383  25.048  26.230  1.00  0.00     0.016 A 
ATOM     11  C   UNL A   1      39.219  24.383  28.218  1.00  0.00     0.016 A 
ATOM     12  C   UNL A   1      40.660  26.287  26.801  1.00  0.00     0.010 A 
ATOM     13  C   UNL A   1      39.432  25.651  28.772  1.00  0.00     0.010 A 
ATOM     14  C   UNL A   1      40.199  26.593  28.081  1.00  0.00    -0.014 A 
BRANCH  14  15
ATOM     15  C   UNL A   1      40.624  27.864  28.704  1.00  0.00     0.031 A 
ATOM     16  C   UNL A   1      39.632  28.981  28.824  1.00  0.00     0.074 A 
ATOM     17  C   UNL A   1      41.838  27.964  29.271  1.00  0.00     0.049 A 
ATOM     18  N   UNL A   1      39.781  30.162  29.365  1.00  0.00    -0.248 NA
ATOM     19  C   UNL A   1      38.284  28.724  28.290  1.00  0.00     0.031 C 
ATOM     20  C   UNL A   1      42.833  26.894  29.318  1.00  0.00     0.029 A 
ATOM     21  N   UNL A   1      42.429  29.000  29.947  1.00  0.00    -0.354 N 
ATOM     22  C   UNL A   1      38.550  30.789  29.233  1.00  0.00     0.074 A 
ATOM     23  C   UNL A   1      37.672  29.870  28.542  1.00  0.00     0.031 C 
ATOM     24  C   UNL A   1      43.902  27.321  30.007  1.00  0.00     0.029 A 
ATOM     25  C   UNL A   1      43.695  28.710  30.392  1.00  0.00     0.049 A 
ATOM     26  H   UNL A   1      41.988  29.867  30.097  1.00  0.00     0.167 HD
ATOM     27  C   UNL A   1      38.183  32.022  29.652  1.00  0.00     0.031 A 
ATOM     28  C   UNL A   1      44.597  29.487  31.019  1.00  0.00     0.031 A 
ATOM     29  C   UNL A   1      39.071  32.939  30.311  1.00  0.00     0.049 A 
ATOM     30  C   UNL A   1      44.215  30.898  31.353  1.00  0.00     0.074 A 
ATOM     31  C   UNL A   1      38.827  34.236  30.725  1.00  0.00     0.029 A 
ATOM     32  N   UNL A   1      40.386  32.649  30.646  1.00  0.00    -0.354 N 
ATOM     33  N   UNL A   1      43.062  31.499  31.180  1.00  0.00    -0.248 NA
ATOM     34  C   UNL A   1      45.253  31.738  31.963  1.00  0.00     0.031 C 
ATOM     35  C   UNL A   1      40.011  34.746  31.272  1.00  0.00     0.029 A 
ATOM     36  C   UNL A   1      40.977  33.750  31.240  1.00  0.00     0.049 A 
ATOM     37  H   UNL A   1      40.832  31.787  30.485  1.00  0.00     0.167 HD
ATOM     38  C   UNL A   1      43.229  32.785  31.670  1.00  0.00     0.074 A 
ATOM     39  C   UNL A   1      44.591  32.870  32.163  1.00  0.00     0.031 C 
ATOM     40  C   UNL A   1      42.336  33.805  31.711  1.00  0.00     0.031 A 
BRANCH  27  41
ATOM     41  C   UNL A   1      36.780  32.447  29.335  1.00  0.00    -0.014 A 
ATOM     42  C   UNL A   1      36.473  33.115  28.138  1.00  0.00     0.009 A 
ATOM     43  C   UNL A   1      35.760  32.225  30.272  1.00  0.00     0.009 A 
ATOM     44  C   UNL A   1      35.180  33.590  27.908  1.00  0.00     0.001 A 
ATOM     45  C   UNL A   1      34.464  32.682  30.028  1.00  0.00     0.001 A 
ATOM     46  C   UNL A   1      34.177  33.376  28.854  1.00  0.00     0.000 A 
ENDBRANCH  27  41
BRANCH  28  47
ATOM     47  C   UNL A   1      45.952  28.955  31.319  1.00  0.00    -0.014 A 
ATOM     48  C   UNL A   1      46.174  28.127  32.429  1.00  0.00     0.009 A 
ATOM     49  C   UNL A   1      47.033  29.267  30.478  1.00  0.00     0.009 A 
ATOM     50  C   UNL A   1      47.455  27.634  32.695  1.00  0.00     0.001 A 
ATOM     51  C   UNL A   1      48.306  28.753  30.733  1.00  0.00     0.001 A 
ATOM     52  C   UNL A   1      48.517  27.941  31.846  1.00  0.00     0.000 A 
ENDBRANCH  28  47
BRANCH  40  53
ATOM     53  C   UNL A   1      42.809  35.088  32.326  1.00  0.00    -0.014 A 
ATOM     54  C   UNL A   1      43.525  36.029  31.573  1.00  0.00     0.009 A 
ATOM     55  C   UNL A   1      42.498  35.371  33.665  1.00  0.00     0.009 A 
ATOM     56  C   UNL A   1      43.948  37.223  32.161  1.00  0.00     0.001 A 
ATOM     57  C   UNL A   1      42.902  36.575  34.241  1.00  0.00     0.001 A 
ATOM     58  C   UNL A   1      43.632  37.496  33.491  1.00  0.00     0.000 A 
ENDBRANCH  40  53
ENDBRANCH  14  15
ENDBRANCH   7   9
ENDBRANCH   6   7
ENDBRANCH   5   6
ENDBRANCH   4   5
ENDBRANCH   3   4
ENDBRANCH   2   3
ENDBRANCH   1   2
BRANCH   1  59
ATOM     59  O   UNL A   1      32.254  21.484  24.475  1.00  0.00    -0.376 OA
BRANCH  59  60
ATOM     60  C   UNL A   1      31.734  21.816  25.759  1.00  0.00     0.202 C 
BRANCH  60  61
ATOM     61  C   UNL A   1      30.894  23.093  25.836  1.00  0.00     0.261 C 
BRANCH  61  62
ATOM     62  O   UNL A   1      31.493  24.150  26.608  1.00  0.00    -0.460 OA
BRANCH  62  63
ATOM     63  C   UNL A   1      32.414  24.880  25.930  1.00  0.00     0.339 C 
ATOM     64  O   UNL A   1      33.624  24.870  26.093  1.00  0.00    -0.246 OA
BRANCH  63  65
ATOM     65  C   UNL A   1      31.785  25.835  25.009  1.00  0.00     0.078 A 
ATOM     66  C   UNL A   1      31.399  27.076  25.516  1.00  0.00     0.019 A 
ATOM     67  C   UNL A   1      31.684  25.622  23.647  1.00  0.00     0.127 A 
ATOM     68  C   UNL A   1      30.962  28.065  24.643  1.00  0.00     0.031 A 
ATOM     69  N   UNL A   1      31.248  26.568  22.774  1.00  0.00    -0.254 NA
ATOM     70  C   UNL A   1      30.911  27.787  23.277  1.00  0.00     0.094 A 
BRANCH  70  71
ATOM     71  C   UNL A   1      30.576  28.907  22.302  1.00  0.00     0.318 C 
BRANCH  71  72
ATOM     72  N   UNL A   1      30.136  30.109  23.021  1.00  0.00    -0.337 N 
ATOM     73  H   UNL A   1      30.526  30.927  22.552  1.00  0.00     0.346 HD
ATOM     74  H   UNL A   1      30.467  30.026  23.982  1.00  0.00     0.346 HD
BRANCH  72  75
ATOM     75  C   UNL A   1      28.673  30.248  23.070  1.00  0.00     0.211 C 
ATOM     76  C   UNL A   1      28.112  30.125  21.641  1.00  0.00     0.068 C 
ATOM     77  C   UNL A   1      28.251  31.608  23.692  1.00  0.00     0.172 C 
ATOM     78  C   UNL A   1      28.486  31.312  20.752  1.00  0.00     0.006 C 
ATOM     79  C   UNL A   1      28.606  32.801  22.797  1.00  0.00     0.038 C 
ATOM     80  C   UNL A   1      28.067  32.639  21.376  1.00  0.00     0.003 C 
BRANCH  77  81
ATOM     81  O   UNL A   1      26.843  31.594  23.942  1.00  0.00    -0.387 OA
ATOM     82  H   UNL A   1      26.589  32.407  24.407  1.00  0.00     0.211 HD
ENDBRANCH  77  81
ENDBRANCH  72  75
ENDBRANCH  71  72
ENDBRANCH  70  71
ENDBRANCH  63  65
ENDBRANCH  62  63
ENDBRANCH  61  62
ENDBRANCH  60  61
ENDBRANCH  59  60
ENDBRANCH   1  59
TORSDOF 21
ENDMDL
MODEL 2
REMARK VINA RESULT:      -9.7      2.353      7.261
REMARK SMILES O=C(OCCOCCOCCOC(=O)c1ccc(C[NH2+][C@@H]2CCCC[C@H]2O)nc1)c1ccc(-c2c3nc(c(-c4ccccc4)c4ccc([nH]4)c(-c4ccccc4)c4nc(c(-c5ccccc5)c5ccc2[nH]5)C=C4)C=C3)cc1
REMARK SMILES IDX 8 1 7 2 6 3 5 4 4 5 3 6 2 7 1 8 30 9 31 10 77 11 32 12 76 13
REMARK SMILES IDX 33 14 34 15 35 16 70 17 36 18 75 19 69 20 71 21 37 22 74 23
REMARK SMILES IDX 68 24 67 25 38 27 60 28 45 29 59 30 46 31 49 32 58 33 72 34
REMARK SMILES IDX 47 35 48 36 57 38 73 39 50 40 39 41 40 42 44 43 41 44 43 45
REMARK SMILES IDX 42 46 61 47 62 48 66 49 63 50 65 51 64 52 51 53 52 54 56 55
REMARK SMILES IDX 53 56 55 57 54 58 9 59 10 60 11 61 12 62 13 63 14 64 15 65
REMARK SMILES IDX 16 66 29 67 17 68 28 69 18 70 19 71 20 72 21 75 22 76 26 77
REMARK SMILES IDX 23 78 25 79 24 80 27 81
REMARK H PARENT 71 26 49 37 20 73 20 74 27 82
REMARK Flexibility Score: inf
ROOT
ATOM      1  C   UNL A   1      33.695  24.745  26.038  1.00  0.00     0.188 C 
ENDROOT
BRANCH   1   2
ATOM      2  C   UNL A   1      32.659  25.870  26.136  1.00  0.00     0.188 C 
BRANCH   2   3
ATOM      3  O   UNL A   1      33.252  27.145  25.841  1.00  0.00    -0.376 OA
BRANCH   3   4
ATOM      4  C   UNL A   1      32.732  28.214  26.639  1.00  0.00     0.202 C 
BRANCH   4   5
ATOM      5  C   UNL A   1      33.369  29.580  26.355  1.00  0.00     0.261 C 
BRANCH   5   6
ATOM      6  O   UNL A   1      33.501  30.368  27.548  1.00  0.00    -0.460 OA
BRANCH   6   7
ATOM      7  C   UNL A   1      34.598  31.023  28.003  1.00  0.00     0.338 C 
ATOM      8  O   UNL A   1      34.523  32.239  28.170  1.00  0.00    -0.246 OA
BRANCH   7   9
ATOM      9  C   UNL A   1      35.882  30.345  28.370  1.00  0.00     0.060 A 
ATOM     10  C   UNL A   1      36.154  29.735  29.596  1.00  0.00     0.016 A 
ATOM     11  C   UNL A   1      36.876  30.284  27.376  1.00  0.00     0.016 A 
ATOM     12  C   UNL A   1      37.411  29.210  29.880  1.00  0.00     0.010 A 
ATOM     13  C   UNL A   1      38.120  29.695  27.631  1.00  0.00     0.010 A 
ATOM     14  C   UNL A   1      38.408  29.198  28.906  1.00  0.00    -0.014 A 
BRANCH  14  15
ATOM     15  C   UNL A   1      39.766  28.756  29.284  1.00  0.00     0.031 A 
ATOM     16  C   UNL A   1      40.234  27.399  28.854  1.00  0.00     0.074 A 
ATOM     17  C   UNL A   1      40.610  29.610  29.887  1.00  0.00     0.049 A 
ATOM     18  N   UNL A   1      41.394  26.826  29.045  1.00  0.00    -0.248 NA
ATOM     19  C   UNL A   1      39.278  26.588  28.080  1.00  0.00     0.031 C 
ATOM     20  C   UNL A   1      40.295  30.994  30.237  1.00  0.00     0.029 A 
ATOM     21  N   UNL A   1      41.915  29.455  30.278  1.00  0.00    -0.354 N 
ATOM     22  C   UNL A   1      41.305  25.589  28.421  1.00  0.00     0.074 A 
ATOM     23  C   UNL A   1      39.975  25.484  27.865  1.00  0.00     0.031 C 
ATOM     24  C   UNL A   1      41.384  31.569  30.771  1.00  0.00     0.029 A 
ATOM     25  C   UNL A   1      42.448  30.578  30.860  1.00  0.00     0.049 A 
ATOM     26  H   UNL A   1      42.419  28.619  30.155  1.00  0.00     0.167 HD
ATOM     27  C   UNL A   1      42.252  24.629  28.319  1.00  0.00     0.031 A 
ATOM     28  C   UNL A   1      43.653  30.779  31.424  1.00  0.00     0.031 A 
ATOM     29  C   UNL A   1      43.561  24.731  28.901  1.00  0.00     0.049 A 
ATOM     30  C   UNL A   1      44.640  29.650  31.419  1.00  0.00     0.074 A 
ATOM     31  C   UNL A   1      44.579  23.795  28.914  1.00  0.00     0.029 A 
ATOM     32  N   UNL A   1      44.028  25.845  29.582  1.00  0.00    -0.354 N 
ATOM     33  N   UNL A   1      44.530  28.465  30.868  1.00  0.00    -0.248 NA
ATOM     34  C   UNL A   1      45.912  29.881  32.115  1.00  0.00     0.031 C 
ATOM     35  C   UNL A   1      45.649  24.330  29.644  1.00  0.00     0.029 A 
ATOM     36  C   UNL A   1      45.312  25.615  30.043  1.00  0.00     0.049 A 
ATOM     37  H   UNL A   1      43.521  26.678  29.717  1.00  0.00     0.167 HD
ATOM     38  C   UNL A   1      45.722  27.811  31.138  1.00  0.00     0.074 A 
ATOM     39  C   UNL A   1      46.547  28.739  31.888  1.00  0.00     0.031 C 
ATOM     40  C   UNL A   1      46.102  26.555  30.795  1.00  0.00     0.031 A 
BRANCH  27  41
ATOM     41  C   UNL A   1      41.853  23.370  27.607  1.00  0.00    -0.014 A 
ATOM     42  C   UNL A   1      41.181  22.334  28.277  1.00  0.00     0.009 A 
ATOM     43  C   UNL A   1      42.204  23.195  26.260  1.00  0.00     0.009 A 
ATOM     44  C   UNL A   1      40.909  21.131  27.622  1.00  0.00     0.001 A 
ATOM     45  C   UNL A   1      41.911  21.999  25.603  1.00  0.00     0.001 A 
ATOM     46  C   UNL A   1      41.275  20.964  26.286  1.00  0.00     0.000 A 
ENDBRANCH  27  41
BRANCH  28  47
ATOM     47  C   UNL A   1      43.959  32.080  32.074  1.00  0.00    -0.014 A 
ATOM     48  C   UNL A   1      44.560  33.124  31.356  1.00  0.00     0.009 A 
ATOM     49  C   UNL A   1      43.633  32.285  33.425  1.00  0.00     0.009 A 
ATOM     50  C   UNL A   1      44.840  34.341  31.983  1.00  0.00     0.001 A 
ATOM     51  C   UNL A   1      43.892  33.511  34.042  1.00  0.00     0.001 A 
ATOM     52  C   UNL A   1      44.501  34.537  33.321  1.00  0.00     0.000 A 
ENDBRANCH  28  47
BRANCH  40  53
ATOM     53  C   UNL A   1      47.476  26.130  31.217  1.00  0.00    -0.014 A 
ATOM     54  C   UNL A   1      48.580  26.310  30.371  1.00  0.00     0.009 A 
ATOM     55  C   UNL A   1      47.670  25.576  32.492  1.00  0.00     0.009 A 
ATOM     56  C   UNL A   1      49.853  25.917  30.785  1.00  0.00     0.001 A 
ATOM     57  C   UNL A   1      48.948  25.207  32.911  1.00  0.00     0.001 A 
ATOM     58  C   UNL A   1      50.036  25.371  32.055  1.00  0.00     0.000 A 
ENDBRANCH  40  53
ENDBRANCH  14  15
ENDBRANCH   7   9
ENDBRANCH   6   7
ENDBRANCH   5   6
ENDBRANCH   4   5
ENDBRANCH   3   4
ENDBRANCH   2   3
ENDBRANCH   1   2
BRANCH   1  59
ATOM     59  O   UNL A   1      33.255  23.476  26.529  1.00  0.00    -0.376 OA
BRANCH  59  60
ATOM     60  C   UNL A   1      34.236  22.446  26.612  1.00  0.00     0.202 C 
BRANCH  60  61
ATOM     61  C   UNL A   1      33.819  21.075  26.072  1.00  0.00     0.261 C 
BRANCH  61  62
ATOM     62  O   UNL A   1      32.544  21.065  25.403  1.00  0.00    -0.460 OA
BRANCH  62  63
ATOM     63  C   UNL A   1      32.625  20.959  24.054  1.00  0.00     0.339 C 
ATOM     64  O   UNL A   1      32.832  19.943  23.408  1.00  0.00    -0.246 OA
BRANCH  63  65
ATOM     65  C   UNL A   1      32.564  22.270  23.396  1.00  0.00     0.078 A 
ATOM     66  C   UNL A   1      31.379  22.999  23.500  1.00  0.00     0.019 A 
ATOM     67  C   UNL A   1      33.656  22.874  22.802  1.00  0.00     0.127 A 
ATOM     68  C   UNL A   1      31.340  24.310  23.041  1.00  0.00     0.031 A 
ATOM     69  N   UNL A   1      33.641  24.150  22.335  1.00  0.00    -0.254 NA
ATOM     70  C   UNL A   1      32.490  24.863  22.477  1.00  0.00     0.094 A 
BRANCH  70  71
ATOM     71  C   UNL A   1      32.502  26.340  22.109  1.00  0.00     0.318 C 
BRANCH  71  72
ATOM     72  N   UNL A   1      31.150  26.907  22.187  1.00  0.00    -0.337 N 
ATOM     73  H   UNL A   1      30.480  26.140  22.247  1.00  0.00     0.346 HD
ATOM     74  H   UNL A   1      31.009  27.472  21.350  1.00  0.00     0.346 HD
BRANCH  72  75
ATOM     75  C   UNL A   1      30.960  27.788  23.350  1.00  0.00     0.211 C 
ATOM     76  C   UNL A   1      29.794  27.247  24.199  1.00  0.00     0.068 C 
ATOM     77  C   UNL A   1      30.668  29.250  22.915  1.00  0.00     0.172 C 
ATOM     78  C   UNL A   1      28.439  27.387  23.504  1.00  0.00     0.006 C 
ATOM     79  C   UNL A   1      29.302  29.401  22.235  1.00  0.00     0.038 C 
ATOM     80  C   UNL A   1      28.167  28.828  23.082  1.00  0.00     0.003 C 
BRANCH  77  81
ATOM     81  O   UNL A   1      30.733  30.104  24.060  1.00  0.00    -0.387 OA
ATOM     82  H   UNL A   1      30.438  30.995  23.817  1.00  0.00     0.211 HD
ENDBRANCH  77  81
ENDBRANCH  72  75
ENDBRANCH  71  72
ENDBRANCH  70  71
ENDBRANCH  63  65
ENDBRANCH  62  63
ENDBRANCH  61  62
ENDBRANCH  60  61
ENDBRANCH  59  60
ENDBRANCH   1  59
TORSDOF 21
ENDMDL
MODEL 3
REMARK VINA RESULT:      -9.6      3.601      9.299
REMARK SMILES O=C(OCCOCCOCCOC(=O)c1ccc(C[NH2+][C@@H]2CCCC[C@H]2O)nc1)c1ccc(-c2c3nc(c(-c4ccccc4)c4ccc([nH]4)c(-c4ccccc4)c4nc(c(-c5ccccc5)c5ccc2[nH]5)C=C4)C=C3)cc1
REMARK SMILES IDX 8 1 7 2 6 3 5 4 4 5 3 6 2 7 1 8 30 9 31 10 77 11 32 12 76 13
REMARK SMILES IDX 33 14 34 15 35 16 70 17 36 18 75 19 69 20 71 21 37 22 74 23
REMARK SMILES IDX 68 24 67 25 38 27 60 28 45 29 59 30 46 31 49 32 58 33 72 34
REMARK SMILES IDX 47 35 48 36 57 38 73 39 50 40 39 41 40 42 44 43 41 44 43 45
REMARK SMILES IDX 42 46 61 47 62 48 66 49 63 50 65 51 64 52 51 53 52 54 56 55
REMARK SMILES IDX 53 56 55 57 54 58 9 59 10 60 11 61 12 62 13 63 14 64 15 65
REMARK SMILES IDX 16 66 29 67 17 68 28 69 18 70 19 71 20 72 21 75 22 76 26 77
REMARK SMILES IDX 23 78 25 79 24 80 27 81
REMARK H PARENT 71 26 49 37 20 73 20 74 27 82
REMARK Flexibility Score: inf
ROOT
ATOM      1  C   UNL A   1      34.094  32.791  28.468  1.00  0.00     0.188 C 
ENDROOT
BRANCH   1   2
ATOM      2  C   UNL A   1      33.558  34.170  28.870  1.00  0.00     0.188 C 
BRANCH   2   3
ATOM      3  O   UNL A   1      34.397  34.782  29.861  1.00  0.00    -0.376 OA
BRANCH   3   4
ATOM      4  C   UNL A   1      33.680  35.235  31.015  1.00  0.00     0.202 C 
BRANCH   4   5
ATOM      5  C   UNL A   1      34.070  34.526  32.318  1.00  0.00     0.261 C 
BRANCH   5   6
ATOM      6  O   UNL A   1      34.639  33.230  32.073  1.00  0.00    -0.460 OA
BRANCH   6   7
ATOM      7  C   UNL A   1      35.691  32.645  32.698  1.00  0.00     0.338 C 
ATOM      8  O   UNL A   1      35.734  32.684  33.926  1.00  0.00    -0.246 OA
BRANCH   7   9
ATOM      9  C   UNL A   1      36.780  31.904  31.984  1.00  0.00     0.060 A 
ATOM     10  C   UNL A   1      37.726  31.076  32.590  1.00  0.00     0.016 A 
ATOM     11  C   UNL A   1      36.816  32.022  30.583  1.00  0.00     0.016 A 
ATOM     12  C   UNL A   1      38.759  30.500  31.856  1.00  0.00     0.010 A 
ATOM     13  C   UNL A   1      37.812  31.388  29.829  1.00  0.00     0.010 A 
ATOM     14  C   UNL A   1      38.818  30.663  30.473  1.00  0.00    -0.014 A 
BRANCH  14  15
ATOM     15  C   UNL A   1      39.999  30.151  29.747  1.00  0.00     0.031 A 
ATOM     16  C   UNL A   1      41.233  30.998  29.678  1.00  0.00     0.074 A 
ATOM     17  C   UNL A   1      40.007  28.893  29.274  1.00  0.00     0.049 A 
ATOM     18  N   UNL A   1      42.388  30.731  29.127  1.00  0.00    -0.248 NA
ATOM     19  C   UNL A   1      41.168  32.310  30.345  1.00  0.00     0.031 C 
ATOM     20  C   UNL A   1      38.902  27.943  29.397  1.00  0.00     0.029 A 
ATOM     21  N   UNL A   1      40.986  28.184  28.627  1.00  0.00    -0.354 N 
ATOM     22  C   UNL A   1      43.184  31.841  29.375  1.00  0.00     0.074 A 
ATOM     23  C   UNL A   1      42.377  32.793  30.106  1.00  0.00     0.031 C 
ATOM     24  C   UNL A   1      39.274  26.769  28.865  1.00  0.00     0.029 A 
ATOM     25  C   UNL A   1      40.612  26.903  28.307  1.00  0.00     0.049 A 
ATOM     26  H   UNL A   1      41.870  28.559  28.413  1.00  0.00     0.167 HD
ATOM     27  C   UNL A   1      44.474  32.047  29.026  1.00  0.00     0.031 A 
ATOM     28  C   UNL A   1      41.267  25.951  27.618  1.00  0.00     0.031 A 
ATOM     29  C   UNL A   1      45.258  31.108  28.273  1.00  0.00     0.049 A 
ATOM     30  C   UNL A   1      42.650  26.252  27.122  1.00  0.00     0.074 A 
ATOM     31  C   UNL A   1      46.555  31.236  27.810  1.00  0.00     0.029 A 
ATOM     32  N   UNL A   1      44.806  29.860  27.868  1.00  0.00    -0.354 N 
ATOM     33  N   UNL A   1      43.378  27.325  27.320  1.00  0.00    -0.248 NA
ATOM     34  C   UNL A   1      43.300  25.220  26.305  1.00  0.00     0.031 C 
ATOM     35  C   UNL A   1      46.872  30.080  27.085  1.00  0.00     0.029 A 
ATOM     36  C   UNL A   1      45.788  29.215  27.138  1.00  0.00     0.049 A 
ATOM     37  H   UNL A   1      43.917  29.489  28.071  1.00  0.00     0.167 HD
ATOM     38  C   UNL A   1      44.578  27.094  26.665  1.00  0.00     0.074 A 
ATOM     39  C   UNL A   1      44.484  25.771  26.078  1.00  0.00     0.031 C 
ATOM     40  C   UNL A   1      45.661  27.903  26.559  1.00  0.00     0.031 A 
BRANCH  27  41
ATOM     41  C   UNL A   1      45.067  33.372  29.406  1.00  0.00    -0.014 A 
ATOM     42  C   UNL A   1      44.989  34.480  28.546  1.00  0.00     0.009 A 
ATOM     43  C   UNL A   1      45.763  33.497  30.618  1.00  0.00     0.009 A 
ATOM     44  C   UNL A   1      45.633  35.674  28.876  1.00  0.00     0.001 A 
ATOM     45  C   UNL A   1      46.388  34.699  30.953  1.00  0.00     0.001 A 
ATOM     46  C   UNL A   1      46.334  35.782  30.077  1.00  0.00     0.000 A 
ENDBRANCH  27  41
BRANCH  28  47
ATOM     47  C   UNL A   1      40.599  24.656  27.325  1.00  0.00    -0.014 A 
ATOM     48  C   UNL A   1      41.054  23.461  27.899  1.00  0.00     0.009 A 
ATOM     49  C   UNL A   1      39.483  24.618  26.472  1.00  0.00     0.009 A 
ATOM     50  C   UNL A   1      40.413  22.252  27.613  1.00  0.00     0.001 A 
ATOM     51  C   UNL A   1      38.829  23.412  26.208  1.00  0.00     0.001 A 
ATOM     52  C   UNL A   1      39.299  22.229  26.774  1.00  0.00     0.000 A 
ENDBRANCH  28  47
BRANCH  40  53
ATOM     53  C   UNL A   1      46.831  27.362  25.794  1.00  0.00    -0.014 A 
ATOM     54  C   UNL A   1      46.991  27.639  24.429  1.00  0.00     0.009 A 
ATOM     55  C   UNL A   1      47.803  26.599  26.459  1.00  0.00     0.009 A 
ATOM     56  C   UNL A   1      48.093  27.136  23.735  1.00  0.00     0.001 A 
ATOM     57  C   UNL A   1      48.914  26.118  25.768  1.00  0.00     0.001 A 
ATOM     58  C   UNL A   1      49.054  26.381  24.406  1.00  0.00     0.000 A 
ENDBRANCH  40  53
ENDBRANCH  14  15
ENDBRANCH   7   9
ENDBRANCH   6   7
ENDBRANCH   5   6
ENDBRANCH   4   5
ENDBRANCH   3   4
ENDBRANCH   2   3
ENDBRANCH   1   2
BRANCH   1  59
ATOM     59  O   UNL A   1      33.382  32.153  27.405  1.00  0.00    -0.376 OA
BRANCH  59  60
ATOM     60  C   UNL A   1      33.414  30.729  27.375  1.00  0.00     0.202 C 
BRANCH  60  61
ATOM     61  C   UNL A   1      32.912  30.071  26.088  1.00  0.00     0.261 C 
BRANCH  61  62
ATOM     62  O   UNL A   1      31.626  29.435  26.211  1.00  0.00    -0.460 OA
BRANCH  62  63
ATOM     63  C   UNL A   1      31.675  28.176  26.714  1.00  0.00     0.339 C 
ATOM     64  O   UNL A   1      31.582  27.849  27.886  1.00  0.00    -0.246 OA
BRANCH  63  65
ATOM     65  C   UNL A   1      31.990  27.185  25.678  1.00  0.00     0.078 A 
ATOM     66  C   UNL A   1      33.333  26.961  25.374  1.00  0.00     0.019 A 
ATOM     67  C   UNL A   1      31.039  26.370  25.092  1.00  0.00     0.127 A 
ATOM     68  C   UNL A   1      33.677  25.913  24.528  1.00  0.00     0.031 A 
ATOM     69  N   UNL A   1      31.349  25.347  24.252  1.00  0.00    -0.254 NA
ATOM     70  C   UNL A   1      32.664  25.115  23.994  1.00  0.00     0.094 A 
BRANCH  70  71
ATOM     71  C   UNL A   1      33.039  23.879  23.189  1.00  0.00     0.318 C 
BRANCH  71  72
ATOM     72  N   UNL A   1      34.087  23.110  23.871  1.00  0.00    -0.337 N 
ATOM     73  H   UNL A   1      34.420  23.653  24.668  1.00  0.00     0.346 HD
ATOM     74  H   UNL A   1      34.828  22.938  23.191  1.00  0.00     0.346 HD
BRANCH  72  75
ATOM     75  C   UNL A   1      33.621  21.801  24.354  1.00  0.00     0.211 C 
ATOM     76  C   UNL A   1      32.601  22.023  25.487  1.00  0.00     0.068 C 
ATOM     77  C   UNL A   1      34.801  20.930  24.864  1.00  0.00     0.172 C 
ATOM     78  C   UNL A   1      33.237  22.592  26.757  1.00  0.00     0.006 C 
ATOM     79  C   UNL A   1      35.431  21.483  26.148  1.00  0.00     0.038 C 
ATOM     80  C   UNL A   1      34.394  21.726  27.244  1.00  0.00     0.003 C 
BRANCH  77  81
ATOM     81  O   UNL A   1      34.338  19.596  25.092  1.00  0.00    -0.387 OA
ATOM     82  H   UNL A   1      33.938  19.538  25.974  1.00  0.00     0.211 HD
ENDBRANCH  77  81
ENDBRANCH  72  75
ENDBRANCH  71  72
ENDBRANCH  70  71
ENDBRANCH  63  65
ENDBRANCH  62  63
ENDBRANCH  61  62
ENDBRANCH  60  61
ENDBRANCH  59  60
ENDBRANCH   1  59
TORSDOF 21
ENDMDL
