MODEL 1
REMARK VINA RESULT:      -9.4      0.000      0.000
REMARK SMILES C[C@H](C(=O)OCCOCCOCCOC(=O)c1ccc(-c2c3nc(c(-c4ccccc4)c4ccc([nH]4)c(-c4ccccc4)c4nc(c(-c5ccccc5)c5ccc2[nH]5)C=C4)C=C3)cc1)[C@@H](C)C(=O)[C@H]1CC[C@H](C)CC1
REMARK SMILES IDX 9 1 8 2 7 3 6 4 5 5 3 6 4 7 2 8 1 9 65 10 66 11 67 12 68 13
REMARK SMILES IDX 69 14 73 15 72 16 71 17 74 18 70 19 75 20 10 21 11 22 12 23
REMARK SMILES IDX 13 24 14 25 15 26 16 27 17 28 18 29 64 30 19 31 63 32 20 33
REMARK SMILES IDX 21 34 22 35 57 36 23 37 62 38 56 39 58 40 24 41 61 42 55 43
REMARK SMILES IDX 54 44 25 46 47 47 32 48 46 49 33 50 36 51 45 52 59 53 34 54
REMARK SMILES IDX 35 55 44 57 60 58 37 59 26 60 27 61 31 62 28 63 30 64 29 65
REMARK SMILES IDX 48 66 49 67 53 68 50 69 52 70 51 71 38 72 39 73 43 74 40 75
REMARK SMILES IDX 42 76 41 77
REMARK H PARENT 58 45 36 56
REMARK Flexibility Score: inf
ROOT
ATOM      1  C   UNL A   1      32.769  28.467  23.959  1.00  0.00     0.188 C 
ENDROOT
BRANCH   1   2
ATOM      2  O   UNL A   1      31.890  28.597  22.862  1.00  0.00    -0.376 OA
BRANCH   2   3
ATOM      3  C   UNL A   1      30.927  27.573  22.679  1.00  0.00     0.202 C 
BRANCH   3   4
ATOM      4  C   UNL A   1      30.016  27.115  23.823  1.00  0.00     0.261 C 
BRANCH   4   5
ATOM      5  O   UNL A   1      30.231  25.829  24.468  1.00  0.00    -0.463 OA
BRANCH   5   6
ATOM      6  C   UNL A   1      30.942  25.810  25.635  1.00  0.00     0.309 C 
ATOM      7  O   UNL A   1      30.776  26.613  26.550  1.00  0.00    -0.252 OA
BRANCH   6   8
ATOM      8  C   UNL A   1      32.064  24.775  25.699  1.00  0.00     0.106 C 
ATOM      9  C   UNL A   1      33.482  25.329  25.578  1.00  0.00     0.021 C 
BRANCH   8  10
ATOM     10  C   UNL A   1      31.801  23.765  26.852  1.00  0.00     0.067 C 
ATOM     11  C   UNL A   1      30.381  23.185  26.795  1.00  0.00     0.017 C 
BRANCH  10  12
ATOM     12  C   UNL A   1      32.792  22.594  26.935  1.00  0.00     0.139 C 
ATOM     13  O   UNL A   1      33.306  22.308  28.021  1.00  0.00    -0.299 OA
BRANCH  12  14
ATOM     14  C   UNL A   1      33.081  21.703  25.699  1.00  0.00     0.056 C 
ATOM     15  C   UNL A   1      34.268  17.875  23.770  1.00  0.00     0.007 C 
ATOM     16  C   UNL A   1      33.779  18.956  24.727  1.00  0.00    -0.014 C 
ATOM     17  C   UNL A   1      32.519  19.688  24.240  1.00  0.00     0.004 C 
ATOM     18  C   UNL A   1      34.882  19.985  24.951  1.00  0.00     0.004 C 
ATOM     19  C   UNL A   1      32.008  20.683  25.301  1.00  0.00     0.012 C 
ATOM     20  C   UNL A   1      34.412  21.022  25.946  1.00  0.00     0.012 C 
ENDBRANCH  12  14
ENDBRANCH  10  12
ENDBRANCH   8  10
ENDBRANCH   6   8
ENDBRANCH   5   6
ENDBRANCH   4   5
ENDBRANCH   3   4
ENDBRANCH   2   3
ENDBRANCH   1   2
BRANCH   1  21
ATOM     21  C   UNL A   1      32.840  29.656  24.928  1.00  0.00     0.188 C 
BRANCH  21  22
ATOM     22  O   UNL A   1      31.660  30.014  25.603  1.00  0.00    -0.376 OA
BRANCH  22  23
ATOM     23  C   UNL A   1      31.726  30.807  26.778  1.00  0.00     0.202 C 
BRANCH  23  24
ATOM     24  C   UNL A   1      31.639  32.351  26.836  1.00  0.00     0.261 C 
BRANCH  24  25
ATOM     25  O   UNL A   1      32.847  33.118  26.786  1.00  0.00    -0.460 OA
BRANCH  25  26
ATOM     26  C   UNL A   1      33.205  33.784  27.917  1.00  0.00     0.338 C 
ATOM     27  O   UNL A   1      32.536  34.566  28.549  1.00  0.00    -0.246 OA
BRANCH  26  28
ATOM     28  C   UNL A   1      34.457  33.148  28.411  1.00  0.00     0.060 A 
ATOM     29  C   UNL A   1      34.385  31.854  28.955  1.00  0.00     0.016 A 
ATOM     30  C   UNL A   1      35.694  33.775  28.257  1.00  0.00     0.016 A 
ATOM     31  C   UNL A   1      35.542  31.192  29.363  1.00  0.00     0.010 A 
ATOM     32  C   UNL A   1      36.849  33.133  28.712  1.00  0.00     0.010 A 
ATOM     33  C   UNL A   1      36.773  31.855  29.297  1.00  0.00    -0.014 A 
BRANCH  33  34
ATOM     34  C   UNL A   1      37.909  31.353  30.106  1.00  0.00     0.031 A 
ATOM     35  C   UNL A   1      38.818  30.343  29.459  1.00  0.00     0.074 A 
ATOM     36  C   UNL A   1      38.149  31.774  31.360  1.00  0.00     0.049 A 
ATOM     37  N   UNL A   1      39.827  29.683  29.966  1.00  0.00    -0.248 NA
ATOM     38  C   UNL A   1      38.546  30.037  28.044  1.00  0.00     0.031 C 
ATOM     39  C   UNL A   1      37.395  32.798  32.077  1.00  0.00     0.029 A 
ATOM     40  N   UNL A   1      39.110  31.370  32.255  1.00  0.00    -0.354 N 
ATOM     41  C   UNL A   1      40.293  28.872  28.938  1.00  0.00     0.074 A 
ATOM     42  C   UNL A   1      39.447  29.103  27.789  1.00  0.00     0.031 C 
ATOM     43  C   UNL A   1      37.912  32.931  33.313  1.00  0.00     0.029 A 
ATOM     44  C   UNL A   1      39.006  31.975  33.484  1.00  0.00     0.049 A 
ATOM     45  H   UNL A   1      39.808  30.712  32.037  1.00  0.00     0.167 HD
ATOM     46  C   UNL A   1      41.333  28.007  28.947  1.00  0.00     0.031 A 
ATOM     47  C   UNL A   1      39.697  31.757  34.621  1.00  0.00     0.031 A 
ATOM     48  C   UNL A   1      42.164  27.760  30.093  1.00  0.00     0.049 A 
ATOM     49  C   UNL A   1      40.789  30.714  34.637  1.00  0.00     0.074 A 
ATOM     50  C   UNL A   1      43.248  26.908  30.202  1.00  0.00     0.029 A 
ATOM     51  N   UNL A   1      41.994  28.359  31.331  1.00  0.00    -0.354 N 
ATOM     52  N   UNL A   1      41.232  29.962  33.659  1.00  0.00    -0.248 NA
ATOM     53  C   UNL A   1      41.476  30.496  35.918  1.00  0.00     0.031 C 
ATOM     54  C   UNL A   1      43.694  26.942  31.526  1.00  0.00     0.029 A 
ATOM     55  C   UNL A   1      42.935  27.870  32.221  1.00  0.00     0.049 A 
ATOM     56  H   UNL A   1      41.307  29.031  31.545  1.00  0.00     0.167 HD
ATOM     57  C   UNL A   1      42.271  29.210  34.197  1.00  0.00     0.074 A 
ATOM     58  C   UNL A   1      42.400  29.606  35.584  1.00  0.00     0.031 C 
ATOM     59  C   UNL A   1      43.053  28.278  33.597  1.00  0.00     0.031 A 
BRANCH  46  60
ATOM     60  C   UNL A   1      41.592  27.228  27.688  1.00  0.00    -0.014 A 
ATOM     61  C   UNL A   1      42.455  27.708  26.692  1.00  0.00     0.009 A 
ATOM     62  C   UNL A   1      40.971  25.982  27.508  1.00  0.00     0.009 A 
ATOM     63  C   UNL A   1      42.664  26.972  25.524  1.00  0.00     0.001 A 
ATOM     64  C   UNL A   1      41.207  25.233  26.355  1.00  0.00     0.001 A 
ATOM     65  C   UNL A   1      42.046  25.732  25.360  1.00  0.00     0.000 A 
ENDBRANCH  46  60
BRANCH  47  66
ATOM     66  C   UNL A   1      39.366  32.514  35.859  1.00  0.00    -0.014 A 
ATOM     67  C   UNL A   1      38.347  32.074  36.718  1.00  0.00     0.009 A 
ATOM     68  C   UNL A   1      40.041  33.705  36.167  1.00  0.00     0.009 A 
ATOM     69  C   UNL A   1      37.992  32.826  37.842  1.00  0.00     0.001 A 
ATOM     70  C   UNL A   1      39.707  34.438  37.309  1.00  0.00     0.001 A 
ATOM     71  C   UNL A   1      38.675  34.004  38.139  1.00  0.00     0.000 A 
ENDBRANCH  47  66
BRANCH  59  72
ATOM     72  C   UNL A   1      44.150  27.655  34.417  1.00  0.00    -0.014 A 
ATOM     73  C   UNL A   1      45.408  28.263  34.545  1.00  0.00     0.009 A 
ATOM     74  C   UNL A   1      43.898  26.462  35.115  1.00  0.00     0.009 A 
ATOM     75  C   UNL A   1      46.402  27.669  35.327  1.00  0.00     0.001 A 
ATOM     76  C   UNL A   1      44.881  25.890  35.922  1.00  0.00     0.001 A 
ATOM     77  C   UNL A   1      46.136  26.488  36.019  1.00  0.00     0.000 A 
ENDBRANCH  59  72
ENDBRANCH  33  34
ENDBRANCH  26  28
ENDBRANCH  25  26
ENDBRANCH  24  25
ENDBRANCH  23  24
ENDBRANCH  22  23
ENDBRANCH  21  22
ENDBRANCH   1  21
TORSDOF 20
ENDMDL
MODEL 2
REMARK VINA RESULT:      -9.3      4.021      7.370
REMARK SMILES C[C@H](C(=O)OCCOCCOCCOC(=O)c1ccc(-c2c3nc(c(-c4ccccc4)c4ccc([nH]4)c(-c4ccccc4)c4nc(c(-c5ccccc5)c5ccc2[nH]5)C=C4)C=C3)cc1)[C@@H](C)C(=O)[C@H]1CC[C@H](C)CC1
REMARK SMILES IDX 9 1 8 2 7 3 6 4 5 5 3 6 4 7 2 8 1 9 65 10 66 11 67 12 68 13
REMARK SMILES IDX 69 14 73 15 72 16 71 17 74 18 70 19 75 20 10 21 11 22 12 23
REMARK SMILES IDX 13 24 14 25 15 26 16 27 17 28 18 29 64 30 19 31 63 32 20 33
REMARK SMILES IDX 21 34 22 35 57 36 23 37 62 38 56 39 58 40 24 41 61 42 55 43
REMARK SMILES IDX 54 44 25 46 47 47 32 48 46 49 33 50 36 51 45 52 59 53 34 54
REMARK SMILES IDX 35 55 44 57 60 58 37 59 26 60 27 61 31 62 28 63 30 64 29 65
REMARK SMILES IDX 48 66 49 67 53 68 50 69 52 70 51 71 38 72 39 73 43 74 40 75
REMARK SMILES IDX 42 76 41 77
REMARK H PARENT 58 45 36 56
REMARK Flexibility Score: inf
ROOT
ATOM      1  C   UNL A   1      34.291  32.319  28.546  1.00  0.00     0.188 C 
ENDROOT
BRANCH   1   2
ATOM      2  O   UNL A   1      35.430  31.946  27.800  1.00  0.00    -0.376 OA
BRANCH   2   3
ATOM      3  C   UNL A   1      35.699  30.559  27.680  1.00  0.00     0.202 C 
BRANCH   3   4
ATOM      4  C   UNL A   1      34.570  29.532  27.532  1.00  0.00     0.261 C 
BRANCH   4   5
ATOM      5  O   UNL A   1      34.102  29.135  26.213  1.00  0.00    -0.463 OA
BRANCH   5   6
ATOM      6  C   UNL A   1      33.477  27.926  26.095  1.00  0.00     0.309 C 
ATOM      7  O   UNL A   1      32.735  27.452  26.952  1.00  0.00    -0.252 OA
BRANCH   6   8
ATOM      8  C   UNL A   1      33.847  27.120  24.850  1.00  0.00     0.106 C 
ATOM      9  C   UNL A   1      34.174  25.647  25.090  1.00  0.00     0.021 C 
BRANCH   8  10
ATOM     10  C   UNL A   1      32.865  27.440  23.688  1.00  0.00     0.067 C 
ATOM     11  C   UNL A   1      33.351  26.864  22.350  1.00  0.00     0.017 C 
BRANCH  10  12
ATOM     12  C   UNL A   1      31.417  26.978  23.909  1.00  0.00     0.139 C 
ATOM     13  O   UNL A   1      31.182  25.778  24.085  1.00  0.00    -0.299 OA
BRANCH  12  14
ATOM     14  C   UNL A   1      30.257  28.002  24.014  1.00  0.00     0.056 C 
ATOM     15  C   UNL A   1      28.189  31.772  22.879  1.00  0.00     0.007 C 
ATOM     16  C   UNL A   1      29.064  30.525  22.925  1.00  0.00    -0.014 C 
ATOM     17  C   UNL A   1      28.269  29.212  22.972  1.00  0.00     0.004 C 
ATOM     18  C   UNL A   1      29.980  30.583  24.144  1.00  0.00     0.004 C 
ATOM     19  C   UNL A   1      29.206  27.990  22.899  1.00  0.00     0.012 C 
ATOM     20  C   UNL A   1      30.887  29.373  24.153  1.00  0.00     0.012 C 
ENDBRANCH  12  14
ENDBRANCH  10  12
ENDBRANCH   8  10
ENDBRANCH   6   8
ENDBRANCH   5   6
ENDBRANCH   4   5
ENDBRANCH   3   4
ENDBRANCH   2   3
ENDBRANCH   1   2
BRANCH   1  21
ATOM     21  C   UNL A   1      34.160  33.806  28.905  1.00  0.00     0.188 C 
BRANCH  21  22
ATOM     22  O   UNL A   1      33.829  34.125  30.233  1.00  0.00    -0.376 OA
BRANCH  22  23
ATOM     23  C   UNL A   1      34.765  33.893  31.275  1.00  0.00     0.202 C 
BRANCH  23  24
ATOM     24  C   UNL A   1      34.579  32.914  32.459  1.00  0.00     0.261 C 
BRANCH  24  25
ATOM     25  O   UNL A   1      35.416  31.756  32.543  1.00  0.00    -0.460 OA
BRANCH  25  26
ATOM     26  C   UNL A   1      36.611  31.902  33.177  1.00  0.00     0.338 C 
ATOM     27  O   UNL A   1      36.797  32.225  34.325  1.00  0.00    -0.246 OA
BRANCH  26  28
ATOM     28  C   UNL A   1      37.643  31.295  32.291  1.00  0.00     0.060 A 
ATOM     29  C   UNL A   1      38.722  30.614  32.883  1.00  0.00     0.016 A 
ATOM     30  C   UNL A   1      37.505  31.316  30.903  1.00  0.00     0.016 A 
ATOM     31  C   UNL A   1      39.671  29.968  32.091  1.00  0.00     0.010 A 
ATOM     32  C   UNL A   1      38.484  30.713  30.107  1.00  0.00     0.010 A 
ATOM     33  C   UNL A   1      39.587  30.068  30.698  1.00  0.00    -0.014 A 
BRANCH  33  34
ATOM     34  C   UNL A   1      40.786  29.774  29.878  1.00  0.00     0.031 A 
ATOM     35  C   UNL A   1      40.884  28.399  29.274  1.00  0.00     0.074 A 
ATOM     36  C   UNL A   1      41.752  30.681  29.655  1.00  0.00     0.049 A 
ATOM     37  N   UNL A   1      41.858  27.855  28.592  1.00  0.00    -0.248 NA
ATOM     38  C   UNL A   1      39.721  27.518  29.473  1.00  0.00     0.031 C 
ATOM     39  C   UNL A   1      41.747  32.067  30.117  1.00  0.00     0.029 A 
ATOM     40  N   UNL A   1      42.941  30.554  28.979  1.00  0.00    -0.354 N 
ATOM     41  C   UNL A   1      41.431  26.566  28.299  1.00  0.00     0.074 A 
ATOM     42  C   UNL A   1      40.125  26.399  28.895  1.00  0.00     0.031 C 
ATOM     43  C   UNL A   1      42.891  32.659  29.723  1.00  0.00     0.029 A 
ATOM     44  C   UNL A   1      43.722  31.684  29.019  1.00  0.00     0.049 A 
ATOM     45  H   UNL A   1      43.209  29.731  28.509  1.00  0.00     0.167 HD
ATOM     46  C   UNL A   1      42.069  25.601  27.598  1.00  0.00     0.031 A 
ATOM     47  C   UNL A   1      44.974  31.891  28.563  1.00  0.00     0.031 A 
ATOM     48  C   UNL A   1      43.375  25.756  27.021  1.00  0.00     0.049 A 
ATOM     49  C   UNL A   1      45.707  30.767  27.871  1.00  0.00     0.074 A 
ATOM     50  C   UNL A   1      44.106  24.840  26.286  1.00  0.00     0.029 A 
ATOM     51  N   UNL A   1      44.150  26.900  27.126  1.00  0.00    -0.354 N 
ATOM     52  N   UNL A   1      45.292  29.556  27.586  1.00  0.00    -0.248 NA
ATOM     53  C   UNL A   1      47.083  31.046  27.434  1.00  0.00     0.031 C 
ATOM     54  C   UNL A   1      45.351  25.408  26.001  1.00  0.00     0.029 A 
ATOM     55  C   UNL A   1      45.366  26.702  26.495  1.00  0.00     0.049 A 
ATOM     56  H   UNL A   1      43.876  27.729  27.581  1.00  0.00     0.167 HD
ATOM     57  C   UNL A   1      46.340  28.943  26.908  1.00  0.00     0.074 A 
ATOM     58  C   UNL A   1      47.405  29.919  26.813  1.00  0.00     0.031 C 
ATOM     59  C   UNL A   1      46.414  27.686  26.405  1.00  0.00     0.031 A 
BRANCH  46  60
ATOM     60  C   UNL A   1      41.376  24.274  27.465  1.00  0.00    -0.014 A 
ATOM     61  C   UNL A   1      41.793  23.150  28.194  1.00  0.00     0.009 A 
ATOM     62  C   UNL A   1      40.273  24.155  26.605  1.00  0.00     0.009 A 
ATOM     63  C   UNL A   1      41.142  21.925  28.037  1.00  0.00     0.001 A 
ATOM     64  C   UNL A   1      39.603  22.938  26.474  1.00  0.00     0.001 A 
ATOM     65  C   UNL A   1      40.044  21.822  27.184  1.00  0.00     0.000 A 
ENDBRANCH  46  60
BRANCH  47  66
ATOM     66  C   UNL A   1      45.641  33.205  28.768  1.00  0.00    -0.014 A 
ATOM     67  C   UNL A   1      45.536  34.221  27.805  1.00  0.00     0.009 A 
ATOM     68  C   UNL A   1      46.421  33.437  29.911  1.00  0.00     0.009 A 
ATOM     69  C   UNL A   1      46.222  35.428  27.969  1.00  0.00     0.001 A 
ATOM     70  C   UNL A   1      47.080  34.656  30.089  1.00  0.00     0.001 A 
ATOM     71  C   UNL A   1      46.988  35.647  29.112  1.00  0.00     0.000 A 
ENDBRANCH  47  66
BRANCH  59  72
ATOM     72  C   UNL A   1      47.665  27.305  25.661  1.00  0.00    -0.014 A 
ATOM     73  C   UNL A   1      47.790  27.508  24.279  1.00  0.00     0.009 A 
ATOM     74  C   UNL A   1      48.758  26.779  26.372  1.00  0.00     0.009 A 
ATOM     75  C   UNL A   1      48.971  27.159  23.618  1.00  0.00     0.001 A 
ATOM     76  C   UNL A   1      49.947  26.465  25.715  1.00  0.00     0.001 A 
ATOM     77  C   UNL A   1      50.050  26.645  24.337  1.00  0.00     0.000 A 
ENDBRANCH  59  72
ENDBRANCH  33  34
ENDBRANCH  26  28
ENDBRANCH  25  26
ENDBRANCH  24  25
ENDBRANCH  23  24
ENDBRANCH  22  23
ENDBRANCH  21  22
ENDBRANCH   1  21
TORSDOF 20
ENDMDL
MODEL 3
REMARK VINA RESULT:      -9.2      3.942      6.773
REMARK SMILES C[C@H](C(=O)OCCOCCOCCOC(=O)c1ccc(-c2c3nc(c(-c4ccccc4)c4ccc([nH]4)c(-c4ccccc4)c4nc(c(-c5ccccc5)c5ccc2[nH]5)C=C4)C=C3)cc1)[C@@H](C)C(=O)[C@H]1CC[C@H](C)CC1
REMARK SMILES IDX 9 1 8 2 7 3 6 4 5 5 3 6 4 7 2 8 1 9 65 10 66 11 67 12 68 13
REMARK SMILES IDX 69 14 73 15 72 16 71 17 74 18 70 19 75 20 10 21 11 22 12 23
REMARK SMILES IDX 13 24 14 25 15 26 16 27 17 28 18 29 64 30 19 31 63 32 20 33
REMARK SMILES IDX 21 34 22 35 57 36 23 37 62 38 56 39 58 40 24 41 61 42 55 43
REMARK SMILES IDX 54 44 25 46 47 47 32 48 46 49 33 50 36 51 45 52 59 53 34 54
REMARK SMILES IDX 35 55 44 57 60 58 37 59 26 60 27 61 31 62 28 63 30 64 29 65
REMARK SMILES IDX 48 66 49 67 53 68 50 69 52 70 51 71 38 72 39 73 43 74 40 75
REMARK SMILES IDX 42 76 41 77
REMARK H PARENT 58 45 36 56
REMARK Flexibility Score: inf
ROOT
ATOM      1  C   UNL A   1      34.179  32.250  28.462  1.00  0.00     0.188 C 
ENDROOT
BRANCH   1   2
ATOM      2  O   UNL A   1      35.322  31.822  27.753  1.00  0.00    -0.376 OA
BRANCH   2   3
ATOM      3  C   UNL A   1      35.607  30.433  27.764  1.00  0.00     0.202 C 
BRANCH   3   4
ATOM      4  C   UNL A   1      34.510  29.386  27.542  1.00  0.00     0.261 C 
BRANCH   4   5
ATOM      5  O   UNL A   1      34.612  28.431  26.450  1.00  0.00    -0.463 OA
BRANCH   5   6
ATOM      6  C   UNL A   1      33.718  28.538  25.422  1.00  0.00     0.309 C 
ATOM      7  O   UNL A   1      34.017  28.914  24.291  1.00  0.00    -0.252 OA
BRANCH   6   8
ATOM      8  C   UNL A   1      32.261  28.260  25.792  1.00  0.00     0.106 C 
ATOM      9  C   UNL A   1      31.223  29.124  25.079  1.00  0.00     0.021 C 
BRANCH   8  10
ATOM     10  C   UNL A   1      31.996  26.729  25.829  1.00  0.00     0.067 C 
ATOM     11  C   UNL A   1      30.497  26.408  25.918  1.00  0.00     0.017 C 
BRANCH  10  12
ATOM     12  C   UNL A   1      32.585  25.934  24.655  1.00  0.00     0.139 C 
ATOM     13  O   UNL A   1      32.357  26.301  23.497  1.00  0.00    -0.299 OA
BRANCH  12  14
ATOM     14  C   UNL A   1      33.544  24.740  24.897  1.00  0.00     0.056 C 
ATOM     15  C   UNL A   1      37.037  22.192  23.856  1.00  0.00     0.007 C 
ATOM     16  C   UNL A   1      36.025  23.323  23.996  1.00  0.00    -0.014 C 
ATOM     17  C   UNL A   1      35.869  23.838  25.434  1.00  0.00     0.004 C 
ATOM     18  C   UNL A   1      34.661  22.858  23.495  1.00  0.00     0.004 C 
ATOM     19  C   UNL A   1      34.922  25.054  25.491  1.00  0.00     0.012 C 
ATOM     20  C   UNL A   1      33.675  24.001  23.581  1.00  0.00     0.012 C 
ENDBRANCH  12  14
ENDBRANCH  10  12
ENDBRANCH   8  10
ENDBRANCH   6   8
ENDBRANCH   5   6
ENDBRANCH   4   5
ENDBRANCH   3   4
ENDBRANCH   2   3
ENDBRANCH   1   2
BRANCH   1  21
ATOM     21  C   UNL A   1      34.015  33.765  28.653  1.00  0.00     0.188 C 
BRANCH  21  22
ATOM     22  O   UNL A   1      34.036  34.258  29.969  1.00  0.00    -0.376 OA
BRANCH  22  23
ATOM     23  C   UNL A   1      35.023  33.804  30.882  1.00  0.00     0.202 C 
BRANCH  23  24
ATOM     24  C   UNL A   1      34.754  33.079  32.222  1.00  0.00     0.261 C 
BRANCH  24  25
ATOM     25  O   UNL A   1      35.403  31.829  32.479  1.00  0.00    -0.460 OA
BRANCH  25  26
ATOM     26  C   UNL A   1      36.589  31.874  33.146  1.00  0.00     0.338 C 
ATOM     27  O   UNL A   1      36.763  32.125  34.314  1.00  0.00    -0.246 OA
BRANCH  26  28
ATOM     28  C   UNL A   1      37.608  31.260  32.251  1.00  0.00     0.060 A 
ATOM     29  C   UNL A   1      38.777  30.732  32.826  1.00  0.00     0.016 A 
ATOM     30  C   UNL A   1      37.377  31.122  30.882  1.00  0.00     0.016 A 
ATOM     31  C   UNL A   1      39.724  30.083  32.035  1.00  0.00     0.010 A 
ATOM     32  C   UNL A   1      38.349  30.516  30.080  1.00  0.00     0.010 A 
ATOM     33  C   UNL A   1      39.540  30.026  30.649  1.00  0.00    -0.014 A 
BRANCH  33  34
ATOM     34  C   UNL A   1      40.704  29.742  29.776  1.00  0.00     0.031 A 
ATOM     35  C   UNL A   1      40.787  28.367  29.170  1.00  0.00     0.074 A 
ATOM     36  C   UNL A   1      41.650  30.658  29.507  1.00  0.00     0.049 A 
ATOM     37  N   UNL A   1      41.734  27.831  28.445  1.00  0.00    -0.248 NA
ATOM     38  C   UNL A   1      39.642  27.475  29.424  1.00  0.00     0.031 C 
ATOM     39  C   UNL A   1      41.653  32.045  29.967  1.00  0.00     0.029 A 
ATOM     40  N   UNL A   1      42.808  30.540  28.777  1.00  0.00    -0.354 N 
ATOM     41  C   UNL A   1      41.306  26.537  28.175  1.00  0.00     0.074 A 
ATOM     42  C   UNL A   1      40.030  26.359  28.829  1.00  0.00     0.031 C 
ATOM     43  C   UNL A   1      42.772  32.646  29.520  1.00  0.00     0.029 A 
ATOM     44  C   UNL A   1      43.579  31.677  28.780  1.00  0.00     0.049 A 
ATOM     45  H   UNL A   1      43.061  29.719  28.297  1.00  0.00     0.167 HD
ATOM     46  C   UNL A   1      41.920  25.577  27.447  1.00  0.00     0.031 A 
ATOM     47  C   UNL A   1      44.807  31.896  28.267  1.00  0.00     0.031 A 
ATOM     48  C   UNL A   1      43.198  25.743  26.810  1.00  0.00     0.049 A 
ATOM     49  C   UNL A   1      45.517  30.777  27.544  1.00  0.00     0.074 A 
ATOM     50  C   UNL A   1      43.902  24.833  26.043  1.00  0.00     0.029 A 
ATOM     51  N   UNL A   1      43.965  26.895  26.877  1.00  0.00    -0.354 N 
ATOM     52  N   UNL A   1      45.102  29.562  27.281  1.00  0.00    -0.248 NA
ATOM     53  C   UNL A   1      46.870  31.068  27.044  1.00  0.00     0.031 C 
ATOM     54  C   UNL A   1      45.128  25.411  25.701  1.00  0.00     0.029 A 
ATOM     55  C   UNL A   1      45.153  26.707  26.192  1.00  0.00     0.049 A 
ATOM     56  H   UNL A   1      43.705  27.722  27.343  1.00  0.00     0.167 HD
ATOM     57  C   UNL A   1      46.123  28.957  26.556  1.00  0.00     0.074 A 
ATOM     58  C   UNL A   1      47.174  29.943  26.411  1.00  0.00     0.031 C 
ATOM     59  C   UNL A   1      46.187  27.700  26.052  1.00  0.00     0.031 A 
BRANCH  46  60
ATOM     60  C   UNL A   1      41.234  24.243  27.347  1.00  0.00    -0.014 A 
ATOM     61  C   UNL A   1      40.122  24.049  26.515  1.00  0.00     0.009 A 
ATOM     62  C   UNL A   1      41.725  23.158  28.090  1.00  0.00     0.009 A 
ATOM     63  C   UNL A   1      39.493  22.803  26.455  1.00  0.00     0.001 A 
ATOM     64  C   UNL A   1      41.115  21.906  28.004  1.00  0.00     0.001 A 
ATOM     65  C   UNL A   1      39.995  21.732  27.193  1.00  0.00     0.000 A 
ENDBRANCH  46  60
BRANCH  47  66
ATOM     66  C   UNL A   1      45.470  33.217  28.440  1.00  0.00    -0.014 A 
ATOM     67  C   UNL A   1      46.170  33.520  29.618  1.00  0.00     0.009 A 
ATOM     68  C   UNL A   1      45.370  34.199  27.442  1.00  0.00     0.009 A 
ATOM     69  C   UNL A   1      46.730  34.787  29.805  1.00  0.00     0.001 A 
ATOM     70  C   UNL A   1      45.959  35.454  27.618  1.00  0.00     0.001 A 
ATOM     71  C   UNL A   1      46.629  35.750  28.803  1.00  0.00     0.000 A 
ENDBRANCH  47  66
BRANCH  59  72
ATOM     72  C   UNL A   1      47.406  27.329  25.253  1.00  0.00    -0.014 A 
ATOM     73  C   UNL A   1      47.465  27.529  23.866  1.00  0.00     0.009 A 
ATOM     74  C   UNL A   1      48.535  26.817  25.914  1.00  0.00     0.009 A 
ATOM     75  C   UNL A   1      48.618  27.190  23.153  1.00  0.00     0.001 A 
ATOM     76  C   UNL A   1      49.697  26.512  25.204  1.00  0.00     0.001 A 
ATOM     77  C   UNL A   1      49.734  26.689  23.822  1.00  0.00     0.000 A 
ENDBRANCH  59  72
ENDBRANCH  33  34
ENDBRANCH  26  28
ENDBRANCH  25  26
ENDBRANCH  24  25
ENDBRANCH  23  24
ENDBRANCH  22  23
ENDBRANCH  21  22
ENDBRANCH   1  21
TORSDOF 20
ENDMDL
