MODEL 1
REMARK VINA RESULT:     -10.3      0.000      0.000
REMARK SMILES Cc1nsc(N(C)C(=O)[C@H]2CCOC2)c1C(=O)OCCOCCOCCOC(=O)c1ccc(-c2c3nc(c(-c4ccccc4)c4ccc([nH]4)c(-c4ccccc4)c4nc(c(-c5ccccc5)c5ccc2[nH]5)C=C4)C=C3)cc1
REMARK SMILES IDX 22 1 21 2 20 3 19 4 18 5 16 6 17 7 15 8 1 9 2 10 3 11 4 12
REMARK SMILES IDX 5 13 6 14 7 15 8 16 9 17 10 18 11 19 14 20 12 21 13 22 23 23
REMARK SMILES IDX 24 24 25 25 26 26 27 27 28 28 29 29 30 30 31 31 77 32 32 33
REMARK SMILES IDX 76 34 33 35 34 36 35 37 70 38 36 39 75 40 69 41 71 42 37 43
REMARK SMILES IDX 74 44 68 45 67 46 38 48 60 49 45 50 59 51 46 52 49 53 58 54
REMARK SMILES IDX 72 55 47 56 48 57 57 59 73 60 50 61 39 62 40 63 44 64 41 65
REMARK SMILES IDX 43 66 42 67 61 68 62 69 66 70 63 71 65 72 64 73 51 74 52 75
REMARK SMILES IDX 56 76 53 77 55 78 54 79
REMARK H PARENT 71 47 49 58
REMARK Flexibility Score: inf
ROOT
ATOM      1  C   UNL A   1      39.227  22.004  26.133  1.00  0.00     0.188 C 
ENDROOT
BRANCH   1   2
ATOM      2  O   UNL A   1      38.321  21.070  25.562  1.00  0.00    -0.376 OA
BRANCH   2   3
ATOM      3  C   UNL A   1      37.363  21.617  24.653  1.00  0.00     0.202 C 
BRANCH   3   4
ATOM      4  C   UNL A   1      37.156  23.131  24.780  1.00  0.00     0.261 C 
BRANCH   4   5
ATOM      5  O   UNL A   1      35.774  23.413  25.022  1.00  0.00    -0.460 OA
BRANCH   5   6
ATOM      6  C   UNL A   1      34.917  23.548  23.978  1.00  0.00     0.343 C 
ATOM      7  O   UNL A   1      35.230  23.793  22.829  1.00  0.00    -0.246 OA
BRANCH   6   8
ATOM      8  C   UNL A   1      33.550  23.465  24.471  1.00  0.00     0.117 A 
ATOM      9  C   UNL A   1      33.712  25.782  25.698  1.00  0.00     0.069 C 
ATOM     10  C   UNL A   1      32.984  24.554  25.252  1.00  0.00     0.068 A 
ATOM     11  N   UNL A   1      31.729  24.400  25.654  1.00  0.00    -0.195 NA
ATOM     12  S   UNL A   1      31.199  22.929  25.176  1.00  0.00    -0.017 S 
ATOM     13  C   UNL A   1      32.668  22.376  24.437  1.00  0.00     0.133 A 
BRANCH  13  14
ATOM     14  N   UNL A   1      32.699  20.997  24.041  1.00  0.00    -0.305 N 
ATOM     15  C   UNL A   1      32.169  20.556  22.741  1.00  0.00     0.154 C 
BRANCH  14  16
ATOM     16  C   UNL A   1      33.181  20.033  24.944  1.00  0.00     0.232 C 
ATOM     17  O   UNL A   1      33.668  20.308  26.039  1.00  0.00    -0.274 OA
BRANCH  16  18
ATOM     18  C   UNL A   1      33.058  18.547  24.575  1.00  0.00     0.107 C 
ATOM     19  C   UNL A   1      34.398  17.902  24.248  1.00  0.00     0.044 C 
ATOM     20  C   UNL A   1      32.611  17.676  25.737  1.00  0.00     0.173 C 
ATOM     21  C   UNL A   1      34.131  16.434  24.484  1.00  0.00     0.161 C 
ATOM     22  O   UNL A   1      33.136  16.358  25.513  1.00  0.00    -0.381 OA
ENDBRANCH  16  18
ENDBRANCH  14  16
ENDBRANCH  13  14
ENDBRANCH   6   8
ENDBRANCH   5   6
ENDBRANCH   4   5
ENDBRANCH   3   4
ENDBRANCH   2   3
ENDBRANCH   1   2
BRANCH   1  23
ATOM     23  C   UNL A   1      40.395  21.419  26.958  1.00  0.00     0.188 C 
BRANCH  23  24
ATOM     24  O   UNL A   1      41.540  20.842  26.345  1.00  0.00    -0.376 OA
BRANCH  24  25
ATOM     25  C   UNL A   1      41.989  19.547  26.711  1.00  0.00     0.202 C 
BRANCH  25  26
ATOM     26  C   UNL A   1      42.994  18.843  25.808  1.00  0.00     0.261 C 
BRANCH  26  27
ATOM     27  O   UNL A   1      43.317  19.589  24.641  1.00  0.00    -0.460 OA
BRANCH  27  28
ATOM     28  C   UNL A   1      44.639  19.733  24.412  1.00  0.00     0.338 C 
ATOM     29  O   UNL A   1      45.464  18.850  24.256  1.00  0.00    -0.246 OA
BRANCH  28  30
ATOM     30  C   UNL A   1      44.988  21.161  24.454  1.00  0.00     0.060 A 
ATOM     31  C   UNL A   1      46.075  21.507  25.260  1.00  0.00     0.016 A 
ATOM     32  C   UNL A   1      44.107  22.127  23.945  1.00  0.00     0.016 A 
ATOM     33  C   UNL A   1      46.117  22.778  25.786  1.00  0.00     0.010 A 
ATOM     34  C   UNL A   1      44.146  23.397  24.474  1.00  0.00     0.010 A 
ATOM     35  C   UNL A   1      45.078  23.661  25.476  1.00  0.00    -0.014 A 
BRANCH  35  36
ATOM     36  C   UNL A   1      44.909  24.797  26.357  1.00  0.00     0.031 A 
ATOM     37  C   UNL A   1      46.019  25.763  26.402  1.00  0.00     0.074 A 
ATOM     38  C   UNL A   1      43.774  24.974  27.059  1.00  0.00     0.049 A 
ATOM     39  N   UNL A   1      46.748  26.084  27.416  1.00  0.00    -0.248 NA
ATOM     40  C   UNL A   1      46.399  26.405  25.138  1.00  0.00     0.031 C 
ATOM     41  C   UNL A   1      42.494  24.279  26.894  1.00  0.00     0.029 A 
ATOM     42  N   UNL A   1      43.501  25.915  28.003  1.00  0.00    -0.354 N 
ATOM     43  C   UNL A   1      47.588  27.093  26.965  1.00  0.00     0.074 A 
ATOM     44  C   UNL A   1      47.415  27.169  25.535  1.00  0.00     0.031 C 
ATOM     45  C   UNL A   1      41.531  24.978  27.533  1.00  0.00     0.029 A 
ATOM     46  C   UNL A   1      42.150  26.083  28.248  1.00  0.00     0.049 A 
ATOM     47  H   UNL A   1      44.200  26.429  28.468  1.00  0.00     0.167 HD
ATOM     48  C   UNL A   1      48.219  27.944  27.816  1.00  0.00     0.031 A 
ATOM     49  C   UNL A   1      41.578  27.113  28.914  1.00  0.00     0.031 A 
ATOM     50  C   UNL A   1      48.272  27.451  29.163  1.00  0.00     0.049 A 
ATOM     51  C   UNL A   1      42.625  27.779  29.724  1.00  0.00     0.074 A 
ATOM     52  C   UNL A   1      48.802  26.328  29.767  1.00  0.00     0.029 A 
ATOM     53  N   UNL A   1      47.414  28.001  30.086  1.00  0.00    -0.354 N 
ATOM     54  N   UNL A   1      43.180  27.246  30.774  1.00  0.00    -0.248 NA
ATOM     55  C   UNL A   1      43.348  28.897  29.139  1.00  0.00     0.031 C 
ATOM     56  C   UNL A   1      47.897  26.007  30.822  1.00  0.00     0.029 A 
ATOM     57  C   UNL A   1      46.882  26.963  30.807  1.00  0.00     0.049 A 
ATOM     58  H   UNL A   1      47.221  28.959  30.206  1.00  0.00     0.167 HD
ATOM     59  C   UNL A   1      44.500  27.669  30.734  1.00  0.00     0.074 A 
ATOM     60  C   UNL A   1      44.512  28.777  29.783  1.00  0.00     0.031 C 
ATOM     61  C   UNL A   1      45.507  26.907  31.257  1.00  0.00     0.031 A 
BRANCH  48  62
ATOM     62  C   UNL A   1      48.476  29.383  27.467  1.00  0.00    -0.014 A 
ATOM     63  C   UNL A   1      49.737  29.939  27.731  1.00  0.00     0.009 A 
ATOM     64  C   UNL A   1      47.441  30.275  27.125  1.00  0.00     0.009 A 
ATOM     65  C   UNL A   1      49.940  31.324  27.683  1.00  0.00     0.001 A 
ATOM     66  C   UNL A   1      47.650  31.652  27.033  1.00  0.00     0.001 A 
ATOM     67  C   UNL A   1      48.897  32.178  27.333  1.00  0.00     0.000 A 
ENDBRANCH  48  62
BRANCH  49  68
ATOM     68  C   UNL A   1      40.256  27.721  28.660  1.00  0.00    -0.014 A 
ATOM     69  C   UNL A   1      39.253  27.698  29.639  1.00  0.00     0.009 A 
ATOM     70  C   UNL A   1      40.055  28.543  27.533  1.00  0.00     0.009 A 
ATOM     71  C   UNL A   1      38.104  28.489  29.505  1.00  0.00     0.001 A 
ATOM     72  C   UNL A   1      38.905  29.324  27.395  1.00  0.00     0.001 A 
ATOM     73  C   UNL A   1      37.934  29.306  28.389  1.00  0.00     0.000 A 
ENDBRANCH  49  68
BRANCH  61  74
ATOM     74  C   UNL A   1      45.126  25.720  32.109  1.00  0.00    -0.014 A 
ATOM     75  C   UNL A   1      44.573  24.546  31.567  1.00  0.00     0.009 A 
ATOM     76  C   UNL A   1      45.475  25.721  33.468  1.00  0.00     0.009 A 
ATOM     77  C   UNL A   1      44.339  23.425  32.367  1.00  0.00     0.001 A 
ATOM     78  C   UNL A   1      45.264  24.592  34.263  1.00  0.00     0.001 A 
ATOM     79  C   UNL A   1      44.690  23.447  33.715  1.00  0.00     0.000 A 
ENDBRANCH  61  74
ENDBRANCH  35  36
ENDBRANCH  28  30
ENDBRANCH  27  28
ENDBRANCH  26  27
ENDBRANCH  25  26
ENDBRANCH  24  25
ENDBRANCH  23  24
ENDBRANCH   1  23
TORSDOF 20
ENDMDL
MODEL 2
REMARK VINA RESULT:     -10.2      6.426     11.267
REMARK SMILES Cc1nsc(N(C)C(=O)[C@H]2CCOC2)c1C(=O)OCCOCCOCCOC(=O)c1ccc(-c2c3nc(c(-c4ccccc4)c4ccc([nH]4)c(-c4ccccc4)c4nc(c(-c5ccccc5)c5ccc2[nH]5)C=C4)C=C3)cc1
REMARK SMILES IDX 22 1 21 2 20 3 19 4 18 5 16 6 17 7 15 8 1 9 2 10 3 11 4 12
REMARK SMILES IDX 5 13 6 14 7 15 8 16 9 17 10 18 11 19 14 20 12 21 13 22 23 23
REMARK SMILES IDX 24 24 25 25 26 26 27 27 28 28 29 29 30 30 31 31 77 32 32 33
REMARK SMILES IDX 76 34 33 35 34 36 35 37 70 38 36 39 75 40 69 41 71 42 37 43
REMARK SMILES IDX 74 44 68 45 67 46 38 48 60 49 45 50 59 51 46 52 49 53 58 54
REMARK SMILES IDX 72 55 47 56 48 57 57 59 73 60 50 61 39 62 40 63 44 64 41 65
REMARK SMILES IDX 43 66 42 67 61 68 62 69 66 70 63 71 65 72 64 73 51 74 52 75
REMARK SMILES IDX 56 76 53 77 55 78 54 79
REMARK H PARENT 71 47 49 58
REMARK Flexibility Score: inf
ROOT
ATOM      1  C   UNL A   1      34.666  31.708  27.676  1.00  0.00     0.188 C 
ENDROOT
BRANCH   1   2
ATOM      2  O   UNL A   1      33.459  30.958  27.634  1.00  0.00    -0.376 OA
BRANCH   2   3
ATOM      3  C   UNL A   1      33.608  29.570  27.324  1.00  0.00     0.202 C 
BRANCH   3   4
ATOM      4  C   UNL A   1      32.317  28.751  27.439  1.00  0.00     0.261 C 
BRANCH   4   5
ATOM      5  O   UNL A   1      31.540  28.901  26.247  1.00  0.00    -0.460 OA
BRANCH   5   6
ATOM      6  C   UNL A   1      32.063  28.540  25.047  1.00  0.00     0.343 C 
ATOM      7  O   UNL A   1      32.709  29.258  24.309  1.00  0.00    -0.246 OA
BRANCH   6   8
ATOM      8  C   UNL A   1      31.631  27.187  24.728  1.00  0.00     0.117 A 
ATOM      9  C   UNL A   1      34.000  26.171  25.233  1.00  0.00     0.069 C 
ATOM     10  C   UNL A   1      32.556  26.072  24.862  1.00  0.00     0.068 A 
ATOM     11  N   UNL A   1      32.077  24.872  24.559  1.00  0.00    -0.195 NA
ATOM     12  S   UNL A   1      30.534  25.034  24.043  1.00  0.00    -0.017 S 
ATOM     13  C   UNL A   1      30.432  26.763  24.141  1.00  0.00     0.133 A 
BRANCH  13  14
ATOM     14  N   UNL A   1      29.258  27.362  23.572  1.00  0.00    -0.305 N 
ATOM     15  C   UNL A   1      27.917  26.802  23.805  1.00  0.00     0.154 C 
BRANCH  14  16
ATOM     16  C   UNL A   1      29.397  28.467  22.714  1.00  0.00     0.232 C 
ATOM     17  O   UNL A   1      30.217  28.521  21.800  1.00  0.00    -0.274 OA
BRANCH  16  18
ATOM     18  C   UNL A   1      28.447  29.662  22.887  1.00  0.00     0.107 C 
ATOM     19  C   UNL A   1      29.106  30.851  23.575  1.00  0.00     0.044 C 
ATOM     20  C   UNL A   1      28.040  30.300  21.569  1.00  0.00     0.173 C 
ATOM     21  C   UNL A   1      28.247  32.013  23.133  1.00  0.00     0.161 C 
ATOM     22  O   UNL A   1      27.744  31.680  21.833  1.00  0.00    -0.381 OA
ENDBRANCH  16  18
ENDBRANCH  14  16
ENDBRANCH  13  14
ENDBRANCH   6   8
ENDBRANCH   5   6
ENDBRANCH   4   5
ENDBRANCH   3   4
ENDBRANCH   2   3
ENDBRANCH   1   2
BRANCH   1  23
ATOM     23  C   UNL A   1      34.615  33.057  28.431  1.00  0.00     0.188 C 
BRANCH  23  24
ATOM     24  O   UNL A   1      33.443  33.858  28.470  1.00  0.00    -0.376 OA
BRANCH  24  25
ATOM     25  C   UNL A   1      33.522  35.254  28.708  1.00  0.00     0.202 C 
BRANCH  25  26
ATOM     26  C   UNL A   1      32.996  35.798  30.030  1.00  0.00     0.261 C 
BRANCH  26  27
ATOM     27  O   UNL A   1      33.028  34.841  31.082  1.00  0.00    -0.460 OA
BRANCH  27  28
ATOM     28  C   UNL A   1      33.353  35.343  32.291  1.00  0.00     0.338 C 
ATOM     29  O   UNL A   1      32.956  36.379  32.795  1.00  0.00    -0.246 OA
BRANCH  28  30
ATOM     30  C   UNL A   1      34.359  34.477  32.924  1.00  0.00     0.060 A 
ATOM     31  C   UNL A   1      35.493  35.115  33.431  1.00  0.00     0.016 A 
ATOM     32  C   UNL A   1      34.303  33.084  32.764  1.00  0.00     0.016 A 
ATOM     33  C   UNL A   1      36.663  34.396  33.512  1.00  0.00     0.010 A 
ATOM     34  C   UNL A   1      35.475  32.365  32.841  1.00  0.00     0.010 A 
ATOM     35  C   UNL A   1      36.655  33.061  33.096  1.00  0.00    -0.014 A 
BRANCH  35  36
ATOM     36  C   UNL A   1      37.939  32.474  32.779  1.00  0.00     0.031 A 
ATOM     37  C   UNL A   1      38.919  32.408  33.875  1.00  0.00     0.074 A 
ATOM     38  C   UNL A   1      38.196  31.976  31.555  1.00  0.00     0.049 A 
ATOM     39  N   UNL A   1      40.077  32.973  33.936  1.00  0.00    -0.248 NA
ATOM     40  C   UNL A   1      38.528  31.666  35.079  1.00  0.00     0.031 C 
ATOM     41  C   UNL A   1      37.244  31.702  30.474  1.00  0.00     0.029 A 
ATOM     42  N   UNL A   1      39.373  31.497  31.066  1.00  0.00    -0.354 N 
ATOM     43  C   UNL A   1      40.642  32.534  35.126  1.00  0.00     0.074 A 
ATOM     44  C   UNL A   1      39.606  31.830  35.843  1.00  0.00     0.031 C 
ATOM     45  C   UNL A   1      37.834  30.893  29.566  1.00  0.00     0.029 A 
ATOM     46  C   UNL A   1      39.227  30.709  29.939  1.00  0.00     0.049 A 
ATOM     47  H   UNL A   1      40.245  31.692  31.478  1.00  0.00     0.167 HD
ATOM     48  C   UNL A   1      41.980  32.593  35.357  1.00  0.00     0.031 A 
ATOM     49  C   UNL A   1      40.164  29.888  29.408  1.00  0.00     0.031 A 
ATOM     50  C   UNL A   1      42.660  33.502  34.477  1.00  0.00     0.049 A 
ATOM     51  C   UNL A   1      41.489  30.302  29.928  1.00  0.00     0.074 A 
ATOM     52  C   UNL A   1      42.565  34.854  34.215  1.00  0.00     0.029 A 
ATOM     53  N   UNL A   1      43.394  32.972  33.443  1.00  0.00    -0.354 N 
ATOM     54  N   UNL A   1      42.088  31.407  29.593  1.00  0.00    -0.248 NA
ATOM     55  C   UNL A   1      41.989  29.665  31.136  1.00  0.00     0.031 C 
ATOM     56  C   UNL A   1      42.840  34.986  32.822  1.00  0.00     0.029 A 
ATOM     57  C   UNL A   1      43.102  33.709  32.325  1.00  0.00     0.049 A 
ATOM     58  H   UNL A   1      44.013  32.208  33.497  1.00  0.00     0.167 HD
ATOM     59  C   UNL A   1      42.738  31.825  30.746  1.00  0.00     0.074 A 
ATOM     60  C   UNL A   1      42.744  30.656  31.619  1.00  0.00     0.031 C 
ATOM     61  C   UNL A   1      42.958  33.150  30.997  1.00  0.00     0.031 A 
BRANCH  48  62
ATOM     62  C   UNL A   1      42.702  31.550  36.163  1.00  0.00    -0.014 A 
ATOM     63  C   UNL A   1      43.706  31.947  37.059  1.00  0.00     0.009 A 
ATOM     64  C   UNL A   1      42.603  30.173  35.881  1.00  0.00     0.009 A 
ATOM     65  C   UNL A   1      44.584  31.012  37.620  1.00  0.00     0.001 A 
ATOM     66  C   UNL A   1      43.448  29.233  36.473  1.00  0.00     0.001 A 
ATOM     67  C   UNL A   1      44.454  29.657  37.327  1.00  0.00     0.000 A 
ENDBRANCH  48  62
BRANCH  49  68
ATOM     68  C   UNL A   1      39.942  28.602  28.716  1.00  0.00    -0.014 A 
ATOM     69  C   UNL A   1      40.467  28.373  27.437  1.00  0.00     0.009 A 
ATOM     70  C   UNL A   1      39.413  27.500  29.416  1.00  0.00     0.009 A 
ATOM     71  C   UNL A   1      40.483  27.083  26.890  1.00  0.00     0.001 A 
ATOM     72  C   UNL A   1      39.419  26.215  28.867  1.00  0.00     0.001 A 
ATOM     73  C   UNL A   1      39.968  26.005  27.608  1.00  0.00     0.000 A 
ENDBRANCH  49  68
BRANCH  61  74
ATOM     74  C   UNL A   1      42.715  34.132  29.877  1.00  0.00    -0.014 A 
ATOM     75  C   UNL A   1      41.448  34.684  29.616  1.00  0.00     0.009 A 
ATOM     76  C   UNL A   1      43.815  34.634  29.164  1.00  0.00     0.009 A 
ATOM     77  C   UNL A   1      41.281  35.677  28.646  1.00  0.00     0.001 A 
ATOM     78  C   UNL A   1      43.653  35.643  28.211  1.00  0.00     0.001 A 
ATOM     79  C   UNL A   1      42.386  36.159  27.948  1.00  0.00     0.000 A 
ENDBRANCH  61  74
ENDBRANCH  35  36
ENDBRANCH  28  30
ENDBRANCH  27  28
ENDBRANCH  26  27
ENDBRANCH  25  26
ENDBRANCH  24  25
ENDBRANCH  23  24
ENDBRANCH   1  23
TORSDOF 20
ENDMDL
MODEL 3
REMARK VINA RESULT:     -10.1      1.326      3.128
REMARK SMILES Cc1nsc(N(C)C(=O)[C@H]2CCOC2)c1C(=O)OCCOCCOCCOC(=O)c1ccc(-c2c3nc(c(-c4ccccc4)c4ccc([nH]4)c(-c4ccccc4)c4nc(c(-c5ccccc5)c5ccc2[nH]5)C=C4)C=C3)cc1
REMARK SMILES IDX 22 1 21 2 20 3 19 4 18 5 16 6 17 7 15 8 1 9 2 10 3 11 4 12
REMARK SMILES IDX 5 13 6 14 7 15 8 16 9 17 10 18 11 19 14 20 12 21 13 22 23 23
REMARK SMILES IDX 24 24 25 25 26 26 27 27 28 28 29 29 30 30 31 31 77 32 32 33
REMARK SMILES IDX 76 34 33 35 34 36 35 37 70 38 36 39 75 40 69 41 71 42 37 43
REMARK SMILES IDX 74 44 68 45 67 46 38 48 60 49 45 50 59 51 46 52 49 53 58 54
REMARK SMILES IDX 72 55 47 56 48 57 57 59 73 60 50 61 39 62 40 63 44 64 41 65
REMARK SMILES IDX 43 66 42 67 61 68 62 69 66 70 63 71 65 72 64 73 51 74 52 75
REMARK SMILES IDX 56 76 53 77 55 78 54 79
REMARK H PARENT 71 47 49 58
REMARK Flexibility Score: inf
ROOT
ATOM      1  C   UNL A   1      39.331  22.187  26.208  1.00  0.00     0.188 C 
ENDROOT
BRANCH   1   2
ATOM      2  O   UNL A   1      38.313  21.517  25.477  1.00  0.00    -0.376 OA
BRANCH   2   3
ATOM      3  C   UNL A   1      37.384  22.365  24.797  1.00  0.00     0.202 C 
BRANCH   3   4
ATOM      4  C   UNL A   1      36.461  23.168  25.720  1.00  0.00     0.261 C 
BRANCH   4   5
ATOM      5  O   UNL A   1      35.255  23.506  25.026  1.00  0.00    -0.460 OA
BRANCH   5   6
ATOM      6  C   UNL A   1      34.051  23.183  25.563  1.00  0.00     0.343 C 
ATOM      7  O   UNL A   1      33.717  23.363  26.718  1.00  0.00    -0.246 OA
BRANCH   6   8
ATOM      8  C   UNL A   1      33.259  22.480  24.564  1.00  0.00     0.117 A 
ATOM      9  C   UNL A   1      34.332  20.157  25.155  1.00  0.00     0.069 C 
ATOM     10  C   UNL A   1      33.378  21.038  24.414  1.00  0.00     0.068 A 
ATOM     11  N   UNL A   1      32.614  20.478  23.486  1.00  0.00    -0.195 NA
ATOM     12  S   UNL A   1      31.776  21.652  22.714  1.00  0.00    -0.017 S 
ATOM     13  C   UNL A   1      32.444  23.013  23.556  1.00  0.00     0.133 A 
BRANCH  13  14
ATOM     14  N   UNL A   1      32.109  24.307  23.035  1.00  0.00    -0.305 N 
ATOM     15  C   UNL A   1      30.770  24.889  23.221  1.00  0.00     0.154 C 
BRANCH  14  16
ATOM     16  C   UNL A   1      33.057  25.007  22.267  1.00  0.00     0.232 C 
ATOM     17  O   UNL A   1      33.290  24.762  21.084  1.00  0.00    -0.274 OA
BRANCH  16  18
ATOM     18  C   UNL A   1      33.819  26.172  22.914  1.00  0.00     0.107 C 
ATOM     19  C   UNL A   1      33.519  27.516  22.261  1.00  0.00     0.044 C 
ATOM     20  C   UNL A   1      33.380  26.457  24.340  1.00  0.00     0.173 C 
ATOM     21  C   UNL A   1      33.876  28.504  23.347  1.00  0.00     0.161 C 
ATOM     22  O   UNL A   1      33.628  27.848  24.597  1.00  0.00    -0.381 OA
ENDBRANCH  16  18
ENDBRANCH  14  16
ENDBRANCH  13  14
ENDBRANCH   6   8
ENDBRANCH   5   6
ENDBRANCH   4   5
ENDBRANCH   3   4
ENDBRANCH   2   3
ENDBRANCH   1   2
BRANCH   1  23
ATOM     23  C   UNL A   1      40.393  21.294  26.891  1.00  0.00     0.188 C 
BRANCH  23  24
ATOM     24  O   UNL A   1      41.421  20.645  26.156  1.00  0.00    -0.376 OA
BRANCH  24  25
ATOM     25  C   UNL A   1      42.149  19.566  26.720  1.00  0.00     0.202 C 
BRANCH  25  26
ATOM     26  C   UNL A   1      43.197  18.869  25.861  1.00  0.00     0.261 C 
BRANCH  26  27
ATOM     27  O   UNL A   1      43.437  19.528  24.624  1.00  0.00    -0.460 OA
BRANCH  27  28
ATOM     28  C   UNL A   1      44.741  19.701  24.321  1.00  0.00     0.338 C 
ATOM     29  O   UNL A   1      45.575  18.837  24.116  1.00  0.00    -0.246 OA
BRANCH  28  30
ATOM     30  C   UNL A   1      45.060  21.136  24.347  1.00  0.00     0.060 A 
ATOM     31  C   UNL A   1      46.166  21.509  25.115  1.00  0.00     0.016 A 
ATOM     32  C   UNL A   1      44.141  22.081  23.867  1.00  0.00     0.016 A 
ATOM     33  C   UNL A   1      46.198  22.783  25.635  1.00  0.00     0.010 A 
ATOM     34  C   UNL A   1      44.170  23.354  24.391  1.00  0.00     0.010 A 
ATOM     35  C   UNL A   1      45.130  23.642  25.359  1.00  0.00    -0.014 A 
BRANCH  35  36
ATOM     36  C   UNL A   1      44.967  24.776  26.243  1.00  0.00     0.031 A 
ATOM     37  C   UNL A   1      46.074  25.746  26.276  1.00  0.00     0.074 A 
ATOM     38  C   UNL A   1      43.839  24.949  26.956  1.00  0.00     0.049 A 
ATOM     39  N   UNL A   1      46.813  26.069  27.283  1.00  0.00    -0.248 NA
ATOM     40  C   UNL A   1      46.439  26.390  25.009  1.00  0.00     0.031 C 
ATOM     41  C   UNL A   1      42.559  24.250  26.804  1.00  0.00     0.029 A 
ATOM     42  N   UNL A   1      43.573  25.890  27.904  1.00  0.00    -0.354 N 
ATOM     43  C   UNL A   1      47.645  27.080  26.824  1.00  0.00     0.074 A 
ATOM     44  C   UNL A   1      47.457  27.157  25.396  1.00  0.00     0.031 C 
ATOM     45  C   UNL A   1      41.600  24.947  27.454  1.00  0.00     0.029 A 
ATOM     46  C   UNL A   1      42.224  26.053  28.163  1.00  0.00     0.049 A 
ATOM     47  H   UNL A   1      44.275  26.406  28.361  1.00  0.00     0.167 HD
ATOM     48  C   UNL A   1      48.282  27.933  27.669  1.00  0.00     0.031 A 
ATOM     49  C   UNL A   1      41.655  27.081  28.835  1.00  0.00     0.031 A 
ATOM     50  C   UNL A   1      48.350  27.439  29.016  1.00  0.00     0.049 A 
ATOM     51  C   UNL A   1      42.708  27.749  29.635  1.00  0.00     0.074 A 
ATOM     52  C   UNL A   1      48.890  26.318  29.613  1.00  0.00     0.029 A 
ATOM     53  N   UNL A   1      47.501  27.986  29.947  1.00  0.00    -0.354 N 
ATOM     54  N   UNL A   1      43.276  27.218  30.678  1.00  0.00    -0.248 NA
ATOM     55  C   UNL A   1      43.423  28.870  29.043  1.00  0.00     0.031 C 
ATOM     56  C   UNL A   1      47.998  25.994  30.677  1.00  0.00     0.029 A 
ATOM     57  C   UNL A   1      46.979  26.947  30.673  1.00  0.00     0.049 A 
ATOM     58  H   UNL A   1      47.306  28.943  30.070  1.00  0.00     0.167 HD
ATOM     59  C   UNL A   1      44.595  27.645  30.626  1.00  0.00     0.074 A 
ATOM     60  C   UNL A   1      44.594  28.753  29.675  1.00  0.00     0.031 C 
ATOM     61  C   UNL A   1      45.609  26.886  31.137  1.00  0.00     0.031 A 
BRANCH  48  62
ATOM     62  C   UNL A   1      48.532  29.373  27.319  1.00  0.00    -0.014 A 
ATOM     63  C   UNL A   1      49.842  29.873  27.356  1.00  0.00     0.009 A 
ATOM     64  C   UNL A   1      47.490  30.314  27.202  1.00  0.00     0.009 A 
ATOM     65  C   UNL A   1      50.091  31.250  27.310  1.00  0.00     0.001 A 
ATOM     66  C   UNL A   1      47.737  31.685  27.110  1.00  0.00     0.001 A 
ATOM     67  C   UNL A   1      49.039  32.153  27.186  1.00  0.00     0.000 A 
ENDBRANCH  48  62
BRANCH  49  68
ATOM     68  C   UNL A   1      40.329  27.685  28.595  1.00  0.00    -0.014 A 
ATOM     69  C   UNL A   1      39.338  27.663  29.586  1.00  0.00     0.009 A 
ATOM     70  C   UNL A   1      40.113  28.503  27.468  1.00  0.00     0.009 A 
ATOM     71  C   UNL A   1      38.185  28.451  29.464  1.00  0.00     0.001 A 
ATOM     72  C   UNL A   1      38.959  29.281  27.341  1.00  0.00     0.001 A 
ATOM     73  C   UNL A   1      38.000  29.264  28.347  1.00  0.00     0.000 A 
ENDBRANCH  49  68
BRANCH  61  74
ATOM     74  C   UNL A   1      45.241  25.697  31.992  1.00  0.00    -0.014 A 
ATOM     75  C   UNL A   1      45.237  25.749  33.398  1.00  0.00     0.009 A 
ATOM     76  C   UNL A   1      44.735  24.545  31.371  1.00  0.00     0.009 A 
ATOM     77  C   UNL A   1      44.781  24.667  34.156  1.00  0.00     0.001 A 
ATOM     78  C   UNL A   1      44.256  23.473  32.129  1.00  0.00     0.001 A 
ATOM     79  C   UNL A   1      44.286  23.531  33.520  1.00  0.00     0.000 A 
ENDBRANCH  61  74
ENDBRANCH  35  36
ENDBRANCH  28  30
ENDBRANCH  27  28
ENDBRANCH  26  27
ENDBRANCH  25  26
ENDBRANCH  24  25
ENDBRANCH  23  24
ENDBRANCH   1  23
TORSDOF 20
ENDMDL
