MODEL 1
REMARK VINA RESULT:     -10.9      0.000      0.000
REMARK SMILES CN1C(=O)/C(=C\c2ccc(-c3ccccc3C(=O)OCCOCCOCCOC(=O)c3ccc(-c4c5nc(c(-c6ccccc6)c6ccc([nH]6)c(-c6ccccc6)c6nc(c(-c7ccccc7)c7ccc4[nH]7)C=C6)C=C5)cc3)o2)C(=O)[NH+]=C1S
REMARK SMILES IDX 23 1 22 2 21 3 20 4 19 5 17 6 18 7 16 8 11 9 12 10 13 11
REMARK SMILES IDX 15 12 14 13 10 14 7 15 8 16 79 17 9 18 6 19 1 20 2 21 3 22
REMARK SMILES IDX 83 23 4 24 5 25 82 26 80 27 81 29 84 30 24 32 25 33 26 34
REMARK SMILES IDX 27 35 28 36 29 37 30 38 31 39 32 40 78 41 33 42 77 43 34 44
REMARK SMILES IDX 35 45 36 46 71 47 37 48 76 49 70 50 72 51 38 52 75 53 69 54
REMARK SMILES IDX 68 55 39 57 61 58 46 59 60 60 47 61 50 62 59 63 73 64 48 65
REMARK SMILES IDX 49 66 58 68 74 69 51 70 40 71 41 72 45 73 42 74 44 75 43 76
REMARK SMILES IDX 62 77 63 78 67 79 64 80 66 81 65 82 52 83 53 84 57 85 54 86
REMARK SMILES IDX 56 87 55 88
REMARK H PARENT 82 28 84 31 72 56 50 67
REMARK Flexibility Score: inf
ROOT
ATOM      1  C   UNL A   1      40.602  21.432  27.060  1.00  0.00     0.188 C 
ENDROOT
BRANCH   1   2
ATOM      2  O   UNL A   1      39.897  21.448  25.822  1.00  0.00    -0.376 OA
BRANCH   2   3
ATOM      3  C   UNL A   1      38.481  21.617  25.833  1.00  0.00     0.202 C 
BRANCH   3   4
ATOM      4  C   UNL A   1      37.870  22.925  25.308  1.00  0.00     0.261 C 
BRANCH   4   5
ATOM      5  O   UNL A   1      36.439  22.887  25.248  1.00  0.00    -0.460 OA
BRANCH   5   6
ATOM      6  C   UNL A   1      35.855  22.904  24.031  1.00  0.00     0.338 C 
ATOM      7  O   UNL A   1      36.361  23.298  22.993  1.00  0.00    -0.246 OA
BRANCH   6   8
ATOM      8  C   UNL A   1      34.543  22.199  24.072  1.00  0.00     0.071 A 
ATOM      9  C   UNL A   1      33.312  22.756  23.666  1.00  0.00     0.032 A 
ATOM     10  C   UNL A   1      32.160  21.947  23.760  1.00  0.00     0.013 A 
ATOM     11  C   UNL A   1      32.214  20.655  24.291  1.00  0.00     0.001 A 
ATOM     12  C   UNL A   1      34.584  20.905  24.624  1.00  0.00     0.016 A 
ATOM     13  C   UNL A   1      33.423  20.142  24.747  1.00  0.00     0.001 A 
BRANCH   9  14
ATOM     14  C   UNL A   1      33.164  24.140  23.222  1.00  0.00     0.135 A 
ATOM     15  C   UNL A   1      33.210  26.328  23.595  1.00  0.00     0.128 A 
ATOM     16  C   UNL A   1      33.139  26.133  22.221  1.00  0.00     0.051 A 
ATOM     17  O   UNL A   1      33.292  25.096  24.194  1.00  0.00    -0.457 OA
ATOM     18  C   UNL A   1      32.987  24.751  22.002  1.00  0.00     0.051 A 
BRANCH  15  19
ATOM     19  C   UNL A   1      33.134  27.560  24.295  1.00  0.00     0.071 C 
ATOM     20  C   UNL A   1      28.583  28.210  22.749  1.00  0.00     0.301 C 
ATOM     21  N   UNL A   1      29.761  28.680  23.478  1.00  0.00    -0.189 N 
ATOM     22  C   UNL A   1      30.696  27.729  23.818  1.00  0.00     0.349 C 
ATOM     23  C   UNL A   1      29.928  29.973  23.907  1.00  0.00     0.318 C 
ATOM     24  O   UNL A   1      30.464  26.526  23.751  1.00  0.00    -0.240 OA
ATOM     25  C   UNL A   1      31.983  28.263  24.324  1.00  0.00     0.157 C 
ATOM     26  N   UNL A   1      30.941  30.430  24.547  1.00  0.00    -0.200 N 
ATOM     27  C   UNL A   1      32.030  29.651  24.830  1.00  0.00     0.347 C 
ATOM     28  H   UNL A   1      30.935  31.369  24.843  1.00  0.00     0.316 HD
ATOM     29  O   UNL A   1      33.008  30.087  25.412  1.00  0.00    -0.241 OA
BRANCH  23  30
ATOM     30  S   UNL A   1      28.655  31.125  23.574  1.00  0.00    -0.055 SA
ATOM     31  H   UNL A   1      28.178  30.923  22.317  1.00  0.00     0.116 HD
ENDBRANCH  23  30
ENDBRANCH  15  19
ENDBRANCH   9  14
ENDBRANCH   6   8
ENDBRANCH   5   6
ENDBRANCH   4   5
ENDBRANCH   3   4
ENDBRANCH   2   3
ENDBRANCH   1   2
BRANCH   1  32
ATOM     32  C   UNL A   1      41.958  20.696  27.158  1.00  0.00     0.188 C 
BRANCH  32  33
ATOM     33  O   UNL A   1      42.388  20.114  25.951  1.00  0.00    -0.376 OA
BRANCH  33  34
ATOM     34  C   UNL A   1      43.681  20.409  25.458  1.00  0.00     0.202 C 
BRANCH  34  35
ATOM     35  C   UNL A   1      44.151  21.807  24.997  1.00  0.00     0.261 C 
BRANCH  35  36
ATOM     36  O   UNL A   1      44.441  22.798  25.990  1.00  0.00    -0.460 OA
BRANCH  36  37
ATOM     37  C   UNL A   1      44.573  24.073  25.551  1.00  0.00     0.338 C 
ATOM     38  O   UNL A   1      45.104  24.449  24.522  1.00  0.00    -0.246 OA
BRANCH  37  39
ATOM     39  C   UNL A   1      43.786  24.957  26.437  1.00  0.00     0.060 A 
ATOM     40  C   UNL A   1      44.143  26.308  26.532  1.00  0.00     0.016 A 
ATOM     41  C   UNL A   1      42.720  24.452  27.182  1.00  0.00     0.016 A 
ATOM     42  C   UNL A   1      43.453  27.154  27.400  1.00  0.00     0.010 A 
ATOM     43  C   UNL A   1      42.042  25.296  28.067  1.00  0.00     0.010 A 
ATOM     44  C   UNL A   1      42.427  26.642  28.206  1.00  0.00    -0.014 A 
BRANCH  44  45
ATOM     45  C   UNL A   1      41.883  27.468  29.312  1.00  0.00     0.031 A 
ATOM     46  C   UNL A   1      42.569  27.425  30.650  1.00  0.00     0.074 A 
ATOM     47  C   UNL A   1      40.815  28.265  29.132  1.00  0.00     0.049 A 
ATOM     48  N   UNL A   1      42.274  28.057  31.758  1.00  0.00    -0.248 NA
ATOM     49  C   UNL A   1      43.744  26.544  30.755  1.00  0.00     0.031 C 
ATOM     50  C   UNL A   1      40.079  28.424  27.879  1.00  0.00     0.029 A 
ATOM     51  N   UNL A   1      40.163  29.090  30.016  1.00  0.00    -0.354 N 
ATOM     52  C   UNL A   1      43.217  27.643  32.691  1.00  0.00     0.074 A 
ATOM     53  C   UNL A   1      44.071  26.680  32.030  1.00  0.00     0.031 C 
ATOM     54  C   UNL A   1      39.072  29.293  28.076  1.00  0.00     0.029 A 
ATOM     55  C   UNL A   1      39.074  29.725  29.473  1.00  0.00     0.049 A 
ATOM     56  H   UNL A   1      40.451  29.215  30.948  1.00  0.00     0.167 HD
ATOM     57  C   UNL A   1      43.364  28.032  33.980  1.00  0.00     0.031 A 
ATOM     58  C   UNL A   1      38.169  30.546  30.043  1.00  0.00     0.031 A 
ATOM     59  C   UNL A   1      42.503  28.975  34.643  1.00  0.00     0.049 A 
ATOM     60  C   UNL A   1      38.310  30.912  31.497  1.00  0.00     0.074 A 
ATOM     61  C   UNL A   1      42.588  29.454  35.939  1.00  0.00     0.029 A 
ATOM     62  N   UNL A   1      41.390  29.568  34.068  1.00  0.00    -0.354 N 
ATOM     63  N   UNL A   1      39.234  30.551  32.356  1.00  0.00    -0.248 NA
ATOM     64  C   UNL A   1      37.291  31.812  32.057  1.00  0.00     0.031 C 
ATOM     65  C   UNL A   1      41.485  30.281  36.171  1.00  0.00     0.029 A 
ATOM     66  C   UNL A   1      40.758  30.381  34.995  1.00  0.00     0.049 A 
ATOM     67  H   UNL A   1      41.092  29.432  33.141  1.00  0.00     0.167 HD
ATOM     68  C   UNL A   1      38.926  31.204  33.544  1.00  0.00     0.074 A 
ATOM     69  C   UNL A   1      37.738  31.994  33.291  1.00  0.00     0.031 C 
ATOM     70  C   UNL A   1      39.573  31.160  34.736  1.00  0.00     0.031 A 
BRANCH  57  71
ATOM     71  C   UNL A   1      44.474  27.394  34.770  1.00  0.00    -0.014 A 
ATOM     72  C   UNL A   1      45.751  27.974  34.849  1.00  0.00     0.009 A 
ATOM     73  C   UNL A   1      44.232  26.197  35.463  1.00  0.00     0.009 A 
ATOM     74  C   UNL A   1      46.772  27.346  35.566  1.00  0.00     0.001 A 
ATOM     75  C   UNL A   1      45.244  25.588  36.207  1.00  0.00     0.001 A 
ATOM     76  C   UNL A   1      46.517  26.157  36.248  1.00  0.00     0.000 A 
ENDBRANCH  57  71
BRANCH  58  77
ATOM     77  C   UNL A   1      37.037  31.073  29.235  1.00  0.00    -0.014 A 
ATOM     78  C   UNL A   1      37.055  32.385  28.739  1.00  0.00     0.009 A 
ATOM     79  C   UNL A   1      35.924  30.263  28.960  1.00  0.00     0.009 A 
ATOM     80  C   UNL A   1      35.976  32.881  28.003  1.00  0.00     0.001 A 
ATOM     81  C   UNL A   1      34.860  30.749  28.197  1.00  0.00     0.001 A 
ATOM     82  C   UNL A   1      34.883  32.061  27.727  1.00  0.00     0.000 A 
ENDBRANCH  58  77
BRANCH  70  83
ATOM     83  C   UNL A   1      39.042  32.023  35.849  1.00  0.00    -0.014 A 
ATOM     84  C   UNL A   1      38.177  31.513  36.830  1.00  0.00     0.009 A 
ATOM     85  C   UNL A   1      39.457  33.362  35.943  1.00  0.00     0.009 A 
ATOM     86  C   UNL A   1      37.710  32.337  37.858  1.00  0.00     0.001 A 
ATOM     87  C   UNL A   1      39.017  34.172  36.990  1.00  0.00     0.001 A 
ATOM     88  C   UNL A   1      38.136  33.662  37.941  1.00  0.00     0.000 A 
ENDBRANCH  70  83
ENDBRANCH  44  45
ENDBRANCH  37  39
ENDBRANCH  36  37
ENDBRANCH  35  36
ENDBRANCH  34  35
ENDBRANCH  33  34
ENDBRANCH  32  33
ENDBRANCH   1  32
TORSDOF 20
ENDMDL
MODEL 2
REMARK VINA RESULT:     -10.9      4.250      6.452
REMARK SMILES CN1C(=O)/C(=C\c2ccc(-c3ccccc3C(=O)OCCOCCOCCOC(=O)c3ccc(-c4c5nc(c(-c6ccccc6)c6ccc([nH]6)c(-c6ccccc6)c6nc(c(-c7ccccc7)c7ccc4[nH]7)C=C6)C=C5)cc3)o2)C(=O)[NH+]=C1S
REMARK SMILES IDX 23 1 22 2 21 3 20 4 19 5 17 6 18 7 16 8 11 9 12 10 13 11
REMARK SMILES IDX 15 12 14 13 10 14 7 15 8 16 79 17 9 18 6 19 1 20 2 21 3 22
REMARK SMILES IDX 83 23 4 24 5 25 82 26 80 27 81 29 84 30 24 32 25 33 26 34
REMARK SMILES IDX 27 35 28 36 29 37 30 38 31 39 32 40 78 41 33 42 77 43 34 44
REMARK SMILES IDX 35 45 36 46 71 47 37 48 76 49 70 50 72 51 38 52 75 53 69 54
REMARK SMILES IDX 68 55 39 57 61 58 46 59 60 60 47 61 50 62 59 63 73 64 48 65
REMARK SMILES IDX 49 66 58 68 74 69 51 70 40 71 41 72 45 73 42 74 44 75 43 76
REMARK SMILES IDX 62 77 63 78 67 79 64 80 66 81 65 82 52 83 53 84 57 85 54 86
REMARK SMILES IDX 56 87 55 88
REMARK H PARENT 82 28 84 31 72 56 50 67
REMARK Flexibility Score: inf
ROOT
ATOM      1  C   UNL A   1      40.020  22.446  27.140  1.00  0.00     0.188 C 
ENDROOT
BRANCH   1   2
ATOM      2  O   UNL A   1      39.270  22.189  25.957  1.00  0.00    -0.376 OA
BRANCH   2   3
ATOM      3  C   UNL A   1      37.875  22.484  25.943  1.00  0.00     0.202 C 
BRANCH   3   4
ATOM      4  C   UNL A   1      37.380  23.777  25.277  1.00  0.00     0.261 C 
BRANCH   4   5
ATOM      5  O   UNL A   1      35.983  23.741  24.961  1.00  0.00    -0.460 OA
BRANCH   5   6
ATOM      6  C   UNL A   1      35.605  23.113  23.828  1.00  0.00     0.338 C 
ATOM      7  O   UNL A   1      36.238  23.062  22.785  1.00  0.00    -0.246 OA
BRANCH   6   8
ATOM      8  C   UNL A   1      34.369  22.314  24.060  1.00  0.00     0.071 A 
ATOM      9  C   UNL A   1      33.120  22.560  23.452  1.00  0.00     0.032 A 
ATOM     10  C   UNL A   1      32.049  21.700  23.775  1.00  0.00     0.013 A 
ATOM     11  C   UNL A   1      32.194  20.671  24.710  1.00  0.00     0.001 A 
ATOM     12  C   UNL A   1      34.499  21.289  25.017  1.00  0.00     0.016 A 
ATOM     13  C   UNL A   1      33.413  20.481  25.351  1.00  0.00     0.001 A 
BRANCH   9  14
ATOM     14  C   UNL A   1      32.868  23.692  22.565  1.00  0.00     0.135 A 
ATOM     15  C   UNL A   1      32.069  25.725  22.168  1.00  0.00     0.128 A 
ATOM     16  C   UNL A   1      32.857  25.360  21.083  1.00  0.00     0.051 A 
ATOM     17  O   UNL A   1      32.138  24.720  23.099  1.00  0.00    -0.457 OA
ATOM     18  C   UNL A   1      33.258  24.026  21.287  1.00  0.00     0.051 A 
BRANCH  15  19
ATOM     19  C   UNL A   1      31.259  26.884  22.292  1.00  0.00     0.071 C 
ATOM     20  C   UNL A   1      34.137  28.572  25.812  1.00  0.00     0.301 C 
ATOM     21  N   UNL A   1      32.946  28.693  24.973  1.00  0.00    -0.189 N 
ATOM     22  C   UNL A   1      32.917  27.929  23.828  1.00  0.00     0.349 C 
ATOM     23  C   UNL A   1      31.923  29.575  25.220  1.00  0.00     0.318 C 
ATOM     24  O   UNL A   1      33.916  27.369  23.387  1.00  0.00    -0.240 OA
ATOM     25  C   UNL A   1      31.607  27.876  23.137  1.00  0.00     0.157 C 
ATOM     26  N   UNL A   1      30.862  29.715  24.514  1.00  0.00    -0.200 N 
ATOM     27  C   UNL A   1      30.605  28.924  23.428  1.00  0.00     0.347 C 
ATOM     28  H   UNL A   1      30.212  30.413  24.762  1.00  0.00     0.316 HD
ATOM     29  O   UNL A   1      29.584  29.032  22.770  1.00  0.00    -0.241 OA
BRANCH  23  30
ATOM     30  S   UNL A   1      32.058  30.626  26.610  1.00  0.00    -0.055 SA
ATOM     31  H   UNL A   1      30.991  31.469  26.646  1.00  0.00     0.116 HD
ENDBRANCH  23  30
ENDBRANCH  15  19
ENDBRANCH   9  14
ENDBRANCH   6   8
ENDBRANCH   5   6
ENDBRANCH   4   5
ENDBRANCH   3   4
ENDBRANCH   2   3
ENDBRANCH   1   2
BRANCH   1  32
ATOM     32  C   UNL A   1      41.261  21.581  27.461  1.00  0.00     0.188 C 
BRANCH  32  33
ATOM     33  O   UNL A   1      41.017  20.195  27.456  1.00  0.00    -0.376 OA
BRANCH  33  34
ATOM     34  C   UNL A   1      41.314  19.441  26.296  1.00  0.00     0.202 C 
BRANCH  34  35
ATOM     35  C   UNL A   1      42.737  19.048  25.840  1.00  0.00     0.261 C 
BRANCH  35  36
ATOM     36  O   UNL A   1      43.216  19.536  24.581  1.00  0.00    -0.460 OA
BRANCH  36  37
ATOM     37  C   UNL A   1      44.557  19.682  24.460  1.00  0.00     0.338 C 
ATOM     38  O   UNL A   1      45.347  18.887  23.985  1.00  0.00    -0.246 OA
BRANCH  37  39
ATOM     39  C   UNL A   1      44.911  21.070  24.827  1.00  0.00     0.060 A 
ATOM     40  C   UNL A   1      45.382  21.326  26.121  1.00  0.00     0.016 A 
ATOM     41  C   UNL A   1      44.759  22.109  23.909  1.00  0.00     0.016 A 
ATOM     42  C   UNL A   1      45.674  22.633  26.512  1.00  0.00     0.010 A 
ATOM     43  C   UNL A   1      45.033  23.421  24.309  1.00  0.00     0.010 A 
ATOM     44  C   UNL A   1      45.458  23.693  25.622  1.00  0.00    -0.014 A 
BRANCH  44  45
ATOM     45  C   UNL A   1      45.507  25.090  26.121  1.00  0.00     0.031 A 
ATOM     46  C   UNL A   1      46.820  25.823  26.087  1.00  0.00     0.074 A 
ATOM     47  C   UNL A   1      44.404  25.712  26.574  1.00  0.00     0.049 A 
ATOM     48  N   UNL A   1      47.102  27.043  26.468  1.00  0.00    -0.248 NA
ATOM     49  C   UNL A   1      47.972  25.076  25.555  1.00  0.00     0.031 C 
ATOM     50  C   UNL A   1      43.065  25.127  26.631  1.00  0.00     0.029 A 
ATOM     51  N   UNL A   1      44.242  26.980  27.077  1.00  0.00    -0.354 N 
ATOM     52  C   UNL A   1      48.463  27.205  26.233  1.00  0.00     0.074 A 
ATOM     53  C   UNL A   1      48.955  25.949  25.710  1.00  0.00     0.031 C 
ATOM     54  C   UNL A   1      42.218  26.036  27.145  1.00  0.00     0.029 A 
ATOM     55  C   UNL A   1      42.959  27.250  27.482  1.00  0.00     0.049 A 
ATOM     56  H   UNL A   1      44.977  27.632  27.140  1.00  0.00     0.167 HD
ATOM     57  C   UNL A   1      49.234  28.301  26.430  1.00  0.00     0.031 A 
ATOM     58  C   UNL A   1      42.444  28.347  28.074  1.00  0.00     0.031 A 
ATOM     59  C   UNL A   1      48.749  29.545  26.969  1.00  0.00     0.049 A 
ATOM     60  C   UNL A   1      43.334  29.531  28.348  1.00  0.00     0.074 A 
ATOM     61  C   UNL A   1      49.447  30.722  27.178  1.00  0.00     0.029 A 
ATOM     62  N   UNL A   1      47.450  29.766  27.399  1.00  0.00    -0.354 N 
ATOM     63  N   UNL A   1      44.608  29.689  28.078  1.00  0.00    -0.248 NA
ATOM     64  C   UNL A   1      42.710  30.694  28.995  1.00  0.00     0.031 C 
ATOM     65  C   UNL A   1      48.588  31.632  27.802  1.00  0.00     0.029 A 
ATOM     66  C   UNL A   1      47.335  31.050  27.906  1.00  0.00     0.049 A 
ATOM     67  H   UNL A   1      46.719  29.110  27.350  1.00  0.00     0.167 HD
ATOM     68  C   UNL A   1      44.928  30.978  28.491  1.00  0.00     0.074 A 
ATOM     69  C   UNL A   1      43.711  31.562  29.017  1.00  0.00     0.031 C 
ATOM     70  C   UNL A   1      46.120  31.622  28.433  1.00  0.00     0.031 A 
BRANCH  57  71
ATOM     71  C   UNL A   1      50.698  28.182  26.103  1.00  0.00    -0.014 A 
ATOM     72  C   UNL A   1      51.221  28.643  24.884  1.00  0.00     0.009 A 
ATOM     73  C   UNL A   1      51.573  27.612  27.042  1.00  0.00     0.009 A 
ATOM     74  C   UNL A   1      52.580  28.495  24.595  1.00  0.00     0.001 A 
ATOM     75  C   UNL A   1      52.936  27.495  26.764  1.00  0.00     0.001 A 
ATOM     76  C   UNL A   1      53.436  27.925  25.536  1.00  0.00     0.000 A 
ENDBRANCH  57  71
BRANCH  58  77
ATOM     77  C   UNL A   1      41.008  28.372  28.461  1.00  0.00    -0.014 A 
ATOM     78  C   UNL A   1      40.579  27.822  29.678  1.00  0.00     0.009 A 
ATOM     79  C   UNL A   1      40.053  28.946  27.606  1.00  0.00     0.009 A 
ATOM     80  C   UNL A   1      39.224  27.827  30.021  1.00  0.00     0.001 A 
ATOM     81  C   UNL A   1      38.704  28.979  27.965  1.00  0.00     0.001 A 
ATOM     82  C   UNL A   1      38.290  28.412  29.168  1.00  0.00     0.000 A 
ENDBRANCH  58  77
BRANCH  70  83
ATOM     83  C   UNL A   1      46.165  33.050  28.908  1.00  0.00    -0.014 A 
ATOM     84  C   UNL A   1      45.906  34.124  28.042  1.00  0.00     0.009 A 
ATOM     85  C   UNL A   1      46.423  33.319  30.262  1.00  0.00     0.009 A 
ATOM     86  C   UNL A   1      45.943  35.438  28.516  1.00  0.00     0.001 A 
ATOM     87  C   UNL A   1      46.425  34.630  30.740  1.00  0.00     0.001 A 
ATOM     88  C   UNL A   1      46.195  35.689  29.865  1.00  0.00     0.000 A 
ENDBRANCH  70  83
ENDBRANCH  44  45
ENDBRANCH  37  39
ENDBRANCH  36  37
ENDBRANCH  35  36
ENDBRANCH  34  35
ENDBRANCH  33  34
ENDBRANCH  32  33
ENDBRANCH   1  32
TORSDOF 20
ENDMDL
MODEL 3
REMARK VINA RESULT:     -10.8      4.493     10.002
REMARK SMILES CN1C(=O)/C(=C\c2ccc(-c3ccccc3C(=O)OCCOCCOCCOC(=O)c3ccc(-c4c5nc(c(-c6ccccc6)c6ccc([nH]6)c(-c6ccccc6)c6nc(c(-c7ccccc7)c7ccc4[nH]7)C=C6)C=C5)cc3)o2)C(=O)[NH+]=C1S
REMARK SMILES IDX 23 1 22 2 21 3 20 4 19 5 17 6 18 7 16 8 11 9 12 10 13 11
REMARK SMILES IDX 15 12 14 13 10 14 7 15 8 16 79 17 9 18 6 19 1 20 2 21 3 22
REMARK SMILES IDX 83 23 4 24 5 25 82 26 80 27 81 29 84 30 24 32 25 33 26 34
REMARK SMILES IDX 27 35 28 36 29 37 30 38 31 39 32 40 78 41 33 42 77 43 34 44
REMARK SMILES IDX 35 45 36 46 71 47 37 48 76 49 70 50 72 51 38 52 75 53 69 54
REMARK SMILES IDX 68 55 39 57 61 58 46 59 60 60 47 61 50 62 59 63 73 64 48 65
REMARK SMILES IDX 49 66 58 68 74 69 51 70 40 71 41 72 45 73 42 74 44 75 43 76
REMARK SMILES IDX 62 77 63 78 67 79 64 80 66 81 65 82 52 83 53 84 57 85 54 86
REMARK SMILES IDX 56 87 55 88
REMARK H PARENT 82 28 84 31 72 56 50 67
REMARK Flexibility Score: inf
ROOT
ATOM      1  C   UNL A   1      34.418  31.946  28.429  1.00  0.00     0.188 C 
ENDROOT
BRANCH   1   2
ATOM      2  O   UNL A   1      35.422  31.221  27.725  1.00  0.00    -0.376 OA
BRANCH   2   3
ATOM      3  C   UNL A   1      35.155  29.880  27.322  1.00  0.00     0.202 C 
BRANCH   3   4
ATOM      4  C   UNL A   1      33.785  29.256  27.626  1.00  0.00     0.261 C 
BRANCH   4   5
ATOM      5  O   UNL A   1      33.198  28.616  26.486  1.00  0.00    -0.460 OA
BRANCH   5   6
ATOM      6  C   UNL A   1      32.014  27.988  26.651  1.00  0.00     0.338 C 
ATOM      7  O   UNL A   1      31.421  27.831  27.706  1.00  0.00    -0.246 OA
BRANCH   6   8
ATOM      8  C   UNL A   1      31.412  27.656  25.330  1.00  0.00     0.071 A 
ATOM      9  C   UNL A   1      31.276  26.352  24.807  1.00  0.00     0.032 A 
ATOM     10  C   UNL A   1      30.671  26.209  23.540  1.00  0.00     0.013 A 
ATOM     11  C   UNL A   1      30.270  27.320  22.792  1.00  0.00     0.001 A 
ATOM     12  C   UNL A   1      31.023  28.769  24.560  1.00  0.00     0.016 A 
ATOM     13  C   UNL A   1      30.468  28.602  23.291  1.00  0.00     0.001 A 
BRANCH   9  14
ATOM     14  C   UNL A   1      31.788  25.161  25.479  1.00  0.00     0.135 A 
ATOM     15  C   UNL A   1      33.422  23.735  25.955  1.00  0.00     0.128 A 
ATOM     16  C   UNL A   1      32.367  23.475  26.820  1.00  0.00     0.051 A 
ATOM     17  O   UNL A   1      33.080  24.815  25.182  1.00  0.00    -0.457 OA
ATOM     18  C   UNL A   1      31.294  24.298  26.431  1.00  0.00     0.051 A 
BRANCH  15  19
ATOM     19  C   UNL A   1      34.622  22.991  25.812  1.00  0.00     0.071 C 
ATOM     20  C   UNL A   1      32.151  19.286  23.892  1.00  0.00     0.301 C 
ATOM     21  N   UNL A   1      33.404  19.874  24.364  1.00  0.00    -0.189 N 
ATOM     22  C   UNL A   1      33.432  21.243  24.498  1.00  0.00     0.349 C 
ATOM     23  C   UNL A   1      34.550  19.151  24.586  1.00  0.00     0.318 C 
ATOM     24  O   UNL A   1      32.564  21.968  24.020  1.00  0.00    -0.240 OA
ATOM     25  C   UNL A   1      34.613  21.783  25.212  1.00  0.00     0.157 C 
ATOM     26  N   UNL A   1      35.669  19.621  24.999  1.00  0.00    -0.200 N 
ATOM     27  C   UNL A   1      35.823  20.941  25.329  1.00  0.00     0.347 C 
ATOM     28  H   UNL A   1      36.441  19.015  25.082  1.00  0.00     0.316 HD
ATOM     29  O   UNL A   1      36.875  21.389  25.750  1.00  0.00    -0.241 OA
BRANCH  23  30
ATOM     30  S   UNL A   1      34.516  17.431  24.275  1.00  0.00    -0.055 SA
ATOM     31  H   UNL A   1      34.028  16.782  25.366  1.00  0.00     0.116 HD
ENDBRANCH  23  30
ENDBRANCH  15  19
ENDBRANCH   9  14
ENDBRANCH   6   8
ENDBRANCH   5   6
ENDBRANCH   4   5
ENDBRANCH   3   4
ENDBRANCH   2   3
ENDBRANCH   1   2
BRANCH   1  32
ATOM     32  C   UNL A   1      34.692  33.402  28.868  1.00  0.00     0.188 C 
BRANCH  32  33
ATOM     33  O   UNL A   1      33.755  33.917  29.782  1.00  0.00    -0.376 OA
BRANCH  33  34
ATOM     34  C   UNL A   1      34.200  34.409  31.032  1.00  0.00     0.202 C 
BRANCH  34  35
ATOM     35  C   UNL A   1      34.384  33.549  32.303  1.00  0.00     0.261 C 
BRANCH  35  36
ATOM     36  O   UNL A   1      35.209  32.381  32.230  1.00  0.00    -0.460 OA
BRANCH  36  37
ATOM     37  C   UNL A   1      36.241  32.315  33.105  1.00  0.00     0.338 C 
ATOM     38  O   UNL A   1      36.181  32.339  34.321  1.00  0.00    -0.246 OA
BRANCH  37  39
ATOM     39  C   UNL A   1      37.475  32.007  32.352  1.00  0.00     0.060 A 
ATOM     40  C   UNL A   1      37.501  32.248  30.972  1.00  0.00     0.016 A 
ATOM     41  C   UNL A   1      38.587  31.467  32.998  1.00  0.00     0.016 A 
ATOM     42  C   UNL A   1      38.633  31.919  30.226  1.00  0.00     0.010 A 
ATOM     43  C   UNL A   1      39.714  31.118  32.246  1.00  0.00     0.010 A 
ATOM     44  C   UNL A   1      39.729  31.310  30.852  1.00  0.00    -0.014 A 
BRANCH  44  45
ATOM     45  C   UNL A   1      40.809  30.717  30.024  1.00  0.00     0.031 A 
ATOM     46  C   UNL A   1      42.028  31.547  29.727  1.00  0.00     0.074 A 
ATOM     47  C   UNL A   1      40.727  29.456  29.564  1.00  0.00     0.049 A 
ATOM     48  N   UNL A   1      43.092  31.241  29.029  1.00  0.00    -0.248 NA
ATOM     49  C   UNL A   1      42.046  32.908  30.288  1.00  0.00     0.031 C 
ATOM     50  C   UNL A   1      39.618  28.536  29.806  1.00  0.00     0.029 A 
ATOM     51  N   UNL A   1      41.602  28.736  28.788  1.00  0.00    -0.354 N 
ATOM     52  C   UNL A   1      43.899  32.373  29.058  1.00  0.00     0.074 A 
ATOM     53  C   UNL A   1      43.186  33.382  29.812  1.00  0.00     0.031 C 
ATOM     54  C   UNL A   1      39.878  27.372  29.187  1.00  0.00     0.029 A 
ATOM     55  C   UNL A   1      41.154  27.476  28.480  1.00  0.00     0.049 A 
ATOM     56  H   UNL A   1      42.468  29.089  28.483  1.00  0.00     0.167 HD
ATOM     57  C   UNL A   1      45.125  32.557  28.512  1.00  0.00     0.031 A 
ATOM     58  C   UNL A   1      41.701  26.521  27.701  1.00  0.00     0.031 A 
ATOM     59  C   UNL A   1      45.825  31.561  27.745  1.00  0.00     0.049 A 
ATOM     60  C   UNL A   1      43.034  26.771  27.045  1.00  0.00     0.074 A 
ATOM     61  C   UNL A   1      47.084  31.642  27.175  1.00  0.00     0.029 A 
ATOM     62  N   UNL A   1      45.321  30.310  27.427  1.00  0.00    -0.354 N 
ATOM     63  N   UNL A   1      43.808  27.827  27.120  1.00  0.00    -0.248 NA
ATOM     64  C   UNL A   1      43.575  25.689  26.210  1.00  0.00     0.031 C 
ATOM     65  C   UNL A   1      47.311  30.468  26.450  1.00  0.00     0.029 A 
ATOM     66  C   UNL A   1      46.229  29.622  26.637  1.00  0.00     0.049 A 
ATOM     67  H   UNL A   1      44.448  29.961  27.718  1.00  0.00     0.167 HD
ATOM     68  C   UNL A   1      44.939  27.523  26.370  1.00  0.00     0.074 A 
ATOM     69  C   UNL A   1      44.755  26.180  25.861  1.00  0.00     0.031 C 
ATOM     70  C   UNL A   1      46.035  28.287  26.131  1.00  0.00     0.031 A 
BRANCH  57  71
ATOM     71  C   UNL A   1      45.762  33.908  28.686  1.00  0.00    -0.014 A 
ATOM     72  C   UNL A   1      45.548  34.949  27.767  1.00  0.00     0.009 A 
ATOM     73  C   UNL A   1      46.579  34.150  29.802  1.00  0.00     0.009 A 
ATOM     74  C   UNL A   1      46.174  36.186  27.938  1.00  0.00     0.001 A 
ATOM     75  C   UNL A   1      47.177  35.397  29.989  1.00  0.00     0.001 A 
ATOM     76  C   UNL A   1      46.984  36.410  29.051  1.00  0.00     0.000 A 
ENDBRANCH  57  71
BRANCH  58  77
ATOM     77  C   UNL A   1      40.980  25.237  27.488  1.00  0.00    -0.014 A 
ATOM     78  C   UNL A   1      41.461  24.041  28.041  1.00  0.00     0.009 A 
ATOM     79  C   UNL A   1      39.804  25.202  26.723  1.00  0.00     0.009 A 
ATOM     80  C   UNL A   1      40.792  22.835  27.814  1.00  0.00     0.001 A 
ATOM     81  C   UNL A   1      39.119  24.002  26.524  1.00  0.00     0.001 A 
ATOM     82  C   UNL A   1      39.618  22.818  27.063  1.00  0.00     0.000 A 
ENDBRANCH  58  77
BRANCH  70  83
ATOM     83  C   UNL A   1      47.146  27.675  25.319  1.00  0.00    -0.014 A 
ATOM     84  C   UNL A   1      48.132  26.869  25.907  1.00  0.00     0.009 A 
ATOM     85  C   UNL A   1      47.174  27.873  23.928  1.00  0.00     0.009 A 
ATOM     86  C   UNL A   1      49.144  26.306  25.125  1.00  0.00     0.001 A 
ATOM     87  C   UNL A   1      48.166  27.281  23.145  1.00  0.00     0.001 A 
ATOM     88  C   UNL A   1      49.156  26.506  23.745  1.00  0.00     0.000 A 
ENDBRANCH  70  83
ENDBRANCH  44  45
ENDBRANCH  37  39
ENDBRANCH  36  37
ENDBRANCH  35  36
ENDBRANCH  34  35
ENDBRANCH  33  34
ENDBRANCH  32  33
ENDBRANCH   1  32
TORSDOF 20
ENDMDL
