MODEL 1
REMARK VINA RESULT:     -11.1      0.000      0.000
REMARK SMILES O=C(OCCOCCOCCOC(=O)c1ccc(-c2c3nc(c(-c4ccccc4)c4ccc([nH]4)c(-c4ccccc4)c4nc(c(-c5ccccc5)c5ccc2[nH]5)C=C4)C=C3)cc1)C1=Cc2cc(S(F)(F)(F)(F)F)ccc2O[C@@H]1C(F)(F)F
REMARK SMILES IDX 8 1 7 2 6 3 5 4 4 5 3 6 2 7 1 8 63 9 64 10 78 11 65 12 77 13
REMARK SMILES IDX 66 14 76 15 67 16 75 17 74 18 79 19 80 20 81 21 82 22 68 23
REMARK SMILES IDX 69 24 70 25 71 26 72 27 73 28 9 29 10 30 11 31 12 32 13 33
REMARK SMILES IDX 14 34 15 35 16 36 62 37 17 38 61 39 18 40 19 41 20 42 55 43
REMARK SMILES IDX 21 44 60 45 54 46 56 47 22 48 59 49 53 50 52 51 23 53 45 54
REMARK SMILES IDX 30 55 44 56 31 57 34 58 43 59 57 60 32 61 33 62 42 64 58 65
REMARK SMILES IDX 35 66 24 67 25 68 29 69 26 70 28 71 27 72 46 73 47 74 51 75
REMARK SMILES IDX 48 76 50 77 49 78 36 79 37 80 41 81 38 82 40 83 39 84
REMARK H PARENT 56 52 34 63
REMARK Flexibility Score: inf
ROOT
ATOM      1  C   UNL A   1      32.120  29.262  26.302  1.00  0.00     0.188 C 
ENDROOT
BRANCH   1   2
ATOM      2  C   UNL A   1      32.016  28.377  25.071  1.00  0.00     0.188 C 
BRANCH   2   3
ATOM      3  O   UNL A   1      31.134  27.297  25.337  1.00  0.00    -0.376 OA
BRANCH   3   4
ATOM      4  C   UNL A   1      30.907  26.565  24.141  1.00  0.00     0.202 C 
BRANCH   4   5
ATOM      5  C   UNL A   1      30.137  25.295  24.462  1.00  0.00     0.261 C 
BRANCH   5   6
ATOM      6  O   UNL A   1      30.899  24.165  24.062  1.00  0.00    -0.460 OA
BRANCH   6   7
ATOM      7  C   UNL A   1      31.398  23.264  25.040  1.00  0.00     0.338 C 
ATOM      8  O   UNL A   1      30.647  22.348  25.501  1.00  0.00    -0.246 OA
BRANCH   7   9
ATOM      9  C   UNL A   1      32.829  23.393  25.533  1.00  0.00     0.087 C 
ATOM     10  C   UNL A   1      33.710  22.375  25.341  1.00  0.00     0.027 C 
ATOM     11  C   UNL A   1      33.277  24.662  26.242  1.00  0.00     0.316 C 
ATOM     12  C   UNL A   1      33.262  21.107  24.633  1.00  0.00     0.019 A 
ATOM     13  O   UNL A   1      32.199  22.615  23.137  1.00  0.00    -0.475 OA
ATOM     14  C   UNL A   1      33.486  19.835  25.136  1.00  0.00     0.036 A 
ATOM     15  C   UNL A   1      32.543  21.296  23.534  1.00  0.00     0.128 A 
ATOM     16  C   UNL A   1      33.146  18.796  24.237  1.00  0.00     0.107 A 
ATOM     17  C   UNL A   1      32.129  20.227  22.776  1.00  0.00     0.048 A 
ATOM     18  C   UNL A   1      32.366  18.943  23.182  1.00  0.00     0.028 A 
BRANCH  11  19
ATOM     19  C   UNL A   1      34.415  25.302  25.464  1.00  0.00     0.430 C 
ATOM     20  F   UNL A   1      34.163  25.218  24.161  1.00  0.00    -0.167 F 
ATOM     21  F   UNL A   1      34.526  26.581  25.812  1.00  0.00    -0.167 F 
ATOM     22  F   UNL A   1      35.551  24.667  25.738  1.00  0.00    -0.167 F 
ENDBRANCH  11  19
BRANCH  16  23
ATOM     23  S   UNL A   1      33.828  17.151  24.557  1.00  0.00     0.310 S 
ATOM     24  F   UNL A   1      33.463  16.640  23.100  1.00  0.00    -0.094 F 
ATOM     25  F   UNL A   1      32.397  16.672  25.009  1.00  0.00    -0.094 F 
ATOM     26  F   UNL A   1      34.419  15.740  24.838  1.00  0.00    -0.094 F 
ATOM     27  F   UNL A   1      35.221  17.607  23.969  1.00  0.00    -0.094 F 
ATOM     28  F   UNL A   1      33.217  18.553  24.161  1.00  0.00    -0.094 F 
ENDBRANCH  16  23
ENDBRANCH   7   9
ENDBRANCH   6   7
ENDBRANCH   5   6
ENDBRANCH   4   5
ENDBRANCH   3   4
ENDBRANCH   2   3
ENDBRANCH   1   2
BRANCH   1  29
ATOM     29  O   UNL A   1      32.323  30.609  25.901  1.00  0.00    -0.376 OA
BRANCH  29  30
ATOM     30  C   UNL A   1      31.744  31.482  26.859  1.00  0.00     0.202 C 
BRANCH  30  31
ATOM     31  C   UNL A   1      32.523  32.785  26.893  1.00  0.00     0.261 C 
BRANCH  31  32
ATOM     32  O   UNL A   1      32.058  33.589  27.967  1.00  0.00    -0.460 OA
BRANCH  32  33
ATOM     33  C   UNL A   1      32.938  34.503  28.603  1.00  0.00     0.338 C 
ATOM     34  O   UNL A   1      32.552  35.688  28.854  1.00  0.00    -0.246 OA
BRANCH  33  35
ATOM     35  C   UNL A   1      34.343  34.065  28.983  1.00  0.00     0.060 A 
ATOM     36  C   UNL A   1      35.427  34.358  28.171  1.00  0.00     0.016 A 
ATOM     37  C   UNL A   1      34.466  33.259  30.031  1.00  0.00     0.016 A 
ATOM     38  C   UNL A   1      36.543  33.514  28.380  1.00  0.00     0.010 A 
ATOM     39  C   UNL A   1      35.633  32.569  30.249  1.00  0.00     0.010 A 
ATOM     40  C   UNL A   1      36.726  32.763  29.451  1.00  0.00    -0.014 A 
BRANCH  40  41
ATOM     41  C   UNL A   1      38.077  32.150  29.778  1.00  0.00     0.031 A 
ATOM     42  C   UNL A   1      38.837  32.874  30.697  1.00  0.00     0.074 A 
ATOM     43  C   UNL A   1      38.420  30.894  29.308  1.00  0.00     0.049 A 
ATOM     44  N   UNL A   1      39.966  32.495  31.298  1.00  0.00    -0.248 NA
ATOM     45  C   UNL A   1      38.493  34.223  31.171  1.00  0.00     0.031 C 
ATOM     46  C   UNL A   1      37.655  30.153  28.387  1.00  0.00     0.029 A 
ATOM     47  N   UNL A   1      39.530  30.144  29.633  1.00  0.00    -0.354 N 
ATOM     48  C   UNL A   1      40.390  33.449  32.129  1.00  0.00     0.074 A 
ATOM     49  C   UNL A   1      39.451  34.577  32.054  1.00  0.00     0.031 C 
ATOM     50  C   UNL A   1      38.300  28.981  28.149  1.00  0.00     0.029 A 
ATOM     51  C   UNL A   1      39.478  28.967  28.919  1.00  0.00     0.049 A 
ATOM     52  H   UNL A   1      40.239  30.405  30.265  1.00  0.00     0.167 HD
ATOM     53  C   UNL A   1      41.520  33.422  32.947  1.00  0.00     0.031 A 
ATOM     54  C   UNL A   1      40.398  27.931  28.925  1.00  0.00     0.031 A 
ATOM     55  C   UNL A   1      42.417  32.366  32.985  1.00  0.00     0.049 A 
ATOM     56  C   UNL A   1      41.560  27.928  29.699  1.00  0.00     0.074 A 
ATOM     57  C   UNL A   1      43.557  32.320  33.809  1.00  0.00     0.029 A 
ATOM     58  N   UNL A   1      42.377  31.200  32.253  1.00  0.00    -0.354 N 
ATOM     59  N   UNL A   1      41.962  28.865  30.559  1.00  0.00    -0.248 NA
ATOM     60  C   UNL A   1      42.557  26.850  29.689  1.00  0.00     0.031 C 
ATOM     61  C   UNL A   1      44.202  31.147  33.572  1.00  0.00     0.029 A 
ATOM     62  C   UNL A   1      43.475  30.441  32.594  1.00  0.00     0.049 A 
ATOM     63  H   UNL A   1      41.684  30.952  31.600  1.00  0.00     0.167 HD
ATOM     64  C   UNL A   1      43.113  28.503  31.128  1.00  0.00     0.074 A 
ATOM     65  C   UNL A   1      43.516  27.205  30.571  1.00  0.00     0.031 C 
ATOM     66  C   UNL A   1      43.842  29.202  32.093  1.00  0.00     0.031 A 
BRANCH  53  67
ATOM     67  C   UNL A   1      41.783  34.619  33.847  1.00  0.00    -0.014 A 
ATOM     68  C   UNL A   1      41.201  34.707  35.101  1.00  0.00     0.009 A 
ATOM     69  C   UNL A   1      42.573  35.581  33.385  1.00  0.00     0.009 A 
ATOM     70  C   UNL A   1      41.284  35.996  35.681  1.00  0.00     0.001 A 
ATOM     71  C   UNL A   1      42.714  36.762  34.073  1.00  0.00     0.001 A 
ATOM     72  C   UNL A   1      42.119  36.941  35.291  1.00  0.00     0.000 A 
ENDBRANCH  53  67
BRANCH  54  73
ATOM     73  C   UNL A   1      40.125  26.727  28.037  1.00  0.00    -0.014 A 
ATOM     74  C   UNL A   1      39.313  25.720  28.533  1.00  0.00     0.009 A 
ATOM     75  C   UNL A   1      40.649  26.652  26.819  1.00  0.00     0.009 A 
ATOM     76  C   UNL A   1      39.346  24.528  27.769  1.00  0.00     0.001 A 
ATOM     77  C   UNL A   1      40.527  25.505  26.074  1.00  0.00     0.001 A 
ATOM     78  C   UNL A   1      39.788  24.448  26.527  1.00  0.00     0.000 A 
ENDBRANCH  54  73
BRANCH  66  79
ATOM     79  C   UNL A   1      45.116  28.565  32.625  1.00  0.00    -0.014 A 
ATOM     80  C   UNL A   1      46.338  28.748  31.998  1.00  0.00     0.009 A 
ATOM     81  C   UNL A   1      44.982  27.722  33.642  1.00  0.00     0.009 A 
ATOM     82  C   UNL A   1      47.305  27.771  32.334  1.00  0.00     0.001 A 
ATOM     83  C   UNL A   1      46.015  26.891  34.002  1.00  0.00     0.001 A 
ATOM     84  C   UNL A   1      47.233  26.976  33.385  1.00  0.00     0.000 A 
ENDBRANCH  66  79
ENDBRANCH  40  41
ENDBRANCH  33  35
ENDBRANCH  32  33
ENDBRANCH  31  32
ENDBRANCH  30  31
ENDBRANCH  29  30
ENDBRANCH   1  29
TORSDOF 19
ENDMDL
MODEL 2
REMARK VINA RESULT:     -10.9      4.058      9.347
REMARK SMILES O=C(OCCOCCOCCOC(=O)c1ccc(-c2c3nc(c(-c4ccccc4)c4ccc([nH]4)c(-c4ccccc4)c4nc(c(-c5ccccc5)c5ccc2[nH]5)C=C4)C=C3)cc1)C1=Cc2cc(S(F)(F)(F)(F)F)ccc2O[C@@H]1C(F)(F)F
REMARK SMILES IDX 8 1 7 2 6 3 5 4 4 5 3 6 2 7 1 8 63 9 64 10 78 11 65 12 77 13
REMARK SMILES IDX 66 14 76 15 67 16 75 17 74 18 79 19 80 20 81 21 82 22 68 23
REMARK SMILES IDX 69 24 70 25 71 26 72 27 73 28 9 29 10 30 11 31 12 32 13 33
REMARK SMILES IDX 14 34 15 35 16 36 62 37 17 38 61 39 18 40 19 41 20 42 55 43
REMARK SMILES IDX 21 44 60 45 54 46 56 47 22 48 59 49 53 50 52 51 23 53 45 54
REMARK SMILES IDX 30 55 44 56 31 57 34 58 43 59 57 60 32 61 33 62 42 64 58 65
REMARK SMILES IDX 35 66 24 67 25 68 29 69 26 70 28 71 27 72 46 73 47 74 51 75
REMARK SMILES IDX 48 76 50 77 49 78 36 79 37 80 41 81 38 82 40 83 39 84
REMARK H PARENT 56 52 34 63
REMARK Flexibility Score: inf
ROOT
ATOM      1  C   UNL A   1      35.108  20.475  24.920  1.00  0.00     0.188 C 
ENDROOT
BRANCH   1   2
ATOM      2  C   UNL A   1      34.853  21.491  26.021  1.00  0.00     0.188 C 
BRANCH   2   3
ATOM      3  O   UNL A   1      33.931  22.467  25.560  1.00  0.00    -0.376 OA
BRANCH   3   4
ATOM      4  C   UNL A   1      34.016  23.623  26.381  1.00  0.00     0.202 C 
BRANCH   4   5
ATOM      5  C   UNL A   1      32.619  24.149  26.664  1.00  0.00     0.261 C 
BRANCH   5   6
ATOM      6  O   UNL A   1      32.405  25.343  25.926  1.00  0.00    -0.460 OA
BRANCH   6   7
ATOM      7  C   UNL A   1      31.283  25.453  25.062  1.00  0.00     0.338 C 
ATOM      8  O   UNL A   1      30.144  25.760  25.535  1.00  0.00    -0.246 OA
BRANCH   7   9
ATOM      9  C   UNL A   1      31.444  25.202  23.571  1.00  0.00     0.087 C 
ATOM     10  C   UNL A   1      31.219  26.208  22.685  1.00  0.00     0.027 C 
ATOM     11  C   UNL A   1      31.857  23.827  23.072  1.00  0.00     0.316 C 
ATOM     12  C   UNL A   1      30.806  27.583  23.184  1.00  0.00     0.019 A 
ATOM     13  O   UNL A   1      32.498  27.226  24.813  1.00  0.00    -0.475 OA
ATOM     14  C   UNL A   1      29.722  28.282  22.679  1.00  0.00     0.036 A 
ATOM     15  C   UNL A   1      31.498  28.041  24.220  1.00  0.00     0.128 A 
ATOM     16  C   UNL A   1      29.622  29.610  23.160  1.00  0.00     0.107 A 
ATOM     17  C   UNL A   1      31.255  29.295  24.726  1.00  0.00     0.048 A 
ATOM     18  C   UNL A   1      30.237  30.065  24.235  1.00  0.00     0.028 A 
BRANCH  11  19
ATOM     19  C   UNL A   1      33.164  23.938  22.304  1.00  0.00     0.430 C 
ATOM     20  F   UNL A   1      33.642  22.721  22.066  1.00  0.00    -0.167 F 
ATOM     21  F   UNL A   1      32.948  24.563  21.150  1.00  0.00    -0.167 F 
ATOM     22  F   UNL A   1      34.044  24.628  23.024  1.00  0.00    -0.167 F 
ENDBRANCH  11  19
BRANCH  16  23
ATOM     23  S   UNL A   1      28.578  30.763  22.235  1.00  0.00     0.310 S 
ATOM     24  F   UNL A   1      27.835  29.588  21.471  1.00  0.00    -0.094 F 
ATOM     25  F   UNL A   1      29.641  30.754  21.072  1.00  0.00    -0.094 F 
ATOM     26  F   UNL A   1      27.683  31.760  21.446  1.00  0.00    -0.094 F 
ATOM     27  F   UNL A   1      27.460  30.651  23.345  1.00  0.00    -0.094 F 
ATOM     28  F   UNL A   1      29.423  29.664  22.995  1.00  0.00    -0.094 F 
ENDBRANCH  16  23
ENDBRANCH   7   9
ENDBRANCH   6   7
ENDBRANCH   5   6
ENDBRANCH   4   5
ENDBRANCH   3   4
ENDBRANCH   2   3
ENDBRANCH   1   2
BRANCH   1  29
ATOM     29  O   UNL A   1      36.424  19.958  25.049  1.00  0.00    -0.376 OA
BRANCH  29  30
ATOM     30  C   UNL A   1      37.362  20.944  24.644  1.00  0.00     0.202 C 
BRANCH  30  31
ATOM     31  C   UNL A   1      38.502  21.000  25.648  1.00  0.00     0.261 C 
BRANCH  31  32
ATOM     32  O   UNL A   1      39.272  19.810  25.558  1.00  0.00    -0.460 OA
BRANCH  32  33
ATOM     33  C   UNL A   1      40.638  19.818  25.946  1.00  0.00     0.338 C 
ATOM     34  O   UNL A   1      41.364  18.796  25.735  1.00  0.00    -0.246 OA
BRANCH  33  35
ATOM     35  C   UNL A   1      41.231  21.047  26.614  1.00  0.00     0.060 A 
ATOM     36  C   UNL A   1      41.226  21.184  27.993  1.00  0.00     0.016 A 
ATOM     37  C   UNL A   1      41.603  22.048  25.824  1.00  0.00     0.016 A 
ATOM     38  C   UNL A   1      41.355  22.521  28.436  1.00  0.00     0.010 A 
ATOM     39  C   UNL A   1      41.845  23.296  26.344  1.00  0.00     0.010 A 
ATOM     40  C   UNL A   1      41.799  23.518  27.693  1.00  0.00    -0.014 A 
BRANCH  40  41
ATOM     41  C   UNL A   1      42.235  24.840  28.303  1.00  0.00     0.031 A 
ATOM     42  C   UNL A   1      43.613  24.969  28.485  1.00  0.00     0.074 A 
ATOM     43  C   UNL A   1      41.329  25.868  28.495  1.00  0.00     0.049 A 
ATOM     44  N   UNL A   1      44.289  26.066  28.828  1.00  0.00    -0.248 NA
ATOM     45  C   UNL A   1      44.574  23.869  28.316  1.00  0.00     0.031 C 
ATOM     46  C   UNL A   1      39.938  25.748  28.304  1.00  0.00     0.029 A 
ATOM     47  N   UNL A   1      41.590  27.161  28.892  1.00  0.00    -0.354 N 
ATOM     48  C   UNL A   1      45.596  25.804  28.885  1.00  0.00     0.074 A 
ATOM     49  C   UNL A   1      45.797  24.385  28.563  1.00  0.00     0.031 C 
ATOM     50  C   UNL A   1      39.368  26.947  28.596  1.00  0.00     0.029 A 
ATOM     51  C   UNL A   1      40.391  27.837  28.971  1.00  0.00     0.049 A 
ATOM     52  H   UNL A   1      42.479  27.537  29.088  1.00  0.00     0.167 HD
ATOM     53  C   UNL A   1      46.628  26.693  29.192  1.00  0.00     0.031 A 
ATOM     54  C   UNL A   1      40.185  29.154  29.348  1.00  0.00     0.031 A 
ATOM     55  C   UNL A   1      46.424  28.022  29.527  1.00  0.00     0.049 A 
ATOM     56  C   UNL A   1      41.212  30.029  29.712  1.00  0.00     0.074 A 
ATOM     57  C   UNL A   1      47.453  28.933  29.832  1.00  0.00     0.029 A 
ATOM     58  N   UNL A   1      45.224  28.690  29.629  1.00  0.00    -0.354 N 
ATOM     59  N   UNL A   1      42.521  29.776  29.730  1.00  0.00    -0.248 NA
ATOM     60  C   UNL A   1      41.000  31.415  30.144  1.00  0.00     0.031 C 
ATOM     61  C   UNL A   1      46.882  30.132  30.122  1.00  0.00     0.029 A 
ATOM     62  C   UNL A   1      45.487  29.990  30.005  1.00  0.00     0.049 A 
ATOM     63  H   UNL A   1      44.333  28.307  29.462  1.00  0.00     0.167 HD
ATOM     64  C   UNL A   1      43.193  30.864  30.114  1.00  0.00     0.074 A 
ATOM     65  C   UNL A   1      42.224  31.931  30.393  1.00  0.00     0.031 C 
ATOM     66  C   UNL A   1      44.576  31.008  30.239  1.00  0.00     0.031 A 
BRANCH  53  67
ATOM     67  C   UNL A   1      48.056  26.174  29.156  1.00  0.00    -0.014 A 
ATOM     68  C   UNL A   1      48.666  25.689  30.302  1.00  0.00     0.009 A 
ATOM     69  C   UNL A   1      48.702  26.216  27.998  1.00  0.00     0.009 A 
ATOM     70  C   UNL A   1      50.068  25.538  30.185  1.00  0.00     0.001 A 
ATOM     71  C   UNL A   1      50.044  25.924  27.933  1.00  0.00     0.001 A 
ATOM     72  C   UNL A   1      50.724  25.496  29.039  1.00  0.00     0.000 A 
ENDBRANCH  53  67
BRANCH  54  73
ATOM     73  C   UNL A   1      38.757  29.677  29.367  1.00  0.00    -0.014 A 
ATOM     74  C   UNL A   1      38.061  29.631  30.564  1.00  0.00     0.009 A 
ATOM     75  C   UNL A   1      38.201  30.168  28.265  1.00  0.00     0.009 A 
ATOM     76  C   UNL A   1      36.671  29.866  30.429  1.00  0.00     0.001 A 
ATOM     77  C   UNL A   1      36.870  30.503  28.244  1.00  0.00     0.001 A 
ATOM     78  C   UNL A   1      36.106  30.427  29.375  1.00  0.00     0.000 A 
ENDBRANCH  54  73
BRANCH  66  79
ATOM     79  C   UNL A   1      45.116  32.367  30.658  1.00  0.00    -0.014 A 
ATOM     80  C   UNL A   1      45.486  33.322  29.726  1.00  0.00     0.009 A 
ATOM     81  C   UNL A   1      45.337  32.547  31.955  1.00  0.00     0.009 A 
ATOM     82  C   UNL A   1      46.353  34.316  30.238  1.00  0.00     0.001 A 
ATOM     83  C   UNL A   1      46.078  33.616  32.396  1.00  0.00     0.001 A 
ATOM     84  C   UNL A   1      46.528  34.568  31.523  1.00  0.00     0.000 A 
ENDBRANCH  66  79
ENDBRANCH  40  41
ENDBRANCH  33  35
ENDBRANCH  32  33
ENDBRANCH  31  32
ENDBRANCH  30  31
ENDBRANCH  29  30
ENDBRANCH   1  29
TORSDOF 19
ENDMDL
MODEL 3
REMARK VINA RESULT:     -10.9      4.520      9.647
REMARK SMILES O=C(OCCOCCOCCOC(=O)c1ccc(-c2c3nc(c(-c4ccccc4)c4ccc([nH]4)c(-c4ccccc4)c4nc(c(-c5ccccc5)c5ccc2[nH]5)C=C4)C=C3)cc1)C1=Cc2cc(S(F)(F)(F)(F)F)ccc2O[C@@H]1C(F)(F)F
REMARK SMILES IDX 8 1 7 2 6 3 5 4 4 5 3 6 2 7 1 8 63 9 64 10 78 11 65 12 77 13
REMARK SMILES IDX 66 14 76 15 67 16 75 17 74 18 79 19 80 20 81 21 82 22 68 23
REMARK SMILES IDX 69 24 70 25 71 26 72 27 73 28 9 29 10 30 11 31 12 32 13 33
REMARK SMILES IDX 14 34 15 35 16 36 62 37 17 38 61 39 18 40 19 41 20 42 55 43
REMARK SMILES IDX 21 44 60 45 54 46 56 47 22 48 59 49 53 50 52 51 23 53 45 54
REMARK SMILES IDX 30 55 44 56 31 57 34 58 43 59 57 60 32 61 33 62 42 64 58 65
REMARK SMILES IDX 35 66 24 67 25 68 29 69 26 70 28 71 27 72 46 73 47 74 51 75
REMARK SMILES IDX 48 76 50 77 49 78 36 79 37 80 41 81 38 82 40 83 39 84
REMARK H PARENT 56 52 34 63
REMARK Flexibility Score: inf
ROOT
ATOM      1  C   UNL A   1      33.445  21.695  24.430  1.00  0.00     0.188 C 
ENDROOT
BRANCH   1   2
ATOM      2  C   UNL A   1      33.068  23.093  24.893  1.00  0.00     0.188 C 
BRANCH   2   3
ATOM      3  O   UNL A   1      31.674  23.294  24.704  1.00  0.00    -0.376 OA
BRANCH   3   4
ATOM      4  C   UNL A   1      31.337  24.627  25.059  1.00  0.00     0.202 C 
BRANCH   4   5
ATOM      5  C   UNL A   1      32.010  24.989  26.372  1.00  0.00     0.261 C 
BRANCH   5   6
ATOM      6  O   UNL A   1      32.704  26.219  26.225  1.00  0.00    -0.460 OA
BRANCH   6   7
ATOM      7  C   UNL A   1      32.071  27.438  26.587  1.00  0.00     0.338 C 
ATOM      8  O   UNL A   1      31.784  27.668  27.804  1.00  0.00    -0.246 OA
BRANCH   7   9
ATOM      9  C   UNL A   1      31.737  28.467  25.520  1.00  0.00     0.087 C 
ATOM     10  C   UNL A   1      32.370  29.671  25.515  1.00  0.00     0.027 C 
ATOM     11  C   UNL A   1      30.696  28.151  24.459  1.00  0.00     0.316 C 
ATOM     12  C   UNL A   1      33.411  29.987  26.576  1.00  0.00     0.019 A 
ATOM     13  O   UNL A   1      34.162  27.775  26.143  1.00  0.00    -0.475 OA
ATOM     14  C   UNL A   1      33.405  31.153  27.325  1.00  0.00     0.036 A 
ATOM     15  C   UNL A   1      34.285  29.018  26.818  1.00  0.00     0.128 A 
ATOM     16  C   UNL A   1      34.558  31.325  28.127  1.00  0.00     0.107 A 
ATOM     17  C   UNL A   1      35.308  29.207  27.716  1.00  0.00     0.048 A 
ATOM     18  C   UNL A   1      35.397  30.358  28.448  1.00  0.00     0.028 A 
BRANCH  11  19
ATOM     19  C   UNL A   1      31.338  28.222  23.083  1.00  0.00     0.430 C 
ATOM     20  F   UNL A   1      30.499  27.729  22.177  1.00  0.00    -0.167 F 
ATOM     21  F   UNL A   1      31.614  29.489  22.787  1.00  0.00    -0.167 F 
ATOM     22  F   UNL A   1      32.462  27.511  23.080  1.00  0.00    -0.167 F 
ENDBRANCH  11  19
BRANCH  16  23
ATOM     23  S   UNL A   1      34.905  32.985  28.757  1.00  0.00     0.310 S 
ATOM     24  F   UNL A   1      33.519  33.551  28.232  1.00  0.00    -0.094 F 
ATOM     25  F   UNL A   1      35.513  33.363  27.354  1.00  0.00    -0.094 F 
ATOM     26  F   UNL A   1      35.209  34.409  29.303  1.00  0.00    -0.094 F 
ATOM     27  F   UNL A   1      34.167  32.634  30.108  1.00  0.00    -0.094 F 
ATOM     28  F   UNL A   1      34.488  31.574  28.179  1.00  0.00    -0.094 F 
ENDBRANCH  16  23
ENDBRANCH   7   9
ENDBRANCH   6   7
ENDBRANCH   5   6
ENDBRANCH   4   5
ENDBRANCH   3   4
ENDBRANCH   2   3
ENDBRANCH   1   2
BRANCH   1  29
ATOM     29  O   UNL A   1      34.855  21.608  24.292  1.00  0.00    -0.376 OA
BRANCH  29  30
ATOM     30  C   UNL A   1      35.328  20.455  24.973  1.00  0.00     0.202 C 
BRANCH  30  31
ATOM     31  C   UNL A   1      36.847  20.451  24.968  1.00  0.00     0.261 C 
BRANCH  31  32
ATOM     32  O   UNL A   1      37.327  21.472  25.830  1.00  0.00    -0.460 OA
BRANCH  32  33
ATOM     33  C   UNL A   1      38.716  21.573  26.107  1.00  0.00     0.338 C 
ATOM     34  O   UNL A   1      39.481  20.582  25.887  1.00  0.00    -0.246 OA
BRANCH  33  35
ATOM     35  C   UNL A   1      39.288  22.865  26.666  1.00  0.00     0.060 A 
ATOM     36  C   UNL A   1      38.804  24.097  26.257  1.00  0.00     0.016 A 
ATOM     37  C   UNL A   1      40.369  22.770  27.431  1.00  0.00     0.016 A 
ATOM     38  C   UNL A   1      39.705  25.166  26.470  1.00  0.00     0.010 A 
ATOM     39  C   UNL A   1      41.128  23.881  27.711  1.00  0.00     0.010 A 
ATOM     40  C   UNL A   1      40.742  25.122  27.287  1.00  0.00    -0.014 A 
BRANCH  40  41
ATOM     41  C   UNL A   1      41.465  26.382  27.733  1.00  0.00     0.031 A 
ATOM     42  C   UNL A   1      42.714  26.575  27.143  1.00  0.00     0.074 A 
ATOM     43  C   UNL A   1      40.833  27.318  28.534  1.00  0.00     0.049 A 
ATOM     44  N   UNL A   1      43.485  27.662  27.206  1.00  0.00    -0.248 NA
ATOM     45  C   UNL A   1      43.402  25.568  26.321  1.00  0.00     0.031 C 
ATOM     46  C   UNL A   1      39.569  27.134  29.126  1.00  0.00     0.029 A 
ATOM     47  N   UNL A   1      41.292  28.565  28.898  1.00  0.00    -0.354 N 
ATOM     48  C   UNL A   1      44.601  27.478  26.497  1.00  0.00     0.074 A 
ATOM     49  C   UNL A   1      44.566  26.127  25.922  1.00  0.00     0.031 C 
ATOM     50  C   UNL A   1      39.275  28.248  29.847  1.00  0.00     0.029 A 
ATOM     51  C   UNL A   1      40.349  29.148  29.717  1.00  0.00     0.049 A 
ATOM     52  H   UNL A   1      42.146  28.970  28.622  1.00  0.00     0.167 HD
ATOM     53  C   UNL A   1      45.644  28.386  26.305  1.00  0.00     0.031 A 
ATOM     54  C   UNL A   1      40.408  30.392  30.324  1.00  0.00     0.031 A 
ATOM     55  C   UNL A   1      45.681  29.646  26.878  1.00  0.00     0.049 A 
ATOM     56  C   UNL A   1      41.479  31.277  30.181  1.00  0.00     0.074 A 
ATOM     57  C   UNL A   1      46.722  30.576  26.690  1.00  0.00     0.029 A 
ATOM     58  N   UNL A   1      44.750  30.219  27.717  1.00  0.00    -0.354 N 
ATOM     59  N   UNL A   1      42.574  31.109  29.440  1.00  0.00    -0.248 NA
ATOM     60  C   UNL A   1      41.565  32.583  30.846  1.00  0.00     0.031 C 
ATOM     61  C   UNL A   1      46.427  31.691  27.410  1.00  0.00     0.029 A 
ATOM     62  C   UNL A   1      45.198  31.475  28.062  1.00  0.00     0.049 A 
ATOM     63  H   UNL A   1      43.910  29.803  28.016  1.00  0.00     0.167 HD
ATOM     64  C   UNL A   1      43.364  32.180  29.537  1.00  0.00     0.074 A 
ATOM     65  C   UNL A   1      42.729  33.141  30.449  1.00  0.00     0.031 C 
ATOM     66  C   UNL A   1      44.587  32.396  28.898  1.00  0.00     0.031 A 
BRANCH  53  67
ATOM     67  C   UNL A   1      46.805  27.967  25.417  1.00  0.00    -0.014 A 
ATOM     68  C   UNL A   1      46.777  28.203  24.052  1.00  0.00     0.009 A 
ATOM     69  C   UNL A   1      47.833  27.354  25.989  1.00  0.00     0.009 A 
ATOM     70  C   UNL A   1      47.763  27.491  23.328  1.00  0.00     0.001 A 
ATOM     71  C   UNL A   1      48.832  26.800  25.225  1.00  0.00     0.001 A 
ATOM     72  C   UNL A   1      48.838  26.944  23.865  1.00  0.00     0.000 A 
ENDBRANCH  53  67
BRANCH  54  73
ATOM     73  C   UNL A   1      39.239  30.816  31.199  1.00  0.00    -0.014 A 
ATOM     74  C   UNL A   1      39.274  30.481  32.544  1.00  0.00     0.009 A 
ATOM     75  C   UNL A   1      38.219  31.493  30.685  1.00  0.00     0.009 A 
ATOM     76  C   UNL A   1      38.038  30.658  33.211  1.00  0.00     0.001 A 
ATOM     77  C   UNL A   1      37.099  31.748  31.436  1.00  0.00     0.001 A 
ATOM     78  C   UNL A   1      37.040  31.393  32.755  1.00  0.00     0.000 A 
ENDBRANCH  54  73
BRANCH  66  79
ATOM     79  C   UNL A   1      45.291  33.723  29.136  1.00  0.00    -0.014 A 
ATOM     80  C   UNL A   1      45.086  34.814  28.307  1.00  0.00     0.009 A 
ATOM     81  C   UNL A   1      46.207  33.749  30.096  1.00  0.00     0.009 A 
ATOM     82  C   UNL A   1      46.107  35.791  28.384  1.00  0.00     0.001 A 
ATOM     83  C   UNL A   1      47.085  34.801  30.196  1.00  0.00     0.001 A 
ATOM     84  C   UNL A   1      46.979  35.887  29.371  1.00  0.00     0.000 A 
ENDBRANCH  66  79
ENDBRANCH  40  41
ENDBRANCH  33  35
ENDBRANCH  32  33
ENDBRANCH  31  32
ENDBRANCH  30  31
ENDBRANCH  29  30
ENDBRANCH   1  29
TORSDOF 19
ENDMDL
