MODEL 1
REMARK VINA RESULT:     -13.4      0.000      0.000
REMARK SMILES Cc1cccc(N2C(=O)/C(=C/c3ccc(C(=O)OCCOCCOCCOC(=O)c4ccc(-c5c6nc(c(-c7ccccc7)c7ccc([nH]7)c(-c7ccccc7)c7nc(c(-c8ccccc8)c8ccc5[nH]8)C=C7)C=C6)cc4)cc3)c3ccccc3C2=O)c1
REMARK SMILES IDX 22 1 21 2 20 3 19 4 18 5 16 6 17 7 15 8 12 9 13 10 79 11
REMARK SMILES IDX 14 12 78 13 11 14 7 15 8 16 86 17 9 18 10 19 85 20 87 21
REMARK SMILES IDX 80 22 84 23 81 24 83 25 82 26 6 27 1 28 2 29 3 30 88 31 4 32
REMARK SMILES IDX 5 33 23 34 24 35 25 36 26 37 27 38 28 39 29 40 30 41 31 42
REMARK SMILES IDX 77 43 32 44 76 45 33 46 34 47 35 48 70 49 36 50 75 51 69 52
REMARK SMILES IDX 71 53 37 54 74 55 68 56 67 57 38 59 60 60 45 61 59 62 46 63
REMARK SMILES IDX 49 64 58 65 72 66 47 67 48 68 57 70 73 71 50 72 39 73 40 74
REMARK SMILES IDX 44 75 41 76 43 77 42 78 61 79 62 80 66 81 63 82 65 83 64 84
REMARK SMILES IDX 51 85 52 86 56 87 53 88 55 89 54 90
REMARK H PARENT 71 58 49 69
REMARK Flexibility Score: inf
ROOT
ATOM      1  C   UNL A   1      44.009  19.617  25.436  1.00  0.00     0.188 C 
ENDROOT
BRANCH   1   2
ATOM      2  O   UNL A   1      42.614  19.327  25.228  1.00  0.00    -0.376 OA
BRANCH   2   3
ATOM      3  C   UNL A   1      41.567  19.623  26.137  1.00  0.00     0.202 C 
BRANCH   3   4
ATOM      4  C   UNL A   1      40.866  21.128  26.403  1.00  0.00     0.261 C 
BRANCH   4   5
ATOM      5  O   UNL A   1      39.347  21.850  26.119  1.00  0.00    -0.460 OA
BRANCH   5   6
ATOM      6  C   UNL A   1      38.179  21.654  25.365  1.00  0.00     0.338 C 
ATOM      7  O   UNL A   1      37.623  20.625  25.000  1.00  0.00    -0.246 OA
BRANCH   6   8
ATOM      8  C   UNL A   1      37.242  22.660  24.882  1.00  0.00     0.060 A 
ATOM      9  C   UNL A   1      34.857  23.971  24.288  1.00  0.00    -0.025 A 
ATOM     10  C   UNL A   1      35.417  24.144  25.545  1.00  0.00     0.009 A 
ATOM     11  C   UNL A   1      35.308  22.948  23.443  1.00  0.00     0.009 A 
ATOM     12  C   UNL A   1      36.593  23.467  25.842  1.00  0.00     0.016 A 
ATOM     13  C   UNL A   1      36.510  22.305  23.736  1.00  0.00     0.016 A 
BRANCH   9  14
ATOM     14  C   UNL A   1      34.113  25.101  23.745  1.00  0.00     0.022 C 
ATOM     15  N   UNL A   1      31.301  26.813  24.384  1.00  0.00    -0.242 N 
ATOM     16  C   UNL A   1      32.087  26.289  23.337  1.00  0.00     0.265 C 
ATOM     17  C   UNL A   1      31.027  26.033  25.548  1.00  0.00     0.265 C 
ATOM     18  O   UNL A   1      32.320  26.725  22.214  1.00  0.00    -0.268 OA
ATOM     19  C   UNL A   1      32.762  25.041  23.721  1.00  0.00     0.049 C 
ATOM     20  C   UNL A   1      31.182  24.551  25.437  1.00  0.00     0.048 A 
ATOM     21  O   UNL A   1      30.668  26.432  26.653  1.00  0.00    -0.268 OA
ATOM     22  C   UNL A   1      31.942  24.039  24.395  1.00  0.00    -0.000 A 
ATOM     23  C   UNL A   1      30.627  23.677  26.380  1.00  0.00     0.014 A 
ATOM     24  C   UNL A   1      32.022  22.655  24.193  1.00  0.00     0.010 A 
ATOM     25  C   UNL A   1      30.798  22.296  26.241  1.00  0.00     0.001 A 
ATOM     26  C   UNL A   1      31.470  21.784  25.133  1.00  0.00     0.001 A 
BRANCH  15  27
ATOM     27  C   UNL A   1      30.831  28.191  24.285  1.00  0.00     0.053 A 
ATOM     28  C   UNL A   1      28.315  30.213  22.214  1.00  0.00     0.044 C 
ATOM     29  C   UNL A   1      29.383  29.889  23.218  1.00  0.00    -0.049 A 
ATOM     30  C   UNL A   1      29.909  30.877  24.041  1.00  0.00     0.003 A 
ATOM     31  C   UNL A   1      29.833  28.567  23.364  1.00  0.00     0.030 A 
ATOM     32  C   UNL A   1      30.883  30.544  24.973  1.00  0.00     0.002 A 
ATOM     33  C   UNL A   1      31.337  29.224  25.088  1.00  0.00     0.027 A 
ENDBRANCH  15  27
ENDBRANCH   9  14
ENDBRANCH   6   8
ENDBRANCH   5   6
ENDBRANCH   4   5
ENDBRANCH   3   4
ENDBRANCH   2   3
ENDBRANCH   1   2
BRANCH   1  34
ATOM     34  C   UNL A   1      44.812  20.413  24.410  1.00  0.00     0.188 C 
BRANCH  34  35
ATOM     35  O   UNL A   1      45.681  21.297  25.092  1.00  0.00    -0.376 OA
BRANCH  35  36
ATOM     36  C   UNL A   1      45.595  22.656  24.707  1.00  0.00     0.202 C 
BRANCH  36  37
ATOM     37  C   UNL A   1      44.166  23.029  24.292  1.00  0.00     0.261 C 
BRANCH  37  38
ATOM     38  O   UNL A   1      43.727  24.204  25.022  1.00  0.00    -0.460 OA
BRANCH  38  39
ATOM     39  C   UNL A   1      43.138  23.997  26.246  1.00  0.00     0.338 C 
ATOM     40  O   UNL A   1      43.409  23.073  26.999  1.00  0.00    -0.246 OA
BRANCH  39  41
ATOM     41  C   UNL A   1      41.945  24.904  26.414  1.00  0.00     0.060 A 
ATOM     42  C   UNL A   1      41.843  26.212  25.923  1.00  0.00     0.016 A 
ATOM     43  C   UNL A   1      41.102  24.602  27.429  1.00  0.00     0.016 A 
ATOM     44  C   UNL A   1      41.041  27.236  26.599  1.00  0.00     0.010 A 
ATOM     45  C   UNL A   1      40.629  25.697  28.170  1.00  0.00     0.010 A 
ATOM     46  C   UNL A   1      40.458  27.066  27.866  1.00  0.00    -0.014 A 
BRANCH  46  47
ATOM     47  C   UNL A   1      39.995  28.305  28.918  1.00  0.00     0.031 A 
ATOM     48  C   UNL A   1      38.794  29.484  28.936  1.00  0.00     0.074 A 
ATOM     49  C   UNL A   1      40.839  28.565  29.945  1.00  0.00     0.049 A 
ATOM     50  N   UNL A   1      39.034  30.787  29.044  1.00  0.00    -0.248 NA
ATOM     51  C   UNL A   1      37.320  29.350  28.726  1.00  0.00     0.031 C 
ATOM     52  C   UNL A   1      40.657  29.525  31.031  1.00  0.00     0.029 A 
ATOM     53  N   UNL A   1      42.141  28.110  30.116  1.00  0.00    -0.354 N 
ATOM     54  C   UNL A   1      37.825  31.494  28.932  1.00  0.00     0.074 A 
ATOM     55  C   UNL A   1      36.831  30.569  28.580  1.00  0.00     0.031 C 
ATOM     56  C   UNL A   1      41.860  29.811  31.553  1.00  0.00     0.029 A 
ATOM     57  C   UNL A   1      42.859  29.107  30.771  1.00  0.00     0.049 A 
ATOM     58  H   UNL A   1      42.493  27.237  29.826  1.00  0.00     0.167 HD
ATOM     59  C   UNL A   1      37.572  32.781  29.283  1.00  0.00     0.031 A 
ATOM     60  C   UNL A   1      43.992  29.638  30.234  1.00  0.00     0.031 A 
ATOM     61  C   UNL A   1      38.673  33.304  30.020  1.00  0.00     0.049 A 
ATOM     62  C   UNL A   1      43.942  31.137  30.076  1.00  0.00     0.074 A 
ATOM     63  C   UNL A   1      38.974  33.226  31.367  1.00  0.00     0.029 A 
ATOM     64  N   UNL A   1      39.832  33.604  29.345  1.00  0.00    -0.354 N 
ATOM     65  N   UNL A   1      42.853  31.849  30.147  1.00  0.00    -0.248 NA
ATOM     66  C   UNL A   1      45.118  31.951  29.776  1.00  0.00     0.031 C 
ATOM     67  C   UNL A   1      40.363  33.440  31.499  1.00  0.00     0.029 A 
ATOM     68  C   UNL A   1      40.869  33.709  30.241  1.00  0.00     0.049 A 
ATOM     69  H   UNL A   1      39.907  33.725  28.371  1.00  0.00     0.167 HD
ATOM     70  C   UNL A   1      43.143  33.155  29.848  1.00  0.00     0.074 A 
ATOM     71  C   UNL A   1      44.577  33.176  29.657  1.00  0.00     0.031 C 
ATOM     72  C   UNL A   1      42.169  34.102  29.749  1.00  0.00     0.031 A 
BRANCH  59  73
ATOM     73  C   UNL A   1      36.150  33.318  29.309  1.00  0.00    -0.014 A 
ATOM     74  C   UNL A   1      35.564  33.792  28.126  1.00  0.00     0.009 A 
ATOM     75  C   UNL A   1      35.403  33.495  30.495  1.00  0.00     0.009 A 
ATOM     76  C   UNL A   1      34.372  34.531  28.139  1.00  0.00     0.001 A 
ATOM     77  C   UNL A   1      34.234  34.276  30.520  1.00  0.00     0.001 A 
ATOM     78  C   UNL A   1      33.731  34.812  29.340  1.00  0.00     0.000 A 
ENDBRANCH  59  73
BRANCH  60  79
ATOM     79  C   UNL A   1      44.772  28.709  29.364  1.00  0.00    -0.014 A 
ATOM     80  C   UNL A   1      45.421  27.613  29.971  1.00  0.00     0.009 A 
ATOM     81  C   UNL A   1      44.641  28.709  27.967  1.00  0.00     0.009 A 
ATOM     82  C   UNL A   1      45.849  26.514  29.220  1.00  0.00     0.001 A 
ATOM     83  C   UNL A   1      45.085  27.608  27.213  1.00  0.00     0.001 A 
ATOM     84  C   UNL A   1      45.666  26.506  27.841  1.00  0.00     0.000 A 
ENDBRANCH  60  79
BRANCH  72  85
ATOM     85  C   UNL A   1      42.287  35.498  29.189  1.00  0.00    -0.014 A 
ATOM     86  C   UNL A   1      43.064  36.510  29.756  1.00  0.00     0.009 A 
ATOM     87  C   UNL A   1      41.723  35.768  27.915  1.00  0.00     0.009 A 
ATOM     88  C   UNL A   1      43.247  37.735  29.098  1.00  0.00     0.001 A 
ATOM     89  C   UNL A   1      41.948  36.963  27.233  1.00  0.00     0.001 A 
ATOM     90  C   UNL A   1      42.705  37.954  27.833  1.00  0.00     0.000 A 
ENDBRANCH  72  85
ENDBRANCH  46  47
ENDBRANCH  39  41
ENDBRANCH  38  39
ENDBRANCH  37  38
ENDBRANCH  36  37
ENDBRANCH  35  36
ENDBRANCH  34  35
ENDBRANCH   1  34
TORSDOF 19
ENDMDL
MODEL 2
REMARK VINA RESULT:     -13.0      2.397      3.157
REMARK SMILES Cc1cccc(N2C(=O)/C(=C/c3ccc(C(=O)OCCOCCOCCOC(=O)c4ccc(-c5c6nc(c(-c7ccccc7)c7ccc([nH]7)c(-c7ccccc7)c7nc(c(-c8ccccc8)c8ccc5[nH]8)C=C7)C=C6)cc4)cc3)c3ccccc3C2=O)c1
REMARK SMILES IDX 22 1 21 2 20 3 19 4 18 5 16 6 17 7 15 8 12 9 13 10 79 11
REMARK SMILES IDX 14 12 78 13 11 14 7 15 8 16 86 17 9 18 10 19 85 20 87 21
REMARK SMILES IDX 80 22 84 23 81 24 83 25 82 26 6 27 1 28 2 29 3 30 88 31 4 32
REMARK SMILES IDX 5 33 23 34 24 35 25 36 26 37 27 38 28 39 29 40 30 41 31 42
REMARK SMILES IDX 77 43 32 44 76 45 33 46 34 47 35 48 70 49 36 50 75 51 69 52
REMARK SMILES IDX 71 53 37 54 74 55 68 56 67 57 38 59 60 60 45 61 59 62 46 63
REMARK SMILES IDX 49 64 58 65 72 66 47 67 48 68 57 70 73 71 50 72 39 73 40 74
REMARK SMILES IDX 44 75 41 76 43 77 42 78 61 79 62 80 66 81 63 82 65 83 64 84
REMARK SMILES IDX 51 85 52 86 56 87 53 88 55 89 54 90
REMARK H PARENT 71 58 49 69
REMARK Flexibility Score: inf
ROOT
ATOM      1  C   UNL A   1      44.894  22.426  25.965  1.00  0.00     0.188 C 
ENDROOT
BRANCH   1   2
ATOM      2  O   UNL A   1      43.520  22.139  25.644  1.00  0.00    -0.376 OA
BRANCH   2   3
ATOM      3  C   UNL A   1      42.415  22.325  26.513  1.00  0.00     0.202 C 
BRANCH   3   4
ATOM      4  C   UNL A   1      40.877  21.670  26.334  1.00  0.00     0.261 C 
BRANCH   4   5
ATOM      5  O   UNL A   1      39.295  22.273  26.127  1.00  0.00    -0.460 OA
BRANCH   5   6
ATOM      6  C   UNL A   1      38.099  21.969  25.458  1.00  0.00     0.338 C 
ATOM      7  O   UNL A   1      37.555  20.893  25.237  1.00  0.00    -0.246 OA
BRANCH   6   8
ATOM      8  C   UNL A   1      37.114  22.893  24.913  1.00  0.00     0.060 A 
ATOM      9  C   UNL A   1      34.680  23.962  24.078  1.00  0.00    -0.025 A 
ATOM     10  C   UNL A   1      35.049  24.102  25.408  1.00  0.00     0.009 A 
ATOM     11  C   UNL A   1      35.360  23.064  23.243  1.00  0.00     0.009 A 
ATOM     12  C   UNL A   1      36.252  23.545  25.821  1.00  0.00     0.016 A 
ATOM     13  C   UNL A   1      36.585  22.544  23.658  1.00  0.00     0.016 A 
BRANCH   9  14
ATOM     14  C   UNL A   1      33.877  25.035  23.508  1.00  0.00     0.022 C 
ATOM     15  N   UNL A   1      31.026  26.677  24.161  1.00  0.00    -0.242 N 
ATOM     16  C   UNL A   1      31.796  26.129  23.113  1.00  0.00     0.265 C 
ATOM     17  C   UNL A   1      30.821  25.947  25.371  1.00  0.00     0.265 C 
ATOM     18  O   UNL A   1      31.975  26.517  21.963  1.00  0.00    -0.268 OA
ATOM     19  C   UNL A   1      32.529  24.927  23.534  1.00  0.00     0.049 C 
ATOM     20  C   UNL A   1      31.026  24.468  25.327  1.00  0.00     0.048 A 
ATOM     21  O   UNL A   1      30.484  26.388  26.467  1.00  0.00    -0.268 OA
ATOM     22  C   UNL A   1      31.770  23.931  24.285  1.00  0.00    -0.000 A 
ATOM     23  C   UNL A   1      30.537  23.623  26.331  1.00  0.00     0.014 A 
ATOM     24  C   UNL A   1      31.894  22.543  24.148  1.00  0.00     0.010 A 
ATOM     25  C   UNL A   1      30.754  22.244  26.253  1.00  0.00     0.001 A 
ATOM     26  C   UNL A   1      31.407  21.701  25.149  1.00  0.00     0.001 A 
BRANCH  15  27
ATOM     27  C   UNL A   1      30.503  28.030  24.011  1.00  0.00     0.053 A 
ATOM     28  C   UNL A   1      27.463  29.764  22.442  1.00  0.00     0.044 C 
ATOM     29  C   UNL A   1      28.769  29.574  23.157  1.00  0.00    -0.049 A 
ATOM     30  C   UNL A   1      29.462  30.662  23.673  1.00  0.00     0.003 A 
ATOM     31  C   UNL A   1      29.284  28.283  23.350  1.00  0.00     0.030 A 
ATOM     32  C   UNL A   1      30.659  30.455  24.346  1.00  0.00     0.002 A 
ATOM     33  C   UNL A   1      31.170  29.160  24.507  1.00  0.00     0.027 A 
ENDBRANCH  15  27
ENDBRANCH   9  14
ENDBRANCH   6   8
ENDBRANCH   5   6
ENDBRANCH   4   5
ENDBRANCH   3   4
ENDBRANCH   2   3
ENDBRANCH   1   2
BRANCH   1  34
ATOM     34  C   UNL A   1      45.267  23.167  27.246  1.00  0.00     0.188 C 
BRANCH  34  35
ATOM     35  O   UNL A   1      45.370  24.550  26.964  1.00  0.00    -0.376 OA
BRANCH  35  36
ATOM     36  C   UNL A   1      45.937  24.877  25.710  1.00  0.00     0.202 C 
BRANCH  36  37
ATOM     37  C   UNL A   1      45.319  26.159  25.136  1.00  0.00     0.261 C 
BRANCH  37  38
ATOM     38  O   UNL A   1      44.043  26.424  25.773  1.00  0.00    -0.460 OA
BRANCH  38  39
ATOM     39  C   UNL A   1      43.682  27.741  25.929  1.00  0.00     0.338 C 
ATOM     40  O   UNL A   1      44.470  28.658  26.113  1.00  0.00    -0.246 OA
BRANCH  39  41
ATOM     41  C   UNL A   1      42.189  27.859  26.101  1.00  0.00     0.060 A 
ATOM     42  C   UNL A   1      41.433  29.016  25.867  1.00  0.00     0.016 A 
ATOM     43  C   UNL A   1      41.605  26.943  26.908  1.00  0.00     0.016 A 
ATOM     44  C   UNL A   1      40.203  29.305  26.610  1.00  0.00     0.010 A 
ATOM     45  C   UNL A   1      40.618  27.440  27.775  1.00  0.00     0.010 A 
ATOM     46  C   UNL A   1      39.768  28.567  27.723  1.00  0.00    -0.014 A 
BRANCH  46  47
ATOM     47  C   UNL A   1      38.709  29.115  28.922  1.00  0.00     0.031 A 
ATOM     48  C   UNL A   1      37.604  30.376  29.067  1.00  0.00     0.074 A 
ATOM     49  C   UNL A   1      38.831  28.535  30.139  1.00  0.00     0.049 A 
ATOM     50  N   UNL A   1      37.643  31.288  30.034  1.00  0.00    -0.248 NA
ATOM     51  C   UNL A   1      36.501  30.792  28.149  1.00  0.00     0.031 C 
ATOM     52  C   UNL A   1      38.010  28.765  31.326  1.00  0.00     0.029 A 
ATOM     53  N   UNL A   1      39.859  27.719  30.598  1.00  0.00    -0.354 N 
ATOM     54  C   UNL A   1      36.640  32.247  29.809  1.00  0.00     0.074 A 
ATOM     55  C   UNL A   1      36.077  31.976  28.553  1.00  0.00     0.031 C 
ATOM     56  C   UNL A   1      38.705  28.378  32.406  1.00  0.00     0.029 A 
ATOM     57  C   UNL A   1      40.021  27.960  31.959  1.00  0.00     0.049 A 
ATOM     58  H   UNL A   1      40.380  27.083  30.055  1.00  0.00     0.167 HD
ATOM     59  C   UNL A   1      36.135  33.152  30.686  1.00  0.00     0.031 A 
ATOM     60  C   UNL A   1      41.216  28.358  32.474  1.00  0.00     0.031 A 
ATOM     61  C   UNL A   1      36.609  32.866  31.999  1.00  0.00     0.049 A 
ATOM     62  C   UNL A   1      41.142  29.651  33.250  1.00  0.00     0.074 A 
ATOM     63  C   UNL A   1      36.130  31.996  32.959  1.00  0.00     0.029 A 
ATOM     64  N   UNL A   1      37.920  33.147  32.299  1.00  0.00    -0.354 N 
ATOM     65  N   UNL A   1      40.140  30.481  33.202  1.00  0.00    -0.248 NA
ATOM     66  C   UNL A   1      42.222  30.134  34.107  1.00  0.00     0.031 C 
ATOM     67  C   UNL A   1      37.199  31.710  33.836  1.00  0.00     0.029 A 
ATOM     68  C   UNL A   1      38.287  32.460  33.432  1.00  0.00     0.049 A 
ATOM     69  H   UNL A   1      38.506  33.747  31.782  1.00  0.00     0.167 HD
ATOM     70  C   UNL A   1      40.441  31.601  33.933  1.00  0.00     0.074 A 
ATOM     71  C   UNL A   1      41.740  31.322  34.508  1.00  0.00     0.031 C 
ATOM     72  C   UNL A   1      39.609  32.678  33.974  1.00  0.00     0.031 A 
BRANCH  59  73
ATOM     73  C   UNL A   1      34.893  33.960  30.346  1.00  0.00    -0.014 A 
ATOM     74  C   UNL A   1      34.465  34.048  29.013  1.00  0.00     0.009 A 
ATOM     75  C   UNL A   1      34.194  34.751  31.285  1.00  0.00     0.009 A 
ATOM     76  C   UNL A   1      33.496  34.979  28.611  1.00  0.00     0.001 A 
ATOM     77  C   UNL A   1      33.258  35.719  30.880  1.00  0.00     0.001 A 
ATOM     78  C   UNL A   1      32.925  35.846  29.536  1.00  0.00     0.000 A 
ENDBRANCH  59  73
BRANCH  60  79
ATOM     79  C   UNL A   1      42.416  27.872  31.731  1.00  0.00    -0.014 A 
ATOM     80  C   UNL A   1      42.634  28.358  30.424  1.00  0.00     0.009 A 
ATOM     81  C   UNL A   1      43.471  27.204  32.372  1.00  0.00     0.009 A 
ATOM     82  C   UNL A   1      43.887  28.257  29.810  1.00  0.00     0.001 A 
ATOM     83  C   UNL A   1      44.725  27.091  31.746  1.00  0.00     0.001 A 
ATOM     84  C   UNL A   1      44.936  27.636  30.479  1.00  0.00     0.000 A 
ENDBRANCH  60  79
BRANCH  72  85
ATOM     85  C   UNL A   1      39.903  34.057  34.509  1.00  0.00    -0.014 A 
ATOM     86  C   UNL A   1      39.291  34.611  35.635  1.00  0.00     0.009 A 
ATOM     87  C   UNL A   1      40.988  34.783  33.953  1.00  0.00     0.009 A 
ATOM     88  C   UNL A   1      39.724  35.836  36.163  1.00  0.00     0.001 A 
ATOM     89  C   UNL A   1      41.457  35.974  34.508  1.00  0.00     0.001 A 
ATOM     90  C   UNL A   1      40.813  36.507  35.612  1.00  0.00     0.000 A 
ENDBRANCH  72  85
ENDBRANCH  46  47
ENDBRANCH  39  41
ENDBRANCH  38  39
ENDBRANCH  37  38
ENDBRANCH  36  37
ENDBRANCH  35  36
ENDBRANCH  34  35
ENDBRANCH   1  34
TORSDOF 19
ENDMDL
MODEL 3
REMARK VINA RESULT:     -11.5      7.914     13.402
REMARK SMILES Cc1cccc(N2C(=O)/C(=C/c3ccc(C(=O)OCCOCCOCCOC(=O)c4ccc(-c5c6nc(c(-c7ccccc7)c7ccc([nH]7)c(-c7ccccc7)c7nc(c(-c8ccccc8)c8ccc5[nH]8)C=C7)C=C6)cc4)cc3)c3ccccc3C2=O)c1
REMARK SMILES IDX 22 1 21 2 20 3 19 4 18 5 16 6 17 7 15 8 12 9 13 10 79 11
REMARK SMILES IDX 14 12 78 13 11 14 7 15 8 16 86 17 9 18 10 19 85 20 87 21
REMARK SMILES IDX 80 22 84 23 81 24 83 25 82 26 6 27 1 28 2 29 3 30 88 31 4 32
REMARK SMILES IDX 5 33 23 34 24 35 25 36 26 37 27 38 28 39 29 40 30 41 31 42
REMARK SMILES IDX 77 43 32 44 76 45 33 46 34 47 35 48 70 49 36 50 75 51 69 52
REMARK SMILES IDX 71 53 37 54 74 55 68 56 67 57 38 59 60 60 45 61 59 62 46 63
REMARK SMILES IDX 49 64 58 65 72 66 47 67 48 68 57 70 73 71 50 72 39 73 40 74
REMARK SMILES IDX 44 75 41 76 43 77 42 78 61 79 62 80 66 81 63 82 65 83 64 84
REMARK SMILES IDX 51 85 52 86 56 87 53 88 55 89 54 90
REMARK H PARENT 71 58 49 69
REMARK Flexibility Score: inf
ROOT
ATOM      1  C   UNL A   1      47.222  31.282  26.850  1.00  0.00     0.188 C 
ENDROOT
BRANCH   1   2
ATOM      2  O   UNL A   1      46.960  29.981  26.288  1.00  0.00    -0.376 OA
BRANCH   2   3
ATOM      3  C   UNL A   1      46.368  28.892  26.976  1.00  0.00     0.202 C 
BRANCH   3   4
ATOM      4  C   UNL A   1      45.037  27.995  26.476  1.00  0.00     0.261 C 
BRANCH   4   5
ATOM      5  O   UNL A   1      43.366  27.967  26.821  1.00  0.00    -0.460 OA
BRANCH   5   6
ATOM      6  C   UNL A   1      42.480  28.134  27.897  1.00  0.00     0.338 C 
ATOM      7  O   UNL A   1      42.583  27.821  29.077  1.00  0.00    -0.246 OA
BRANCH   6   8
ATOM      8  C   UNL A   1      41.200  28.828  27.906  1.00  0.00     0.060 A 
ATOM      9  C   UNL A   1      38.658  29.661  28.687  1.00  0.00    -0.025 A 
ATOM     10  C   UNL A   1      39.764  30.312  29.213  1.00  0.00     0.009 A 
ATOM     11  C   UNL A   1      38.805  28.439  28.015  1.00  0.00     0.009 A 
ATOM     12  C   UNL A   1      41.028  29.875  28.839  1.00  0.00     0.016 A 
ATOM     13  C   UNL A   1      40.077  28.034  27.613  1.00  0.00     0.016 A 
BRANCH   9  14
ATOM     14  C   UNL A   1      37.456  30.464  28.502  1.00  0.00     0.022 C 
ATOM     15  N   UNL A   1      35.655  32.739  30.182  1.00  0.00    -0.242 N 
ATOM     16  C   UNL A   1      35.544  31.618  29.334  1.00  0.00     0.265 C 
ATOM     17  C   UNL A   1      36.573  32.735  31.276  1.00  0.00     0.265 C 
ATOM     18  O   UNL A   1      34.739  31.363  28.444  1.00  0.00    -0.268 OA
ATOM     19  C   UNL A   1      36.626  30.647  29.553  1.00  0.00     0.049 C 
ATOM     20  C   UNL A   1      37.048  31.408  31.772  1.00  0.00     0.048 A 
ATOM     21  O   UNL A   1      37.027  33.704  31.880  1.00  0.00    -0.268 OA
ATOM     22  C   UNL A   1      36.921  30.304  30.941  1.00  0.00    -0.000 A 
ATOM     23  C   UNL A   1      37.661  31.263  33.022  1.00  0.00     0.014 A 
ATOM     24  C   UNL A   1      37.253  29.026  31.408  1.00  0.00     0.010 A 
ATOM     25  C   UNL A   1      38.095  30.003  33.448  1.00  0.00     0.001 A 
ATOM     26  C   UNL A   1      37.865  28.881  32.654  1.00  0.00     0.001 A 
BRANCH  15  27
ATOM     27  C   UNL A   1      34.866  33.929  29.878  1.00  0.00     0.053 A 
ATOM     28  C   UNL A   1      32.294  36.176  31.621  1.00  0.00     0.044 C 
ATOM     29  C   UNL A   1      33.196  35.623  30.558  1.00  0.00    -0.049 A 
ATOM     30  C   UNL A   1      33.286  36.232  29.312  1.00  0.00     0.003 A 
ATOM     31  C   UNL A   1      33.996  34.501  30.828  1.00  0.00     0.030 A 
ATOM     32  C   UNL A   1      34.145  35.709  28.354  1.00  0.00     0.002 A 
ATOM     33  C   UNL A   1      34.916  34.574  28.634  1.00  0.00     0.027 A 
ENDBRANCH  15  27
ENDBRANCH   9  14
ENDBRANCH   6   8
ENDBRANCH   5   6
ENDBRANCH   4   5
ENDBRANCH   3   4
ENDBRANCH   2   3
ENDBRANCH   1   2
BRANCH   1  34
ATOM     34  C   UNL A   1      46.346  32.482  26.502  1.00  0.00     0.188 C 
BRANCH  34  35
ATOM     35  O   UNL A   1      47.101  33.666  26.671  1.00  0.00    -0.376 OA
BRANCH  35  36
ATOM     36  C   UNL A   1      46.442  34.721  27.345  1.00  0.00     0.202 C 
BRANCH  36  37
ATOM     37  C   UNL A   1      45.258  35.253  26.525  1.00  0.00     0.261 C 
BRANCH  37  38
ATOM     38  O   UNL A   1      44.856  36.555  27.021  1.00  0.00    -0.460 OA
BRANCH  38  39
ATOM     39  C   UNL A   1      43.553  36.933  26.805  1.00  0.00     0.338 C 
ATOM     40  O   UNL A   1      42.682  36.197  26.362  1.00  0.00    -0.246 OA
BRANCH  39  41
ATOM     41  C   UNL A   1      43.410  38.428  26.939  1.00  0.00     0.060 A 
ATOM     42  C   UNL A   1      42.251  39.163  26.654  1.00  0.00     0.016 A 
ATOM     43  C   UNL A   1      44.560  39.142  26.935  1.00  0.00     0.016 A 
ATOM     44  C   UNL A   1      42.306  40.548  26.177  1.00  0.00     0.010 A 
ATOM     45  C   UNL A   1      44.533  40.331  26.189  1.00  0.00     0.010 A 
ATOM     46  C   UNL A   1      43.491  41.199  25.796  1.00  0.00    -0.014 A 
BRANCH  46  47
ATOM     47  C   UNL A   1      43.598  42.540  24.772  1.00  0.00     0.031 A 
ATOM     48  C   UNL A   1      43.274  42.844  23.148  1.00  0.00     0.074 A 
ATOM     49  C   UNL A   1      44.225  43.629  25.275  1.00  0.00     0.049 A 
ATOM     50  N   UNL A   1      44.168  43.324  22.290  1.00  0.00    -0.248 NA
ATOM     51  C   UNL A   1      42.047  42.550  22.347  1.00  0.00     0.031 C 
ATOM     52  C   UNL A   1      44.399  44.934  24.641  1.00  0.00     0.029 A 
ATOM     53  N   UNL A   1      44.995  43.714  26.429  1.00  0.00    -0.354 N 
ATOM     54  C   UNL A   1      43.603  43.370  21.004  1.00  0.00     0.074 A 
ATOM     55  C   UNL A   1      42.355  42.734  21.075  1.00  0.00     0.031 C 
ATOM     56  C   UNL A   1      45.429  45.560  25.229  1.00  0.00     0.029 A 
ATOM     57  C   UNL A   1      46.001  44.650  26.204  1.00  0.00     0.049 A 
ATOM     58  H   UNL A   1      44.852  43.204  27.259  1.00  0.00     0.167 HD
ATOM     59  C   UNL A   1      44.042  44.059  19.920  1.00  0.00     0.031 A 
ATOM     60  C   UNL A   1      47.316  44.327  26.339  1.00  0.00     0.031 A 
ATOM     61  C   UNL A   1      45.080  44.954  20.308  1.00  0.00     0.049 A 
ATOM     62  C   UNL A   1      48.137  44.596  25.102  1.00  0.00     0.074 A 
ATOM     63  C   UNL A   1      45.019  46.235  20.824  1.00  0.00     0.029 A 
ATOM     64  N   UNL A   1      46.315  44.436  20.611  1.00  0.00    -0.354 N 
ATOM     65  N   UNL A   1      47.635  44.824  23.922  1.00  0.00    -0.248 NA
ATOM     66  C   UNL A   1      49.598  44.582  25.090  1.00  0.00     0.031 C 
ATOM     67  C   UNL A   1      46.236  46.475  21.497  1.00  0.00     0.029 A 
ATOM     68  C   UNL A   1      47.040  45.363  21.322  1.00  0.00     0.049 A 
ATOM     69  H   UNL A   1      46.633  43.538  20.359  1.00  0.00     0.167 HD
ATOM     70  C   UNL A   1      48.651  44.916  23.006  1.00  0.00     0.074 A 
ATOM     71  C   UNL A   1      49.861  44.792  23.789  1.00  0.00     0.031 C 
ATOM     72  C   UNL A   1      48.406  45.051  21.673  1.00  0.00     0.031 A 
BRANCH  59  73
ATOM     73  C   UNL A   1      43.182  44.182  18.673  1.00  0.00    -0.014 A 
ATOM     74  C   UNL A   1      43.769  44.030  17.407  1.00  0.00     0.009 A 
ATOM     75  C   UNL A   1      41.826  44.576  18.694  1.00  0.00     0.009 A 
ATOM     76  C   UNL A   1      43.090  44.389  16.233  1.00  0.00     0.001 A 
ATOM     77  C   UNL A   1      41.158  44.982  17.525  1.00  0.00     0.001 A 
ATOM     78  C   UNL A   1      41.801  44.908  16.295  1.00  0.00     0.000 A 
ENDBRANCH  59  73
BRANCH  60  79
ATOM     79  C   UNL A   1      47.604  43.261  27.344  1.00  0.00    -0.014 A 
ATOM     80  C   UNL A   1      47.332  43.533  28.702  1.00  0.00     0.009 A 
ATOM     81  C   UNL A   1      47.841  41.929  26.971  1.00  0.00     0.009 A 
ATOM     82  C   UNL A   1      47.216  42.502  29.641  1.00  0.00     0.001 A 
ATOM     83  C   UNL A   1      47.738  40.897  27.920  1.00  0.00     0.001 A 
ATOM     84  C   UNL A   1      47.405  41.182  29.245  1.00  0.00     0.000 A 
ENDBRANCH  60  79
BRANCH  72  85
ATOM     85  C   UNL A   1      49.383  44.912  20.532  1.00  0.00    -0.014 A 
ATOM     86  C   UNL A   1      49.905  45.985  19.808  1.00  0.00     0.009 A 
ATOM     87  C   UNL A   1      49.952  43.636  20.278  1.00  0.00     0.009 A 
ATOM     88  C   UNL A   1      50.923  45.792  18.863  1.00  0.00     0.001 A 
ATOM     89  C   UNL A   1      51.002  43.449  19.380  1.00  0.00     0.001 A 
ATOM     90  C   UNL A   1      51.482  44.532  18.662  1.00  0.00     0.000 A 
ENDBRANCH  72  85
ENDBRANCH  46  47
ENDBRANCH  39  41
ENDBRANCH  38  39
ENDBRANCH  37  38
ENDBRANCH  36  37
ENDBRANCH  35  36
ENDBRANCH  34  35
ENDBRANCH   1  34
TORSDOF 19
ENDMDL
