MODEL 1
REMARK VINA RESULT:      -9.0      0.000      0.000
REMARK SMILES Cc1cccc(CS[C@@H]2CC[C@]([NH3+])(C(=O)OCCOCCOCCOCCOC(=O)c3ccc(-c4c5nc(c(-c6ccccc6)c6ccc([nH]6)c(-c6ccccc6)c6nc(c(-c7ccccc7)c7ccc4[nH]7)C=C6)C=C5)cc3)C2)c1
REMARK SMILES IDX 21 1 20 2 19 3 18 4 17 5 16 6 14 7 15 8 12 9 9 10 10 11
REMARK SMILES IDX 79 12 11 13 8 14 7 15 6 16 1 17 2 18 3 19 80 20 4 21 5 22
REMARK SMILES IDX 13 23 22 27 23 28 24 29 25 30 26 31 27 32 28 33 29 34 30 35
REMARK SMILES IDX 31 36 32 37 78 38 33 39 77 40 34 41 35 42 36 43 71 44 37 45
REMARK SMILES IDX 76 46 70 47 72 48 38 49 75 50 69 51 68 52 39 54 61 55 46 56
REMARK SMILES IDX 60 57 47 58 50 59 59 60 73 61 48 62 49 63 58 65 74 66 51 67
REMARK SMILES IDX 40 68 41 69 45 70 42 71 44 72 43 73 62 74 63 75 67 76 64 77
REMARK SMILES IDX 66 78 65 79 52 80 53 81 57 82 54 83 56 84 55 85
REMARK H PARENT 13 24 13 25 13 26 72 53 50 64
REMARK Flexibility Score: inf
ROOT
ATOM      1  C   UNL A   1      33.562  21.839  24.274  1.00  0.00     0.188 C 
ENDROOT
BRANCH   1   2
ATOM      2  C   UNL A   1      32.412  22.812  24.558  1.00  0.00     0.188 C 
BRANCH   2   3
ATOM      3  O   UNL A   1      31.544  23.139  23.480  1.00  0.00    -0.376 OA
BRANCH   3   4
ATOM      4  C   UNL A   1      31.554  24.512  23.077  1.00  0.00     0.202 C 
BRANCH   4   5
ATOM      5  C   UNL A   1      32.825  24.958  22.364  1.00  0.00     0.261 C 
BRANCH   5   6
ATOM      6  O   UNL A   1      33.012  26.371  22.556  1.00  0.00    -0.459 OA
BRANCH   6   7
ATOM      7  C   UNL A   1      31.986  27.146  22.139  1.00  0.00     0.368 C 
ATOM      8  O   UNL A   1      31.174  26.818  21.279  1.00  0.00    -0.245 OA
BRANCH   7   9
ATOM      9  C   UNL A   1      31.846  28.427  22.979  1.00  0.00     0.193 C 
ATOM     10  C   UNL A   1      32.913  29.449  24.918  1.00  0.00     0.054 C 
ATOM     11  C   UNL A   1      31.400  29.361  25.155  1.00  0.00     0.022 C 
ATOM     12  C   UNL A   1      33.202  28.671  23.645  1.00  0.00     0.095 C 
ATOM     13  C   UNL A   1      30.881  28.322  24.160  1.00  0.00     0.082 C 
BRANCH  10  14
ATOM     14  S   UNL A   1      34.059  28.921  26.243  1.00  0.00    -0.154 SA
BRANCH  14  15
ATOM     15  C   UNL A   1      33.707  30.117  27.595  1.00  0.00     0.105 C 
BRANCH  15  16
ATOM     16  C   UNL A   1      34.932  30.840  28.100  1.00  0.00    -0.038 A 
ATOM     17  C   UNL A   1      35.794  33.866  30.264  1.00  0.00     0.044 C 
ATOM     18  C   UNL A   1      35.921  32.672  29.370  1.00  0.00    -0.051 A 
ATOM     19  C   UNL A   1      37.178  32.334  28.867  1.00  0.00     0.003 A 
ATOM     20  C   UNL A   1      34.799  31.928  28.977  1.00  0.00     0.008 A 
ATOM     21  C   UNL A   1      37.332  31.216  28.058  1.00  0.00     0.001 A 
ATOM     22  C   UNL A   1      36.221  30.454  27.708  1.00  0.00     0.004 A 
ENDBRANCH  15  16
ENDBRANCH  14  15
ENDBRANCH  10  14
BRANCH   9  23
ATOM     23  N   UNL A   1      31.495  29.586  22.129  1.00  0.00    -0.343 N 
ATOM     24  H   UNL A   1      31.550  30.441  22.682  1.00  0.00     0.345 HD
ATOM     25  H   UNL A   1      30.546  29.471  21.773  1.00  0.00     0.345 HD
ATOM     26  H   UNL A   1      32.147  29.644  21.347  1.00  0.00     0.345 HD
ENDBRANCH   9  23
ENDBRANCH   7   9
ENDBRANCH   6   7
ENDBRANCH   5   6
ENDBRANCH   4   5
ENDBRANCH   3   4
ENDBRANCH   2   3
ENDBRANCH   1   2
BRANCH   1  27
ATOM     27  O   UNL A   1      33.992  21.067  25.389  1.00  0.00    -0.377 OA
BRANCH  27  28
ATOM     28  C   UNL A   1      35.080  20.208  25.062  1.00  0.00     0.188 C 
BRANCH  28  29
ATOM     29  C   UNL A   1      36.448  20.855  25.291  1.00  0.00     0.188 C 
BRANCH  29  30
ATOM     30  O   UNL A   1      37.592  20.100  24.928  1.00  0.00    -0.376 OA
BRANCH  30  31
ATOM     31  C   UNL A   1      38.903  20.615  25.111  1.00  0.00     0.202 C 
BRANCH  31  32
ATOM     32  C   UNL A   1      39.076  21.637  26.238  1.00  0.00     0.261 C 
BRANCH  32  33
ATOM     33  O   UNL A   1      40.082  21.187  27.163  1.00  0.00    -0.460 OA
BRANCH  33  34
ATOM     34  C   UNL A   1      41.288  20.923  26.615  1.00  0.00     0.338 C 
ATOM     35  O   UNL A   1      41.561  19.909  25.956  1.00  0.00    -0.246 OA
BRANCH  34  36
ATOM     36  C   UNL A   1      42.314  21.842  27.170  1.00  0.00     0.060 A 
ATOM     37  C   UNL A   1      42.304  22.135  28.542  1.00  0.00     0.016 A 
ATOM     38  C   UNL A   1      43.005  22.671  26.292  1.00  0.00     0.016 A 
ATOM     39  C   UNL A   1      42.805  23.361  29.000  1.00  0.00     0.010 A 
ATOM     40  C   UNL A   1      43.395  23.920  26.737  1.00  0.00     0.010 A 
ATOM     41  C   UNL A   1      43.242  24.313  28.076  1.00  0.00    -0.014 A 
BRANCH  41  42
ATOM     42  C   UNL A   1      43.309  25.767  28.342  1.00  0.00     0.031 A 
ATOM     43  C   UNL A   1      42.044  26.583  28.412  1.00  0.00     0.074 A 
ATOM     44  C   UNL A   1      44.469  26.297  28.826  1.00  0.00     0.049 A 
ATOM     45  N   UNL A   1      42.004  27.844  28.684  1.00  0.00    -0.248 NA
ATOM     46  C   UNL A   1      40.692  26.057  28.190  1.00  0.00     0.031 C 
ATOM     47  C   UNL A   1      44.602  27.505  29.644  1.00  0.00     0.029 A 
ATOM     48  N   UNL A   1      45.789  25.886  28.755  1.00  0.00    -0.354 N 
ATOM     49  C   UNL A   1      40.715  28.179  29.042  1.00  0.00     0.074 A 
ATOM     50  C   UNL A   1      39.918  27.057  28.630  1.00  0.00     0.031 C 
ATOM     51  C   UNL A   1      45.890  27.803  29.866  1.00  0.00     0.029 A 
ATOM     52  C   UNL A   1      46.650  26.966  28.977  1.00  0.00     0.049 A 
ATOM     53  H   UNL A   1      46.081  24.963  28.575  1.00  0.00     0.167 HD
ATOM     54  C   UNL A   1      40.510  29.312  29.773  1.00  0.00     0.031 A 
ATOM     55  C   UNL A   1      47.435  27.497  27.988  1.00  0.00     0.031 A 
ATOM     56  C   UNL A   1      41.722  30.124  29.836  1.00  0.00     0.049 A 
ATOM     57  C   UNL A   1      46.941  28.873  27.552  1.00  0.00     0.074 A 
ATOM     58  C   UNL A   1      42.574  30.464  30.870  1.00  0.00     0.029 A 
ATOM     59  N   UNL A   1      42.368  30.471  28.650  1.00  0.00    -0.354 N 
ATOM     60  N   UNL A   1      45.706  29.277  27.723  1.00  0.00    -0.248 NA
ATOM     61  C   UNL A   1      47.785  29.938  27.011  1.00  0.00     0.031 C 
ATOM     62  C   UNL A   1      43.819  30.795  30.278  1.00  0.00     0.029 A 
ATOM     63  C   UNL A   1      43.670  30.848  28.900  1.00  0.00     0.049 A 
ATOM     64  H   UNL A   1      41.952  30.449  27.758  1.00  0.00     0.167 HD
ATOM     65  C   UNL A   1      45.616  30.622  27.491  1.00  0.00     0.074 A 
ATOM     66  C   UNL A   1      46.926  30.977  26.972  1.00  0.00     0.031 C 
ATOM     67  C   UNL A   1      44.520  31.367  27.831  1.00  0.00     0.031 A 
BRANCH  54  68
ATOM     68  C   UNL A   1      39.294  29.612  30.628  1.00  0.00    -0.014 A 
ATOM     69  C   UNL A   1      38.140  28.810  30.497  1.00  0.00     0.009 A 
ATOM     70  C   UNL A   1      39.169  30.727  31.476  1.00  0.00     0.009 A 
ATOM     71  C   UNL A   1      36.941  29.105  31.165  1.00  0.00     0.001 A 
ATOM     72  C   UNL A   1      37.982  31.008  32.174  1.00  0.00     0.001 A 
ATOM     73  C   UNL A   1      36.864  30.202  32.013  1.00  0.00     0.000 A 
ENDBRANCH  54  68
BRANCH  55  74
ATOM     74  C   UNL A   1      48.124  26.429  27.214  1.00  0.00    -0.014 A 
ATOM     75  C   UNL A   1      47.770  26.383  25.845  1.00  0.00     0.009 A 
ATOM     76  C   UNL A   1      49.405  26.002  27.587  1.00  0.00     0.009 A 
ATOM     77  C   UNL A   1      48.747  26.183  24.865  1.00  0.00     0.001 A 
ATOM     78  C   UNL A   1      50.372  25.766  26.596  1.00  0.00     0.001 A 
ATOM     79  C   UNL A   1      50.060  25.925  25.244  1.00  0.00     0.000 A 
ENDBRANCH  55  74
BRANCH  67  80
ATOM     80  C   UNL A   1      44.197  32.759  27.329  1.00  0.00    -0.014 A 
ATOM     81  C   UNL A   1      44.224  33.907  28.125  1.00  0.00     0.009 A 
ATOM     82  C   UNL A   1      43.999  32.959  25.939  1.00  0.00     0.009 A 
ATOM     83  C   UNL A   1      44.025  35.178  27.569  1.00  0.00     0.001 A 
ATOM     84  C   UNL A   1      43.854  34.226  25.374  1.00  0.00     0.001 A 
ATOM     85  C   UNL A   1      43.853  35.339  26.196  1.00  0.00     0.000 A 
ENDBRANCH  67  80
ENDBRANCH  41  42
ENDBRANCH  34  36
ENDBRANCH  33  34
ENDBRANCH  32  33
ENDBRANCH  31  32
ENDBRANCH  30  31
ENDBRANCH  29  30
ENDBRANCH  28  29
ENDBRANCH  27  28
ENDBRANCH   1  27
TORSDOF 24
ENDMDL
MODEL 2
REMARK VINA RESULT:      -8.4      3.574      9.519
REMARK SMILES Cc1cccc(CS[C@@H]2CC[C@]([NH3+])(C(=O)OCCOCCOCCOCCOC(=O)c3ccc(-c4c5nc(c(-c6ccccc6)c6ccc([nH]6)c(-c6ccccc6)c6nc(c(-c7ccccc7)c7ccc4[nH]7)C=C6)C=C5)cc3)C2)c1
REMARK SMILES IDX 21 1 20 2 19 3 18 4 17 5 16 6 14 7 15 8 12 9 9 10 10 11
REMARK SMILES IDX 79 12 11 13 8 14 7 15 6 16 1 17 2 18 3 19 80 20 4 21 5 22
REMARK SMILES IDX 13 23 22 27 23 28 24 29 25 30 26 31 27 32 28 33 29 34 30 35
REMARK SMILES IDX 31 36 32 37 78 38 33 39 77 40 34 41 35 42 36 43 71 44 37 45
REMARK SMILES IDX 76 46 70 47 72 48 38 49 75 50 69 51 68 52 39 54 61 55 46 56
REMARK SMILES IDX 60 57 47 58 50 59 59 60 73 61 48 62 49 63 58 65 74 66 51 67
REMARK SMILES IDX 40 68 41 69 45 70 42 71 44 72 43 73 62 74 63 75 67 76 64 77
REMARK SMILES IDX 66 78 65 79 52 80 53 81 57 82 54 83 56 84 55 85
REMARK H PARENT 13 24 13 25 13 26 72 53 50 64
REMARK Flexibility Score: inf
ROOT
ATOM      1  C   UNL A   1      32.895  29.422  25.826  1.00  0.00     0.188 C 
ENDROOT
BRANCH   1   2
ATOM      2  C   UNL A   1      32.565  27.959  25.509  1.00  0.00     0.188 C 
BRANCH   2   3
ATOM      3  O   UNL A   1      31.561  27.706  24.534  1.00  0.00    -0.376 OA
BRANCH   3   4
ATOM      4  C   UNL A   1      32.014  27.676  23.177  1.00  0.00     0.202 C 
BRANCH   4   5
ATOM      5  C   UNL A   1      31.068  26.982  22.204  1.00  0.00     0.261 C 
BRANCH   5   6
ATOM      6  O   UNL A   1      31.471  25.610  22.042  1.00  0.00    -0.459 OA
BRANCH   6   7
ATOM      7  C   UNL A   1      32.787  25.374  22.233  1.00  0.00     0.368 C 
ATOM      8  O   UNL A   1      33.690  25.954  21.639  1.00  0.00    -0.245 OA
BRANCH   7   9
ATOM      9  C   UNL A   1      33.041  24.408  23.403  1.00  0.00     0.193 C 
ATOM     10  C   UNL A   1      34.949  23.472  24.599  1.00  0.00     0.054 C 
ATOM     11  C   UNL A   1      34.043  22.334  24.112  1.00  0.00     0.022 C 
ATOM     12  C   UNL A   1      34.422  24.750  23.968  1.00  0.00     0.095 C 
ATOM     13  C   UNL A   1      33.171  22.936  23.009  1.00  0.00     0.082 C 
BRANCH  10  14
ATOM     14  S   UNL A   1      36.756  23.350  24.340  1.00  0.00    -0.154 SA
BRANCH  14  15
ATOM     15  C   UNL A   1      37.434  23.605  26.031  1.00  0.00     0.105 C 
BRANCH  15  16
ATOM     16  C   UNL A   1      38.634  22.743  26.340  1.00  0.00    -0.038 A 
ATOM     17  C   UNL A   1      41.848  22.922  28.395  1.00  0.00     0.044 C 
ATOM     18  C   UNL A   1      40.776  22.442  27.467  1.00  0.00    -0.051 A 
ATOM     19  C   UNL A   1      40.978  21.259  26.754  1.00  0.00     0.003 A 
ATOM     20  C   UNL A   1      39.606  23.185  27.250  1.00  0.00     0.008 A 
ATOM     21  C   UNL A   1      39.991  20.775  25.906  1.00  0.00     0.001 A 
ATOM     22  C   UNL A   1      38.812  21.493  25.730  1.00  0.00     0.004 A 
ENDBRANCH  15  16
ENDBRANCH  14  15
ENDBRANCH  10  14
BRANCH   9  23
ATOM     23  N   UNL A   1      32.019  24.570  24.460  1.00  0.00    -0.343 N 
ATOM     24  H   UNL A   1      32.130  25.481  24.904  1.00  0.00     0.345 HD
ATOM     25  H   UNL A   1      32.134  23.836  25.159  1.00  0.00     0.345 HD
ATOM     26  H   UNL A   1      31.089  24.503  24.048  1.00  0.00     0.345 HD
ENDBRANCH   9  23
ENDBRANCH   7   9
ENDBRANCH   6   7
ENDBRANCH   5   6
ENDBRANCH   4   5
ENDBRANCH   3   4
ENDBRANCH   2   3
ENDBRANCH   1   2
BRANCH   1  27
ATOM     27  O   UNL A   1      31.836  30.344  25.600  1.00  0.00    -0.377 OA
BRANCH  27  28
ATOM     28  C   UNL A   1      31.589  31.169  26.735  1.00  0.00     0.188 C 
BRANCH  28  29
ATOM     29  C   UNL A   1      31.743  32.663  26.439  1.00  0.00     0.188 C 
BRANCH  29  30
ATOM     30  O   UNL A   1      31.887  33.533  27.550  1.00  0.00    -0.376 OA
BRANCH  30  31
ATOM     31  C   UNL A   1      33.145  33.712  28.186  1.00  0.00     0.202 C 
BRANCH  31  32
ATOM     32  C   UNL A   1      34.178  32.603  27.966  1.00  0.00     0.261 C 
BRANCH  32  33
ATOM     33  O   UNL A   1      35.438  32.977  28.551  1.00  0.00    -0.460 OA
BRANCH  33  34
ATOM     34  C   UNL A   1      35.758  32.323  29.688  1.00  0.00     0.338 C 
ATOM     35  O   UNL A   1      35.628  32.783  30.832  1.00  0.00    -0.246 OA
BRANCH  34  36
ATOM     36  C   UNL A   1      36.573  31.123  29.375  1.00  0.00     0.060 A 
ATOM     37  C   UNL A   1      36.374  29.945  30.111  1.00  0.00     0.016 A 
ATOM     38  C   UNL A   1      37.747  31.290  28.645  1.00  0.00     0.016 A 
ATOM     39  C   UNL A   1      37.430  29.039  30.282  1.00  0.00     0.010 A 
ATOM     40  C   UNL A   1      38.811  30.450  28.910  1.00  0.00     0.010 A 
ATOM     41  C   UNL A   1      38.695  29.354  29.780  1.00  0.00    -0.014 A 
BRANCH  41  42
ATOM     42  C   UNL A   1      39.962  28.788  30.292  1.00  0.00     0.031 A 
ATOM     43  C   UNL A   1      40.668  27.696  29.529  1.00  0.00     0.074 A 
ATOM     44  C   UNL A   1      40.638  29.459  31.268  1.00  0.00     0.049 A 
ATOM     45  N   UNL A   1      41.797  27.178  29.876  1.00  0.00    -0.248 NA
ATOM     46  C   UNL A   1      40.173  27.084  28.290  1.00  0.00     0.031 C 
ATOM     47  C   UNL A   1      42.079  29.414  31.521  1.00  0.00     0.029 A 
ATOM     48  N   UNL A   1      40.234  30.365  32.235  1.00  0.00    -0.354 N 
ATOM     49  C   UNL A   1      42.331  26.514  28.792  1.00  0.00     0.074 A 
ATOM     50  C   UNL A   1      41.244  26.404  27.858  1.00  0.00     0.031 C 
ATOM     51  C   UNL A   1      42.404  30.112  32.619  1.00  0.00     0.029 A 
ATOM     52  C   UNL A   1      41.163  30.410  33.280  1.00  0.00     0.049 A 
ATOM     53  H   UNL A   1      39.410  30.903  32.192  1.00  0.00     0.167 HD
ATOM     54  C   UNL A   1      43.671  26.265  28.769  1.00  0.00     0.031 A 
ATOM     55  C   UNL A   1      40.884  29.930  34.533  1.00  0.00     0.031 A 
ATOM     56  C   UNL A   1      44.281  26.546  30.066  1.00  0.00     0.049 A 
ATOM     57  C   UNL A   1      41.652  28.646  34.830  1.00  0.00     0.074 A 
ATOM     58  C   UNL A   1      45.186  27.499  30.494  1.00  0.00     0.029 A 
ATOM     59  N   UNL A   1      43.740  25.961  31.210  1.00  0.00    -0.354 N 
ATOM     60  N   UNL A   1      42.113  27.855  33.891  1.00  0.00    -0.248 NA
ATOM     61  C   UNL A   1      42.068  28.201  36.159  1.00  0.00     0.031 C 
ATOM     62  C   UNL A   1      45.001  27.635  31.893  1.00  0.00     0.029 A 
ATOM     63  C   UNL A   1      44.142  26.643  32.338  1.00  0.00     0.049 A 
ATOM     64  H   UNL A   1      43.152  25.171  31.211  1.00  0.00     0.167 HD
ATOM     65  C   UNL A   1      42.975  26.941  34.430  1.00  0.00     0.074 A 
ATOM     66  C   UNL A   1      42.855  27.147  35.864  1.00  0.00     0.031 C 
ATOM     67  C   UNL A   1      43.800  26.154  33.672  1.00  0.00     0.031 A 
BRANCH  54  68
ATOM     68  C   UNL A   1      44.503  25.977  27.533  1.00  0.00    -0.014 A 
ATOM     69  C   UNL A   1      44.591  26.951  26.515  1.00  0.00     0.009 A 
ATOM     70  C   UNL A   1      45.113  24.743  27.250  1.00  0.00     0.009 A 
ATOM     71  C   UNL A   1      45.240  26.706  25.295  1.00  0.00     0.001 A 
ATOM     72  C   UNL A   1      45.793  24.502  26.044  1.00  0.00     0.001 A 
ATOM     73  C   UNL A   1      45.851  25.481  25.062  1.00  0.00     0.000 A 
ENDBRANCH  54  68
BRANCH  55  74
ATOM     74  C   UNL A   1      39.547  30.385  35.001  1.00  0.00    -0.014 A 
ATOM     75  C   UNL A   1      39.588  31.428  35.956  1.00  0.00     0.009 A 
ATOM     76  C   UNL A   1      38.436  30.304  34.150  1.00  0.00     0.009 A 
ATOM     77  C   UNL A   1      38.695  32.500  35.878  1.00  0.00     0.001 A 
ATOM     78  C   UNL A   1      37.521  31.368  34.103  1.00  0.00     0.001 A 
ATOM     79  C   UNL A   1      37.692  32.491  34.914  1.00  0.00     0.000 A 
ENDBRANCH  55  74
BRANCH  67  80
ATOM     80  C   UNL A   1      44.529  24.914  34.143  1.00  0.00    -0.014 A 
ATOM     81  C   UNL A   1      45.834  24.580  33.771  1.00  0.00     0.009 A 
ATOM     82  C   UNL A   1      43.932  24.103  35.142  1.00  0.00     0.009 A 
ATOM     83  C   UNL A   1      46.488  23.476  34.334  1.00  0.00     0.001 A 
ATOM     84  C   UNL A   1      44.598  23.036  35.743  1.00  0.00     0.001 A 
ATOM     85  C   UNL A   1      45.878  22.713  35.327  1.00  0.00     0.000 A 
ENDBRANCH  67  80
ENDBRANCH  41  42
ENDBRANCH  34  36
ENDBRANCH  33  34
ENDBRANCH  32  33
ENDBRANCH  31  32
ENDBRANCH  30  31
ENDBRANCH  29  30
ENDBRANCH  28  29
ENDBRANCH  27  28
ENDBRANCH   1  27
TORSDOF 24
ENDMDL
MODEL 3
REMARK VINA RESULT:      -8.3      3.346      7.862
REMARK SMILES Cc1cccc(CS[C@@H]2CC[C@]([NH3+])(C(=O)OCCOCCOCCOCCOC(=O)c3ccc(-c4c5nc(c(-c6ccccc6)c6ccc([nH]6)c(-c6ccccc6)c6nc(c(-c7ccccc7)c7ccc4[nH]7)C=C6)C=C5)cc3)C2)c1
REMARK SMILES IDX 21 1 20 2 19 3 18 4 17 5 16 6 14 7 15 8 12 9 9 10 10 11
REMARK SMILES IDX 79 12 11 13 8 14 7 15 6 16 1 17 2 18 3 19 80 20 4 21 5 22
REMARK SMILES IDX 13 23 22 27 23 28 24 29 25 30 26 31 27 32 28 33 29 34 30 35
REMARK SMILES IDX 31 36 32 37 78 38 33 39 77 40 34 41 35 42 36 43 71 44 37 45
REMARK SMILES IDX 76 46 70 47 72 48 38 49 75 50 69 51 68 52 39 54 61 55 46 56
REMARK SMILES IDX 60 57 47 58 50 59 59 60 73 61 48 62 49 63 58 65 74 66 51 67
REMARK SMILES IDX 40 68 41 69 45 70 42 71 44 72 43 73 62 74 63 75 67 76 64 77
REMARK SMILES IDX 66 78 65 79 52 80 53 81 57 82 54 83 56 84 55 85
REMARK H PARENT 13 24 13 25 13 26 72 53 50 64
REMARK Flexibility Score: inf
ROOT
ATOM      1  C   UNL A   1      33.679  28.441  27.069  1.00  0.00     0.188 C 
ENDROOT
BRANCH   1   2
ATOM      2  C   UNL A   1      33.816  27.041  26.459  1.00  0.00     0.188 C 
BRANCH   2   3
ATOM      3  O   UNL A   1      32.704  26.161  26.574  1.00  0.00    -0.376 OA
BRANCH   3   4
ATOM      4  C   UNL A   1      31.418  26.776  26.461  1.00  0.00     0.202 C 
BRANCH   4   5
ATOM      5  C   UNL A   1      30.295  25.834  26.045  1.00  0.00     0.261 C 
BRANCH   5   6
ATOM      6  O   UNL A   1      30.230  25.768  24.610  1.00  0.00    -0.459 OA
BRANCH   6   7
ATOM      7  C   UNL A   1      30.432  26.943  23.974  1.00  0.00     0.368 C 
ATOM      8  O   UNL A   1      29.961  28.017  24.334  1.00  0.00    -0.245 OA
BRANCH   7   9
ATOM      9  C   UNL A   1      31.456  26.819  22.833  1.00  0.00     0.193 C 
ATOM     10  C   UNL A   1      32.709  25.056  21.706  1.00  0.00     0.054 C 
ATOM     11  C   UNL A   1      33.679  26.139  22.197  1.00  0.00     0.022 C 
ATOM     12  C   UNL A   1      31.348  25.389  22.295  1.00  0.00     0.095 C 
ATOM     13  C   UNL A   1      32.919  26.929  23.263  1.00  0.00     0.082 C 
BRANCH  10  14
ATOM     14  S   UNL A   1      33.105  23.295  22.013  1.00  0.00    -0.154 SA
BRANCH  14  15
ATOM     15  C   UNL A   1      32.121  22.908  23.519  1.00  0.00     0.105 C 
BRANCH  15  16
ATOM     16  C   UNL A   1      32.909  23.015  24.802  1.00  0.00    -0.038 A 
ATOM     17  C   UNL A   1      36.471  23.808  25.928  1.00  0.00     0.044 C 
ATOM     18  C   UNL A   1      35.023  23.426  25.946  1.00  0.00    -0.051 A 
ATOM     19  C   UNL A   1      34.450  23.003  27.145  1.00  0.00     0.003 A 
ATOM     20  C   UNL A   1      34.252  23.422  24.774  1.00  0.00     0.008 A 
ATOM     21  C   UNL A   1      33.103  22.668  27.199  1.00  0.00     0.001 A 
ATOM     22  C   UNL A   1      32.330  22.710  26.041  1.00  0.00     0.004 A 
ENDBRANCH  15  16
ENDBRANCH  14  15
ENDBRANCH  10  14
BRANCH   9  23
ATOM     23  N   UNL A   1      31.165  27.780  21.747  1.00  0.00    -0.343 N 
ATOM     24  H   UNL A   1      31.392  27.356  20.848  1.00  0.00     0.345 HD
ATOM     25  H   UNL A   1      31.727  28.620  21.878  1.00  0.00     0.345 HD
ATOM     26  H   UNL A   1      30.176  28.027  21.767  1.00  0.00     0.345 HD
ENDBRANCH   9  23
ENDBRANCH   7   9
ENDBRANCH   6   7
ENDBRANCH   5   6
ENDBRANCH   4   5
ENDBRANCH   3   4
ENDBRANCH   2   3
ENDBRANCH   1   2
BRANCH   1  27
ATOM     27  O   UNL A   1      33.912  29.519  26.170  1.00  0.00    -0.377 OA
BRANCH  27  28
ATOM     28  C   UNL A   1      32.699  30.126  25.733  1.00  0.00     0.188 C 
BRANCH  28  29
ATOM     29  C   UNL A   1      31.756  30.484  26.884  1.00  0.00     0.188 C 
BRANCH  29  30
ATOM     30  O   UNL A   1      31.108  31.744  26.824  1.00  0.00    -0.376 OA
BRANCH  30  31
ATOM     31  C   UNL A   1      31.832  32.931  26.530  1.00  0.00     0.202 C 
BRANCH  31  32
ATOM     32  C   UNL A   1      32.517  33.616  27.717  1.00  0.00     0.261 C 
BRANCH  32  33
ATOM     33  O   UNL A   1      33.809  33.028  27.949  1.00  0.00    -0.460 OA
BRANCH  33  34
ATOM     34  C   UNL A   1      34.195  32.986  29.243  1.00  0.00     0.338 C 
ATOM     35  O   UNL A   1      33.881  33.820  30.105  1.00  0.00    -0.246 OA
BRANCH  34  36
ATOM     36  C   UNL A   1      35.292  32.000  29.417  1.00  0.00     0.060 A 
ATOM     37  C   UNL A   1      35.741  31.692  30.710  1.00  0.00     0.016 A 
ATOM     38  C   UNL A   1      36.091  31.697  28.319  1.00  0.00     0.016 A 
ATOM     39  C   UNL A   1      37.064  31.278  30.912  1.00  0.00     0.010 A 
ATOM     40  C   UNL A   1      37.422  31.395  28.537  1.00  0.00     0.010 A 
ATOM     41  C   UNL A   1      37.948  31.247  29.830  1.00  0.00    -0.014 A 
BRANCH  41  42
ATOM     42  C   UNL A   1      39.420  31.331  29.951  1.00  0.00     0.031 A 
ATOM     43  C   UNL A   1      40.091  32.670  30.120  1.00  0.00     0.074 A 
ATOM     44  C   UNL A   1      40.127  30.196  30.220  1.00  0.00     0.049 A 
ATOM     45  N   UNL A   1      41.361  32.834  30.278  1.00  0.00    -0.248 NA
ATOM     46  C   UNL A   1      39.394  33.962  30.136  1.00  0.00     0.031 C 
ATOM     47  C   UNL A   1      41.422  30.114  30.897  1.00  0.00     0.029 A 
ATOM     48  N   UNL A   1      39.861  28.854  30.004  1.00  0.00    -0.354 N 
ATOM     49  C   UNL A   1      41.585  34.099  30.779  1.00  0.00     0.074 A 
ATOM     50  C   UNL A   1      40.342  34.794  30.586  1.00  0.00     0.031 C 
ATOM     51  C   UNL A   1      41.886  28.856  30.911  1.00  0.00     0.029 A 
ATOM     52  C   UNL A   1      41.050  28.115  30.006  1.00  0.00     0.049 A 
ATOM     53  H   UNL A   1      38.963  28.472  29.870  1.00  0.00     0.167 HD
ATOM     54  C   UNL A   1      42.759  34.352  31.425  1.00  0.00     0.031 A 
ATOM     55  C   UNL A   1      41.556  27.534  28.873  1.00  0.00     0.031 A 
ATOM     56  C   UNL A   1      43.705  33.253  31.246  1.00  0.00     0.049 A 
ATOM     57  C   UNL A   1      42.813  28.248  28.386  1.00  0.00     0.074 A 
ATOM     58  C   UNL A   1      44.248  32.327  32.116  1.00  0.00     0.029 A 
ATOM     59  N   UNL A   1      43.994  32.811  29.955  1.00  0.00    -0.354 N 
ATOM     60  N   UNL A   1      43.092  29.494  28.688  1.00  0.00    -0.248 NA
ATOM     61  C   UNL A   1      43.902  27.621  27.639  1.00  0.00     0.031 C 
ATOM     62  C   UNL A   1      44.652  31.219  31.330  1.00  0.00     0.029 A 
ATOM     63  C   UNL A   1      44.540  31.547  29.987  1.00  0.00     0.049 A 
ATOM     64  H   UNL A   1      43.828  33.331  29.135  1.00  0.00     0.167 HD
ATOM     65  C   UNL A   1      44.384  29.781  28.349  1.00  0.00     0.074 A 
ATOM     66  C   UNL A   1      44.828  28.602  27.623  1.00  0.00     0.031 C 
ATOM     67  C   UNL A   1      45.034  30.911  28.768  1.00  0.00     0.031 A 
BRANCH  54  68
ATOM     68  C   UNL A   1      43.010  35.478  32.409  1.00  0.00    -0.014 A 
ATOM     69  C   UNL A   1      42.505  35.376  33.723  1.00  0.00     0.009 A 
ATOM     70  C   UNL A   1      43.615  36.705  32.082  1.00  0.00     0.009 A 
ATOM     71  C   UNL A   1      42.594  36.429  34.646  1.00  0.00     0.001 A 
ATOM     72  C   UNL A   1      43.737  37.751  33.012  1.00  0.00     0.001 A 
ATOM     73  C   UNL A   1      43.220  37.618  34.293  1.00  0.00     0.000 A 
ENDBRANCH  54  68
BRANCH  55  74
ATOM     74  C   UNL A   1      40.496  26.820  28.112  1.00  0.00    -0.014 A 
ATOM     75  C   UNL A   1      40.742  26.724  26.722  1.00  0.00     0.009 A 
ATOM     76  C   UNL A   1      39.744  25.810  28.727  1.00  0.00     0.009 A 
ATOM     77  C   UNL A   1      40.486  25.534  26.035  1.00  0.00     0.001 A 
ATOM     78  C   UNL A   1      39.457  24.631  28.019  1.00  0.00     0.001 A 
ATOM     79  C   UNL A   1      39.889  24.469  26.701  1.00  0.00     0.000 A 
ENDBRANCH  55  74
BRANCH  67  80
ATOM     80  C   UNL A   1      46.318  31.467  28.191  1.00  0.00    -0.014 A 
ATOM     81  C   UNL A   1      46.384  32.262  27.044  1.00  0.00     0.009 A 
ATOM     82  C   UNL A   1      47.524  31.313  28.922  1.00  0.00     0.009 A 
ATOM     83  C   UNL A   1      47.594  32.836  26.629  1.00  0.00     0.001 A 
ATOM     84  C   UNL A   1      48.717  31.925  28.542  1.00  0.00     0.001 A 
ATOM     85  C   UNL A   1      48.755  32.680  27.383  1.00  0.00     0.000 A 
ENDBRANCH  67  80
ENDBRANCH  41  42
ENDBRANCH  34  36
ENDBRANCH  33  34
ENDBRANCH  32  33
ENDBRANCH  31  32
ENDBRANCH  30  31
ENDBRANCH  29  30
ENDBRANCH  28  29
ENDBRANCH  27  28
ENDBRANCH   1  27
TORSDOF 24
ENDMDL
