MODEL 1
REMARK VINA RESULT:      -9.6      0.000      0.000
REMARK SMILES Cc1n[nH]c(C(=O)Nc2cc(C(=O)OCCOCCOCCOCCOC(=O)c3ccc(-c4c5nc(c(-c6ccccc6)c6ccc([nH]6)c(-c6ccccc6)c6nc(c(-c7ccccc7)c7ccc4[nH]7)C=C6)C=C5)cc3)[nH]n2)n1
REMARK SMILES IDX 20 1 19 2 18 3 17 4 16 5 15 6 14 7 12 8 13 9 11 10 9 11
REMARK SMILES IDX 10 12 78 13 77 14 8 16 6 17 7 18 5 20 1 21 2 22 3 23 79 24
REMARK SMILES IDX 4 25 21 27 22 28 23 29 24 30 25 31 26 32 27 33 28 34 29 35
REMARK SMILES IDX 30 36 76 37 31 38 75 39 32 40 33 41 34 42 69 43 35 44 74 45
REMARK SMILES IDX 68 46 70 47 36 48 73 49 67 50 66 51 37 53 59 54 44 55 58 56
REMARK SMILES IDX 45 57 48 58 57 59 71 60 46 61 47 62 56 64 72 65 49 66 38 67
REMARK SMILES IDX 39 68 43 69 40 70 42 71 41 72 60 73 61 74 65 75 62 76 64 77
REMARK SMILES IDX 63 78 50 79 51 80 55 81 52 82 54 83 53 84
REMARK H PARENT 77 15 8 19 4 26 70 52 48 63
REMARK Flexibility Score: inf
ROOT
ATOM      1  O   UNL A   1      33.682  25.470  25.236  1.00  0.00    -0.377 OA
ENDROOT
BRANCH   1   2
ATOM      2  C   UNL A   1      34.581  24.598  24.575  1.00  0.00     0.188 C 
BRANCH   2   3
ATOM      3  C   UNL A   1      33.908  23.539  23.670  1.00  0.00     0.188 C 
BRANCH   3   4
ATOM      4  O   UNL A   1      34.075  22.137  23.856  1.00  0.00    -0.376 OA
BRANCH   4   5
ATOM      5  C   UNL A   1      33.062  21.304  24.396  1.00  0.00     0.202 C 
BRANCH   5   6
ATOM      6  C   UNL A   1      32.784  21.295  25.904  1.00  0.00     0.261 C 
BRANCH   6   7
ATOM      7  O   UNL A   1      32.226  22.497  26.430  1.00  0.00    -0.459 OA
BRANCH   7   8
ATOM      8  C   UNL A   1      30.928  22.710  26.105  1.00  0.00     0.356 C 
ATOM      9  O   UNL A   1      30.019  21.896  26.171  1.00  0.00    -0.244 OA
BRANCH   8  10
ATOM     10  C   UNL A   1      30.738  24.096  25.799  1.00  0.00     0.145 A 
ATOM     11  C   UNL A   1      30.206  26.079  25.000  1.00  0.00     0.155 A 
ATOM     12  C   UNL A   1      30.486  24.753  24.615  1.00  0.00     0.084 A 
ATOM     13  N   UNL A   1      30.566  26.309  26.260  1.00  0.00    -0.157 NA
ATOM     14  N   UNL A   1      30.836  25.081  26.741  1.00  0.00    -0.269 N 
ATOM     15  H   UNL A   1      31.081  24.910  27.679  1.00  0.00     0.190 HD
BRANCH  11  16
ATOM     16  N   UNL A   1      29.555  27.046  24.285  1.00  0.00    -0.302 N 
ATOM     17  C   UNL A   1      30.031  27.721  23.175  1.00  0.00     0.294 C 
ATOM     18  O   UNL A   1      29.410  28.719  22.806  1.00  0.00    -0.265 OA
ATOM     19  H   UNL A   1      28.651  27.288  24.592  1.00  0.00     0.172 HD
BRANCH  17  20
ATOM     20  C   UNL A   1      31.153  27.160  22.433  1.00  0.00     0.214 A 
ATOM     21  C   UNL A   1      32.756  25.219  19.940  1.00  0.00     0.092 C 
ATOM     22  C   UNL A   1      32.372  26.108  21.052  1.00  0.00     0.148 A 
ATOM     23  N   UNL A   1      33.273  26.678  21.858  1.00  0.00    -0.159 NA
ATOM     24  N   UNL A   1      31.065  26.386  21.364  1.00  0.00    -0.207 NA
ATOM     25  N   UNL A   1      32.480  27.269  22.760  1.00  0.00    -0.255 N 
ATOM     26  H   UNL A   1      32.811  27.729  23.565  1.00  0.00     0.192 HD
ENDBRANCH  17  20
ENDBRANCH  11  16
ENDBRANCH   8  10
ENDBRANCH   7   8
ENDBRANCH   6   7
ENDBRANCH   5   6
ENDBRANCH   4   5
ENDBRANCH   3   4
ENDBRANCH   2   3
ENDBRANCH   1   2
BRANCH   1  27
ATOM     27  C   UNL A   1      34.246  26.697  25.692  1.00  0.00     0.188 C 
BRANCH  27  28
ATOM     28  C   UNL A   1      33.341  27.660  26.503  1.00  0.00     0.188 C 
BRANCH  28  29
ATOM     29  O   UNL A   1      33.588  29.044  26.263  1.00  0.00    -0.376 OA
BRANCH  29  30
ATOM     30  C   UNL A   1      32.570  29.878  25.732  1.00  0.00     0.202 C 
BRANCH  30  31
ATOM     31  C   UNL A   1      32.086  30.973  26.678  1.00  0.00     0.261 C 
BRANCH  31  32
ATOM     32  O   UNL A   1      33.140  31.574  27.409  1.00  0.00    -0.460 OA
BRANCH  32  33
ATOM     33  C   UNL A   1      32.914  32.846  27.785  1.00  0.00     0.338 C 
ATOM     34  O   UNL A   1      32.009  33.578  27.425  1.00  0.00    -0.246 OA
BRANCH  33  35
ATOM     35  C   UNL A   1      34.040  33.282  28.613  1.00  0.00     0.060 A 
ATOM     36  C   UNL A   1      35.026  33.978  27.922  1.00  0.00     0.016 A 
ATOM     37  C   UNL A   1      34.281  32.610  29.823  1.00  0.00     0.016 A 
ATOM     38  C   UNL A   1      36.323  33.691  28.246  1.00  0.00     0.010 A 
ATOM     39  C   UNL A   1      35.578  32.312  30.138  1.00  0.00     0.010 A 
ATOM     40  C   UNL A   1      36.563  32.762  29.268  1.00  0.00    -0.014 A 
BRANCH  40  41
ATOM     41  C   UNL A   1      37.920  32.314  29.420  1.00  0.00     0.031 A 
ATOM     42  C   UNL A   1      38.064  30.876  29.152  1.00  0.00     0.074 A 
ATOM     43  C   UNL A   1      38.928  33.138  29.744  1.00  0.00     0.049 A 
ATOM     44  N   UNL A   1      38.319  29.942  30.002  1.00  0.00    -0.248 NA
ATOM     45  C   UNL A   1      37.688  30.409  27.810  1.00  0.00     0.031 C 
ATOM     46  C   UNL A   1      38.959  34.602  29.746  1.00  0.00     0.029 A 
ATOM     47  N   UNL A   1      40.207  32.799  30.038  1.00  0.00    -0.354 N 
ATOM     48  C   UNL A   1      38.316  28.769  29.261  1.00  0.00     0.074 A 
ATOM     49  C   UNL A   1      37.745  29.091  27.978  1.00  0.00     0.031 C 
ATOM     50  C   UNL A   1      40.251  35.010  29.780  1.00  0.00     0.029 A 
ATOM     51  C   UNL A   1      41.107  33.844  29.936  1.00  0.00     0.049 A 
ATOM     52  H   UNL A   1      40.471  31.887  30.301  1.00  0.00     0.167 HD
ATOM     53  C   UNL A   1      39.034  27.687  29.657  1.00  0.00     0.031 A 
ATOM     54  C   UNL A   1      42.455  33.715  29.884  1.00  0.00     0.031 A 
ATOM     55  C   UNL A   1      39.372  27.745  31.056  1.00  0.00     0.049 A 
ATOM     56  C   UNL A   1      42.800  32.359  30.383  1.00  0.00     0.074 A 
ATOM     57  C   UNL A   1      38.642  27.817  32.226  1.00  0.00     0.029 A 
ATOM     58  N   UNL A   1      40.651  28.130  31.385  1.00  0.00    -0.354 N 
ATOM     59  N   UNL A   1      42.683  31.996  31.628  1.00  0.00    -0.248 NA
ATOM     60  C   UNL A   1      42.863  31.269  29.421  1.00  0.00     0.031 C 
ATOM     61  C   UNL A   1      39.391  28.676  33.082  1.00  0.00     0.029 A 
ATOM     62  C   UNL A   1      40.556  29.041  32.405  1.00  0.00     0.049 A 
ATOM     63  H   UNL A   1      41.481  27.809  30.965  1.00  0.00     0.167 HD
ATOM     64  C   UNL A   1      42.230  30.684  31.575  1.00  0.00     0.074 A 
ATOM     65  C   UNL A   1      42.459  30.258  30.196  1.00  0.00     0.031 C 
ATOM     66  C   UNL A   1      41.452  30.165  32.571  1.00  0.00     0.031 A 
BRANCH  53  67
ATOM     67  C   UNL A   1      39.783  26.832  28.670  1.00  0.00    -0.014 A 
ATOM     68  C   UNL A   1      40.662  27.457  27.772  1.00  0.00     0.009 A 
ATOM     69  C   UNL A   1      39.451  25.488  28.402  1.00  0.00     0.009 A 
ATOM     70  C   UNL A   1      41.119  26.793  26.627  1.00  0.00     0.001 A 
ATOM     71  C   UNL A   1      39.940  24.808  27.287  1.00  0.00     0.001 A 
ATOM     72  C   UNL A   1      40.751  25.473  26.383  1.00  0.00     0.000 A 
ENDBRANCH  53  67
BRANCH  54  73
ATOM     73  C   UNL A   1      43.433  34.545  29.152  1.00  0.00    -0.014 A 
ATOM     74  C   UNL A   1      43.491  34.496  27.750  1.00  0.00     0.009 A 
ATOM     75  C   UNL A   1      44.117  35.589  29.801  1.00  0.00     0.009 A 
ATOM     76  C   UNL A   1      44.165  35.485  27.023  1.00  0.00     0.001 A 
ATOM     77  C   UNL A   1      44.798  36.571  29.075  1.00  0.00     0.001 A 
ATOM     78  C   UNL A   1      44.806  36.529  27.686  1.00  0.00     0.000 A 
ENDBRANCH  54  73
BRANCH  66  79
ATOM     79  C   UNL A   1      41.304  30.965  33.841  1.00  0.00    -0.014 A 
ATOM     80  C   UNL A   1      40.356  31.993  33.995  1.00  0.00     0.009 A 
ATOM     81  C   UNL A   1      42.045  30.571  34.966  1.00  0.00     0.009 A 
ATOM     82  C   UNL A   1      40.186  32.632  35.227  1.00  0.00     0.001 A 
ATOM     83  C   UNL A   1      41.859  31.195  36.202  1.00  0.00     0.001 A 
ATOM     84  C   UNL A   1      40.935  32.229  36.331  1.00  0.00     0.000 A 
ENDBRANCH  66  79
ENDBRANCH  40  41
ENDBRANCH  33  35
ENDBRANCH  32  33
ENDBRANCH  31  32
ENDBRANCH  30  31
ENDBRANCH  29  30
ENDBRANCH  28  29
ENDBRANCH  27  28
ENDBRANCH   1  27
TORSDOF 22
ENDMDL
MODEL 2
REMARK VINA RESULT:      -9.1      4.388      8.764
REMARK SMILES Cc1n[nH]c(C(=O)Nc2cc(C(=O)OCCOCCOCCOCCOC(=O)c3ccc(-c4c5nc(c(-c6ccccc6)c6ccc([nH]6)c(-c6ccccc6)c6nc(c(-c7ccccc7)c7ccc4[nH]7)C=C6)C=C5)cc3)[nH]n2)n1
REMARK SMILES IDX 20 1 19 2 18 3 17 4 16 5 15 6 14 7 12 8 13 9 11 10 9 11
REMARK SMILES IDX 10 12 78 13 77 14 8 16 6 17 7 18 5 20 1 21 2 22 3 23 79 24
REMARK SMILES IDX 4 25 21 27 22 28 23 29 24 30 25 31 26 32 27 33 28 34 29 35
REMARK SMILES IDX 30 36 76 37 31 38 75 39 32 40 33 41 34 42 69 43 35 44 74 45
REMARK SMILES IDX 68 46 70 47 36 48 73 49 67 50 66 51 37 53 59 54 44 55 58 56
REMARK SMILES IDX 45 57 48 58 57 59 71 60 46 61 47 62 56 64 72 65 49 66 38 67
REMARK SMILES IDX 39 68 43 69 40 70 42 71 41 72 60 73 61 74 65 75 62 76 64 77
REMARK SMILES IDX 63 78 50 79 51 80 55 81 52 82 54 83 53 84
REMARK H PARENT 77 15 8 19 4 26 70 52 48 63
REMARK Flexibility Score: inf
ROOT
ATOM      1  O   UNL A   1      40.300  20.865  25.555  1.00  0.00    -0.377 OA
ENDROOT
BRANCH   1   2
ATOM      2  C   UNL A   1      39.661  21.835  26.365  1.00  0.00     0.188 C 
BRANCH   2   3
ATOM      3  C   UNL A   1      38.239  22.230  25.902  1.00  0.00     0.188 C 
BRANCH   3   4
ATOM      4  O   UNL A   1      37.153  21.310  25.852  1.00  0.00    -0.376 OA
BRANCH   4   5
ATOM      5  C   UNL A   1      35.799  21.719  25.740  1.00  0.00     0.202 C 
BRANCH   5   6
ATOM      6  C   UNL A   1      34.754  20.788  25.114  1.00  0.00     0.261 C 
BRANCH   6   7
ATOM      7  O   UNL A   1      33.589  20.558  25.904  1.00  0.00    -0.459 OA
BRANCH   7   8
ATOM      8  C   UNL A   1      32.433  20.484  25.201  1.00  0.00     0.356 C 
ATOM      9  O   UNL A   1      31.925  19.471  24.741  1.00  0.00    -0.244 OA
BRANCH   8  10
ATOM     10  C   UNL A   1      31.801  21.768  25.192  1.00  0.00     0.145 A 
ATOM     11  C   UNL A   1      30.790  23.676  24.751  1.00  0.00     0.155 A 
ATOM     12  C   UNL A   1      31.696  22.737  24.218  1.00  0.00     0.084 A 
ATOM     13  N   UNL A   1      30.600  23.486  26.055  1.00  0.00    -0.157 NA
ATOM     14  N   UNL A   1      31.180  22.294  26.289  1.00  0.00    -0.269 N 
ATOM     15  H   UNL A   1      31.159  21.846  27.166  1.00  0.00     0.190 HD
BRANCH  11  16
ATOM     16  N   UNL A   1      30.067  24.625  24.083  1.00  0.00    -0.302 N 
ATOM     17  C   UNL A   1      30.295  25.989  24.073  1.00  0.00     0.294 C 
ATOM     18  O   UNL A   1      29.409  26.712  23.613  1.00  0.00    -0.265 OA
ATOM     19  H   UNL A   1      29.303  24.303  23.551  1.00  0.00     0.172 HD
BRANCH  17  20
ATOM     20  C   UNL A   1      31.599  26.493  24.487  1.00  0.00     0.214 A 
ATOM     21  C   UNL A   1      33.937  28.106  26.604  1.00  0.00     0.092 C 
ATOM     22  C   UNL A   1      33.206  27.385  25.545  1.00  0.00     0.148 A 
ATOM     23  N   UNL A   1      33.786  27.009  24.402  1.00  0.00    -0.159 NA
ATOM     24  N   UNL A   1      31.871  27.079  25.641  1.00  0.00    -0.207 NA
ATOM     25  N   UNL A   1      32.738  26.522  23.725  1.00  0.00    -0.255 N 
ATOM     26  H   UNL A   1      32.782  26.219  22.790  1.00  0.00     0.192 HD
ENDBRANCH  17  20
ENDBRANCH  11  16
ENDBRANCH   8  10
ENDBRANCH   7   8
ENDBRANCH   6   7
ENDBRANCH   5   6
ENDBRANCH   4   5
ENDBRANCH   3   4
ENDBRANCH   2   3
ENDBRANCH   1   2
BRANCH   1  27
ATOM     27  C   UNL A   1      40.609  19.634  26.204  1.00  0.00     0.188 C 
BRANCH  27  28
ATOM     28  C   UNL A   1      42.101  19.241  26.354  1.00  0.00     0.188 C 
BRANCH  28  29
ATOM     29  O   UNL A   1      42.816  19.159  25.123  1.00  0.00    -0.376 OA
BRANCH  29  30
ATOM     30  C   UNL A   1      44.115  18.588  25.078  1.00  0.00     0.202 C 
BRANCH  30  31
ATOM     31  C   UNL A   1      45.116  19.352  24.216  1.00  0.00     0.261 C 
BRANCH  31  32
ATOM     32  O   UNL A   1      44.644  20.629  23.826  1.00  0.00    -0.460 OA
BRANCH  32  33
ATOM     33  C   UNL A   1      45.345  21.666  24.321  1.00  0.00     0.338 C 
ATOM     34  O   UNL A   1      46.539  21.710  24.559  1.00  0.00    -0.246 OA
BRANCH  33  35
ATOM     35  C   UNL A   1      44.400  22.726  24.677  1.00  0.00     0.060 A 
ATOM     36  C   UNL A   1      44.936  24.009  24.645  1.00  0.00     0.016 A 
ATOM     37  C   UNL A   1      43.269  22.386  25.438  1.00  0.00     0.016 A 
ATOM     38  C   UNL A   1      44.568  24.854  25.654  1.00  0.00     0.010 A 
ATOM     39  C   UNL A   1      42.912  23.227  26.456  1.00  0.00     0.010 A 
ATOM     40  C   UNL A   1      43.655  24.390  26.611  1.00  0.00    -0.014 A 
BRANCH  40  41
ATOM     41  C   UNL A   1      43.473  25.213  27.775  1.00  0.00     0.031 A 
ATOM     42  C   UNL A   1      42.371  26.171  27.612  1.00  0.00     0.074 A 
ATOM     43  C   UNL A   1      44.219  25.083  28.883  1.00  0.00     0.049 A 
ATOM     44  N   UNL A   1      42.456  27.451  27.488  1.00  0.00    -0.248 NA
ATOM     45  C   UNL A   1      41.035  25.611  27.364  1.00  0.00     0.031 C 
ATOM     46  C   UNL A   1      45.125  23.998  29.265  1.00  0.00     0.029 A 
ATOM     47  N   UNL A   1      44.217  25.886  29.974  1.00  0.00    -0.354 N 
ATOM     48  C   UNL A   1      41.150  27.886  27.328  1.00  0.00     0.074 A 
ATOM     49  C   UNL A   1      40.350  26.714  27.074  1.00  0.00     0.031 C 
ATOM     50  C   UNL A   1      45.381  24.091  30.591  1.00  0.00     0.029 A 
ATOM     51  C   UNL A   1      44.767  25.307  31.104  1.00  0.00     0.049 A 
ATOM     52  H   UNL A   1      43.855  26.802  29.964  1.00  0.00     0.167 HD
ATOM     53  C   UNL A   1      40.778  29.141  27.688  1.00  0.00     0.031 A 
ATOM     54  C   UNL A   1      44.623  25.767  32.371  1.00  0.00     0.031 A 
ATOM     55  C   UNL A   1      41.907  30.029  27.791  1.00  0.00     0.049 A 
ATOM     56  C   UNL A   1      44.170  27.179  32.290  1.00  0.00     0.074 A 
ATOM     57  C   UNL A   1      42.884  30.459  26.914  1.00  0.00     0.029 A 
ATOM     58  N   UNL A   1      42.381  30.311  29.051  1.00  0.00    -0.354 N 
ATOM     59  N   UNL A   1      44.925  28.158  31.883  1.00  0.00    -0.248 NA
ATOM     60  C   UNL A   1      42.738  27.440  32.249  1.00  0.00     0.031 C 
ATOM     61  C   UNL A   1      44.074  30.545  27.694  1.00  0.00     0.029 A 
ATOM     62  C   UNL A   1      43.747  30.210  29.008  1.00  0.00     0.049 A 
ATOM     63  H   UNL A   1      41.838  30.544  29.838  1.00  0.00     0.167 HD
ATOM     64  C   UNL A   1      44.081  28.976  31.143  1.00  0.00     0.074 A 
ATOM     65  C   UNL A   1      42.730  28.540  31.491  1.00  0.00     0.031 C 
ATOM     66  C   UNL A   1      44.556  29.730  30.108  1.00  0.00     0.031 A 
BRANCH  53  67
ATOM     67  C   UNL A   1      39.461  29.412  28.363  1.00  0.00    -0.014 A 
ATOM     68  C   UNL A   1      39.314  29.059  29.713  1.00  0.00     0.009 A 
ATOM     69  C   UNL A   1      38.282  29.735  27.660  1.00  0.00     0.009 A 
ATOM     70  C   UNL A   1      38.047  28.960  30.301  1.00  0.00     0.001 A 
ATOM     71  C   UNL A   1      37.022  29.683  28.254  1.00  0.00     0.001 A 
ATOM     72  C   UNL A   1      36.903  29.265  29.568  1.00  0.00     0.000 A 
ENDBRANCH  53  67
BRANCH  54  73
ATOM     73  C   UNL A   1      44.543  24.995  33.628  1.00  0.00    -0.014 A 
ATOM     74  C   UNL A   1      45.023  25.547  34.826  1.00  0.00     0.009 A 
ATOM     75  C   UNL A   1      43.748  23.838  33.710  1.00  0.00     0.009 A 
ATOM     76  C   UNL A   1      44.677  24.990  36.063  1.00  0.00     0.001 A 
ATOM     77  C   UNL A   1      43.409  23.277  34.945  1.00  0.00     0.001 A 
ATOM     78  C   UNL A   1      43.859  23.864  36.122  1.00  0.00     0.000 A 
ENDBRANCH  54  73
BRANCH  66  79
ATOM     79  C   UNL A   1      46.052  29.845  29.946  1.00  0.00    -0.014 A 
ATOM     80  C   UNL A   1      46.820  28.911  29.227  1.00  0.00     0.009 A 
ATOM     81  C   UNL A   1      46.685  31.008  30.411  1.00  0.00     0.009 A 
ATOM     82  C   UNL A   1      48.187  29.119  29.016  1.00  0.00     0.001 A 
ATOM     83  C   UNL A   1      48.044  31.225  30.180  1.00  0.00     0.001 A 
ATOM     84  C   UNL A   1      48.797  30.279  29.488  1.00  0.00     0.000 A 
ENDBRANCH  66  79
ENDBRANCH  40  41
ENDBRANCH  33  35
ENDBRANCH  32  33
ENDBRANCH  31  32
ENDBRANCH  30  31
ENDBRANCH  29  30
ENDBRANCH  28  29
ENDBRANCH  27  28
ENDBRANCH   1  27
TORSDOF 22
ENDMDL
MODEL 3
REMARK VINA RESULT:      -8.8      3.220      7.027
REMARK SMILES Cc1n[nH]c(C(=O)Nc2cc(C(=O)OCCOCCOCCOCCOC(=O)c3ccc(-c4c5nc(c(-c6ccccc6)c6ccc([nH]6)c(-c6ccccc6)c6nc(c(-c7ccccc7)c7ccc4[nH]7)C=C6)C=C5)cc3)[nH]n2)n1
REMARK SMILES IDX 20 1 19 2 18 3 17 4 16 5 15 6 14 7 12 8 13 9 11 10 9 11
REMARK SMILES IDX 10 12 78 13 77 14 8 16 6 17 7 18 5 20 1 21 2 22 3 23 79 24
REMARK SMILES IDX 4 25 21 27 22 28 23 29 24 30 25 31 26 32 27 33 28 34 29 35
REMARK SMILES IDX 30 36 76 37 31 38 75 39 32 40 33 41 34 42 69 43 35 44 74 45
REMARK SMILES IDX 68 46 70 47 36 48 73 49 67 50 66 51 37 53 59 54 44 55 58 56
REMARK SMILES IDX 45 57 48 58 57 59 71 60 46 61 47 62 56 64 72 65 49 66 38 67
REMARK SMILES IDX 39 68 43 69 40 70 42 71 41 72 60 73 61 74 65 75 62 76 64 77
REMARK SMILES IDX 63 78 50 79 51 80 55 81 52 82 54 83 53 84
REMARK H PARENT 77 15 8 19 4 26 70 52 48 63
REMARK Flexibility Score: inf
ROOT
ATOM      1  O   UNL A   1      30.910  26.739  26.516  1.00  0.00    -0.377 OA
ENDROOT
BRANCH   1   2
ATOM      2  C   UNL A   1      31.660  25.590  26.168  1.00  0.00     0.188 C 
BRANCH   2   3
ATOM      3  C   UNL A   1      31.007  24.246  26.566  1.00  0.00     0.188 C 
BRANCH   3   4
ATOM      4  O   UNL A   1      31.717  23.011  26.585  1.00  0.00    -0.376 OA
BRANCH   4   5
ATOM      5  C   UNL A   1      32.626  22.658  27.614  1.00  0.00     0.202 C 
BRANCH   5   6
ATOM      6  C   UNL A   1      34.011  22.095  27.271  1.00  0.00     0.261 C 
BRANCH   6   7
ATOM      7  O   UNL A   1      34.143  21.556  25.958  1.00  0.00    -0.459 OA
BRANCH   7   8
ATOM      8  C   UNL A   1      34.920  22.285  25.121  1.00  0.00     0.356 C 
ATOM      9  O   UNL A   1      36.139  22.371  25.150  1.00  0.00    -0.244 OA
BRANCH   8  10
ATOM     10  C   UNL A   1      34.105  22.842  24.083  1.00  0.00     0.145 A 
ATOM     11  C   UNL A   1      33.228  23.748  22.277  1.00  0.00     0.155 A 
ATOM     12  C   UNL A   1      34.373  23.767  23.098  1.00  0.00     0.084 A 
ATOM     13  N   UNL A   1      32.213  23.121  22.867  1.00  0.00    -0.157 NA
ATOM     14  N   UNL A   1      32.782  22.535  23.937  1.00  0.00    -0.269 N 
ATOM     15  H   UNL A   1      32.293  21.943  24.553  1.00  0.00     0.190 HD
BRANCH  11  16
ATOM     16  N   UNL A   1      33.105  24.191  20.989  1.00  0.00    -0.302 N 
ATOM     17  C   UNL A   1      32.509  25.366  20.567  1.00  0.00     0.294 C 
ATOM     18  O   UNL A   1      32.279  25.488  19.363  1.00  0.00    -0.265 OA
ATOM     19  H   UNL A   1      33.482  23.613  20.287  1.00  0.00     0.172 HD
BRANCH  17  20
ATOM     20  C   UNL A   1      32.295  26.438  21.532  1.00  0.00     0.214 A 
ATOM     21  C   UNL A   1      30.426  28.589  23.637  1.00  0.00     0.092 C 
ATOM     22  C   UNL A   1      31.444  27.840  22.876  1.00  0.00     0.148 A 
ATOM     23  N   UNL A   1      32.740  28.162  22.904  1.00  0.00    -0.159 NA
ATOM     24  N   UNL A   1      31.131  26.785  22.056  1.00  0.00    -0.207 NA
ATOM     25  N   UNL A   1      33.239  27.317  21.994  1.00  0.00    -0.255 N 
ATOM     26  H   UNL A   1      34.176  27.325  21.692  1.00  0.00     0.192 HD
ENDBRANCH  17  20
ENDBRANCH  11  16
ENDBRANCH   8  10
ENDBRANCH   7   8
ENDBRANCH   6   7
ENDBRANCH   5   6
ENDBRANCH   4   5
ENDBRANCH   3   4
ENDBRANCH   2   3
ENDBRANCH   1   2
BRANCH   1  27
ATOM     27  C   UNL A   1      31.557  27.645  27.407  1.00  0.00     0.188 C 
BRANCH  27  28
ATOM     28  C   UNL A   1      32.010  29.020  26.852  1.00  0.00     0.188 C 
BRANCH  28  29
ATOM     29  O   UNL A   1      33.067  29.633  27.585  1.00  0.00    -0.376 OA
BRANCH  29  30
ATOM     30  C   UNL A   1      33.479  30.958  27.290  1.00  0.00     0.202 C 
BRANCH  30  31
ATOM     31  C   UNL A   1      34.278  31.638  28.397  1.00  0.00     0.261 C 
BRANCH  31  32
ATOM     32  O   UNL A   1      35.294  30.808  28.932  1.00  0.00    -0.460 OA
BRANCH  32  33
ATOM     33  C   UNL A   1      36.317  31.466  29.509  1.00  0.00     0.338 C 
ATOM     34  O   UNL A   1      36.254  32.359  30.335  1.00  0.00    -0.246 OA
BRANCH  33  35
ATOM     35  C   UNL A   1      37.558  31.030  28.866  1.00  0.00     0.060 A 
ATOM     36  C   UNL A   1      37.444  29.850  28.138  1.00  0.00     0.016 A 
ATOM     37  C   UNL A   1      38.778  31.500  29.379  1.00  0.00     0.016 A 
ATOM     38  C   UNL A   1      38.478  28.962  28.242  1.00  0.00     0.010 A 
ATOM     39  C   UNL A   1      39.806  30.604  29.496  1.00  0.00     0.010 A 
ATOM     40  C   UNL A   1      39.583  29.316  29.029  1.00  0.00    -0.014 A 
BRANCH  40  41
ATOM     41  C   UNL A   1      40.534  28.274  29.303  1.00  0.00     0.031 A 
ATOM     42  C   UNL A   1      40.934  28.244  30.716  1.00  0.00     0.074 A 
ATOM     43  C   UNL A   1      40.971  27.420  28.365  1.00  0.00     0.049 A 
ATOM     44  N   UNL A   1      42.079  28.563  31.214  1.00  0.00    -0.248 NA
ATOM     45  C   UNL A   1      39.869  28.018  31.704  1.00  0.00     0.031 C 
ATOM     46  C   UNL A   1      40.436  27.168  27.024  1.00  0.00     0.029 A 
ATOM     47  N   UNL A   1      41.954  26.496  28.486  1.00  0.00    -0.354 N 
ATOM     48  C   UNL A   1      41.936  28.400  32.584  1.00  0.00     0.074 A 
ATOM     49  C   UNL A   1      40.526  28.249  32.838  1.00  0.00     0.031 C 
ATOM     50  C   UNL A   1      40.941  25.997  26.568  1.00  0.00     0.029 A 
ATOM     51  C   UNL A   1      41.921  25.503  27.523  1.00  0.00     0.049 A 
ATOM     52  H   UNL A   1      42.633  26.528  29.199  1.00  0.00     0.167 HD
ATOM     53  C   UNL A   1      43.005  28.126  33.374  1.00  0.00     0.031 A 
ATOM     54  C   UNL A   1      42.587  24.325  27.589  1.00  0.00     0.031 A 
ATOM     55  C   UNL A   1      44.250  28.475  32.739  1.00  0.00     0.049 A 
ATOM     56  C   UNL A   1      43.658  24.466  28.608  1.00  0.00     0.074 A 
ATOM     57  C   UNL A   1      44.787  29.647  32.242  1.00  0.00     0.029 A 
ATOM     58  N   UNL A   1      44.988  27.456  32.185  1.00  0.00    -0.354 N 
ATOM     59  N   UNL A   1      44.717  25.205  28.445  1.00  0.00    -0.248 NA
ATOM     60  C   UNL A   1      43.341  24.130  29.988  1.00  0.00     0.031 C 
ATOM     61  C   UNL A   1      45.504  29.261  31.071  1.00  0.00     0.029 A 
ATOM     62  C   UNL A   1      45.402  27.875  30.947  1.00  0.00     0.049 A 
ATOM     63  H   UNL A   1      45.184  26.586  32.602  1.00  0.00     0.167 HD
ATOM     64  C   UNL A   1      44.948  25.776  29.689  1.00  0.00     0.074 A 
ATOM     65  C   UNL A   1      44.135  24.999  30.621  1.00  0.00     0.031 C 
ATOM     66  C   UNL A   1      45.548  26.998  29.805  1.00  0.00     0.031 A 
BRANCH  53  67
ATOM     67  C   UNL A   1      42.916  27.145  34.512  1.00  0.00    -0.014 A 
ATOM     68  C   UNL A   1      43.411  27.527  35.768  1.00  0.00     0.009 A 
ATOM     69  C   UNL A   1      42.627  25.776  34.333  1.00  0.00     0.009 A 
ATOM     70  C   UNL A   1      43.675  26.576  36.761  1.00  0.00     0.001 A 
ATOM     71  C   UNL A   1      42.845  24.831  35.335  1.00  0.00     0.001 A 
ATOM     72  C   UNL A   1      43.399  25.229  36.540  1.00  0.00     0.000 A 
ENDBRANCH  53  67
BRANCH  54  73
ATOM     73  C   UNL A   1      42.175  23.003  27.072  1.00  0.00    -0.014 A 
ATOM     74  C   UNL A   1      43.071  22.230  26.318  1.00  0.00     0.009 A 
ATOM     75  C   UNL A   1      41.008  22.378  27.548  1.00  0.00     0.009 A 
ATOM     76  C   UNL A   1      42.834  20.869  26.094  1.00  0.00     0.001 A 
ATOM     77  C   UNL A   1      40.767  21.021  27.317  1.00  0.00     0.001 A 
ATOM     78  C   UNL A   1      41.689  20.262  26.606  1.00  0.00     0.000 A 
ENDBRANCH  54  73
BRANCH  66  79
ATOM     79  C   UNL A   1      46.175  27.597  28.570  1.00  0.00    -0.014 A 
ATOM     80  C   UNL A   1      45.468  28.414  27.669  1.00  0.00     0.009 A 
ATOM     81  C   UNL A   1      47.559  27.451  28.388  1.00  0.00     0.009 A 
ATOM     82  C   UNL A   1      46.122  29.032  26.598  1.00  0.00     0.001 A 
ATOM     83  C   UNL A   1      48.214  28.086  27.331  1.00  0.00     0.001 A 
ATOM     84  C   UNL A   1      47.495  28.871  26.433  1.00  0.00     0.000 A 
ENDBRANCH  66  79
ENDBRANCH  40  41
ENDBRANCH  33  35
ENDBRANCH  32  33
ENDBRANCH  31  32
ENDBRANCH  30  31
ENDBRANCH  29  30
ENDBRANCH  28  29
ENDBRANCH  27  28
ENDBRANCH   1  27
TORSDOF 22
ENDMDL
