MODEL 1
REMARK VINA RESULT:      -9.8      0.000      0.000
REMARK SMILES N#C/C(=C/c1ccc(-c2cccc(C(=O)OCCOCCOCCOCCOC(=O)c3ccc(-c4c5nc(c(-c6ccccc6)c6ccc([nH]6)c(-c6ccccc6)c6nc(c(-c7ccccc7)c7ccc4[nH]7)C=C6)C=C5)cc3)c2)o1)c1ccc(F)cc1
REMARK SMILES IDX 21 1 20 2 19 3 18 4 17 5 16 6 14 7 15 8 13 9 9 10 10 11
REMARK SMILES IDX 79 12 11 13 12 14 8 15 5 16 6 17 80 18 7 19 4 20 3 21 2 22
REMARK SMILES IDX 1 23 81 24 82 25 87 26 83 27 86 28 84 29 85 30 22 31 23 32
REMARK SMILES IDX 24 33 25 34 26 35 27 36 28 37 29 38 30 39 31 40 32 41 78 42
REMARK SMILES IDX 33 43 77 44 34 45 35 46 36 47 71 48 37 49 76 50 70 51 72 52
REMARK SMILES IDX 38 53 75 54 69 55 68 56 39 58 61 59 46 60 60 61 47 62 50 63
REMARK SMILES IDX 59 64 73 65 48 66 49 67 58 69 74 70 51 71 40 72 41 73 45 74
REMARK SMILES IDX 42 75 44 76 43 77 62 78 63 79 67 80 64 81 66 82 65 83 52 84
REMARK SMILES IDX 53 85 57 86 54 87 56 88 55 89
REMARK H PARENT 72 57 50 68
REMARK Flexibility Score: inf
ROOT
ATOM      1  C   UNL A   1      35.480  23.408  24.043  1.00  0.00     0.188 C 
ENDROOT
BRANCH   1   2
ATOM      2  C   UNL A   1      35.171  24.448  25.140  1.00  0.00     0.188 C 
BRANCH   2   3
ATOM      3  O   UNL A   1      34.292  23.957  26.137  1.00  0.00    -0.376 OA
BRANCH   3   4
ATOM      4  C   UNL A   1      34.747  23.019  27.092  1.00  0.00     0.202 C 
BRANCH   4   5
ATOM      5  C   UNL A   1      34.656  21.501  26.863  1.00  0.00     0.261 C 
BRANCH   5   6
ATOM      6  O   UNL A   1      33.355  20.911  26.899  1.00  0.00    -0.460 OA
BRANCH   6   7
ATOM      7  C   UNL A   1      32.975  20.125  25.870  1.00  0.00     0.338 C 
ATOM      8  O   UNL A   1      32.842  18.912  25.883  1.00  0.00    -0.246 OA
BRANCH   7   9
ATOM      9  C   UNL A   1      32.536  21.028  24.777  1.00  0.00     0.060 A 
ATOM     10  C   UNL A   1      31.308  23.009  24.046  1.00  0.00     0.018 A 
ATOM     11  C   UNL A   1      31.484  22.604  22.718  1.00  0.00     0.012 A 
ATOM     12  C   UNL A   1      31.822  22.195  25.069  1.00  0.00     0.027 A 
ATOM     13  C   UNL A   1      32.196  21.433  22.420  1.00  0.00     0.002 A 
ATOM     14  C   UNL A   1      32.739  20.654  23.446  1.00  0.00     0.016 A 
BRANCH  10  15
ATOM     15  C   UNL A   1      30.688  24.274  24.419  1.00  0.00     0.134 A 
ATOM     16  C   UNL A   1      29.814  26.292  24.058  1.00  0.00     0.128 A 
ATOM     17  C   UNL A   1      29.760  26.030  25.425  1.00  0.00     0.051 A 
ATOM     18  O   UNL A   1      30.364  25.178  23.444  1.00  0.00    -0.457 OA
ATOM     19  C   UNL A   1      30.345  24.776  25.654  1.00  0.00     0.051 A 
BRANCH  16  20
ATOM     20  C   UNL A   1      29.421  27.492  23.383  1.00  0.00     0.067 C 
ATOM     21  C   UNL A   1      30.101  28.649  23.539  1.00  0.00     0.063 C 
BRANCH  21  22
ATOM     22  C   UNL A   1      29.573  29.961  22.981  1.00  0.00     0.100 C 
ATOM     23  N   UNL A   1      29.136  31.049  22.519  1.00  0.00    -0.192 NA
ENDBRANCH  21  22
BRANCH  21  24
ATOM     24  C   UNL A   1      31.397  28.757  24.272  1.00  0.00    -0.007 A 
ATOM     25  C   UNL A   1      32.585  28.238  23.721  1.00  0.00     0.012 A 
ATOM     26  C   UNL A   1      31.454  29.369  25.536  1.00  0.00     0.012 A 
ATOM     27  C   UNL A   1      33.781  28.268  24.443  1.00  0.00     0.040 A 
ATOM     28  C   UNL A   1      32.656  29.414  26.248  1.00  0.00     0.040 A 
ATOM     29  C   UNL A   1      33.804  28.852  25.702  1.00  0.00     0.123 A 
ATOM     30  F   UNL A   1      34.945  28.868  26.401  1.00  0.00    -0.207 F 
ENDBRANCH  21  24
ENDBRANCH  16  20
ENDBRANCH  10  15
ENDBRANCH   7   9
ENDBRANCH   6   7
ENDBRANCH   5   6
ENDBRANCH   4   5
ENDBRANCH   3   4
ENDBRANCH   2   3
ENDBRANCH   1   2
BRANCH   1  31
ATOM     31  O   UNL A   1      36.849  23.087  23.851  1.00  0.00    -0.377 OA
BRANCH  31  32
ATOM     32  C   UNL A   1      37.396  21.928  24.483  1.00  0.00     0.188 C 
BRANCH  32  33
ATOM     33  C   UNL A   1      38.155  21.974  25.833  1.00  0.00     0.188 C 
BRANCH  33  34
ATOM     34  O   UNL A   1      39.446  21.389  25.822  1.00  0.00    -0.376 OA
BRANCH  34  35
ATOM     35  C   UNL A   1      40.307  21.634  26.918  1.00  0.00     0.202 C 
BRANCH  35  36
ATOM     36  C   UNL A   1      41.490  22.576  26.654  1.00  0.00     0.261 C 
BRANCH  36  37
ATOM     37  O   UNL A   1      41.395  23.872  27.265  1.00  0.00    -0.460 OA
BRANCH  37  38
ATOM     38  C   UNL A   1      40.720  24.813  26.573  1.00  0.00     0.338 C 
ATOM     39  O   UNL A   1      40.281  24.721  25.439  1.00  0.00    -0.246 OA
BRANCH  38  40
ATOM     40  C   UNL A   1      40.422  25.932  27.486  1.00  0.00     0.060 A 
ATOM     41  C   UNL A   1      41.097  27.144  27.300  1.00  0.00     0.016 A 
ATOM     42  C   UNL A   1      39.500  25.784  28.525  1.00  0.00     0.016 A 
ATOM     43  C   UNL A   1      40.895  28.194  28.190  1.00  0.00     0.010 A 
ATOM     44  C   UNL A   1      39.309  26.836  29.427  1.00  0.00     0.010 A 
ATOM     45  C   UNL A   1      40.042  28.027  29.289  1.00  0.00    -0.014 A 
BRANCH  45  46
ATOM     46  C   UNL A   1      40.078  29.037  30.373  1.00  0.00     0.031 A 
ATOM     47  C   UNL A   1      39.059  30.144  30.367  1.00  0.00     0.074 A 
ATOM     48  C   UNL A   1      40.950  28.931  31.391  1.00  0.00     0.049 A 
ATOM     49  N   UNL A   1      38.841  31.077  31.259  1.00  0.00    -0.248 NA
ATOM     50  C   UNL A   1      38.167  30.206  29.199  1.00  0.00     0.031 C 
ATOM     51  C   UNL A   1      41.969  27.891  31.524  1.00  0.00     0.029 A 
ATOM     52  N   UNL A   1      41.106  29.707  32.510  1.00  0.00    -0.354 N 
ATOM     53  C   UNL A   1      37.794  31.839  30.755  1.00  0.00     0.074 A 
ATOM     54  C   UNL A   1      37.446  31.283  29.466  1.00  0.00     0.031 C 
ATOM     55  C   UNL A   1      42.642  28.090  32.671  1.00  0.00     0.029 A 
ATOM     56  C   UNL A   1      42.119  29.283  33.335  1.00  0.00     0.049 A 
ATOM     57  H   UNL A   1      40.545  30.492  32.706  1.00  0.00     0.167 HD
ATOM     58  C   UNL A   1      37.171  32.903  31.317  1.00  0.00     0.031 A 
ATOM     59  C   UNL A   1      42.578  29.803  34.489  1.00  0.00     0.031 A 
ATOM     60  C   UNL A   1      37.531  33.467  32.591  1.00  0.00     0.049 A 
ATOM     61  C   UNL A   1      41.903  31.013  35.076  1.00  0.00     0.074 A 
ATOM     62  C   UNL A   1      36.942  34.524  33.263  1.00  0.00     0.029 A 
ATOM     63  N   UNL A   1      38.589  33.033  33.377  1.00  0.00    -0.354 N 
ATOM     64  N   UNL A   1      40.879  31.694  34.618  1.00  0.00    -0.248 NA
ATOM     65  C   UNL A   1      42.436  31.514  36.351  1.00  0.00     0.031 C 
ATOM     66  C   UNL A   1      37.690  34.778  34.418  1.00  0.00     0.029 A 
ATOM     67  C   UNL A   1      38.693  33.826  34.509  1.00  0.00     0.049 A 
ATOM     68  H   UNL A   1      39.178  32.275  33.163  1.00  0.00     0.167 HD
ATOM     69  C   UNL A   1      40.625  32.683  35.561  1.00  0.00     0.074 A 
ATOM     70  C   UNL A   1      41.593  32.500  36.624  1.00  0.00     0.031 C 
ATOM     71  C   UNL A   1      39.672  33.647  35.553  1.00  0.00     0.031 A 
BRANCH  58  72
ATOM     72  C   UNL A   1      36.073  33.557  30.522  1.00  0.00    -0.014 A 
ATOM     73  C   UNL A   1      36.299  34.082  29.239  1.00  0.00     0.009 A 
ATOM     74  C   UNL A   1      34.783  33.645  31.071  1.00  0.00     0.009 A 
ATOM     75  C   UNL A   1      35.268  34.724  28.545  1.00  0.00     0.001 A 
ATOM     76  C   UNL A   1      33.747  34.254  30.361  1.00  0.00     0.001 A 
ATOM     77  C   UNL A   1      33.994  34.806  29.105  1.00  0.00     0.000 A 
ENDBRANCH  58  72
BRANCH  59  78
ATOM     78  C   UNL A   1      43.747  29.177  35.160  1.00  0.00    -0.014 A 
ATOM     79  C   UNL A   1      43.580  28.172  36.125  1.00  0.00     0.009 A 
ATOM     80  C   UNL A   1      45.050  29.580  34.822  1.00  0.00     0.009 A 
ATOM     81  C   UNL A   1      44.691  27.596  36.746  1.00  0.00     0.001 A 
ATOM     82  C   UNL A   1      46.159  28.981  35.421  1.00  0.00     0.001 A 
ATOM     83  C   UNL A   1      45.979  27.995  36.389  1.00  0.00     0.000 A 
ENDBRANCH  59  78
BRANCH  71  84
ATOM     84  C   UNL A   1      39.602  34.559  36.750  1.00  0.00    -0.014 A 
ATOM     85  C   UNL A   1      40.218  35.822  36.755  1.00  0.00     0.009 A 
ATOM     86  C   UNL A   1      38.883  34.154  37.886  1.00  0.00     0.009 A 
ATOM     87  C   UNL A   1      40.156  36.634  37.890  1.00  0.00     0.001 A 
ATOM     88  C   UNL A   1      38.790  34.984  39.004  1.00  0.00     0.001 A 
ATOM     89  C   UNL A   1      39.440  36.217  39.011  1.00  0.00     0.000 A 
ENDBRANCH  71  84
ENDBRANCH  45  46
ENDBRANCH  38  40
ENDBRANCH  37  38
ENDBRANCH  36  37
ENDBRANCH  35  36
ENDBRANCH  34  35
ENDBRANCH  33  34
ENDBRANCH  32  33
ENDBRANCH  31  32
ENDBRANCH   1  31
TORSDOF 24
ENDMDL
MODEL 2
REMARK VINA RESULT:      -9.5      3.638      6.458
REMARK SMILES N#C/C(=C/c1ccc(-c2cccc(C(=O)OCCOCCOCCOCCOC(=O)c3ccc(-c4c5nc(c(-c6ccccc6)c6ccc([nH]6)c(-c6ccccc6)c6nc(c(-c7ccccc7)c7ccc4[nH]7)C=C6)C=C5)cc3)c2)o1)c1ccc(F)cc1
REMARK SMILES IDX 21 1 20 2 19 3 18 4 17 5 16 6 14 7 15 8 13 9 9 10 10 11
REMARK SMILES IDX 79 12 11 13 12 14 8 15 5 16 6 17 80 18 7 19 4 20 3 21 2 22
REMARK SMILES IDX 1 23 81 24 82 25 87 26 83 27 86 28 84 29 85 30 22 31 23 32
REMARK SMILES IDX 24 33 25 34 26 35 27 36 28 37 29 38 30 39 31 40 32 41 78 42
REMARK SMILES IDX 33 43 77 44 34 45 35 46 36 47 71 48 37 49 76 50 70 51 72 52
REMARK SMILES IDX 38 53 75 54 69 55 68 56 39 58 61 59 46 60 60 61 47 62 50 63
REMARK SMILES IDX 59 64 73 65 48 66 49 67 58 69 74 70 51 71 40 72 41 73 45 74
REMARK SMILES IDX 42 75 44 76 43 77 62 78 63 79 67 80 64 81 66 82 65 83 52 84
REMARK SMILES IDX 53 85 57 86 54 87 56 88 55 89
REMARK H PARENT 72 57 50 68
REMARK Flexibility Score: inf
ROOT
ATOM      1  C   UNL A   1      34.889  23.736  23.927  1.00  0.00     0.188 C 
ENDROOT
BRANCH   1   2
ATOM      2  C   UNL A   1      34.901  24.489  25.274  1.00  0.00     0.188 C 
BRANCH   2   3
ATOM      3  O   UNL A   1      34.184  23.813  26.292  1.00  0.00    -0.376 OA
BRANCH   3   4
ATOM      4  C   UNL A   1      34.842  22.887  27.135  1.00  0.00     0.202 C 
BRANCH   4   5
ATOM      5  C   UNL A   1      34.594  21.372  27.043  1.00  0.00     0.261 C 
BRANCH   5   6
ATOM      6  O   UNL A   1      33.239  20.938  26.909  1.00  0.00    -0.460 OA
BRANCH   6   7
ATOM      7  C   UNL A   1      32.918  20.141  25.869  1.00  0.00     0.338 C 
ATOM      8  O   UNL A   1      32.833  18.923  25.875  1.00  0.00    -0.246 OA
BRANCH   7   9
ATOM      9  C   UNL A   1      32.471  21.030  24.768  1.00  0.00     0.060 A 
ATOM     10  C   UNL A   1      31.265  23.020  24.025  1.00  0.00     0.018 A 
ATOM     11  C   UNL A   1      31.400  22.584  22.702  1.00  0.00     0.012 A 
ATOM     12  C   UNL A   1      31.788  22.217  25.052  1.00  0.00     0.027 A 
ATOM     13  C   UNL A   1      32.080  21.392  22.412  1.00  0.00     0.002 A 
ATOM     14  C   UNL A   1      32.632  20.624  23.441  1.00  0.00     0.016 A 
BRANCH  10  15
ATOM     15  C   UNL A   1      30.681  24.306  24.386  1.00  0.00     0.134 A 
ATOM     16  C   UNL A   1      29.834  26.331  24.003  1.00  0.00     0.128 A 
ATOM     17  C   UNL A   1      29.817  26.103  25.377  1.00  0.00     0.051 A 
ATOM     18  O   UNL A   1      30.344  25.193  23.400  1.00  0.00    -0.457 OA
ATOM     19  C   UNL A   1      30.386  24.844  25.618  1.00  0.00     0.051 A 
BRANCH  16  20
ATOM     20  C   UNL A   1      29.443  27.522  23.311  1.00  0.00     0.067 C 
ATOM     21  C   UNL A   1      30.113  28.685  23.464  1.00  0.00     0.063 C 
BRANCH  21  22
ATOM     22  C   UNL A   1      29.585  29.989  22.887  1.00  0.00     0.100 C 
ATOM     23  N   UNL A   1      29.147  31.069  22.408  1.00  0.00    -0.192 NA
ENDBRANCH  21  22
BRANCH  21  24
ATOM     24  C   UNL A   1      31.399  28.808  24.213  1.00  0.00    -0.007 A 
ATOM     25  C   UNL A   1      32.581  28.218  23.723  1.00  0.00     0.012 A 
ATOM     26  C   UNL A   1      31.452  29.507  25.431  1.00  0.00     0.012 A 
ATOM     27  C   UNL A   1      33.764  28.264  24.465  1.00  0.00     0.040 A 
ATOM     28  C   UNL A   1      32.643  29.569  26.162  1.00  0.00     0.040 A 
ATOM     29  C   UNL A   1      33.782  28.936  25.680  1.00  0.00     0.123 A 
ATOM     30  F   UNL A   1      34.910  28.970  26.398  1.00  0.00    -0.207 F 
ENDBRANCH  21  24
ENDBRANCH  16  20
ENDBRANCH  10  15
ENDBRANCH   7   9
ENDBRANCH   6   7
ENDBRANCH   5   6
ENDBRANCH   4   5
ENDBRANCH   3   4
ENDBRANCH   2   3
ENDBRANCH   1   2
BRANCH   1  31
ATOM     31  O   UNL A   1      36.157  23.398  23.386  1.00  0.00    -0.377 OA
BRANCH  31  32
ATOM     32  C   UNL A   1      36.937  22.376  24.009  1.00  0.00     0.188 C 
BRANCH  32  33
ATOM     33  C   UNL A   1      37.920  22.648  25.176  1.00  0.00     0.188 C 
BRANCH  33  34
ATOM     34  O   UNL A   1      38.493  21.495  25.767  1.00  0.00    -0.376 OA
BRANCH  34  35
ATOM     35  C   UNL A   1      39.625  21.656  26.602  1.00  0.00     0.202 C 
BRANCH  35  36
ATOM     36  C   UNL A   1      40.935  21.037  26.095  1.00  0.00     0.261 C 
BRANCH  36  37
ATOM     37  O   UNL A   1      42.137  21.641  26.597  1.00  0.00    -0.460 OA
BRANCH  37  38
ATOM     38  C   UNL A   1      42.699  22.592  25.822  1.00  0.00     0.338 C 
ATOM     39  O   UNL A   1      43.155  22.454  24.700  1.00  0.00    -0.246 OA
BRANCH  38  40
ATOM     40  C   UNL A   1      42.504  23.897  26.480  1.00  0.00     0.060 A 
ATOM     41  C   UNL A   1      42.380  25.038  25.678  1.00  0.00     0.016 A 
ATOM     42  C   UNL A   1      42.459  24.000  27.873  1.00  0.00     0.016 A 
ATOM     43  C   UNL A   1      42.272  26.293  26.268  1.00  0.00     0.010 A 
ATOM     44  C   UNL A   1      42.364  25.263  28.465  1.00  0.00     0.010 A 
ATOM     45  C   UNL A   1      42.318  26.417  27.664  1.00  0.00    -0.014 A 
BRANCH  45  46
ATOM     46  C   UNL A   1      42.504  27.766  28.249  1.00  0.00     0.031 A 
ATOM     47  C   UNL A   1      43.889  28.353  28.289  1.00  0.00     0.074 A 
ATOM     48  C   UNL A   1      41.453  28.492  28.667  1.00  0.00     0.049 A 
ATOM     49  N   UNL A   1      44.275  29.546  28.665  1.00  0.00    -0.248 NA
ATOM     50  C   UNL A   1      44.985  27.477  27.846  1.00  0.00     0.031 C 
ATOM     51  C   UNL A   1      40.062  28.046  28.655  1.00  0.00     0.029 A 
ATOM     52  N   UNL A   1      41.399  29.766  29.171  1.00  0.00    -0.354 N 
ATOM     53  C   UNL A   1      45.656  29.559  28.511  1.00  0.00     0.074 A 
ATOM     54  C   UNL A   1      46.043  28.246  28.044  1.00  0.00     0.031 C 
ATOM     55  C   UNL A   1      39.286  29.038  29.127  1.00  0.00     0.029 A 
ATOM     56  C   UNL A   1      40.129  30.175  29.494  1.00  0.00     0.049 A 
ATOM     57  H   UNL A   1      42.195  30.334  29.290  1.00  0.00     0.167 HD
ATOM     58  C   UNL A   1      46.525  30.575  28.732  1.00  0.00     0.031 A 
ATOM     59  C   UNL A   1      39.696  31.330  30.033  1.00  0.00     0.031 A 
ATOM     60  C   UNL A   1      46.140  31.874  29.216  1.00  0.00     0.049 A 
ATOM     61  C   UNL A   1      40.683  32.431  30.314  1.00  0.00     0.074 A 
ATOM     62  C   UNL A   1      46.940  32.981  29.441  1.00  0.00     0.029 A 
ATOM     63  N   UNL A   1      44.848  32.235  29.569  1.00  0.00    -0.354 N 
ATOM     64  N   UNL A   1      41.979  32.452  30.114  1.00  0.00    -0.248 NA
ATOM     65  C   UNL A   1      40.140  33.676  30.877  1.00  0.00     0.031 C 
ATOM     66  C   UNL A   1      46.145  33.987  30.002  1.00  0.00     0.029 A 
ATOM     67  C   UNL A   1      44.835  33.536  30.046  1.00  0.00     0.049 A 
ATOM     68  H   UNL A   1      44.058  31.654  29.491  1.00  0.00     0.167 HD
ATOM     69  C   UNL A   1      42.403  33.719  30.497  1.00  0.00     0.074 A 
ATOM     70  C   UNL A   1      41.222  34.442  30.924  1.00  0.00     0.031 C 
ATOM     71  C   UNL A   1      43.656  34.240  30.486  1.00  0.00     0.031 A 
BRANCH  58  72
ATOM     72  C   UNL A   1      47.986  30.292  28.504  1.00  0.00    -0.014 A 
ATOM     73  C   UNL A   1      48.598  30.511  27.258  1.00  0.00     0.009 A 
ATOM     74  C   UNL A   1      48.766  29.799  29.562  1.00  0.00     0.009 A 
ATOM     75  C   UNL A   1      49.947  30.196  27.067  1.00  0.00     0.001 A 
ATOM     76  C   UNL A   1      50.121  29.520  29.378  1.00  0.00     0.001 A 
ATOM     77  C   UNL A   1      50.707  29.704  28.127  1.00  0.00     0.000 A 
ENDBRANCH  58  72
BRANCH  59  78
ATOM     78  C   UNL A   1      38.252  31.496  30.347  1.00  0.00    -0.014 A 
ATOM     79  C   UNL A   1      37.357  32.012  29.398  1.00  0.00     0.009 A 
ATOM     80  C   UNL A   1      37.761  31.120  31.609  1.00  0.00     0.009 A 
ATOM     81  C   UNL A   1      36.004  32.162  29.712  1.00  0.00     0.001 A 
ATOM     82  C   UNL A   1      36.403  31.242  31.908  1.00  0.00     0.001 A 
ATOM     83  C   UNL A   1      35.526  31.770  30.963  1.00  0.00     0.000 A 
ENDBRANCH  59  78
BRANCH  71  84
ATOM     84  C   UNL A   1      43.810  35.676  30.914  1.00  0.00    -0.014 A 
ATOM     85  C   UNL A   1      44.112  36.024  32.241  1.00  0.00     0.009 A 
ATOM     86  C   UNL A   1      43.672  36.700  29.962  1.00  0.00     0.009 A 
ATOM     87  C   UNL A   1      44.224  37.367  32.612  1.00  0.00     0.001 A 
ATOM     88  C   UNL A   1      43.822  38.038  30.327  1.00  0.00     0.001 A 
ATOM     89  C   UNL A   1      44.083  38.372  31.655  1.00  0.00     0.000 A 
ENDBRANCH  71  84
ENDBRANCH  45  46
ENDBRANCH  38  40
ENDBRANCH  37  38
ENDBRANCH  36  37
ENDBRANCH  35  36
ENDBRANCH  34  35
ENDBRANCH  33  34
ENDBRANCH  32  33
ENDBRANCH  31  32
ENDBRANCH   1  31
TORSDOF 24
ENDMDL
MODEL 3
REMARK VINA RESULT:      -9.2      7.245     11.386
REMARK SMILES N#C/C(=C/c1ccc(-c2cccc(C(=O)OCCOCCOCCOCCOC(=O)c3ccc(-c4c5nc(c(-c6ccccc6)c6ccc([nH]6)c(-c6ccccc6)c6nc(c(-c7ccccc7)c7ccc4[nH]7)C=C6)C=C5)cc3)c2)o1)c1ccc(F)cc1
REMARK SMILES IDX 21 1 20 2 19 3 18 4 17 5 16 6 14 7 15 8 13 9 9 10 10 11
REMARK SMILES IDX 79 12 11 13 12 14 8 15 5 16 6 17 80 18 7 19 4 20 3 21 2 22
REMARK SMILES IDX 1 23 81 24 82 25 87 26 83 27 86 28 84 29 85 30 22 31 23 32
REMARK SMILES IDX 24 33 25 34 26 35 27 36 28 37 29 38 30 39 31 40 32 41 78 42
REMARK SMILES IDX 33 43 77 44 34 45 35 46 36 47 71 48 37 49 76 50 70 51 72 52
REMARK SMILES IDX 38 53 75 54 69 55 68 56 39 58 61 59 46 60 60 61 47 62 50 63
REMARK SMILES IDX 59 64 73 65 48 66 49 67 58 69 74 70 51 71 40 72 41 73 45 74
REMARK SMILES IDX 42 75 44 76 43 77 62 78 63 79 67 80 64 81 66 82 65 83 52 84
REMARK SMILES IDX 53 85 57 86 54 87 56 88 55 89
REMARK H PARENT 72 57 50 68
REMARK Flexibility Score: inf
ROOT
ATOM      1  C   UNL A   1      35.658  21.002  25.108  1.00  0.00     0.188 C 
ENDROOT
BRANCH   1   2
ATOM      2  C   UNL A   1      34.521  21.668  25.911  1.00  0.00     0.188 C 
BRANCH   2   3
ATOM      3  O   UNL A   1      34.891  22.920  26.459  1.00  0.00    -0.376 OA
BRANCH   3   4
ATOM      4  C   UNL A   1      35.180  24.015  25.612  1.00  0.00     0.202 C 
BRANCH   4   5
ATOM      5  C   UNL A   1      34.095  24.993  25.134  1.00  0.00     0.261 C 
BRANCH   5   6
ATOM      6  O   UNL A   1      33.993  26.244  25.820  1.00  0.00    -0.460 OA
BRANCH   6   7
ATOM      7  C   UNL A   1      33.055  27.125  25.416  1.00  0.00     0.338 C 
ATOM      8  O   UNL A   1      32.054  26.884  24.760  1.00  0.00    -0.246 OA
BRANCH   7   9
ATOM      9  C   UNL A   1      33.347  28.409  26.101  1.00  0.00     0.060 A 
ATOM     10  C   UNL A   1      34.803  29.749  27.532  1.00  0.00     0.018 A 
ATOM     11  C   UNL A   1      33.801  30.723  27.608  1.00  0.00     0.012 A 
ATOM     12  C   UNL A   1      34.551  28.583  26.792  1.00  0.00     0.027 A 
ATOM     13  C   UNL A   1      32.590  30.551  26.920  1.00  0.00     0.002 A 
ATOM     14  C   UNL A   1      32.369  29.405  26.151  1.00  0.00     0.016 A 
BRANCH  10  15
ATOM     15  C   UNL A   1      36.127  29.920  28.119  1.00  0.00     0.134 A 
ATOM     16  C   UNL A   1      37.682  29.750  29.705  1.00  0.00     0.128 A 
ATOM     17  C   UNL A   1      38.252  30.377  28.599  1.00  0.00     0.051 A 
ATOM     18  O   UNL A   1      36.371  29.445  29.379  1.00  0.00    -0.457 OA
ATOM     19  C   UNL A   1      37.261  30.517  27.617  1.00  0.00     0.051 A 
BRANCH  16  20
ATOM     20  C   UNL A   1      38.295  29.490  30.973  1.00  0.00     0.067 C 
ATOM     21  C   UNL A   1      39.247  28.543  31.121  1.00  0.00     0.063 C 
BRANCH  21  22
ATOM     22  C   UNL A   1      39.753  28.133  32.494  1.00  0.00     0.100 C 
ATOM     23  N   UNL A   1      40.173  27.794  33.633  1.00  0.00    -0.192 NA
ENDBRANCH  21  22
BRANCH  21  24
ATOM     24  C   UNL A   1      39.868  27.807  29.980  1.00  0.00    -0.007 A 
ATOM     25  C   UNL A   1      41.158  28.140  29.521  1.00  0.00     0.012 A 
ATOM     26  C   UNL A   1      39.170  26.774  29.331  1.00  0.00     0.012 A 
ATOM     27  C   UNL A   1      41.704  27.506  28.403  1.00  0.00     0.040 A 
ATOM     28  C   UNL A   1      39.728  26.128  28.224  1.00  0.00     0.040 A 
ATOM     29  C   UNL A   1      40.982  26.509  27.762  1.00  0.00     0.123 A 
ATOM     30  F   UNL A   1      41.498  25.910  26.682  1.00  0.00    -0.207 F 
ENDBRANCH  21  24
ENDBRANCH  16  20
ENDBRANCH  10  15
ENDBRANCH   7   9
ENDBRANCH   6   7
ENDBRANCH   5   6
ENDBRANCH   4   5
ENDBRANCH   3   4
ENDBRANCH   2   3
ENDBRANCH   1   2
BRANCH   1  31
ATOM     31  O   UNL A   1      36.919  20.921  25.756  1.00  0.00    -0.377 OA
BRANCH  31  32
ATOM     32  C   UNL A   1      38.000  21.732  25.295  1.00  0.00     0.188 C 
BRANCH  32  33
ATOM     33  C   UNL A   1      39.468  21.529  25.746  1.00  0.00     0.188 C 
BRANCH  33  34
ATOM     34  O   UNL A   1      39.658  21.381  27.143  1.00  0.00    -0.376 OA
BRANCH  34  35
ATOM     35  C   UNL A   1      40.729  22.075  27.755  1.00  0.00     0.202 C 
BRANCH  35  36
ATOM     36  C   UNL A   1      42.116  21.872  27.129  1.00  0.00     0.261 C 
BRANCH  36  37
ATOM     37  O   UNL A   1      42.696  23.036  26.522  1.00  0.00    -0.460 OA
BRANCH  37  38
ATOM     38  C   UNL A   1      44.036  23.028  26.371  1.00  0.00     0.338 C 
ATOM     39  O   UNL A   1      44.738  22.082  26.057  1.00  0.00    -0.246 OA
BRANCH  38  40
ATOM     40  C   UNL A   1      44.518  24.420  26.462  1.00  0.00     0.060 A 
ATOM     41  C   UNL A   1      44.664  25.154  25.279  1.00  0.00     0.016 A 
ATOM     42  C   UNL A   1      44.838  24.989  27.696  1.00  0.00     0.016 A 
ATOM     43  C   UNL A   1      45.188  26.442  25.324  1.00  0.00     0.010 A 
ATOM     44  C   UNL A   1      45.377  26.278  27.739  1.00  0.00     0.010 A 
ATOM     45  C   UNL A   1      45.598  26.990  26.547  1.00  0.00    -0.014 A 
BRANCH  45  46
ATOM     46  C   UNL A   1      46.421  28.223  26.530  1.00  0.00     0.031 A 
ATOM     47  C   UNL A   1      47.909  28.099  26.346  1.00  0.00     0.074 A 
ATOM     48  C   UNL A   1      45.851  29.439  26.599  1.00  0.00     0.049 A 
ATOM     49  N   UNL A   1      48.810  29.037  26.205  1.00  0.00    -0.248 NA
ATOM     50  C   UNL A   1      48.453  26.732  26.315  1.00  0.00     0.031 C 
ATOM     51  C   UNL A   1      44.420  29.692  26.752  1.00  0.00     0.029 A 
ATOM     52  N   UNL A   1      46.414  30.687  26.536  1.00  0.00    -0.354 N 
ATOM     53  C   UNL A   1      50.025  28.375  26.078  1.00  0.00     0.074 A 
ATOM     54  C   UNL A   1      49.751  26.960  26.195  1.00  0.00     0.031 C 
ATOM     55  C   UNL A   1      44.215  31.020  26.765  1.00  0.00     0.029 A 
ATOM     56  C   UNL A   1      45.500  31.707  26.646  1.00  0.00     0.049 A 
ATOM     57  H   UNL A   1      47.380  30.839  26.422  1.00  0.00     0.167 HD
ATOM     58  C   UNL A   1      51.259  28.897  25.875  1.00  0.00     0.031 A 
ATOM     59  C   UNL A   1      45.681  33.041  26.658  1.00  0.00     0.031 A 
ATOM     60  C   UNL A   1      51.533  30.306  25.778  1.00  0.00     0.049 A 
ATOM     61  C   UNL A   1      47.066  33.602  26.477  1.00  0.00     0.074 A 
ATOM     62  C   UNL A   1      52.742  30.935  25.541  1.00  0.00     0.029 A 
ATOM     63  N   UNL A   1      50.586  31.308  25.934  1.00  0.00    -0.354 N 
ATOM     64  N   UNL A   1      48.200  32.967  26.304  1.00  0.00    -0.248 NA
ATOM     65  C   UNL A   1      47.189  35.066  26.472  1.00  0.00     0.031 C 
ATOM     66  C   UNL A   1      52.541  32.316  25.629  1.00  0.00     0.029 A 
ATOM     67  C   UNL A   1      51.191  32.550  25.836  1.00  0.00     0.049 A 
ATOM     68  H   UNL A   1      49.626  31.158  26.090  1.00  0.00     0.167 HD
ATOM     69  C   UNL A   1      49.168  33.951  26.139  1.00  0.00     0.074 A 
ATOM     70  C   UNL A   1      48.481  35.225  26.216  1.00  0.00     0.031 C 
ATOM     71  C   UNL A   1      50.501  33.813  25.933  1.00  0.00     0.031 A 
BRANCH  58  72
ATOM     72  C   UNL A   1      52.411  27.930  25.803  1.00  0.00    -0.014 A 
ATOM     73  C   UNL A   1      52.988  27.554  24.578  1.00  0.00     0.009 A 
ATOM     74  C   UNL A   1      52.932  27.389  26.989  1.00  0.00     0.009 A 
ATOM     75  C   UNL A   1      54.027  26.620  24.543  1.00  0.00     0.001 A 
ATOM     76  C   UNL A   1      53.994  26.484  26.953  1.00  0.00     0.001 A 
ATOM     77  C   UNL A   1      54.531  26.089  25.729  1.00  0.00     0.000 A 
ENDBRANCH  58  72
BRANCH  59  78
ATOM     78  C   UNL A   1      44.511  33.937  26.856  1.00  0.00    -0.014 A 
ATOM     79  C   UNL A   1      44.066  34.277  28.143  1.00  0.00     0.009 A 
ATOM     80  C   UNL A   1      43.839  34.470  25.744  1.00  0.00     0.009 A 
ATOM     81  C   UNL A   1      42.964  35.119  28.310  1.00  0.00     0.001 A 
ATOM     82  C   UNL A   1      42.758  35.336  25.914  1.00  0.00     0.001 A 
ATOM     83  C   UNL A   1      42.316  35.654  27.196  1.00  0.00     0.000 A 
ENDBRANCH  59  78
BRANCH  71  84
ATOM     84  C   UNL A   1      51.303  35.073  25.737  1.00  0.00    -0.014 A 
ATOM     85  C   UNL A   1      51.945  35.716  26.809  1.00  0.00     0.009 A 
ATOM     86  C   UNL A   1      51.439  35.612  24.447  1.00  0.00     0.009 A 
ATOM     87  C   UNL A   1      52.661  36.897  26.598  1.00  0.00     0.001 A 
ATOM     88  C   UNL A   1      52.187  36.770  24.234  1.00  0.00     0.001 A 
ATOM     89  C   UNL A   1      52.785  37.421  25.312  1.00  0.00     0.000 A 
ENDBRANCH  71  84
ENDBRANCH  45  46
ENDBRANCH  38  40
ENDBRANCH  37  38
ENDBRANCH  36  37
ENDBRANCH  35  36
ENDBRANCH  34  35
ENDBRANCH  33  34
ENDBRANCH  32  33
ENDBRANCH  31  32
ENDBRANCH   1  31
TORSDOF 24
ENDMDL
