MODEL 1
REMARK VINA RESULT:      -9.0      0.000      0.000
REMARK SMILES Cc1ccc(-c2cc(C(=O)OCCOCCOCCOCCOC(=O)c3ccc(-c4c5nc(c(-c6ccccc6)c6ccc([nH]6)c(-c6ccccc6)c6nc(c(-c7ccccc7)c7ccc4[nH]7)C=C6)C=C5)cc3)c3cc(C)ccc3n2)c(C)c1
REMARK SMILES IDX 18 1 17 2 16 3 15 4 14 5 13 6 12 7 11 8 9 9 10 10 8 11 6 12
REMARK SMILES IDX 7 13 81 14 80 15 74 16 79 17 75 18 78 19 76 20 77 21 5 22
REMARK SMILES IDX 1 23 2 24 3 25 84 26 4 27 82 28 83 29 19 30 20 31 21 32
REMARK SMILES IDX 22 33 23 34 24 35 25 36 26 37 27 38 73 39 28 40 72 41 29 42
REMARK SMILES IDX 30 43 31 44 66 45 32 46 71 47 65 48 67 49 33 50 70 51 64 52
REMARK SMILES IDX 63 53 34 55 56 56 41 57 55 58 42 59 45 60 54 61 68 62 43 63
REMARK SMILES IDX 44 64 53 66 69 67 46 68 35 69 36 70 40 71 37 72 39 73 38 74
REMARK SMILES IDX 57 75 58 76 62 77 59 78 61 79 60 80 47 81 48 82 52 83 49 84
REMARK SMILES IDX 51 85 50 86
REMARK H PARENT 67 54 45 65
REMARK Flexibility Score: inf
ROOT
ATOM      1  C   UNL A   1      37.956  32.847  29.338  1.00  0.00     0.188 C 
ENDROOT
BRANCH   1   2
ATOM      2  O   UNL A   1      38.202  31.501  29.741  1.00  0.00    -0.377 OA
BRANCH   2   3
ATOM      3  C   UNL A   1      37.960  30.439  28.833  1.00  0.00     0.188 C 
BRANCH   3   4
ATOM      4  C   UNL A   1      36.658  29.632  29.034  1.00  0.00     0.188 C 
BRANCH   4   5
ATOM      5  O   UNL A   1      35.618  29.993  28.146  1.00  0.00    -0.376 OA
BRANCH   5   6
ATOM      6  C   UNL A   1      34.855  29.016  27.467  1.00  0.00     0.202 C 
BRANCH   6   7
ATOM      7  C   UNL A   1      33.832  29.348  26.368  1.00  0.00     0.261 C 
BRANCH   7   8
ATOM      8  O   UNL A   1      32.464  29.385  26.766  1.00  0.00    -0.460 OA
BRANCH   8   9
ATOM      9  C   UNL A   1      31.870  28.215  27.076  1.00  0.00     0.338 C 
ATOM     10  O   UNL A   1      31.372  27.914  28.147  1.00  0.00    -0.246 OA
BRANCH   9  11
ATOM     11  C   UNL A   1      31.700  27.425  25.833  1.00  0.00     0.071 A 
ATOM     12  C   UNL A   1      32.015  25.306  24.785  1.00  0.00     0.072 A 
ATOM     13  C   UNL A   1      32.162  26.108  25.899  1.00  0.00     0.045 A 
ATOM     14  N   UNL A   1      31.474  25.761  23.634  1.00  0.00    -0.248 NA
ATOM     15  C   UNL A   1      31.032  27.028  23.569  1.00  0.00     0.072 A 
ATOM     16  C   UNL A   1      31.083  27.920  24.657  1.00  0.00     0.015 A 
ATOM     17  C   UNL A   1      30.505  27.469  22.364  1.00  0.00     0.029 A 
ATOM     18  C   UNL A   1      30.519  29.214  24.497  1.00  0.00     0.014 A 
ATOM     19  C   UNL A   1      29.968  28.750  22.210  1.00  0.00     0.005 A 
ATOM     20  C   UNL A   1      29.949  29.628  23.288  1.00  0.00    -0.050 A 
ATOM     21  C   UNL A   1      29.272  30.962  23.192  1.00  0.00     0.044 C 
BRANCH  12  22
ATOM     22  C   UNL A   1      32.539  23.936  24.757  1.00  0.00     0.003 A 
ATOM     23  C   UNL A   1      34.030  19.869  24.803  1.00  0.00     0.044 C 
ATOM     24  C   UNL A   1      33.496  21.270  24.774  1.00  0.00    -0.051 A 
ATOM     25  C   UNL A   1      32.148  21.533  24.527  1.00  0.00     0.004 A 
ATOM     26  C   UNL A   1      34.365  22.345  25.001  1.00  0.00     0.007 A 
ATOM     27  C   UNL A   1      31.676  22.850  24.517  1.00  0.00     0.011 A 
ATOM     28  C   UNL A   1      33.903  23.672  24.998  1.00  0.00    -0.041 A 
ATOM     29  C   UNL A   1      34.910  24.766  25.243  1.00  0.00     0.045 C 
ENDBRANCH  12  22
ENDBRANCH   9  11
ENDBRANCH   8   9
ENDBRANCH   7   8
ENDBRANCH   6   7
ENDBRANCH   5   6
ENDBRANCH   4   5
ENDBRANCH   3   4
ENDBRANCH   2   3
ENDBRANCH   1   2
BRANCH   1  30
ATOM     30  C   UNL A   1      36.698  33.644  29.767  1.00  0.00     0.188 C 
BRANCH  30  31
ATOM     31  O   UNL A   1      35.469  33.138  29.278  1.00  0.00    -0.376 OA
BRANCH  31  32
ATOM     32  C   UNL A   1      34.540  32.607  30.203  1.00  0.00     0.202 C 
BRANCH  32  33
ATOM     33  C   UNL A   1      35.027  32.422  31.646  1.00  0.00     0.261 C 
BRANCH  33  34
ATOM     34  O   UNL A   1      34.429  33.283  32.625  1.00  0.00    -0.460 OA
BRANCH  34  35
ATOM     35  C   UNL A   1      34.972  34.506  32.785  1.00  0.00     0.338 C 
ATOM     36  O   UNL A   1      34.517  35.575  32.410  1.00  0.00    -0.246 OA
BRANCH  35  37
ATOM     37  C   UNL A   1      36.149  34.358  33.662  1.00  0.00     0.060 A 
ATOM     38  C   UNL A   1      37.419  34.683  33.167  1.00  0.00     0.016 A 
ATOM     39  C   UNL A   1      35.992  33.907  34.974  1.00  0.00     0.016 A 
ATOM     40  C   UNL A   1      38.543  34.526  33.978  1.00  0.00     0.010 A 
ATOM     41  C   UNL A   1      37.121  33.729  35.777  1.00  0.00     0.010 A 
ATOM     42  C   UNL A   1      38.403  34.006  35.271  1.00  0.00    -0.014 A 
BRANCH  42  43
ATOM     43  C   UNL A   1      39.600  33.554  36.020  1.00  0.00     0.031 A 
ATOM     44  C   UNL A   1      40.253  34.525  36.966  1.00  0.00     0.074 A 
ATOM     45  C   UNL A   1      40.091  32.310  35.883  1.00  0.00     0.049 A 
ATOM     46  N   UNL A   1      41.340  34.388  37.681  1.00  0.00    -0.248 NA
ATOM     47  C   UNL A   1      39.587  35.830  37.126  1.00  0.00     0.031 C 
ATOM     48  C   UNL A   1      39.516  31.257  35.047  1.00  0.00     0.029 A 
ATOM     49  N   UNL A   1      41.196  31.726  36.449  1.00  0.00    -0.354 N 
ATOM     50  C   UNL A   1      41.489  35.585  38.370  1.00  0.00     0.074 A 
ATOM     51  C   UNL A   1      40.406  36.451  37.960  1.00  0.00     0.031 C 
ATOM     52  C   UNL A   1      40.280  30.155  35.151  1.00  0.00     0.029 A 
ATOM     53  C   UNL A   1      41.416  30.438  36.027  1.00  0.00     0.049 A 
ATOM     54  H   UNL A   1      41.776  32.187  37.098  1.00  0.00     0.167 HD
ATOM     55  C   UNL A   1      42.436  35.932  39.272  1.00  0.00     0.031 A 
ATOM     56  C   UNL A   1      42.432  29.597  36.300  1.00  0.00     0.031 A 
ATOM     57  C   UNL A   1      43.529  35.082  39.661  1.00  0.00     0.049 A 
ATOM     58  C   UNL A   1      43.541  30.051  37.217  1.00  0.00     0.074 A 
ATOM     59  C   UNL A   1      44.549  35.345  40.558  1.00  0.00     0.029 A 
ATOM     60  N   UNL A   1      43.746  33.804  39.169  1.00  0.00    -0.354 N 
ATOM     61  N   UNL A   1      43.666  31.180  37.874  1.00  0.00    -0.248 NA
ATOM     62  C   UNL A   1      44.648  29.107  37.434  1.00  0.00     0.031 C 
ATOM     63  C   UNL A   1      45.417  34.249  40.564  1.00  0.00     0.029 A 
ATOM     64  C   UNL A   1      44.898  33.276  39.725  1.00  0.00     0.049 A 
ATOM     65  H   UNL A   1      43.167  33.343  38.520  1.00  0.00     0.167 HD
ATOM     66  C   UNL A   1      44.839  31.063  38.611  1.00  0.00     0.074 A 
ATOM     67  C   UNL A   1      45.381  29.750  38.332  1.00  0.00     0.031 C 
ATOM     68  C   UNL A   1      45.417  31.961  39.446  1.00  0.00     0.031 A 
BRANCH  55  69
ATOM     69  C   UNL A   1      42.347  37.306  39.874  1.00  0.00    -0.014 A 
ATOM     70  C   UNL A   1      41.650  37.533  41.073  1.00  0.00     0.009 A 
ATOM     71  C   UNL A   1      42.994  38.385  39.251  1.00  0.00     0.009 A 
ATOM     72  C   UNL A   1      41.575  38.818  41.615  1.00  0.00     0.001 A 
ATOM     73  C   UNL A   1      42.944  39.662  39.813  1.00  0.00     0.001 A 
ATOM     74  C   UNL A   1      42.227  39.879  40.989  1.00  0.00     0.000 A 
ENDBRANCH  55  69
BRANCH  56  75
ATOM     75  C   UNL A   1      42.481  28.242  35.683  1.00  0.00    -0.014 A 
ATOM     76  C   UNL A   1      41.934  27.133  36.347  1.00  0.00     0.009 A 
ATOM     77  C   UNL A   1      43.129  28.041  34.455  1.00  0.00     0.009 A 
ATOM     78  C   UNL A   1      42.068  25.848  35.814  1.00  0.00     0.001 A 
ATOM     79  C   UNL A   1      43.231  26.760  33.906  1.00  0.00     0.001 A 
ATOM     80  C   UNL A   1      42.714  25.664  34.593  1.00  0.00     0.000 A 
ENDBRANCH  56  75
BRANCH  68  81
ATOM     81  C   UNL A   1      46.668  31.536  40.167  1.00  0.00    -0.014 A 
ATOM     82  C   UNL A   1      46.617  30.863  41.398  1.00  0.00     0.009 A 
ATOM     83  C   UNL A   1      47.920  31.777  39.578  1.00  0.00     0.009 A 
ATOM     84  C   UNL A   1      47.794  30.476  42.040  1.00  0.00     0.001 A 
ATOM     85  C   UNL A   1      49.094  31.357  40.205  1.00  0.00     0.001 A 
ATOM     86  C   UNL A   1      49.031  30.717  41.442  1.00  0.00     0.000 A 
ENDBRANCH  68  81
ENDBRANCH  42  43
ENDBRANCH  35  37
ENDBRANCH  34  35
ENDBRANCH  33  34
ENDBRANCH  32  33
ENDBRANCH  31  32
ENDBRANCH  30  31
ENDBRANCH   1  30
TORSDOF 21
ENDMDL
MODEL 2
REMARK VINA RESULT:      -8.8      6.124      9.834
REMARK SMILES Cc1ccc(-c2cc(C(=O)OCCOCCOCCOCCOC(=O)c3ccc(-c4c5nc(c(-c6ccccc6)c6ccc([nH]6)c(-c6ccccc6)c6nc(c(-c7ccccc7)c7ccc4[nH]7)C=C6)C=C5)cc3)c3cc(C)ccc3n2)c(C)c1
REMARK SMILES IDX 18 1 17 2 16 3 15 4 14 5 13 6 12 7 11 8 9 9 10 10 8 11 6 12
REMARK SMILES IDX 7 13 81 14 80 15 74 16 79 17 75 18 78 19 76 20 77 21 5 22
REMARK SMILES IDX 1 23 2 24 3 25 84 26 4 27 82 28 83 29 19 30 20 31 21 32
REMARK SMILES IDX 22 33 23 34 24 35 25 36 26 37 27 38 73 39 28 40 72 41 29 42
REMARK SMILES IDX 30 43 31 44 66 45 32 46 71 47 65 48 67 49 33 50 70 51 64 52
REMARK SMILES IDX 63 53 34 55 56 56 41 57 55 58 42 59 45 60 54 61 68 62 43 63
REMARK SMILES IDX 44 64 53 66 69 67 46 68 35 69 36 70 40 71 37 72 39 73 38 74
REMARK SMILES IDX 57 75 58 76 62 77 59 78 61 79 60 80 47 81 48 82 52 83 49 84
REMARK SMILES IDX 51 85 50 86
REMARK H PARENT 67 54 45 65
REMARK Flexibility Score: inf
ROOT
ATOM      1  C   UNL A   1      35.818  34.139  34.475  1.00  0.00     0.188 C 
ENDROOT
BRANCH   1   2
ATOM      2  O   UNL A   1      35.866  35.328  33.689  1.00  0.00    -0.377 OA
BRANCH   2   3
ATOM      3  C   UNL A   1      34.805  35.626  32.797  1.00  0.00     0.188 C 
BRANCH   3   4
ATOM      4  C   UNL A   1      34.021  36.932  33.057  1.00  0.00     0.188 C 
BRANCH   4   5
ATOM      5  O   UNL A   1      32.930  37.129  32.179  1.00  0.00    -0.376 OA
BRANCH   5   6
ATOM      6  C   UNL A   1      32.427  36.078  31.379  1.00  0.00     0.202 C 
BRANCH   6   7
ATOM      7  C   UNL A   1      32.902  35.798  29.944  1.00  0.00     0.261 C 
BRANCH   7   8
ATOM      8  O   UNL A   1      33.316  34.463  29.663  1.00  0.00    -0.460 OA
BRANCH   8   9
ATOM      9  C   UNL A   1      34.058  34.257  28.556  1.00  0.00     0.338 C 
ATOM     10  O   UNL A   1      34.219  35.037  27.634  1.00  0.00    -0.246 OA
BRANCH   9  11
ATOM     11  C   UNL A   1      34.850  33.017  28.739  1.00  0.00     0.071 A 
ATOM     12  C   UNL A   1      36.700  32.005  29.853  1.00  0.00     0.072 A 
ATOM     13  C   UNL A   1      35.932  33.127  29.616  1.00  0.00     0.045 A 
ATOM     14  N   UNL A   1      36.460  30.824  29.242  1.00  0.00    -0.248 NA
ATOM     15  C   UNL A   1      35.421  30.718  28.396  1.00  0.00     0.072 A 
ATOM     16  C   UNL A   1      34.540  31.781  28.119  1.00  0.00     0.015 A 
ATOM     17  C   UNL A   1      35.220  29.498  27.768  1.00  0.00     0.029 A 
ATOM     18  C   UNL A   1      33.432  31.535  27.265  1.00  0.00     0.014 A 
ATOM     19  C   UNL A   1      34.136  29.270  26.915  1.00  0.00     0.005 A 
ATOM     20  C   UNL A   1      33.217  30.284  26.675  1.00  0.00    -0.050 A 
ATOM     21  C   UNL A   1      31.980  30.036  25.865  1.00  0.00     0.044 C 
BRANCH  12  22
ATOM     22  C   UNL A   1      37.892  32.062  30.705  1.00  0.00     0.003 A 
ATOM     23  C   UNL A   1      41.472  32.123  33.144  1.00  0.00     0.044 C 
ATOM     24  C   UNL A   1      40.241  32.120  32.288  1.00  0.00    -0.051 A 
ATOM     25  C   UNL A   1      40.240  32.679  31.008  1.00  0.00     0.004 A 
ATOM     26  C   UNL A   1      39.062  31.543  32.776  1.00  0.00     0.007 A 
ATOM     27  C   UNL A   1      39.079  32.651  30.228  1.00  0.00     0.011 A 
ATOM     28  C   UNL A   1      37.890  31.504  32.000  1.00  0.00    -0.041 A 
ATOM     29  C   UNL A   1      36.666  30.872  32.610  1.00  0.00     0.045 C 
ENDBRANCH  12  22
ENDBRANCH   9  11
ENDBRANCH   8   9
ENDBRANCH   7   8
ENDBRANCH   6   7
ENDBRANCH   5   6
ENDBRANCH   4   5
ENDBRANCH   3   4
ENDBRANCH   2   3
ENDBRANCH   1   2
BRANCH   1  30
ATOM     30  C   UNL A   1      37.079  33.471  35.080  1.00  0.00     0.188 C 
BRANCH  30  31
ATOM     31  O   UNL A   1      36.966  33.092  36.441  1.00  0.00    -0.376 OA
BRANCH  31  32
ATOM     32  C   UNL A   1      37.775  32.035  36.918  1.00  0.00     0.202 C 
BRANCH  32  33
ATOM     33  C   UNL A   1      38.653  32.332  38.141  1.00  0.00     0.261 C 
BRANCH  33  34
ATOM     34  O   UNL A   1      40.037  32.595  37.871  1.00  0.00    -0.460 OA
BRANCH  34  35
ATOM     35  C   UNL A   1      40.550  33.747  38.349  1.00  0.00     0.338 C 
ATOM     36  O   UNL A   1      40.613  34.104  39.514  1.00  0.00    -0.246 OA
BRANCH  35  37
ATOM     37  C   UNL A   1      41.196  34.445  37.222  1.00  0.00     0.060 A 
ATOM     38  C   UNL A   1      42.495  34.080  36.842  1.00  0.00     0.016 A 
ATOM     39  C   UNL A   1      40.513  35.452  36.536  1.00  0.00     0.016 A 
ATOM     40  C   UNL A   1      43.127  34.747  35.792  1.00  0.00     0.010 A 
ATOM     41  C   UNL A   1      41.156  36.134  35.501  1.00  0.00     0.010 A 
ATOM     42  C   UNL A   1      42.477  35.806  35.147  1.00  0.00    -0.014 A 
BRANCH  42  43
ATOM     43  C   UNL A   1      43.240  36.708  34.252  1.00  0.00     0.031 A 
ATOM     44  C   UNL A   1      43.940  37.890  34.864  1.00  0.00     0.074 A 
ATOM     45  C   UNL A   1      43.329  36.480  32.929  1.00  0.00     0.049 A 
ATOM     46  N   UNL A   1      44.613  38.852  34.285  1.00  0.00    -0.248 NA
ATOM     47  C   UNL A   1      43.871  38.003  36.331  1.00  0.00     0.031 C 
ATOM     48  C   UNL A   1      42.748  35.339  32.223  1.00  0.00     0.029 A 
ATOM     49  N   UNL A   1      43.944  37.210  31.944  1.00  0.00    -0.354 N 
ATOM     50  C   UNL A   1      45.042  39.681  35.314  1.00  0.00     0.074 A 
ATOM     51  C   UNL A   1      44.522  39.134  36.547  1.00  0.00     0.031 C 
ATOM     52  C   UNL A   1      43.032  35.450  30.913  1.00  0.00     0.029 A 
ATOM     53  C   UNL A   1      43.776  36.688  30.684  1.00  0.00     0.049 A 
ATOM     54  H   UNL A   1      44.458  38.030  32.122  1.00  0.00     0.167 HD
ATOM     55  C   UNL A   1      45.808  40.794  35.241  1.00  0.00     0.031 A 
ATOM     56  C   UNL A   1      44.160  37.170  29.487  1.00  0.00     0.031 A 
ATOM     57  C   UNL A   1      46.303  41.354  34.013  1.00  0.00     0.049 A 
ATOM     58  C   UNL A   1      44.912  38.476  29.423  1.00  0.00     0.074 A 
ATOM     59  C   UNL A   1      47.079  42.486  33.832  1.00  0.00     0.029 A 
ATOM     60  N   UNL A   1      46.065  40.824  32.754  1.00  0.00    -0.354 N 
ATOM     61  N   UNL A   1      45.324  39.246  30.402  1.00  0.00    -0.248 NA
ATOM     62  C   UNL A   1      45.257  38.976  28.084  1.00  0.00     0.031 C 
ATOM     63  C   UNL A   1      47.259  42.674  32.458  1.00  0.00     0.029 A 
ATOM     64  C   UNL A   1      46.657  41.620  31.789  1.00  0.00     0.049 A 
ATOM     65  H   UNL A   1      45.551  40.004  32.574  1.00  0.00     0.167 HD
ATOM     66  C   UNL A   1      46.010  40.294  29.798  1.00  0.00     0.074 A 
ATOM     67  C   UNL A   1      45.971  40.055  28.371  1.00  0.00     0.031 C 
ATOM     68  C   UNL A   1      46.620  41.361  30.373  1.00  0.00     0.031 A 
BRANCH  55  69
ATOM     69  C   UNL A   1      46.129  41.497  36.531  1.00  0.00    -0.014 A 
ATOM     70  C   UNL A   1      45.256  42.453  37.077  1.00  0.00     0.009 A 
ATOM     71  C   UNL A   1      47.306  41.179  37.226  1.00  0.00     0.009 A 
ATOM     72  C   UNL A   1      45.573  43.099  38.273  1.00  0.00     0.001 A 
ATOM     73  C   UNL A   1      47.604  41.803  38.438  1.00  0.00     0.001 A 
ATOM     74  C   UNL A   1      46.742  42.769  38.956  1.00  0.00     0.000 A 
ENDBRANCH  55  69
BRANCH  56  75
ATOM     75  C   UNL A   1      43.823  36.440  28.233  1.00  0.00    -0.014 A 
ATOM     76  C   UNL A   1      42.598  36.659  27.583  1.00  0.00     0.009 A 
ATOM     77  C   UNL A   1      44.700  35.476  27.712  1.00  0.00     0.009 A 
ATOM     78  C   UNL A   1      42.243  35.903  26.463  1.00  0.00     0.001 A 
ATOM     79  C   UNL A   1      44.357  34.746  26.571  1.00  0.00     0.001 A 
ATOM     80  C   UNL A   1      43.124  34.950  25.957  1.00  0.00     0.000 A 
ENDBRANCH  56  75
BRANCH  68  81
ATOM     81  C   UNL A   1      47.348  42.317  29.467  1.00  0.00    -0.014 A 
ATOM     82  C   UNL A   1      48.673  42.087  29.065  1.00  0.00     0.009 A 
ATOM     83  C   UNL A   1      46.676  43.447  28.974  1.00  0.00     0.009 A 
ATOM     84  C   UNL A   1      49.320  42.990  28.218  1.00  0.00     0.001 A 
ATOM     85  C   UNL A   1      47.313  44.329  28.100  1.00  0.00     0.001 A 
ATOM     86  C   UNL A   1      48.639  44.106  27.732  1.00  0.00     0.000 A 
ENDBRANCH  68  81
ENDBRANCH  42  43
ENDBRANCH  35  37
ENDBRANCH  34  35
ENDBRANCH  33  34
ENDBRANCH  32  33
ENDBRANCH  31  32
ENDBRANCH  30  31
ENDBRANCH   1  30
TORSDOF 21
ENDMDL
MODEL 3
REMARK VINA RESULT:      -8.7      6.245     12.663
REMARK SMILES Cc1ccc(-c2cc(C(=O)OCCOCCOCCOCCOC(=O)c3ccc(-c4c5nc(c(-c6ccccc6)c6ccc([nH]6)c(-c6ccccc6)c6nc(c(-c7ccccc7)c7ccc4[nH]7)C=C6)C=C5)cc3)c3cc(C)ccc3n2)c(C)c1
REMARK SMILES IDX 18 1 17 2 16 3 15 4 14 5 13 6 12 7 11 8 9 9 10 10 8 11 6 12
REMARK SMILES IDX 7 13 81 14 80 15 74 16 79 17 75 18 78 19 76 20 77 21 5 22
REMARK SMILES IDX 1 23 2 24 3 25 84 26 4 27 82 28 83 29 19 30 20 31 21 32
REMARK SMILES IDX 22 33 23 34 24 35 25 36 26 37 27 38 73 39 28 40 72 41 29 42
REMARK SMILES IDX 30 43 31 44 66 45 32 46 71 47 65 48 67 49 33 50 70 51 64 52
REMARK SMILES IDX 63 53 34 55 56 56 41 57 55 58 42 59 45 60 54 61 68 62 43 63
REMARK SMILES IDX 44 64 53 66 69 67 46 68 35 69 36 70 40 71 37 72 39 73 38 74
REMARK SMILES IDX 57 75 58 76 62 77 59 78 61 79 60 80 47 81 48 82 52 83 49 84
REMARK SMILES IDX 51 85 50 86
REMARK H PARENT 67 54 45 65
REMARK Flexibility Score: inf
ROOT
ATOM      1  C   UNL A   1      45.352  24.049  26.617  1.00  0.00     0.188 C 
ENDROOT
BRANCH   1   2
ATOM      2  O   UNL A   1      45.534  24.056  28.031  1.00  0.00    -0.377 OA
BRANCH   2   3
ATOM      3  C   UNL A   1      46.582  24.823  28.602  1.00  0.00     0.188 C 
BRANCH   3   4
ATOM      4  C   UNL A   1      46.290  25.503  29.958  1.00  0.00     0.188 C 
BRANCH   4   5
ATOM      5  O   UNL A   1      47.452  25.855  30.684  1.00  0.00    -0.376 OA
BRANCH   5   6
ATOM      6  C   UNL A   1      47.504  25.745  32.092  1.00  0.00     0.202 C 
BRANCH   6   7
ATOM      7  C   UNL A   1      47.226  26.917  33.048  1.00  0.00     0.261 C 
BRANCH   7   8
ATOM      8  O   UNL A   1      45.914  26.988  33.599  1.00  0.00    -0.460 OA
BRANCH   8   9
ATOM      9  C   UNL A   1      44.994  27.717  32.936  1.00  0.00     0.338 C 
ATOM     10  O   UNL A   1      45.127  28.231  31.839  1.00  0.00    -0.246 OA
BRANCH   9  11
ATOM     11  C   UNL A   1      43.696  27.602  33.644  1.00  0.00     0.071 A 
ATOM     12  C   UNL A   1      41.703  28.733  34.303  1.00  0.00     0.072 A 
ATOM     13  C   UNL A   1      42.935  28.773  33.681  1.00  0.00     0.045 A 
ATOM     14  N   UNL A   1      41.232  27.617  34.902  1.00  0.00    -0.248 NA
ATOM     15  C   UNL A   1      41.965  26.492  34.868  1.00  0.00     0.072 A 
ATOM     16  C   UNL A   1      43.211  26.401  34.218  1.00  0.00     0.015 A 
ATOM     17  C   UNL A   1      41.462  25.372  35.515  1.00  0.00     0.029 A 
ATOM     18  C   UNL A   1      43.865  25.141  34.185  1.00  0.00     0.014 A 
ATOM     19  C   UNL A   1      42.121  24.140  35.491  1.00  0.00     0.005 A 
ATOM     20  C   UNL A   1      43.321  24.009  34.802  1.00  0.00    -0.050 A 
ATOM     21  C   UNL A   1      43.990  22.676  34.654  1.00  0.00     0.044 C 
BRANCH  12  22
ATOM     22  C   UNL A   1      40.879  29.939  34.442  1.00  0.00     0.003 A 
ATOM     23  C   UNL A   1      38.519  33.559  34.744  1.00  0.00     0.044 C 
ATOM     24  C   UNL A   1      39.319  32.296  34.628  1.00  0.00    -0.051 A 
ATOM     25  C   UNL A   1      39.076  31.368  33.613  1.00  0.00     0.004 A 
ATOM     26  C   UNL A   1      40.336  32.035  35.554  1.00  0.00     0.007 A 
ATOM     27  C   UNL A   1      39.846  30.204  33.523  1.00  0.00     0.011 A 
ATOM     28  C   UNL A   1      41.120  30.872  35.472  1.00  0.00    -0.041 A 
ATOM     29  C   UNL A   1      42.187  30.669  36.517  1.00  0.00     0.045 C 
ENDBRANCH  12  22
ENDBRANCH   9  11
ENDBRANCH   8   9
ENDBRANCH   7   8
ENDBRANCH   6   7
ENDBRANCH   5   6
ENDBRANCH   4   5
ENDBRANCH   3   4
ENDBRANCH   2   3
ENDBRANCH   1   2
BRANCH   1  30
ATOM     30  C   UNL A   1      45.422  22.760  25.760  1.00  0.00     0.188 C 
BRANCH  30  31
ATOM     31  O   UNL A   1      44.283  21.921  25.838  1.00  0.00    -0.376 OA
BRANCH  31  32
ATOM     32  C   UNL A   1      43.073  22.468  26.325  1.00  0.00     0.202 C 
BRANCH  32  33
ATOM     33  C   UNL A   1      41.789  21.679  26.036  1.00  0.00     0.261 C 
BRANCH  33  34
ATOM     34  O   UNL A   1      40.689  21.923  26.924  1.00  0.00    -0.460 OA
BRANCH  34  35
ATOM     35  C   UNL A   1      39.675  22.677  26.455  1.00  0.00     0.338 C 
ATOM     36  O   UNL A   1      38.675  22.294  25.869  1.00  0.00    -0.246 OA
BRANCH  35  37
ATOM     37  C   UNL A   1      39.890  24.056  26.934  1.00  0.00     0.060 A 
ATOM     38  C   UNL A   1      40.187  25.065  26.009  1.00  0.00     0.016 A 
ATOM     39  C   UNL A   1      39.787  24.348  28.296  1.00  0.00     0.016 A 
ATOM     40  C   UNL A   1      40.414  26.369  26.450  1.00  0.00     0.010 A 
ATOM     41  C   UNL A   1      40.037  25.649  28.738  1.00  0.00     0.010 A 
ATOM     42  C   UNL A   1      40.385  26.657  27.821  1.00  0.00    -0.014 A 
BRANCH  42  43
ATOM     43  C   UNL A   1      40.917  27.948  28.318  1.00  0.00     0.031 A 
ATOM     44  C   UNL A   1      39.935  28.987  28.787  1.00  0.00     0.074 A 
ATOM     45  C   UNL A   1      42.238  28.194  28.370  1.00  0.00     0.049 A 
ATOM     46  N   UNL A   1      40.150  30.209  29.202  1.00  0.00    -0.248 NA
ATOM     47  C   UNL A   1      38.516  28.592  28.786  1.00  0.00     0.031 C 
ATOM     48  C   UNL A   1      43.293  27.251  28.003  1.00  0.00     0.029 A 
ATOM     49  N   UNL A   1      42.914  29.325  28.753  1.00  0.00    -0.354 N 
ATOM     50  C   UNL A   1      38.897  30.727  29.508  1.00  0.00     0.074 A 
ATOM     51  C   UNL A   1      37.925  29.703  29.194  1.00  0.00     0.031 C 
ATOM     52  C   UNL A   1      44.486  27.847  28.174  1.00  0.00     0.029 A 
ATOM     53  C   UNL A   1      44.277  29.223  28.621  1.00  0.00     0.049 A 
ATOM     54  H   UNL A   1      42.464  30.133  29.090  1.00  0.00     0.167 HD
ATOM     55  C   UNL A   1      38.583  31.941  30.013  1.00  0.00     0.031 A 
ATOM     56  C   UNL A   1      45.240  30.145  28.818  1.00  0.00     0.031 A 
ATOM     57  C   UNL A   1      39.546  32.970  30.300  1.00  0.00     0.049 A 
ATOM     58  C   UNL A   1      44.852  31.532  29.269  1.00  0.00     0.074 A 
ATOM     59  C   UNL A   1      39.328  34.240  30.804  1.00  0.00     0.029 A 
ATOM     60  N   UNL A   1      40.913  32.845  30.102  1.00  0.00    -0.354 N 
ATOM     61  N   UNL A   1      43.667  32.007  29.569  1.00  0.00    -0.248 NA
ATOM     62  C   UNL A   1      45.942  32.508  29.416  1.00  0.00     0.031 C 
ATOM     63  C   UNL A   1      40.557  34.905  30.854  1.00  0.00     0.029 A 
ATOM     64  C   UNL A   1      41.547  34.024  30.450  1.00  0.00     0.049 A 
ATOM     65  H   UNL A   1      41.364  32.038  29.764  1.00  0.00     0.167 HD
ATOM     66  C   UNL A   1      43.876  33.320  29.976  1.00  0.00     0.074 A 
ATOM     67  C   UNL A   1      45.301  33.562  29.901  1.00  0.00     0.031 C 
ATOM     68  C   UNL A   1      42.969  34.245  30.380  1.00  0.00     0.031 A 
BRANCH  55  69
ATOM     69  C   UNL A   1      37.128  32.233  30.257  1.00  0.00    -0.014 A 
ATOM     70  C   UNL A   1      36.526  31.955  31.495  1.00  0.00     0.009 A 
ATOM     71  C   UNL A   1      36.355  32.822  29.244  1.00  0.00     0.009 A 
ATOM     72  C   UNL A   1      35.172  32.230  31.701  1.00  0.00     0.001 A 
ATOM     73  C   UNL A   1      35.010  33.126  29.464  1.00  0.00     0.001 A 
ATOM     74  C   UNL A   1      34.418  32.820  30.689  1.00  0.00     0.000 A 
ENDBRANCH  55  69
BRANCH  56  75
ATOM     75  C   UNL A   1      46.669  29.814  28.567  1.00  0.00    -0.014 A 
ATOM     76  C   UNL A   1      47.195  29.849  27.266  1.00  0.00     0.009 A 
ATOM     77  C   UNL A   1      47.501  29.402  29.620  1.00  0.00     0.009 A 
ATOM     78  C   UNL A   1      48.509  29.443  27.020  1.00  0.00     0.001 A 
ATOM     79  C   UNL A   1      48.826  29.030  29.376  1.00  0.00     0.001 A 
ATOM     80  C   UNL A   1      49.324  29.037  28.075  1.00  0.00     0.000 A 
ENDBRANCH  56  75
BRANCH  68  81
ATOM     81  C   UNL A   1      43.493  35.582  30.830  1.00  0.00    -0.014 A 
ATOM     82  C   UNL A   1      43.860  35.819  32.163  1.00  0.00     0.009 A 
ATOM     83  C   UNL A   1      43.661  36.610  29.887  1.00  0.00     0.009 A 
ATOM     84  C   UNL A   1      44.349  37.069  32.549  1.00  0.00     0.001 A 
ATOM     85  C   UNL A   1      44.183  37.846  30.269  1.00  0.00     0.001 A 
ATOM     86  C   UNL A   1      44.516  38.079  31.602  1.00  0.00     0.000 A 
ENDBRANCH  68  81
ENDBRANCH  42  43
ENDBRANCH  35  37
ENDBRANCH  34  35
ENDBRANCH  33  34
ENDBRANCH  32  33
ENDBRANCH  31  32
ENDBRANCH  30  31
ENDBRANCH   1  30
TORSDOF 21
ENDMDL
