MODEL 1
REMARK VINA RESULT:      -9.4      0.000      0.000
REMARK SMILES COc1cc(OC)cc(-c2ccc([C@@H](C)C(=O)OCCOCCOCCOCCOC(=O)c3ccc(-c4c5nc(c(-c6ccccc6)c6ccc([nH]6)c(-c6ccccc6)c6nc(c(-c7ccccc7)c7ccc4[nH]7)C=C6)C=C5)cc3)cc2F)c1
REMARK SMILES IDX 23 1 22 2 21 3 20 4 19 5 18 6 16 7 17 8 14 9 15 10 13 11
REMARK SMILES IDX 10 12 11 13 82 14 12 15 81 16 83 17 9 18 3 19 4 20 84 21
REMARK SMILES IDX 5 22 8 23 2 24 1 25 6 26 7 27 24 28 25 29 26 30 27 31 28 32
REMARK SMILES IDX 29 33 30 34 31 35 32 36 33 37 34 38 80 39 35 40 79 41 36 42
REMARK SMILES IDX 37 43 38 44 73 45 39 46 78 47 72 48 74 49 40 50 77 51 71 52
REMARK SMILES IDX 70 53 41 55 63 56 48 57 62 58 49 59 52 60 61 61 75 62 50 63
REMARK SMILES IDX 51 64 60 66 76 67 53 68 42 69 43 70 47 71 44 72 46 73 45 74
REMARK SMILES IDX 64 75 65 76 69 77 66 78 68 79 67 80 54 81 55 82 59 83 56 84
REMARK SMILES IDX 58 85 57 86
REMARK H PARENT 74 54 52 65
REMARK Flexibility Score: inf
ROOT
ATOM      1  C   UNL A   1      32.904  28.983  24.697  1.00  0.00     0.188 C 
ENDROOT
BRANCH   1   2
ATOM      2  C   UNL A   1      31.482  28.519  25.038  1.00  0.00     0.188 C 
BRANCH   2   3
ATOM      3  O   UNL A   1      30.924  27.367  24.422  1.00  0.00    -0.376 OA
BRANCH   3   4
ATOM      4  C   UNL A   1      31.519  26.803  23.263  1.00  0.00     0.202 C 
BRANCH   4   5
ATOM      5  C   UNL A   1      31.942  25.322  23.219  1.00  0.00     0.261 C 
BRANCH   5   6
ATOM      6  O   UNL A   1      33.039  24.927  24.069  1.00  0.00    -0.463 OA
BRANCH   6   7
ATOM      7  C   UNL A   1      33.859  23.966  23.581  1.00  0.00     0.313 C 
ATOM      8  O   UNL A   1      34.271  23.954  22.422  1.00  0.00    -0.252 OA
BRANCH   7   9
ATOM      9  C   UNL A   1      34.239  22.851  24.557  1.00  0.00     0.126 C 
ATOM     10  C   UNL A   1      33.267  22.889  25.732  1.00  0.00     0.025 C 
BRANCH   9  11
ATOM     11  C   UNL A   1      35.681  22.673  25.035  1.00  0.00    -0.031 A 
ATOM     12  C   UNL A   1      38.397  22.221  25.860  1.00  0.00     0.018 A 
ATOM     13  C   UNL A   1      37.785  23.483  25.984  1.00  0.00     0.012 A 
ATOM     14  C   UNL A   1      37.623  21.199  25.302  1.00  0.00     0.131 A 
ATOM     15  C   UNL A   1      36.451  23.706  25.584  1.00  0.00     0.005 A 
ATOM     16  C   UNL A   1      36.294  21.407  24.914  1.00  0.00     0.044 A 
ATOM     17  F   UNL A   1      38.138  19.969  25.149  1.00  0.00    -0.206 F 
BRANCH  12  18
ATOM     18  C   UNL A   1      39.745  21.962  26.412  1.00  0.00    -0.008 A 
ATOM     19  C   UNL A   1      41.547  22.349  28.015  1.00  0.00     0.123 A 
ATOM     20  C   UNL A   1      42.388  21.524  27.266  1.00  0.00     0.092 A 
ATOM     21  C   UNL A   1      40.233  22.576  27.584  1.00  0.00     0.055 A 
ATOM     22  C   UNL A   1      41.933  20.912  26.101  1.00  0.00     0.123 A 
ATOM     23  C   UNL A   1      40.614  21.118  25.695  1.00  0.00     0.055 A 
BRANCH  19  24
ATOM     24  O   UNL A   1      42.152  22.937  29.092  1.00  0.00    -0.497 OA
ATOM     25  C   UNL A   1      43.562  23.094  29.024  1.00  0.00     0.278 C 
ENDBRANCH  19  24
BRANCH  22  26
ATOM     26  O   UNL A   1      42.857  20.147  25.444  1.00  0.00    -0.497 OA
ATOM     27  C   UNL A   1      43.075  18.841  25.963  1.00  0.00     0.278 C 
ENDBRANCH  22  26
ENDBRANCH  12  18
ENDBRANCH   9  11
ENDBRANCH   7   9
ENDBRANCH   6   7
ENDBRANCH   5   6
ENDBRANCH   4   5
ENDBRANCH   3   4
ENDBRANCH   2   3
ENDBRANCH   1   2
BRANCH   1  28
ATOM     28  O   UNL A   1      33.933  28.425  25.488  1.00  0.00    -0.377 OA
BRANCH  28  29
ATOM     29  C   UNL A   1      33.927  28.752  26.869  1.00  0.00     0.188 C 
BRANCH  29  30
ATOM     30  C   UNL A   1      34.928  29.818  27.348  1.00  0.00     0.188 C 
BRANCH  30  31
ATOM     31  O   UNL A   1      34.414  31.144  27.331  1.00  0.00    -0.376 OA
BRANCH  31  32
ATOM     32  C   UNL A   1      33.026  31.345  27.556  1.00  0.00     0.202 C 
BRANCH  32  33
ATOM     33  C   UNL A   1      32.456  32.763  27.368  1.00  0.00     0.261 C 
BRANCH  33  34
ATOM     34  O   UNL A   1      33.376  33.859  27.513  1.00  0.00    -0.460 OA
BRANCH  34  35
ATOM     35  C   UNL A   1      33.447  34.467  28.712  1.00  0.00     0.338 C 
ATOM     36  O   UNL A   1      32.609  35.201  29.213  1.00  0.00    -0.246 OA
BRANCH  35  37
ATOM     37  C   UNL A   1      34.626  33.942  29.434  1.00  0.00     0.060 A 
ATOM     38  C   UNL A   1      35.902  34.265  28.951  1.00  0.00     0.016 A 
ATOM     39  C   UNL A   1      34.486  33.128  30.561  1.00  0.00     0.016 A 
ATOM     40  C   UNL A   1      37.038  33.733  29.561  1.00  0.00     0.010 A 
ATOM     41  C   UNL A   1      35.627  32.574  31.157  1.00  0.00     0.010 A 
ATOM     42  C   UNL A   1      36.905  32.842  30.633  1.00  0.00    -0.014 A 
BRANCH  42  43
ATOM     43  C   UNL A   1      38.087  32.050  31.056  1.00  0.00     0.031 A 
ATOM     44  C   UNL A   1      38.655  32.284  32.431  1.00  0.00     0.074 A 
ATOM     45  C   UNL A   1      38.604  31.087  30.272  1.00  0.00     0.049 A 
ATOM     46  N   UNL A   1      39.654  31.687  33.031  1.00  0.00    -0.248 NA
ATOM     47  C   UNL A   1      38.007  33.331  33.238  1.00  0.00     0.031 C 
ATOM     48  C   UNL A   1      38.113  30.720  28.945  1.00  0.00     0.029 A 
ATOM     49  N   UNL A   1      39.656  30.233  30.491  1.00  0.00    -0.354 N 
ATOM     50  C   UNL A   1      39.753  32.286  34.281  1.00  0.00     0.074 A 
ATOM     51  C   UNL A   1      38.739  33.315  34.341  1.00  0.00     0.031 C 
ATOM     52  C   UNL A   1      38.863  29.711  28.468  1.00  0.00     0.029 A 
ATOM     53  C   UNL A   1      39.904  29.384  29.441  1.00  0.00     0.049 A 
ATOM     54  H   UNL A   1      40.184  30.231  31.322  1.00  0.00     0.167 HD
ATOM     55  C   UNL A   1      40.604  32.000  35.296  1.00  0.00     0.031 A 
ATOM     56  C   UNL A   1      40.869  28.456  29.279  1.00  0.00     0.031 A 
ATOM     57  C   UNL A   1      41.629  30.991  35.234  1.00  0.00     0.049 A 
ATOM     58  C   UNL A   1      41.863  28.221  30.387  1.00  0.00     0.074 A 
ATOM     59  C   UNL A   1      42.538  30.625  36.211  1.00  0.00     0.029 A 
ATOM     60  N   UNL A   1      41.888  30.197  34.128  1.00  0.00    -0.354 N 
ATOM     61  N   UNL A   1      41.931  28.776  31.573  1.00  0.00    -0.248 NA
ATOM     62  C   UNL A   1      42.907  27.218  30.134  1.00  0.00     0.031 C 
ATOM     63  C   UNL A   1      43.391  29.655  35.673  1.00  0.00     0.029 A 
ATOM     64  C   UNL A   1      42.963  29.363  34.387  1.00  0.00     0.049 A 
ATOM     65  H   UNL A   1      41.382  30.221  33.284  1.00  0.00     0.167 HD
ATOM     66  C   UNL A   1      43.002  28.168  32.218  1.00  0.00     0.074 A 
ATOM     67  C   UNL A   1      43.539  27.186  31.298  1.00  0.00     0.031 C 
ATOM     68  C   UNL A   1      43.496  28.397  33.460  1.00  0.00     0.031 A 
BRANCH  55  69
ATOM     69  C   UNL A   1      40.488  32.826  36.549  1.00  0.00    -0.014 A 
ATOM     70  C   UNL A   1      41.252  33.991  36.733  1.00  0.00     0.009 A 
ATOM     71  C   UNL A   1      39.581  32.446  37.549  1.00  0.00     0.009 A 
ATOM     72  C   UNL A   1      41.134  34.735  37.911  1.00  0.00     0.001 A 
ATOM     73  C   UNL A   1      39.442  33.209  38.710  1.00  0.00     0.001 A 
ATOM     74  C   UNL A   1      40.226  34.347  38.894  1.00  0.00     0.000 A 
ENDBRANCH  55  69
BRANCH  56  75
ATOM     75  C   UNL A   1      40.962  27.686  28.009  1.00  0.00    -0.014 A 
ATOM     76  C   UNL A   1      40.331  26.440  27.874  1.00  0.00     0.009 A 
ATOM     77  C   UNL A   1      41.717  28.180  26.934  1.00  0.00     0.009 A 
ATOM     78  C   UNL A   1      40.480  25.693  26.703  1.00  0.00     0.001 A 
ATOM     79  C   UNL A   1      41.837  27.447  25.752  1.00  0.00     0.001 A 
ATOM     80  C   UNL A   1      41.227  26.199  25.641  1.00  0.00     0.000 A 
ENDBRANCH  56  75
BRANCH  68  81
ATOM     81  C   UNL A   1      44.651  27.542  33.911  1.00  0.00    -0.014 A 
ATOM     82  C   UNL A   1      45.982  27.964  33.758  1.00  0.00     0.009 A 
ATOM     83  C   UNL A   1      44.401  26.300  34.517  1.00  0.00     0.009 A 
ATOM     84  C   UNL A   1      47.036  27.136  34.154  1.00  0.00     0.001 A 
ATOM     85  C   UNL A   1      45.454  25.492  34.945  1.00  0.00     0.001 A 
ATOM     86  C   UNL A   1      46.771  25.904  34.750  1.00  0.00     0.000 A 
ENDBRANCH  68  81
ENDBRANCH  42  43
ENDBRANCH  35  37
ENDBRANCH  34  35
ENDBRANCH  33  34
ENDBRANCH  32  33
ENDBRANCH  31  32
ENDBRANCH  30  31
ENDBRANCH  29  30
ENDBRANCH  28  29
ENDBRANCH   1  28
TORSDOF 24
ENDMDL
MODEL 2
REMARK VINA RESULT:      -9.1      2.386      6.693
REMARK SMILES COc1cc(OC)cc(-c2ccc([C@@H](C)C(=O)OCCOCCOCCOCCOC(=O)c3ccc(-c4c5nc(c(-c6ccccc6)c6ccc([nH]6)c(-c6ccccc6)c6nc(c(-c7ccccc7)c7ccc4[nH]7)C=C6)C=C5)cc3)cc2F)c1
REMARK SMILES IDX 23 1 22 2 21 3 20 4 19 5 18 6 16 7 17 8 14 9 15 10 13 11
REMARK SMILES IDX 10 12 11 13 82 14 12 15 81 16 83 17 9 18 3 19 4 20 84 21
REMARK SMILES IDX 5 22 8 23 2 24 1 25 6 26 7 27 24 28 25 29 26 30 27 31 28 32
REMARK SMILES IDX 29 33 30 34 31 35 32 36 33 37 34 38 80 39 35 40 79 41 36 42
REMARK SMILES IDX 37 43 38 44 73 45 39 46 78 47 72 48 74 49 40 50 77 51 71 52
REMARK SMILES IDX 70 53 41 55 63 56 48 57 62 58 49 59 52 60 61 61 75 62 50 63
REMARK SMILES IDX 51 64 60 66 76 67 53 68 42 69 43 70 47 71 44 72 46 73 45 74
REMARK SMILES IDX 64 75 65 76 69 77 66 78 68 79 67 80 54 81 55 82 59 83 56 84
REMARK SMILES IDX 58 85 57 86
REMARK H PARENT 74 54 52 65
REMARK Flexibility Score: inf
ROOT
ATOM      1  C   UNL A   1      33.384  29.253  24.932  1.00  0.00     0.188 C 
ENDROOT
BRANCH   1   2
ATOM      2  C   UNL A   1      31.953  29.682  25.285  1.00  0.00     0.188 C 
BRANCH   2   3
ATOM      3  O   UNL A   1      30.905  29.578  24.332  1.00  0.00    -0.376 OA
BRANCH   3   4
ATOM      4  C   UNL A   1      31.141  29.015  23.051  1.00  0.00     0.202 C 
BRANCH   4   5
ATOM      5  C   UNL A   1      30.267  27.871  22.504  1.00  0.00     0.261 C 
BRANCH   5   6
ATOM      6  O   UNL A   1      30.431  26.571  23.110  1.00  0.00    -0.463 OA
BRANCH   6   7
ATOM      7  C   UNL A   1      29.515  26.226  24.045  1.00  0.00     0.313 C 
ATOM      8  O   UNL A   1      28.315  26.476  23.940  1.00  0.00    -0.252 OA
BRANCH   7   9
ATOM      9  C   UNL A   1      30.059  25.514  25.285  1.00  0.00     0.126 C 
ATOM     10  C   UNL A   1      30.715  26.555  26.187  1.00  0.00     0.025 C 
BRANCH   9  11
ATOM     11  C   UNL A   1      30.926  24.260  25.162  1.00  0.00    -0.031 A 
ATOM     12  C   UNL A   1      32.546  21.914  24.793  1.00  0.00     0.018 A 
ATOM     13  C   UNL A   1      32.509  22.604  26.019  1.00  0.00     0.012 A 
ATOM     14  C   UNL A   1      31.765  22.434  23.756  1.00  0.00     0.131 A 
ATOM     15  C   UNL A   1      31.711  23.752  26.205  1.00  0.00     0.005 A 
ATOM     16  C   UNL A   1      30.960  23.566  23.933  1.00  0.00     0.044 A 
ATOM     17  F   UNL A   1      31.750  21.833  22.555  1.00  0.00    -0.206 F 
BRANCH  12  18
ATOM     18  C   UNL A   1      33.271  20.633  24.652  1.00  0.00    -0.008 A 
ATOM     19  C   UNL A   1      33.365  18.201  24.443  1.00  0.00     0.123 A 
ATOM     20  C   UNL A   1      34.753  18.245  24.571  1.00  0.00     0.092 A 
ATOM     21  C   UNL A   1      32.623  19.390  24.493  1.00  0.00     0.055 A 
ATOM     22  C   UNL A   1      35.416  19.458  24.735  1.00  0.00     0.123 A 
ATOM     23  C   UNL A   1      34.675  20.640  24.755  1.00  0.00     0.055 A 
BRANCH  19  24
ATOM     24  O   UNL A   1      32.848  16.936  24.360  1.00  0.00    -0.497 OA
ATOM     25  C   UNL A   1      32.885  16.154  25.546  1.00  0.00     0.278 C 
ENDBRANCH  19  24
BRANCH  22  26
ATOM     26  O   UNL A   1      36.773  19.368  24.874  1.00  0.00    -0.497 OA
ATOM     27  C   UNL A   1      37.478  20.601  24.971  1.00  0.00     0.278 C 
ENDBRANCH  22  26
ENDBRANCH  12  18
ENDBRANCH   9  11
ENDBRANCH   7   9
ENDBRANCH   6   7
ENDBRANCH   5   6
ENDBRANCH   4   5
ENDBRANCH   3   4
ENDBRANCH   2   3
ENDBRANCH   1   2
BRANCH   1  28
ATOM     28  O   UNL A   1      34.011  28.396  25.862  1.00  0.00    -0.377 OA
BRANCH  28  29
ATOM     29  C   UNL A   1      34.089  28.855  27.202  1.00  0.00     0.188 C 
BRANCH  29  30
ATOM     30  C   UNL A   1      35.176  29.894  27.531  1.00  0.00     0.188 C 
BRANCH  30  31
ATOM     31  O   UNL A   1      34.748  31.242  27.388  1.00  0.00    -0.376 OA
BRANCH  31  32
ATOM     32  C   UNL A   1      33.476  31.617  27.897  1.00  0.00     0.202 C 
BRANCH  32  33
ATOM     33  C   UNL A   1      32.911  32.994  27.503  1.00  0.00     0.261 C 
BRANCH  33  34
ATOM     34  O   UNL A   1      33.669  34.148  27.904  1.00  0.00    -0.460 OA
BRANCH  34  35
ATOM     35  C   UNL A   1      33.580  34.547  29.187  1.00  0.00     0.338 C 
ATOM     36  O   UNL A   1      32.581  34.955  29.759  1.00  0.00    -0.246 OA
BRANCH  35  37
ATOM     37  C   UNL A   1      34.850  34.220  29.869  1.00  0.00     0.060 A 
ATOM     38  C   UNL A   1      36.035  34.246  29.121  1.00  0.00     0.016 A 
ATOM     39  C   UNL A   1      34.881  33.873  31.222  1.00  0.00     0.016 A 
ATOM     40  C   UNL A   1      37.244  33.875  29.709  1.00  0.00     0.010 A 
ATOM     41  C   UNL A   1      36.092  33.478  31.806  1.00  0.00     0.010 A 
ATOM     42  C   UNL A   1      37.272  33.438  31.039  1.00  0.00    -0.014 A 
BRANCH  42  43
ATOM     43  C   UNL A   1      38.489  32.755  31.544  1.00  0.00     0.031 A 
ATOM     44  C   UNL A   1      38.935  31.486  30.865  1.00  0.00     0.074 A 
ATOM     45  C   UNL A   1      39.231  33.283  32.533  1.00  0.00     0.049 A 
ATOM     46  N   UNL A   1      39.983  30.739  31.103  1.00  0.00    -0.248 NA
ATOM     47  C   UNL A   1      38.085  30.997  29.767  1.00  0.00     0.031 C 
ATOM     48  C   UNL A   1      38.943  34.532  33.235  1.00  0.00     0.029 A 
ATOM     49  N   UNL A   1      40.392  32.831  33.111  1.00  0.00    -0.354 N 
ATOM     50  C   UNL A   1      39.917  29.695  30.189  1.00  0.00     0.074 A 
ATOM     51  C   UNL A   1      38.709  29.884  29.417  1.00  0.00     0.031 C 
ATOM     52  C   UNL A   1      39.906  34.749  34.148  1.00  0.00     0.029 A 
ATOM     53  C   UNL A   1      40.858  33.640  34.117  1.00  0.00     0.049 A 
ATOM     54  H   UNL A   1      40.847  32.004  32.829  1.00  0.00     0.167 HD
ATOM     55  C   UNL A   1      40.787  28.674  30.000  1.00  0.00     0.031 A 
ATOM     56  C   UNL A   1      41.924  33.495  34.929  1.00  0.00     0.031 A 
ATOM     57  C   UNL A   1      41.978  28.470  30.780  1.00  0.00     0.049 A 
ATOM     58  C   UNL A   1      42.827  32.301  34.759  1.00  0.00     0.074 A 
ATOM     59  C   UNL A   1      42.925  27.467  30.662  1.00  0.00     0.029 A 
ATOM     60  N   UNL A   1      42.380  29.278  31.833  1.00  0.00    -0.354 N 
ATOM     61  N   UNL A   1      42.767  31.334  33.875  1.00  0.00    -0.248 NA
ATOM     62  C   UNL A   1      43.953  32.187  35.696  1.00  0.00     0.031 C 
ATOM     63  C   UNL A   1      43.864  27.630  31.686  1.00  0.00     0.029 A 
ATOM     64  C   UNL A   1      43.544  28.778  32.394  1.00  0.00     0.049 A 
ATOM     65  H   UNL A   1      41.908  30.086  32.136  1.00  0.00     0.167 HD
ATOM     66  C   UNL A   1      43.864  30.517  34.128  1.00  0.00     0.074 A 
ATOM     67  C   UNL A   1      44.582  31.115  35.234  1.00  0.00     0.031 C 
ATOM     68  C   UNL A   1      44.245  29.376  33.501  1.00  0.00     0.031 A 
BRANCH  55  69
ATOM     69  C   UNL A   1      40.453  27.671  28.928  1.00  0.00    -0.014 A 
ATOM     70  C   UNL A   1      40.894  27.837  27.605  1.00  0.00     0.009 A 
ATOM     71  C   UNL A   1      39.705  26.529  29.255  1.00  0.00     0.009 A 
ATOM     72  C   UNL A   1      40.561  26.897  26.625  1.00  0.00     0.001 A 
ATOM     73  C   UNL A   1      39.402  25.576  28.281  1.00  0.00     0.001 A 
ATOM     74  C   UNL A   1      39.821  25.765  26.965  1.00  0.00     0.000 A 
ENDBRANCH  55  69
BRANCH  56  75
ATOM     75  C   UNL A   1      42.196  34.497  35.995  1.00  0.00    -0.014 A 
ATOM     76  C   UNL A   1      43.058  35.581  35.763  1.00  0.00     0.009 A 
ATOM     77  C   UNL A   1      41.620  34.353  37.266  1.00  0.00     0.009 A 
ATOM     78  C   UNL A   1      43.360  36.478  36.789  1.00  0.00     0.001 A 
ATOM     79  C   UNL A   1      41.897  35.271  38.281  1.00  0.00     0.001 A 
ATOM     80  C   UNL A   1      42.776  36.326  38.046  1.00  0.00     0.000 A 
ENDBRANCH  56  75
BRANCH  68  81
ATOM     81  C   UNL A   1      45.519  28.725  33.971  1.00  0.00    -0.014 A 
ATOM     82  C   UNL A   1      46.767  29.072  33.427  1.00  0.00     0.009 A 
ATOM     83  C   UNL A   1      45.470  27.758  34.988  1.00  0.00     0.009 A 
ATOM     84  C   UNL A   1      47.929  28.426  33.858  1.00  0.00     0.001 A 
ATOM     85  C   UNL A   1      46.637  27.142  35.441  1.00  0.00     0.001 A 
ATOM     86  C   UNL A   1      47.864  27.466  34.866  1.00  0.00     0.000 A 
ENDBRANCH  68  81
ENDBRANCH  42  43
ENDBRANCH  35  37
ENDBRANCH  34  35
ENDBRANCH  33  34
ENDBRANCH  32  33
ENDBRANCH  31  32
ENDBRANCH  30  31
ENDBRANCH  29  30
ENDBRANCH  28  29
ENDBRANCH   1  28
TORSDOF 24
ENDMDL
MODEL 3
REMARK VINA RESULT:      -9.1      2.112      3.696
REMARK SMILES COc1cc(OC)cc(-c2ccc([C@@H](C)C(=O)OCCOCCOCCOCCOC(=O)c3ccc(-c4c5nc(c(-c6ccccc6)c6ccc([nH]6)c(-c6ccccc6)c6nc(c(-c7ccccc7)c7ccc4[nH]7)C=C6)C=C5)cc3)cc2F)c1
REMARK SMILES IDX 23 1 22 2 21 3 20 4 19 5 18 6 16 7 17 8 14 9 15 10 13 11
REMARK SMILES IDX 10 12 11 13 82 14 12 15 81 16 83 17 9 18 3 19 4 20 84 21
REMARK SMILES IDX 5 22 8 23 2 24 1 25 6 26 7 27 24 28 25 29 26 30 27 31 28 32
REMARK SMILES IDX 29 33 30 34 31 35 32 36 33 37 34 38 80 39 35 40 79 41 36 42
REMARK SMILES IDX 37 43 38 44 73 45 39 46 78 47 72 48 74 49 40 50 77 51 71 52
REMARK SMILES IDX 70 53 41 55 63 56 48 57 62 58 49 59 52 60 61 61 75 62 50 63
REMARK SMILES IDX 51 64 60 66 76 67 53 68 42 69 43 70 47 71 44 72 46 73 45 74
REMARK SMILES IDX 64 75 65 76 69 77 66 78 68 79 67 80 54 81 55 82 59 83 56 84
REMARK SMILES IDX 58 85 57 86
REMARK H PARENT 74 54 52 65
REMARK Flexibility Score: inf
ROOT
ATOM      1  C   UNL A   1      33.214  28.653  25.320  1.00  0.00     0.188 C 
ENDROOT
BRANCH   1   2
ATOM      2  C   UNL A   1      31.907  29.457  25.285  1.00  0.00     0.188 C 
BRANCH   2   3
ATOM      3  O   UNL A   1      31.011  29.342  24.188  1.00  0.00    -0.376 OA
BRANCH   3   4
ATOM      4  C   UNL A   1      31.418  28.720  22.979  1.00  0.00     0.202 C 
BRANCH   4   5
ATOM      5  C   UNL A   1      30.606  27.570  22.355  1.00  0.00     0.261 C 
BRANCH   5   6
ATOM      6  O   UNL A   1      30.636  26.298  23.037  1.00  0.00    -0.463 OA
BRANCH   6   7
ATOM      7  C   UNL A   1      29.657  26.082  23.946  1.00  0.00     0.313 C 
ATOM      8  O   UNL A   1      28.511  26.512  23.821  1.00  0.00    -0.252 OA
BRANCH   7   9
ATOM      9  C   UNL A   1      30.058  25.278  25.184  1.00  0.00     0.126 C 
ATOM     10  C   UNL A   1      30.577  26.249  26.240  1.00  0.00     0.025 C 
BRANCH   9  11
ATOM     11  C   UNL A   1      30.959  24.047  25.072  1.00  0.00    -0.031 A 
ATOM     12  C   UNL A   1      32.640  21.716  24.998  1.00  0.00     0.018 A 
ATOM     13  C   UNL A   1      32.039  22.234  23.835  1.00  0.00     0.012 A 
ATOM     14  C   UNL A   1      32.369  22.385  26.196  1.00  0.00     0.131 A 
ATOM     15  C   UNL A   1      31.217  23.379  23.868  1.00  0.00     0.005 A 
ATOM     16  C   UNL A   1      31.565  23.530  26.237  1.00  0.00     0.044 A 
ATOM     17  F   UNL A   1      32.905  21.950  27.348  1.00  0.00    -0.206 F 
BRANCH  12  18
ATOM     18  C   UNL A   1      33.612  20.603  24.932  1.00  0.00    -0.008 A 
ATOM     19  C   UNL A   1      35.880  19.696  24.941  1.00  0.00     0.123 A 
ATOM     20  C   UNL A   1      35.376  18.437  24.611  1.00  0.00     0.092 A 
ATOM     21  C   UNL A   1      35.003  20.779  25.092  1.00  0.00     0.055 A 
ATOM     22  C   UNL A   1      34.009  18.239  24.441  1.00  0.00     0.123 A 
ATOM     23  C   UNL A   1      33.138  19.314  24.621  1.00  0.00     0.055 A 
BRANCH  19  24
ATOM     24  O   UNL A   1      37.246  19.755  25.004  1.00  0.00    -0.497 OA
ATOM     25  C   UNL A   1      37.836  21.035  24.834  1.00  0.00     0.278 C 
ENDBRANCH  19  24
BRANCH  22  26
ATOM     26  O   UNL A   1      33.641  16.968  24.095  1.00  0.00    -0.497 OA
ATOM     27  C   UNL A   1      32.636  16.363  24.900  1.00  0.00     0.278 C 
ENDBRANCH  22  26
ENDBRANCH  12  18
ENDBRANCH   9  11
ENDBRANCH   7   9
ENDBRANCH   6   7
ENDBRANCH   5   6
ENDBRANCH   4   5
ENDBRANCH   3   4
ENDBRANCH   2   3
ENDBRANCH   1   2
BRANCH   1  28
ATOM     28  O   UNL A   1      33.544  28.080  26.568  1.00  0.00    -0.377 OA
BRANCH  28  29
ATOM     29  C   UNL A   1      33.853  28.978  27.622  1.00  0.00     0.188 C 
BRANCH  29  30
ATOM     30  C   UNL A   1      34.923  30.049  27.347  1.00  0.00     0.188 C 
BRANCH  30  31
ATOM     31  O   UNL A   1      34.410  31.372  27.269  1.00  0.00    -0.376 OA
BRANCH  31  32
ATOM     32  C   UNL A   1      33.046  31.600  27.591  1.00  0.00     0.202 C 
BRANCH  32  33
ATOM     33  C   UNL A   1      32.530  33.051  27.591  1.00  0.00     0.261 C 
BRANCH  33  34
ATOM     34  O   UNL A   1      33.487  34.082  27.888  1.00  0.00    -0.460 OA
BRANCH  34  35
ATOM     35  C   UNL A   1      33.549  34.539  29.153  1.00  0.00     0.338 C 
ATOM     36  O   UNL A   1      32.666  35.117  29.768  1.00  0.00    -0.246 OA
BRANCH  35  37
ATOM     37  C   UNL A   1      34.801  34.048  29.768  1.00  0.00     0.060 A 
ATOM     38  C   UNL A   1      36.018  34.360  29.145  1.00  0.00     0.016 A 
ATOM     39  C   UNL A   1      34.785  33.275  30.932  1.00  0.00     0.016 A 
ATOM     40  C   UNL A   1      37.215  33.857  29.653  1.00  0.00     0.010 A 
ATOM     41  C   UNL A   1      35.987  32.750  31.427  1.00  0.00     0.010 A 
ATOM     42  C   UNL A   1      37.202  33.006  30.765  1.00  0.00    -0.014 A 
BRANCH  42  43
ATOM     43  C   UNL A   1      38.428  32.236  31.092  1.00  0.00     0.031 A 
ATOM     44  C   UNL A   1      39.281  32.698  32.244  1.00  0.00     0.074 A 
ATOM     45  C   UNL A   1      38.744  31.106  30.434  1.00  0.00     0.049 A 
ATOM     46  N   UNL A   1      40.370  32.166  32.738  1.00  0.00    -0.248 NA
ATOM     47  C   UNL A   1      38.843  33.923  32.933  1.00  0.00     0.031 C 
ATOM     48  C   UNL A   1      37.973  30.519  29.339  1.00  0.00     0.029 A 
ATOM     49  N   UNL A   1      39.799  30.244  30.605  1.00  0.00    -0.354 N 
ATOM     50  C   UNL A   1      40.747  32.991  33.791  1.00  0.00     0.074 A 
ATOM     51  C   UNL A   1      39.793  34.076  33.843  1.00  0.00     0.031 C 
ATOM     52  C   UNL A   1      38.582  29.389  28.938  1.00  0.00     0.029 A 
ATOM     53  C   UNL A   1      39.799  29.191  29.724  1.00  0.00     0.049 A 
ATOM     54  H   UNL A   1      40.491  30.371  31.294  1.00  0.00     0.167 HD
ATOM     55  C   UNL A   1      41.788  32.855  34.648  1.00  0.00     0.031 A 
ATOM     56  C   UNL A   1      40.686  28.189  29.563  1.00  0.00     0.031 A 
ATOM     57  C   UNL A   1      42.753  31.789  34.588  1.00  0.00     0.049 A 
ATOM     58  C   UNL A   1      41.887  28.111  30.470  1.00  0.00     0.074 A 
ATOM     59  C   UNL A   1      43.841  31.562  35.412  1.00  0.00     0.029 A 
ATOM     60  N   UNL A   1      42.752  30.777  33.639  1.00  0.00    -0.354 N 
ATOM     61  N   UNL A   1      42.218  28.883  31.478  1.00  0.00    -0.248 NA
ATOM     62  C   UNL A   1      42.830  27.012  30.221  1.00  0.00     0.031 C 
ATOM     63  C   UNL A   1      44.537  30.452  34.923  1.00  0.00     0.029 A 
ATOM     64  C   UNL A   1      43.839  29.941  33.840  1.00  0.00     0.049 A 
ATOM     65  H   UNL A   1      42.079  30.669  32.929  1.00  0.00     0.167 HD
ATOM     66  C   UNL A   1      43.388  28.344  32.001  1.00  0.00     0.074 A 
ATOM     67  C   UNL A   1      43.695  27.168  31.214  1.00  0.00     0.031 C 
ATOM     68  C   UNL A   1      44.140  28.780  33.043  1.00  0.00     0.031 A 
BRANCH  55  69
ATOM     69  C   UNL A   1      41.960  33.916  35.700  1.00  0.00    -0.014 A 
ATOM     70  C   UNL A   1      41.346  33.808  36.959  1.00  0.00     0.009 A 
ATOM     71  C   UNL A   1      42.771  35.031  35.436  1.00  0.00     0.009 A 
ATOM     72  C   UNL A   1      41.512  34.813  37.917  1.00  0.00     0.001 A 
ATOM     73  C   UNL A   1      42.961  36.017  36.406  1.00  0.00     0.001 A 
ATOM     74  C   UNL A   1      42.324  35.912  37.641  1.00  0.00     0.000 A 
ENDBRANCH  55  69
BRANCH  56  75
ATOM     75  C   UNL A   1      40.489  27.180  28.487  1.00  0.00    -0.014 A 
ATOM     76  C   UNL A   1      41.038  27.371  27.210  1.00  0.00     0.009 A 
ATOM     77  C   UNL A   1      39.717  26.032  28.726  1.00  0.00     0.009 A 
ATOM     78  C   UNL A   1      40.791  26.452  26.188  1.00  0.00     0.001 A 
ATOM     79  C   UNL A   1      39.500  25.097  27.711  1.00  0.00     0.001 A 
ATOM     80  C   UNL A   1      40.028  25.314  26.440  1.00  0.00     0.000 A 
ENDBRANCH  56  75
BRANCH  68  81
ATOM     81  C   UNL A   1      45.345  27.956  33.415  1.00  0.00    -0.014 A 
ATOM     82  C   UNL A   1      45.246  26.862  34.290  1.00  0.00     0.009 A 
ATOM     83  C   UNL A   1      46.598  28.271  32.866  1.00  0.00     0.009 A 
ATOM     84  C   UNL A   1      46.386  26.136  34.645  1.00  0.00     0.001 A 
ATOM     85  C   UNL A   1      47.728  27.522  33.194  1.00  0.00     0.001 A 
ATOM     86  C   UNL A   1      47.624  26.464  34.094  1.00  0.00     0.000 A 
ENDBRANCH  68  81
ENDBRANCH  42  43
ENDBRANCH  35  37
ENDBRANCH  34  35
ENDBRANCH  33  34
ENDBRANCH  32  33
ENDBRANCH  31  32
ENDBRANCH  30  31
ENDBRANCH  29  30
ENDBRANCH  28  29
ENDBRANCH   1  28
TORSDOF 24
ENDMDL
