MODEL 1
REMARK VINA RESULT:     -11.4      0.000      0.000
REMARK SMILES Cc1ccc(C2=NN(C(=O)CCC(=O)OCCOCCOCCOCCOC(=O)c3ccc(-c4c5nc(c(-c6ccccc6)c6ccc([nH]6)c(-c6ccccc6)c6nc(c(-c7ccccc7)c7ccc4[nH]7)C=C6)C=C5)cc3)[C@H](C[C@H]3C=c4cccc(C)c4=NC3=O)C2)cc1
REMARK SMILES IDX 19 1 18 2 17 3 16 4 15 5 13 6 14 7 12 8 11 9 9 10 10 11 8 12
REMARK SMILES IDX 6 13 7 14 92 15 78 16 5 17 1 18 2 19 3 20 94 21 4 22 93 23
REMARK SMILES IDX 79 24 80 25 81 26 90 27 82 28 89 29 91 30 83 31 88 32 84 33
REMARK SMILES IDX 86 34 85 35 87 36 20 37 21 38 22 39 23 40 24 41 25 42 26 43
REMARK SMILES IDX 27 44 28 45 29 46 30 47 31 48 77 49 32 50 76 51 33 52 34 53
REMARK SMILES IDX 35 54 70 55 36 56 75 57 69 58 71 59 37 60 74 61 68 62 67 63
REMARK SMILES IDX 38 65 60 66 45 67 59 68 46 69 49 70 58 71 72 72 47 73 48 74
REMARK SMILES IDX 57 76 73 77 50 78 39 79 40 80 44 81 41 82 43 83 42 84 61 85
REMARK SMILES IDX 62 86 66 87 63 88 65 89 64 90 51 91 52 92 56 93 53 94 55 95
REMARK SMILES IDX 54 96
REMARK H PARENT 71 64 49 75
REMARK Flexibility Score: inf
ROOT
ATOM      1  C   UNL A   1      45.532  23.569  33.972  1.00  0.00     0.188 C 
ENDROOT
BRANCH   1   2
ATOM      2  O   UNL A   1      46.911  23.891  34.251  1.00  0.00    -0.376 OA
BRANCH   2   3
ATOM      3  C   UNL A   1      47.601  23.069  35.182  1.00  0.00     0.202 C 
BRANCH   3   4
ATOM      4  C   UNL A   1      47.957  21.692  34.700  1.00  0.00     0.261 C 
BRANCH   4   5
ATOM      5  O   UNL A   1      49.392  21.702  34.500  1.00  0.00    -0.463 OA
BRANCH   5   6
ATOM      6  C   UNL A   1      50.073  20.644  34.066  1.00  0.00     0.306 C 
ATOM      7  O   UNL A   1      50.377  20.493  32.886  1.00  0.00    -0.252 OA
BRANCH   6   8
ATOM      8  C   UNL A   1      50.604  19.706  35.191  1.00  0.00     0.132 C 
BRANCH   8   9
ATOM      9  C   UNL A   1      50.457  19.439  36.796  1.00  0.00     0.114 C 
BRANCH   9  10
ATOM     10  C   UNL A   1      49.640  19.444  38.331  1.00  0.00     0.243 C 
ATOM     11  O   UNL A   1      50.240  18.642  39.091  1.00  0.00    -0.273 OA
BRANCH  10  12
ATOM     12  N   UNL A   1      48.410  20.236  38.823  1.00  0.00    -0.230 N 
ATOM     13  C   UNL A   1      46.761  22.768  39.385  1.00  0.00     0.070 C 
ATOM     14  N   UNL A   1      48.052  22.272  38.600  1.00  0.00    -0.174 NA
ATOM     15  C   UNL A   1      45.837  21.247  40.283  1.00  0.00     0.086 C 
ATOM     16  C   UNL A   1      46.825  19.531  39.824  1.00  0.00     0.118 C 
BRANCH  13  17
ATOM     17  C   UNL A   1      46.540  24.146  39.751  1.00  0.00    -0.002 A 
ATOM     18  C   UNL A   1      45.713  28.165  40.821  1.00  0.00     0.044 C 
ATOM     19  C   UNL A   1      46.040  26.780  40.362  1.00  0.00    -0.051 A 
ATOM     20  C   UNL A   1      44.982  25.905  40.063  1.00  0.00     0.004 A 
ATOM     21  C   UNL A   1      47.367  26.337  40.277  1.00  0.00     0.004 A 
ATOM     22  C   UNL A   1      45.232  24.585  39.735  1.00  0.00     0.010 A 
ATOM     23  C   UNL A   1      47.625  25.004  39.972  1.00  0.00     0.010 A 
ENDBRANCH  13  17
BRANCH  16  24
ATOM     24  C   UNL A   1      46.315  17.604  39.826  1.00  0.00     0.045 C 
BRANCH  24  25
ATOM     25  C   UNL A   1      44.727  16.704  40.648  1.00  0.00     0.106 C 
ATOM     26  C   UNL A   1      44.555  16.542  42.340  1.00  0.00    -0.003 C 
ATOM     27  C   UNL A   1      43.177  16.540  40.338  1.00  0.00     0.253 C 
ATOM     28  C   UNL A   1      43.603  16.101  43.138  1.00  0.00    -0.003 A 
ATOM     29  N   UNL A   1      42.581  15.428  41.008  1.00  0.00    -0.212 NA
ATOM     30  O   UNL A   1      42.577  17.190  39.494  1.00  0.00    -0.272 OA
ATOM     31  C   UNL A   1      43.992  15.856  44.526  1.00  0.00     0.010 A 
ATOM     32  C   UNL A   1      42.865  15.201  42.266  1.00  0.00     0.077 A 
ATOM     33  C   UNL A   1      43.892  14.612  45.000  1.00  0.00     0.001 A 
ATOM     34  C   UNL A   1      42.723  13.856  42.957  1.00  0.00    -0.025 A 
ATOM     35  C   UNL A   1      43.240  13.612  44.187  1.00  0.00     0.005 A 
ATOM     36  C   UNL A   1      42.191  12.780  42.094  1.00  0.00     0.047 C 
ENDBRANCH  24  25
ENDBRANCH  16  24
ENDBRANCH  10  12
ENDBRANCH   9  10
ENDBRANCH   8   9
ENDBRANCH   6   8
ENDBRANCH   5   6
ENDBRANCH   4   5
ENDBRANCH   3   4
ENDBRANCH   2   3
ENDBRANCH   1   2
BRANCH   1  37
ATOM     37  C   UNL A   1      44.652  24.132  32.585  1.00  0.00     0.188 C 
BRANCH  37  38
ATOM     38  O   UNL A   1      44.097  23.507  31.013  1.00  0.00    -0.377 OA
BRANCH  38  39
ATOM     39  C   UNL A   1      44.635  23.204  29.432  1.00  0.00     0.188 C 
BRANCH  39  40
ATOM     40  C   UNL A   1      44.055  23.893  28.066  1.00  0.00     0.188 C 
BRANCH  40  41
ATOM     41  O   UNL A   1      42.785  24.573  28.139  1.00  0.00    -0.376 OA
BRANCH  41  42
ATOM     42  C   UNL A   1      42.566  25.826  28.727  1.00  0.00     0.202 C 
BRANCH  42  43
ATOM     43  C   UNL A   1      42.818  26.808  27.628  1.00  0.00     0.261 C 
BRANCH  43  44
ATOM     44  O   UNL A   1      41.802  26.422  26.591  1.00  0.00    -0.460 OA
BRANCH  44  45
ATOM     45  C   UNL A   1      40.462  26.197  26.848  1.00  0.00     0.338 C 
ATOM     46  O   UNL A   1      39.908  25.166  26.482  1.00  0.00    -0.246 OA
BRANCH  45  47
ATOM     47  C   UNL A   1      39.625  27.319  27.576  1.00  0.00     0.060 A 
ATOM     48  C   UNL A   1      39.586  28.651  27.123  1.00  0.00     0.016 A 
ATOM     49  C   UNL A   1      39.040  27.195  28.824  1.00  0.00     0.016 A 
ATOM     50  C   UNL A   1      39.292  29.804  28.004  1.00  0.00     0.010 A 
ATOM     51  C   UNL A   1      38.904  28.349  29.711  1.00  0.00     0.010 A 
ATOM     52  C   UNL A   1      39.269  29.694  29.411  1.00  0.00    -0.014 A 
BRANCH  52  53
ATOM     53  C   UNL A   1      39.318  30.904  30.635  1.00  0.00     0.031 A 
ATOM     54  C   UNL A   1      40.414  30.429  31.563  1.00  0.00     0.074 A 
ATOM     55  C   UNL A   1      38.831  32.292  30.856  1.00  0.00     0.049 A 
ATOM     56  N   UNL A   1      40.867  31.110  32.542  1.00  0.00    -0.248 NA
ATOM     57  C   UNL A   1      41.265  29.252  31.327  1.00  0.00     0.031 C 
ATOM     58  C   UNL A   1      39.190  33.424  31.776  1.00  0.00     0.029 A 
ATOM     59  N   UNL A   1      37.944  33.184  30.245  1.00  0.00    -0.354 N 
ATOM     60  C   UNL A   1      42.214  30.828  32.667  1.00  0.00     0.074 A 
ATOM     61  C   UNL A   1      42.399  29.597  31.950  1.00  0.00     0.031 C 
ATOM     62  C   UNL A   1      38.378  34.530  31.806  1.00  0.00     0.029 A 
ATOM     63  C   UNL A   1      37.309  34.209  30.951  1.00  0.00     0.049 A 
ATOM     64  H   UNL A   1      37.761  33.087  29.282  1.00  0.00     0.167 HD
ATOM     65  C   UNL A   1      43.001  31.793  33.226  1.00  0.00     0.031 A 
ATOM     66  C   UNL A   1      35.982  34.084  31.238  1.00  0.00     0.031 A 
ATOM     67  C   UNL A   1      42.165  32.914  33.761  1.00  0.00     0.049 A 
ATOM     68  C   UNL A   1      36.096  33.406  32.655  1.00  0.00     0.074 A 
ATOM     69  C   UNL A   1      42.150  34.294  33.630  1.00  0.00     0.029 A 
ATOM     70  N   UNL A   1      40.925  32.601  34.346  1.00  0.00    -0.354 N 
ATOM     71  N   UNL A   1      37.168  32.748  33.081  1.00  0.00    -0.248 NA
ATOM     72  C   UNL A   1      35.244  33.718  33.801  1.00  0.00     0.031 C 
ATOM     73  C   UNL A   1      40.846  34.765  34.049  1.00  0.00     0.029 A 
ATOM     74  C   UNL A   1      40.034  33.669  34.393  1.00  0.00     0.049 A 
ATOM     75  H   UNL A   1      40.707  31.706  34.691  1.00  0.00     0.167 HD
ATOM     76  C   UNL A   1      37.444  33.139  34.380  1.00  0.00     0.074 A 
ATOM     77  C   UNL A   1      36.065  33.390  34.824  1.00  0.00     0.031 C 
ATOM     78  C   UNL A   1      38.674  33.468  34.990  1.00  0.00     0.031 A 
BRANCH  65  79
ATOM     79  C   UNL A   1      44.527  31.835  33.168  1.00  0.00    -0.014 A 
ATOM     80  C   UNL A   1      45.138  31.896  31.900  1.00  0.00     0.009 A 
ATOM     81  C   UNL A   1      45.426  31.797  34.257  1.00  0.00     0.009 A 
ATOM     82  C   UNL A   1      46.528  31.954  31.717  1.00  0.00     0.001 A 
ATOM     83  C   UNL A   1      46.827  31.882  34.083  1.00  0.00     0.001 A 
ATOM     84  C   UNL A   1      47.377  31.969  32.810  1.00  0.00     0.000 A 
ENDBRANCH  65  79
BRANCH  66  85
ATOM     85  C   UNL A   1      35.360  33.653  29.905  1.00  0.00    -0.014 A 
ATOM     86  C   UNL A   1      35.276  32.050  29.223  1.00  0.00     0.009 A 
ATOM     87  C   UNL A   1      34.123  34.755  29.324  1.00  0.00     0.009 A 
ATOM     88  C   UNL A   1      34.110  31.516  28.008  1.00  0.00     0.001 A 
ATOM     89  C   UNL A   1      32.777  34.058  27.933  1.00  0.00     0.001 A 
ATOM     90  C   UNL A   1      32.887  32.452  27.387  1.00  0.00     0.000 A 
ENDBRANCH  66  85
BRANCH  78  91
ATOM     91  C   UNL A   1      38.791  33.531  36.480  1.00  0.00    -0.014 A 
ATOM     92  C   UNL A   1      39.264  34.623  37.173  1.00  0.00     0.009 A 
ATOM     93  C   UNL A   1      38.332  32.428  37.243  1.00  0.00     0.009 A 
ATOM     94  C   UNL A   1      38.975  34.743  38.525  1.00  0.00     0.001 A 
ATOM     95  C   UNL A   1      38.105  32.504  38.597  1.00  0.00     0.001 A 
ATOM     96  C   UNL A   1      38.361  33.703  39.224  1.00  0.00     0.000 A 
ENDBRANCH  78  91
ENDBRANCH  52  53
ENDBRANCH  45  47
ENDBRANCH  44  45
ENDBRANCH  43  44
ENDBRANCH  42  43
ENDBRANCH  41  42
ENDBRANCH  40  41
ENDBRANCH  39  40
ENDBRANCH  38  39
ENDBRANCH  37  38
ENDBRANCH   1  37
TORSDOF 26
ENDMDL
MODEL 2
REMARK VINA RESULT:     -10.9      5.911     13.277
REMARK SMILES Cc1ccc(C2=NN(C(=O)CCC(=O)OCCOCCOCCOCCOC(=O)c3ccc(-c4c5nc(c(-c6ccccc6)c6ccc([nH]6)c(-c6ccccc6)c6nc(c(-c7ccccc7)c7ccc4[nH]7)C=C6)C=C5)cc3)[C@H](C[C@H]3C=c4cccc(C)c4=NC3=O)C2)cc1
REMARK SMILES IDX 19 1 18 2 17 3 16 4 15 5 13 6 14 7 12 8 11 9 9 10 10 11 8 12
REMARK SMILES IDX 6 13 7 14 92 15 78 16 5 17 1 18 2 19 3 20 94 21 4 22 93 23
REMARK SMILES IDX 79 24 80 25 81 26 90 27 82 28 89 29 91 30 83 31 88 32 84 33
REMARK SMILES IDX 86 34 85 35 87 36 20 37 21 38 22 39 23 40 24 41 25 42 26 43
REMARK SMILES IDX 27 44 28 45 29 46 30 47 31 48 77 49 32 50 76 51 33 52 34 53
REMARK SMILES IDX 35 54 70 55 36 56 75 57 69 58 71 59 37 60 74 61 68 62 67 63
REMARK SMILES IDX 38 65 60 66 45 67 59 68 46 69 49 70 58 71 72 72 47 73 48 74
REMARK SMILES IDX 57 76 73 77 50 78 39 79 40 80 44 81 41 82 43 83 42 84 61 85
REMARK SMILES IDX 62 86 66 87 63 88 65 89 64 90 51 91 52 92 56 93 53 94 55 95
REMARK SMILES IDX 54 96
REMARK H PARENT 71 64 49 75
REMARK Flexibility Score: inf
ROOT
ATOM      1  C   UNL A   1      33.115  36.879  30.308  1.00  0.00     0.188 C 
ENDROOT
BRANCH   1   2
ATOM      2  O   UNL A   1      32.403  36.726  31.554  1.00  0.00    -0.376 OA
BRANCH   2   3
ATOM      3  C   UNL A   1      33.100  36.128  32.638  1.00  0.00     0.202 C 
BRANCH   3   4
ATOM      4  C   UNL A   1      34.393  35.449  32.289  1.00  0.00     0.261 C 
BRANCH   4   5
ATOM      5  O   UNL A   1      34.035  34.116  31.850  1.00  0.00    -0.463 OA
BRANCH   5   6
ATOM      6  C   UNL A   1      34.669  33.020  32.261  1.00  0.00     0.306 C 
ATOM      7  O   UNL A   1      34.839  32.045  31.535  1.00  0.00    -0.252 OA
BRANCH   6   8
ATOM      8  C   UNL A   1      35.330  33.141  33.667  1.00  0.00     0.132 C 
BRANCH   8   9
ATOM      9  C   UNL A   1      36.798  33.164  34.382  1.00  0.00     0.114 C 
BRANCH   9  10
ATOM     10  C   UNL A   1      38.177  33.906  35.138  1.00  0.00     0.243 C 
ATOM     11  O   UNL A   1      38.429  34.972  34.521  1.00  0.00    -0.273 OA
BRANCH  10  12
ATOM     12  N   UNL A   1      39.027  33.468  36.350  1.00  0.00    -0.230 N 
ATOM     13  C   UNL A   1      39.751  33.276  39.331  1.00  0.00     0.070 C 
ATOM     14  N   UNL A   1      38.558  33.690  38.363  1.00  0.00    -0.174 NA
ATOM     15  C   UNL A   1      41.312  32.594  38.296  1.00  0.00     0.086 C 
ATOM     16  C   UNL A   1      40.823  32.580  36.323  1.00  0.00     0.118 C 
BRANCH  13  17
ATOM     17  C   UNL A   1      39.853  33.730  40.697  1.00  0.00    -0.002 A 
ATOM     18  C   UNL A   1      40.244  35.210  44.650  1.00  0.00     0.044 C 
ATOM     19  C   UNL A   1      40.164  34.617  43.280  1.00  0.00    -0.051 A 
ATOM     20  C   UNL A   1      40.753  35.314  42.213  1.00  0.00     0.004 A 
ATOM     21  C   UNL A   1      39.476  33.419  43.045  1.00  0.00     0.004 A 
ATOM     22  C   UNL A   1      40.616  34.859  40.914  1.00  0.00     0.010 A 
ATOM     23  C   UNL A   1      39.312  32.968  41.740  1.00  0.00     0.010 A 
ENDBRANCH  13  17
BRANCH  16  24
ATOM     24  C   UNL A   1      41.521  31.597  34.736  1.00  0.00     0.045 C 
BRANCH  24  25
ATOM     25  C   UNL A   1      42.659  29.952  34.651  1.00  0.00     0.106 C 
ATOM     26  C   UNL A   1      41.990  28.384  34.764  1.00  0.00    -0.003 C 
ATOM     27  C   UNL A   1      43.991  29.479  33.926  1.00  0.00     0.253 C 
ATOM     28  C   UNL A   1      42.466  27.161  34.644  1.00  0.00    -0.003 A 
ATOM     29  N   UNL A   1      44.610  28.357  34.556  1.00  0.00    -0.212 NA
ATOM     30  O   UNL A   1      44.530  30.096  33.018  1.00  0.00    -0.272 OA
ATOM     31  C   UNL A   1      41.599  26.085  35.121  1.00  0.00     0.010 A 
ATOM     32  C   UNL A   1      43.875  27.350  34.955  1.00  0.00     0.077 A 
ATOM     33  C   UNL A   1      42.034  25.321  36.125  1.00  0.00     0.001 A 
ATOM     34  C   UNL A   1      44.277  26.355  36.029  1.00  0.00    -0.025 A 
ATOM     35  C   UNL A   1      43.400  25.472  36.568  1.00  0.00     0.005 A 
ATOM     36  C   UNL A   1      45.621  26.584  36.600  1.00  0.00     0.047 C 
ENDBRANCH  24  25
ENDBRANCH  16  24
ENDBRANCH  10  12
ENDBRANCH   9  10
ENDBRANCH   8   9
ENDBRANCH   6   8
ENDBRANCH   5   6
ENDBRANCH   4   5
ENDBRANCH   3   4
ENDBRANCH   2   3
ENDBRANCH   1   2
BRANCH   1  37
ATOM     37  C   UNL A   1      32.834  35.917  28.890  1.00  0.00     0.188 C 
BRANCH  37  38
ATOM     38  O   UNL A   1      33.459  34.427  28.143  1.00  0.00    -0.377 OA
BRANCH  38  39
ATOM     39  C   UNL A   1      34.701  33.280  28.290  1.00  0.00     0.188 C 
BRANCH  39  40
ATOM     40  C   UNL A   1      34.536  31.656  28.160  1.00  0.00     0.188 C 
BRANCH  40  41
ATOM     41  O   UNL A   1      35.720  30.844  28.301  1.00  0.00    -0.376 OA
BRANCH  41  42
ATOM     42  C   UNL A   1      36.234  29.980  27.326  1.00  0.00     0.202 C 
BRANCH  42  43
ATOM     43  C   UNL A   1      37.697  29.903  27.621  1.00  0.00     0.261 C 
BRANCH  43  44
ATOM     44  O   UNL A   1      37.813  28.642  28.428  1.00  0.00    -0.460 OA
BRANCH  44  45
ATOM     45  C   UNL A   1      38.163  28.592  29.764  1.00  0.00     0.338 C 
ATOM     46  O   UNL A   1      37.373  28.922  30.643  1.00  0.00    -0.246 OA
BRANCH  45  47
ATOM     47  C   UNL A   1      39.629  28.157  30.155  1.00  0.00     0.060 A 
ATOM     48  C   UNL A   1      40.382  28.827  31.137  1.00  0.00     0.016 A 
ATOM     49  C   UNL A   1      40.408  27.254  29.453  1.00  0.00     0.016 A 
ATOM     50  C   UNL A   1      41.863  28.829  31.170  1.00  0.00     0.010 A 
ATOM     51  C   UNL A   1      41.862  27.391  29.406  1.00  0.00     0.010 A 
ATOM     52  C   UNL A   1      42.643  28.370  30.087  1.00  0.00    -0.014 A 
BRANCH  52  53
ATOM     53  C   UNL A   1      44.312  28.594  29.728  1.00  0.00     0.031 A 
ATOM     54  C   UNL A   1      44.297  29.474  28.497  1.00  0.00     0.074 A 
ATOM     55  C   UNL A   1      45.631  28.422  30.391  1.00  0.00     0.049 A 
ATOM     56  N   UNL A   1      45.339  29.989  27.974  1.00  0.00    -0.248 NA
ATOM     57  C   UNL A   1      43.086  30.049  27.889  1.00  0.00     0.031 C 
ATOM     58  C   UNL A   1      47.020  28.954  30.177  1.00  0.00     0.029 A 
ATOM     59  N   UNL A   1      46.135  27.815  31.546  1.00  0.00    -0.354 N 
ATOM     60  C   UNL A   1      44.988  31.221  27.456  1.00  0.00     0.074 A 
ATOM     61  C   UNL A   1      43.557  31.178  27.342  1.00  0.00     0.031 C 
ATOM     62  C   UNL A   1      48.050  28.417  30.908  1.00  0.00     0.029 A 
ATOM     63  C   UNL A   1      47.458  27.376  31.645  1.00  0.00     0.049 A 
ATOM     64  H   UNL A   1      45.536  27.693  32.318  1.00  0.00     0.167 HD
ATOM     65  C   UNL A   1      45.975  32.161  27.365  1.00  0.00     0.031 A 
ATOM     66  C   UNL A   1      47.710  26.037  31.602  1.00  0.00     0.031 A 
ATOM     67  C   UNL A   1      47.308  31.563  27.695  1.00  0.00     0.049 A 
ATOM     68  C   UNL A   1      47.950  25.877  30.053  1.00  0.00     0.074 A 
ATOM     69  C   UNL A   1      48.354  31.874  28.549  1.00  0.00     0.029 A 
ATOM     70  N   UNL A   1      47.564  30.241  27.289  1.00  0.00    -0.354 N 
ATOM     71  N   UNL A   1      47.504  26.732  29.140  1.00  0.00    -0.248 NA
ATOM     72  C   UNL A   1      48.975  25.029  29.450  1.00  0.00     0.031 C 
ATOM     73  C   UNL A   1      49.160  30.683  28.715  1.00  0.00     0.029 A 
ATOM     74  C   UNL A   1      48.584  29.617  28.002  1.00  0.00     0.049 A 
ATOM     75  H   UNL A   1      47.066  29.797  26.566  1.00  0.00     0.167 HD
ATOM     76  C   UNL A   1      48.519  26.984  28.232  1.00  0.00     0.074 A 
ATOM     77  C   UNL A   1      49.173  25.668  28.274  1.00  0.00     0.031 C 
ATOM     78  C   UNL A   1      48.956  28.203  27.670  1.00  0.00     0.031 A 
BRANCH  65  79
ATOM     79  C   UNL A   1      45.758  33.656  27.136  1.00  0.00    -0.014 A 
ATOM     80  C   UNL A   1      46.569  34.301  26.182  1.00  0.00     0.009 A 
ATOM     81  C   UNL A   1      44.836  34.497  27.796  1.00  0.00     0.009 A 
ATOM     82  C   UNL A   1      46.456  35.665  25.871  1.00  0.00     0.001 A 
ATOM     83  C   UNL A   1      44.698  35.867  27.471  1.00  0.00     0.001 A 
ATOM     84  C   UNL A   1      45.504  36.448  26.501  1.00  0.00     0.000 A 
ENDBRANCH  65  79
BRANCH  66  85
ATOM     85  C   UNL A   1      46.693  25.443  32.583  1.00  0.00    -0.014 A 
ATOM     86  C   UNL A   1      45.032  25.002  32.279  1.00  0.00     0.009 A 
ATOM     87  C   UNL A   1      47.435  24.594  33.928  1.00  0.00     0.009 A 
ATOM     88  C   UNL A   1      44.092  23.848  33.229  1.00  0.00     0.001 A 
ATOM     89  C   UNL A   1      46.291  23.239  34.971  1.00  0.00     0.001 A 
ATOM     90  C   UNL A   1      44.676  22.973  34.513  1.00  0.00     0.000 A 
ENDBRANCH  66  85
BRANCH  78  91
ATOM     91  C   UNL A   1      49.836  28.210  26.461  1.00  0.00    -0.014 A 
ATOM     92  C   UNL A   1      51.176  28.530  26.481  1.00  0.00     0.009 A 
ATOM     93  C   UNL A   1      49.285  27.804  25.219  1.00  0.00     0.009 A 
ATOM     94  C   UNL A   1      51.981  28.138  25.421  1.00  0.00     0.001 A 
ATOM     95  C   UNL A   1      50.063  27.478  24.133  1.00  0.00     0.001 A 
ATOM     96  C   UNL A   1      51.429  27.576  24.269  1.00  0.00     0.000 A 
ENDBRANCH  78  91
ENDBRANCH  52  53
ENDBRANCH  45  47
ENDBRANCH  44  45
ENDBRANCH  43  44
ENDBRANCH  42  43
ENDBRANCH  41  42
ENDBRANCH  40  41
ENDBRANCH  39  40
ENDBRANCH  38  39
ENDBRANCH  37  38
ENDBRANCH   1  37
TORSDOF 26
ENDMDL
MODEL 3
REMARK VINA RESULT:     -10.9      8.301     15.499
REMARK SMILES Cc1ccc(C2=NN(C(=O)CCC(=O)OCCOCCOCCOCCOC(=O)c3ccc(-c4c5nc(c(-c6ccccc6)c6ccc([nH]6)c(-c6ccccc6)c6nc(c(-c7ccccc7)c7ccc4[nH]7)C=C6)C=C5)cc3)[C@H](C[C@H]3C=c4cccc(C)c4=NC3=O)C2)cc1
REMARK SMILES IDX 19 1 18 2 17 3 16 4 15 5 13 6 14 7 12 8 11 9 9 10 10 11 8 12
REMARK SMILES IDX 6 13 7 14 92 15 78 16 5 17 1 18 2 19 3 20 94 21 4 22 93 23
REMARK SMILES IDX 79 24 80 25 81 26 90 27 82 28 89 29 91 30 83 31 88 32 84 33
REMARK SMILES IDX 86 34 85 35 87 36 20 37 21 38 22 39 23 40 24 41 25 42 26 43
REMARK SMILES IDX 27 44 28 45 29 46 30 47 31 48 77 49 32 50 76 51 33 52 34 53
REMARK SMILES IDX 35 54 70 55 36 56 75 57 69 58 71 59 37 60 74 61 68 62 67 63
REMARK SMILES IDX 38 65 60 66 45 67 59 68 46 69 49 70 58 71 72 72 47 73 48 74
REMARK SMILES IDX 57 76 73 77 50 78 39 79 40 80 44 81 41 82 43 83 42 84 61 85
REMARK SMILES IDX 62 86 66 87 63 88 65 89 64 90 51 91 52 92 56 93 53 94 55 95
REMARK SMILES IDX 54 96
REMARK H PARENT 71 64 49 75
REMARK Flexibility Score: inf
ROOT
ATOM      1  C   UNL A   1      33.331  36.347  29.999  1.00  0.00     0.188 C 
ENDROOT
BRANCH   1   2
ATOM      2  O   UNL A   1      32.594  36.944  31.087  1.00  0.00    -0.376 OA
BRANCH   2   3
ATOM      3  C   UNL A   1      33.242  37.030  32.348  1.00  0.00     0.202 C 
BRANCH   3   4
ATOM      4  C   UNL A   1      34.552  36.303  32.461  1.00  0.00     0.261 C 
BRANCH   4   5
ATOM      5  O   UNL A   1      34.615  35.808  33.821  1.00  0.00    -0.463 OA
BRANCH   5   6
ATOM      6  C   UNL A   1      35.493  34.892  34.222  1.00  0.00     0.306 C 
ATOM      7  O   UNL A   1      35.252  34.099  35.127  1.00  0.00    -0.252 OA
BRANCH   6   8
ATOM      8  C   UNL A   1      36.773  34.789  33.340  1.00  0.00     0.132 C 
BRANCH   8   9
ATOM      9  C   UNL A   1      38.298  34.204  33.378  1.00  0.00     0.114 C 
BRANCH   9  10
ATOM     10  C   UNL A   1      39.535  32.999  33.173  1.00  0.00     0.243 C 
ATOM     11  O   UNL A   1      38.969  31.885  33.032  1.00  0.00    -0.273 OA
BRANCH  10  12
ATOM     12  N   UNL A   1      41.073  33.121  33.135  1.00  0.00    -0.230 N 
ATOM     13  C   UNL A   1      43.926  32.814  34.234  1.00  0.00     0.070 C 
ATOM     14  N   UNL A   1      42.432  32.343  34.503  1.00  0.00    -0.174 NA
ATOM     15  C   UNL A   1      44.038  33.955  32.603  1.00  0.00     0.086 C 
ATOM     16  C   UNL A   1      42.188  34.073  31.770  1.00  0.00     0.118 C 
BRANCH  13  17
ATOM     17  C   UNL A   1      44.957  32.786  35.244  1.00  0.00    -0.002 A 
ATOM     18  C   UNL A   1      47.969  32.523  38.215  1.00  0.00     0.044 C 
ATOM     19  C   UNL A   1      46.851  32.658  37.232  1.00  0.00    -0.051 A 
ATOM     20  C   UNL A   1      46.194  31.495  36.800  1.00  0.00     0.004 A 
ATOM     21  C   UNL A   1      46.494  33.907  36.706  1.00  0.00     0.004 A 
ATOM     22  C   UNL A   1      45.225  31.559  35.815  1.00  0.00     0.010 A 
ATOM     23  C   UNL A   1      45.539  33.976  35.697  1.00  0.00     0.010 A 
ENDBRANCH  13  17
BRANCH  16  24
ATOM     24  C   UNL A   1      41.524  34.508  29.942  1.00  0.00     0.045 C 
BRANCH  24  25
ATOM     25  C   UNL A   1      42.090  35.965  28.691  1.00  0.00     0.106 C 
ATOM     26  C   UNL A   1      43.173  37.196  29.169  1.00  0.00    -0.003 C 
ATOM     27  C   UNL A   1      42.364  36.140  27.136  1.00  0.00     0.253 C 
ATOM     28  C   UNL A   1      43.779  38.191  28.551  1.00  0.00    -0.003 A 
ATOM     29  N   UNL A   1      42.317  37.499  26.702  1.00  0.00    -0.212 NA
ATOM     30  O   UNL A   1      42.451  35.208  26.349  1.00  0.00    -0.272 OA
ATOM     31  C   UNL A   1      44.395  39.201  29.411  1.00  0.00     0.010 A 
ATOM     32  C   UNL A   1      42.898  38.429  27.419  1.00  0.00     0.077 A 
ATOM     33  C   UNL A   1      43.944  40.455  29.336  1.00  0.00     0.001 A 
ATOM     34  C   UNL A   1      42.543  39.905  27.375  1.00  0.00    -0.025 A 
ATOM     35  C   UNL A   1      43.006  40.792  28.291  1.00  0.00     0.005 A 
ATOM     36  C   UNL A   1      41.478  40.248  26.411  1.00  0.00     0.047 C 
ENDBRANCH  24  25
ENDBRANCH  16  24
ENDBRANCH  10  12
ENDBRANCH   9  10
ENDBRANCH   8   9
ENDBRANCH   6   8
ENDBRANCH   5   6
ENDBRANCH   4   5
ENDBRANCH   3   4
ENDBRANCH   2   3
ENDBRANCH   1   2
BRANCH   1  37
ATOM     37  C   UNL A   1      33.464  34.638  29.721  1.00  0.00     0.188 C 
BRANCH  37  38
ATOM     38  O   UNL A   1      34.191  33.212  30.499  1.00  0.00    -0.377 OA
BRANCH  38  39
ATOM     39  C   UNL A   1      34.560  32.567  32.025  1.00  0.00     0.188 C 
BRANCH  39  40
ATOM     40  C   UNL A   1      35.552  31.300  32.324  1.00  0.00     0.188 C 
BRANCH  40  41
ATOM     41  O   UNL A   1      36.572  30.997  31.350  1.00  0.00    -0.376 OA
BRANCH  41  42
ATOM     42  C   UNL A   1      36.497  31.281  29.980  1.00  0.00     0.202 C 
BRANCH  42  43
ATOM     43  C   UNL A   1      37.727  32.081  29.693  1.00  0.00     0.261 C 
BRANCH  43  44
ATOM     44  O   UNL A   1      38.218  31.492  28.401  1.00  0.00    -0.460 OA
BRANCH  44  45
ATOM     45  C   UNL A   1      37.879  30.237  27.930  1.00  0.00     0.338 C 
ATOM     46  O   UNL A   1      36.821  30.043  27.339  1.00  0.00    -0.246 OA
BRANCH  45  47
ATOM     47  C   UNL A   1      38.850  29.026  28.212  1.00  0.00     0.060 A 
ATOM     48  C   UNL A   1      39.586  28.907  29.406  1.00  0.00     0.016 A 
ATOM     49  C   UNL A   1      39.262  28.097  27.274  1.00  0.00     0.016 A 
ATOM     50  C   UNL A   1      40.851  28.145  29.513  1.00  0.00     0.010 A 
ATOM     51  C   UNL A   1      40.585  27.480  27.353  1.00  0.00     0.010 A 
ATOM     52  C   UNL A   1      41.553  27.684  28.379  1.00  0.00    -0.014 A 
BRANCH  52  53
ATOM     53  C   UNL A   1      43.171  27.118  28.210  1.00  0.00     0.031 A 
ATOM     54  C   UNL A   1      43.994  28.388  28.212  1.00  0.00     0.074 A 
ATOM     55  C   UNL A   1      43.931  25.847  28.342  1.00  0.00     0.049 A 
ATOM     56  N   UNL A   1      45.269  28.413  28.238  1.00  0.00    -0.248 NA
ATOM     57  C   UNL A   1      43.455  29.740  28.430  1.00  0.00     0.031 C 
ATOM     58  C   UNL A   1      45.373  25.471  28.531  1.00  0.00     0.029 A 
ATOM     59  N   UNL A   1      43.647  24.484  28.476  1.00  0.00    -0.354 N 
ATOM     60  C   UNL A   1      45.656  29.521  28.966  1.00  0.00     0.074 A 
ATOM     61  C   UNL A   1      44.497  30.370  28.988  1.00  0.00     0.031 C 
ATOM     62  C   UNL A   1      45.726  24.149  28.431  1.00  0.00     0.029 A 
ATOM     63  C   UNL A   1      44.539  23.491  28.064  1.00  0.00     0.049 A 
ATOM     64  H   UNL A   1      42.789  24.215  28.875  1.00  0.00     0.167 HD
ATOM     65  C   UNL A   1      46.869  29.462  29.591  1.00  0.00     0.031 A 
ATOM     66  C   UNL A   1      44.258  22.784  26.932  1.00  0.00     0.031 A 
ATOM     67  C   UNL A   1      47.614  28.228  29.183  1.00  0.00     0.049 A 
ATOM     68  C   UNL A   1      45.029  23.674  25.885  1.00  0.00     0.074 A 
ATOM     69  C   UNL A   1      48.252  27.189  29.841  1.00  0.00     0.029 A 
ATOM     70  N   UNL A   1      47.491  27.783  27.855  1.00  0.00    -0.354 N 
ATOM     71  N   UNL A   1      45.356  24.946  26.087  1.00  0.00    -0.248 NA
ATOM     72  C   UNL A   1      45.805  23.157  24.761  1.00  0.00     0.031 C 
ATOM     73  C   UNL A   1      48.403  26.096  28.903  1.00  0.00     0.029 A 
ATOM     74  C   UNL A   1      47.811  26.441  27.674  1.00  0.00     0.049 A 
ATOM     75  H   UNL A   1      47.204  28.370  27.118  1.00  0.00     0.167 HD
ATOM     76  C   UNL A   1      46.664  25.140  25.679  1.00  0.00     0.074 A 
ATOM     77  C   UNL A   1      46.691  24.163  24.580  1.00  0.00     0.031 C 
ATOM     78  C   UNL A   1      47.719  25.840  26.304  1.00  0.00     0.031 A 
BRANCH  65  79
ATOM     79  C   UNL A   1      47.348  30.410  30.688  1.00  0.00    -0.014 A 
ATOM     80  C   UNL A   1      48.553  31.109  30.475  1.00  0.00     0.009 A 
ATOM     81  C   UNL A   1      46.730  30.660  31.933  1.00  0.00     0.009 A 
ATOM     82  C   UNL A   1      49.089  32.018  31.400  1.00  0.00     0.001 A 
ATOM     83  C   UNL A   1      47.250  31.594  32.860  1.00  0.00     0.001 A 
ATOM     84  C   UNL A   1      48.427  32.279  32.587  1.00  0.00     0.000 A 
ENDBRANCH  65  79
BRANCH  66  85
ATOM     85  C   UNL A   1      42.788  22.387  27.106  1.00  0.00    -0.014 A 
ATOM     86  C   UNL A   1      41.369  23.374  26.868  1.00  0.00     0.009 A 
ATOM     87  C   UNL A   1      42.508  20.662  26.943  1.00  0.00     0.009 A 
ATOM     88  C   UNL A   1      39.744  22.765  26.540  1.00  0.00     0.001 A 
ATOM     89  C   UNL A   1      40.597  20.023  26.528  1.00  0.00     0.001 A 
ATOM     90  C   UNL A   1      39.349  21.163  26.352  1.00  0.00     0.000 A 
ENDBRANCH  66  85
BRANCH  78  91
ATOM     91  C   UNL A   1      48.946  26.211  25.534  1.00  0.00    -0.014 A 
ATOM     92  C   UNL A   1      48.957  27.086  24.471  1.00  0.00     0.009 A 
ATOM     93  C   UNL A   1      50.194  25.685  25.953  1.00  0.00     0.009 A 
ATOM     94  C   UNL A   1      50.157  27.662  24.080  1.00  0.00     0.001 A 
ATOM     95  C   UNL A   1      51.397  26.195  25.524  1.00  0.00     0.001 A 
ATOM     96  C   UNL A   1      51.368  27.247  24.636  1.00  0.00     0.000 A 
ENDBRANCH  78  91
ENDBRANCH  52  53
ENDBRANCH  45  47
ENDBRANCH  44  45
ENDBRANCH  43  44
ENDBRANCH  42  43
ENDBRANCH  41  42
ENDBRANCH  40  41
ENDBRANCH  39  40
ENDBRANCH  38  39
ENDBRANCH  37  38
ENDBRANCH   1  37
TORSDOF 26
ENDMDL
