MODEL 1
REMARK VINA RESULT:     -10.6      0.000      0.000
REMARK SMILES CC1(C)[C@H](O)CC[C@]2(C)[C@@H]1CC[C@@]1(C)Oc3oc(C(=O)OCCOCCOCCOCCOC(=O)c4ccc(-c5c6nc(c(-c7ccccc7)c7ccc([nH]7)c(-c7ccccc7)c7nc(c(-c8ccccc8)c8ccc5[nH]8)C=C7)C=C6)cc4)cc(=O)c3C[C@H]21
REMARK SMILES IDX 28 1 27 2 26 3 25 4 24 5 23 6 22 7 21 8 19 9 20 10 18 11
REMARK SMILES IDX 1 12 2 13 3 14 4 15 10 16 6 17 8 18 11 19 7 20 9 21 89 22
REMARK SMILES IDX 12 23 13 24 88 25 14 26 15 27 87 28 16 29 85 30 17 31 84 32
REMARK SMILES IDX 86 33 5 34 29 36 30 37 31 38 32 39 33 40 34 41 35 42 36 43
REMARK SMILES IDX 37 44 83 45 38 46 82 47 39 48 40 49 41 50 76 51 42 52 81 53
REMARK SMILES IDX 75 54 77 55 43 56 80 57 74 58 73 59 44 61 66 62 51 63 65 64
REMARK SMILES IDX 52 65 55 66 64 67 78 68 53 69 54 70 63 72 79 73 56 74 45 75
REMARK SMILES IDX 46 76 50 77 47 78 49 79 48 80 67 81 68 82 72 83 69 84 71 85
REMARK SMILES IDX 70 86 57 87 58 88 62 89 59 90 61 91 60 92
REMARK H PARENT 5 35 77 60 55 71
REMARK Flexibility Score: inf
ROOT
ATOM      1  C   UNL A   1      40.387  21.891  27.315  1.00  0.00     0.188 C 
ENDROOT
BRANCH   1   2
ATOM      2  O   UNL A   1      39.740  22.629  26.273  1.00  0.00    -0.377 OA
BRANCH   2   3
ATOM      3  C   UNL A   1      38.864  23.672  26.676  1.00  0.00     0.188 C 
BRANCH   3   4
ATOM      4  C   UNL A   1      37.449  23.518  26.081  1.00  0.00     0.188 C 
BRANCH   4   5
ATOM      5  O   UNL A   1      37.450  22.938  24.785  1.00  0.00    -0.376 OA
BRANCH   5   6
ATOM      6  C   UNL A   1      37.087  21.584  24.566  1.00  0.00     0.202 C 
BRANCH   6   7
ATOM      7  C   UNL A   1      35.997  20.885  25.377  1.00  0.00     0.261 C 
BRANCH   7   8
ATOM      8  O   UNL A   1      35.062  20.127  24.621  1.00  0.00    -0.457 OA
BRANCH   8   9
ATOM      9  C   UNL A   1      33.739  20.044  24.919  1.00  0.00     0.374 C 
ATOM     10  O   UNL A   1      33.157  19.094  25.402  1.00  0.00    -0.242 OA
BRANCH   9  11
ATOM     11  C   UNL A   1      33.202  21.427  24.693  1.00  0.00     0.219 A 
ATOM     12  C   UNL A   1      31.747  30.650  25.915  1.00  0.00     0.014 C 
ATOM     13  C   UNL A   1      32.775  29.478  25.822  1.00  0.00    -0.006 C 
ATOM     14  C   UNL A   1      34.103  30.065  26.367  1.00  0.00     0.014 C 
ATOM     15  C   UNL A   1      32.219  28.460  27.074  1.00  0.00     0.120 C 
ATOM     16  C   UNL A   1      32.672  28.719  24.173  1.00  0.00     0.004 C 
ATOM     17  C   UNL A   1      30.972  27.694  26.703  1.00  0.00     0.033 C 
ATOM     18  C   UNL A   1      32.500  27.311  24.651  1.00  0.00    -0.022 C 
ATOM     19  C   UNL A   1      33.480  28.573  22.818  1.00  0.00     0.009 C 
ATOM     20  C   UNL A   1      31.039  27.546  25.235  1.00  0.00     0.010 C 
ATOM     21  C   UNL A   1      34.074  27.188  25.146  1.00  0.00     0.012 C 
ATOM     22  C   UNL A   1      32.450  25.967  23.991  1.00  0.00     0.044 C 
ATOM     23  C   UNL A   1      33.654  27.068  22.114  1.00  0.00     0.049 C 
ATOM     24  C   UNL A   1      32.705  25.839  22.530  1.00  0.00     0.113 C 
ATOM     25  C   UNL A   1      31.376  25.044  24.502  1.00  0.00     0.055 C 
ATOM     26  C   UNL A   1      31.435  25.876  21.668  1.00  0.00     0.057 C 
ATOM     27  O   UNL A   1      33.305  24.439  22.415  1.00  0.00    -0.458 OA
ATOM     28  C   UNL A   1      31.817  23.693  24.203  1.00  0.00     0.081 A 
ATOM     29  C   UNL A   1      32.812  23.418  23.344  1.00  0.00     0.292 A 
ATOM     30  C   UNL A   1      31.330  22.784  25.237  1.00  0.00     0.192 A 
ATOM     31  O   UNL A   1      33.490  22.176  23.517  1.00  0.00    -0.418 OA
ATOM     32  C   UNL A   1      32.233  21.723  25.575  1.00  0.00     0.107 A 
ATOM     33  O   UNL A   1      30.274  22.946  25.834  1.00  0.00    -0.289 OA
BRANCH  15  34
ATOM     34  O   UNL A   1      33.115  27.457  27.547  1.00  0.00    -0.393 OA
ATOM     35  H   UNL A   1      33.132  26.717  26.921  1.00  0.00     0.210 HD
ENDBRANCH  15  34
ENDBRANCH   9  11
ENDBRANCH   8   9
ENDBRANCH   7   8
ENDBRANCH   6   7
ENDBRANCH   5   6
ENDBRANCH   4   5
ENDBRANCH   3   4
ENDBRANCH   2   3
ENDBRANCH   1   2
BRANCH   1  36
ATOM     36  C   UNL A   1      41.303  20.674  27.007  1.00  0.00     0.188 C 
BRANCH  36  37
ATOM     37  O   UNL A   1      41.990  20.761  25.768  1.00  0.00    -0.376 OA
BRANCH  37  38
ATOM     38  C   UNL A   1      43.401  20.809  25.749  1.00  0.00     0.202 C 
BRANCH  38  39
ATOM     39  C   UNL A   1      44.049  22.186  25.570  1.00  0.00     0.261 C 
BRANCH  39  40
ATOM     40  O   UNL A   1      43.235  23.312  25.916  1.00  0.00    -0.460 OA
BRANCH  40  41
ATOM     41  C   UNL A   1      43.754  24.543  25.679  1.00  0.00     0.338 C 
ATOM     42  O   UNL A   1      44.536  24.866  24.829  1.00  0.00    -0.246 OA
BRANCH  41  43
ATOM     43  C   UNL A   1      43.033  25.470  26.581  1.00  0.00     0.060 A 
ATOM     44  C   UNL A   1      43.298  26.844  26.516  1.00  0.00     0.016 A 
ATOM     45  C   UNL A   1      42.085  24.967  27.474  1.00  0.00     0.016 A 
ATOM     46  C   UNL A   1      42.622  27.722  27.361  1.00  0.00     0.010 A 
ATOM     47  C   UNL A   1      41.437  25.840  28.347  1.00  0.00     0.010 A 
ATOM     48  C   UNL A   1      41.727  27.215  28.313  1.00  0.00    -0.014 A 
BRANCH  48  49
ATOM     49  C   UNL A   1      41.285  28.082  29.426  1.00  0.00     0.031 A 
ATOM     50  C   UNL A   1      42.039  27.991  30.722  1.00  0.00     0.074 A 
ATOM     51  C   UNL A   1      40.261  28.939  29.289  1.00  0.00     0.049 A 
ATOM     52  N   UNL A   1      41.830  28.627  31.844  1.00  0.00    -0.248 NA
ATOM     53  C   UNL A   1      43.185  27.065  30.756  1.00  0.00     0.031 C 
ATOM     54  C   UNL A   1      39.490  29.156  28.067  1.00  0.00     0.029 A 
ATOM     55  N   UNL A   1      39.696  29.792  30.204  1.00  0.00    -0.354 N 
ATOM     56  C   UNL A   1      42.819  28.183  32.711  1.00  0.00     0.074 A 
ATOM     57  C   UNL A   1      43.611  27.205  32.002  1.00  0.00     0.031 C 
ATOM     58  C   UNL A   1      38.548  30.085  28.308  1.00  0.00     0.029 A 
ATOM     59  C   UNL A   1      38.633  30.505  29.707  1.00  0.00     0.049 A 
ATOM     60  H   UNL A   1      40.021  29.886  31.128  1.00  0.00     0.167 HD
ATOM     61  C   UNL A   1      43.051  28.564  33.986  1.00  0.00     0.031 A 
ATOM     62  C   UNL A   1      37.815  31.388  30.316  1.00  0.00     0.031 A 
ATOM     63  C   UNL A   1      42.257  29.523  34.698  1.00  0.00     0.049 A 
ATOM     64  C   UNL A   1      38.034  31.727  31.766  1.00  0.00     0.074 A 
ATOM     65  C   UNL A   1      42.419  29.973  35.995  1.00  0.00     0.029 A 
ATOM     66  N   UNL A   1      41.152  30.175  34.176  1.00  0.00    -0.354 N 
ATOM     67  N   UNL A   1      38.975  31.304  32.576  1.00  0.00    -0.248 NA
ATOM     68  C   UNL A   1      37.086  32.665  32.387  1.00  0.00     0.031 C 
ATOM     69  C   UNL A   1      41.379  30.860  36.277  1.00  0.00     0.029 A 
ATOM     70  C   UNL A   1      40.607  31.007  35.135  1.00  0.00     0.049 A 
ATOM     71  H   UNL A   1      40.807  30.062  33.260  1.00  0.00     0.167 HD
ATOM     72  C   UNL A   1      38.748  31.942  33.790  1.00  0.00     0.074 A 
ATOM     73  C   UNL A   1      37.581  32.781  33.613  1.00  0.00     0.031 C 
ATOM     74  C   UNL A   1      39.450  31.842  34.944  1.00  0.00     0.031 A 
BRANCH  61  75
ATOM     75  C   UNL A   1      44.208  27.940  34.706  1.00  0.00    -0.014 A 
ATOM     76  C   UNL A   1      45.471  28.550  34.699  1.00  0.00     0.009 A 
ATOM     77  C   UNL A   1      44.008  26.784  35.474  1.00  0.00     0.009 A 
ATOM     78  C   UNL A   1      46.515  28.012  35.453  1.00  0.00     0.001 A 
ATOM     79  C   UNL A   1      45.048  26.261  36.244  1.00  0.00     0.001 A 
ATOM     80  C   UNL A   1      46.299  26.876  36.232  1.00  0.00     0.000 A 
ENDBRANCH  61  75
BRANCH  62  81
ATOM     81  C   UNL A   1      36.719  32.019  29.539  1.00  0.00    -0.014 A 
ATOM     82  C   UNL A   1      35.411  31.521  29.622  1.00  0.00     0.009 A 
ATOM     83  C   UNL A   1      36.966  33.153  28.748  1.00  0.00     0.009 A 
ATOM     84  C   UNL A   1      34.370  32.148  28.932  1.00  0.00     0.001 A 
ATOM     85  C   UNL A   1      35.920  33.790  28.076  1.00  0.00     0.001 A 
ATOM     86  C   UNL A   1      34.623  33.286  28.167  1.00  0.00     0.000 A 
ENDBRANCH  62  81
BRANCH  74  87
ATOM     87  C   UNL A   1      39.019  32.668  36.121  1.00  0.00    -0.014 A 
ATOM     88  C   UNL A   1      38.219  32.115  37.132  1.00  0.00     0.009 A 
ATOM     89  C   UNL A   1      39.554  33.954  36.298  1.00  0.00     0.009 A 
ATOM     90  C   UNL A   1      37.967  32.838  38.301  1.00  0.00     0.001 A 
ATOM     91  C   UNL A   1      39.320  34.663  37.476  1.00  0.00     0.001 A 
ATOM     92  C   UNL A   1      38.527  34.104  38.477  1.00  0.00     0.000 A 
ENDBRANCH  74  87
ENDBRANCH  48  49
ENDBRANCH  41  43
ENDBRANCH  40  41
ENDBRANCH  39  40
ENDBRANCH  38  39
ENDBRANCH  37  38
ENDBRANCH  36  37
ENDBRANCH   1  36
TORSDOF 21
ENDMDL
MODEL 2
REMARK VINA RESULT:     -10.1      0.988      5.591
REMARK SMILES CC1(C)[C@H](O)CC[C@]2(C)[C@@H]1CC[C@@]1(C)Oc3oc(C(=O)OCCOCCOCCOCCOC(=O)c4ccc(-c5c6nc(c(-c7ccccc7)c7ccc([nH]7)c(-c7ccccc7)c7nc(c(-c8ccccc8)c8ccc5[nH]8)C=C7)C=C6)cc4)cc(=O)c3C[C@H]21
REMARK SMILES IDX 28 1 27 2 26 3 25 4 24 5 23 6 22 7 21 8 19 9 20 10 18 11
REMARK SMILES IDX 1 12 2 13 3 14 4 15 10 16 6 17 8 18 11 19 7 20 9 21 89 22
REMARK SMILES IDX 12 23 13 24 88 25 14 26 15 27 87 28 16 29 85 30 17 31 84 32
REMARK SMILES IDX 86 33 5 34 29 36 30 37 31 38 32 39 33 40 34 41 35 42 36 43
REMARK SMILES IDX 37 44 83 45 38 46 82 47 39 48 40 49 41 50 76 51 42 52 81 53
REMARK SMILES IDX 75 54 77 55 43 56 80 57 74 58 73 59 44 61 66 62 51 63 65 64
REMARK SMILES IDX 52 65 55 66 64 67 78 68 53 69 54 70 63 72 79 73 56 74 45 75
REMARK SMILES IDX 46 76 50 77 47 78 49 79 48 80 67 81 68 82 72 83 69 84 71 85
REMARK SMILES IDX 70 86 57 87 58 88 62 89 59 90 61 91 60 92
REMARK H PARENT 5 35 77 60 55 71
REMARK Flexibility Score: inf
ROOT
ATOM      1  C   UNL A   1      38.864  23.325  26.947  1.00  0.00     0.188 C 
ENDROOT
BRANCH   1   2
ATOM      2  O   UNL A   1      38.428  23.753  25.652  1.00  0.00    -0.377 OA
BRANCH   2   3
ATOM      3  C   UNL A   1      37.053  23.574  25.347  1.00  0.00     0.188 C 
BRANCH   3   4
ATOM      4  C   UNL A   1      36.546  22.163  25.712  1.00  0.00     0.188 C 
BRANCH   4   5
ATOM      5  O   UNL A   1      36.990  21.160  24.810  1.00  0.00    -0.376 OA
BRANCH   5   6
ATOM      6  C   UNL A   1      36.533  19.820  24.891  1.00  0.00     0.202 C 
BRANCH   6   7
ATOM      7  C   UNL A   1      35.059  19.445  24.747  1.00  0.00     0.261 C 
BRANCH   7   8
ATOM      8  O   UNL A   1      34.152  20.537  24.682  1.00  0.00    -0.457 OA
BRANCH   8   9
ATOM      9  C   UNL A   1      32.843  20.414  24.341  1.00  0.00     0.374 C 
ATOM     10  O   UNL A   1      32.263  19.393  24.031  1.00  0.00    -0.242 OA
BRANCH   9  11
ATOM     11  C   UNL A   1      32.243  21.763  24.605  1.00  0.00     0.219 A 
ATOM     12  C   UNL A   1      31.662  30.889  26.855  1.00  0.00     0.014 C 
ATOM     13  C   UNL A   1      32.385  29.778  26.029  1.00  0.00    -0.006 C 
ATOM     14  C   UNL A   1      33.692  30.440  25.524  1.00  0.00     0.014 C 
ATOM     15  C   UNL A   1      32.897  28.730  27.275  1.00  0.00     0.120 C 
ATOM     16  C   UNL A   1      31.197  29.013  24.884  1.00  0.00     0.004 C 
ATOM     17  C   UNL A   1      31.775  27.894  27.843  1.00  0.00     0.033 C 
ATOM     18  C   UNL A   1      31.464  27.597  25.292  1.00  0.00    -0.022 C 
ATOM     19  C   UNL A   1      30.843  28.912  23.343  1.00  0.00     0.009 C 
ATOM     20  C   UNL A   1      30.810  27.749  26.734  1.00  0.00     0.010 C 
ATOM     21  C   UNL A   1      32.944  27.565  24.552  1.00  0.00     0.012 C 
ATOM     22  C   UNL A   1      31.026  26.253  24.799  1.00  0.00     0.044 C 
ATOM     23  C   UNL A   1      30.542  27.419  22.657  1.00  0.00     0.049 C 
ATOM     24  C   UNL A   1      30.200  26.139  23.566  1.00  0.00     0.113 C 
ATOM     25  C   UNL A   1      30.648  25.270  25.875  1.00  0.00     0.055 C 
ATOM     26  C   UNL A   1      28.688  26.102  23.826  1.00  0.00     0.057 C 
ATOM     27  O   UNL A   1      30.610  24.775  23.012  1.00  0.00    -0.458 OA
ATOM     28  C   UNL A   1      30.813  23.946  25.301  1.00  0.00     0.081 A 
ATOM     29  C   UNL A   1      30.943  23.728  23.982  1.00  0.00     0.292 A 
ATOM     30  C   UNL A   1      31.218  23.011  26.347  1.00  0.00     0.192 A 
ATOM     31  O   UNL A   1      31.602  22.526  23.588  1.00  0.00    -0.418 OA
ATOM     32  C   UNL A   1      32.147  22.004  25.923  1.00  0.00     0.107 A 
ATOM     33  O   UNL A   1      30.868  23.113  27.515  1.00  0.00    -0.289 OA
BRANCH  15  34
ATOM     34  O   UNL A   1      33.911  27.781  26.955  1.00  0.00    -0.393 OA
ATOM     35  H   UNL A   1      33.648  27.280  26.168  1.00  0.00     0.210 HD
ENDBRANCH  15  34
ENDBRANCH   9  11
ENDBRANCH   8   9
ENDBRANCH   7   8
ENDBRANCH   6   7
ENDBRANCH   5   6
ENDBRANCH   4   5
ENDBRANCH   3   4
ENDBRANCH   2   3
ENDBRANCH   1   2
BRANCH   1  36
ATOM     36  C   UNL A   1      40.048  22.337  27.125  1.00  0.00     0.188 C 
BRANCH  36  37
ATOM     37  O   UNL A   1      40.687  21.968  25.913  1.00  0.00    -0.376 OA
BRANCH  37  38
ATOM     38  C   UNL A   1      41.999  21.445  25.940  1.00  0.00     0.202 C 
BRANCH  38  39
ATOM     39  C   UNL A   1      43.122  22.355  25.430  1.00  0.00     0.261 C 
BRANCH  39  40
ATOM     40  O   UNL A   1      42.744  23.699  25.110  1.00  0.00    -0.460 OA
BRANCH  40  41
ATOM     41  C   UNL A   1      43.669  24.667  25.328  1.00  0.00     0.338 C 
ATOM     42  O   UNL A   1      44.697  24.855  24.738  1.00  0.00    -0.246 OA
BRANCH  41  43
ATOM     43  C   UNL A   1      43.084  25.570  26.345  1.00  0.00     0.060 A 
ATOM     44  C   UNL A   1      43.600  26.863  26.500  1.00  0.00     0.016 A 
ATOM     45  C   UNL A   1      42.014  25.129  27.125  1.00  0.00     0.016 A 
ATOM     46  C   UNL A   1      43.053  27.717  27.456  1.00  0.00     0.010 A 
ATOM     47  C   UNL A   1      41.492  25.970  28.107  1.00  0.00     0.010 A 
ATOM     48  C   UNL A   1      42.031  27.254  28.295  1.00  0.00    -0.014 A 
BRANCH  48  49
ATOM     49  C   UNL A   1      41.697  28.014  29.518  1.00  0.00     0.031 A 
ATOM     50  C   UNL A   1      40.544  28.975  29.448  1.00  0.00     0.074 A 
ATOM     51  C   UNL A   1      42.379  27.847  30.662  1.00  0.00     0.049 A 
ATOM     52  N   UNL A   1      40.074  29.768  30.374  1.00  0.00    -0.248 NA
ATOM     53  C   UNL A   1      39.819  29.045  28.167  1.00  0.00     0.031 C 
ATOM     54  C   UNL A   1      43.478  26.907  30.867  1.00  0.00     0.029 A 
ATOM     55  N   UNL A   1      42.236  28.474  31.875  1.00  0.00    -0.354 N 
ATOM     56  C   UNL A   1      39.000  30.425  29.789  1.00  0.00     0.074 A 
ATOM     57  C   UNL A   1      38.901  29.964  28.423  1.00  0.00     0.031 C 
ATOM     58  C   UNL A   1      43.913  27.019  32.135  1.00  0.00     0.029 A 
ATOM     59  C   UNL A   1      43.142  28.058  32.819  1.00  0.00     0.049 A 
ATOM     60  H   UNL A   1      41.550  29.156  32.053  1.00  0.00     0.167 HD
ATOM     61  C   UNL A   1      38.164  31.329  30.345  1.00  0.00     0.031 A 
ATOM     62  C   UNL A   1      43.333  28.476  34.086  1.00  0.00     0.031 A 
ATOM     63  C   UNL A   1      38.271  31.800  31.695  1.00  0.00     0.049 A 
ATOM     64  C   UNL A   1      42.449  29.552  34.656  1.00  0.00     0.074 A 
ATOM     65  C   UNL A   1      37.465  32.716  32.346  1.00  0.00     0.029 A 
ATOM     66  N   UNL A   1      39.241  31.398  32.597  1.00  0.00    -0.354 N 
ATOM     67  N   UNL A   1      41.434  30.165  34.095  1.00  0.00    -0.248 NA
ATOM     68  C   UNL A   1      42.732  29.996  36.030  1.00  0.00     0.031 C 
ATOM     69  C   UNL A   1      37.980  32.908  33.629  1.00  0.00     0.029 A 
ATOM     70  C   UNL A   1      39.069  32.066  33.794  1.00  0.00     0.049 A 
ATOM     71  H   UNL A   1      39.946  30.736  32.413  1.00  0.00     0.167 HD
ATOM     72  C   UNL A   1      40.942  31.043  35.054  1.00  0.00     0.074 A 
ATOM     73  C   UNL A   1      41.769  30.886  36.232  1.00  0.00     0.031 C 
ATOM     74  C   UNL A   1      39.894  31.896  34.962  1.00  0.00     0.031 A 
BRANCH  61  75
ATOM     75  C   UNL A   1      37.060  31.879  29.495  1.00  0.00    -0.014 A 
ATOM     76  C   UNL A   1      35.861  31.170  29.329  1.00  0.00     0.009 A 
ATOM     77  C   UNL A   1      37.184  33.159  28.935  1.00  0.00     0.009 A 
ATOM     78  C   UNL A   1      34.803  31.737  28.616  1.00  0.00     0.001 A 
ATOM     79  C   UNL A   1      36.116  33.731  28.242  1.00  0.00     0.001 A 
ATOM     80  C   UNL A   1      34.928  33.020  28.084  1.00  0.00     0.000 A 
ENDBRANCH  61  75
BRANCH  62  81
ATOM     81  C   UNL A   1      44.407  27.854  34.903  1.00  0.00    -0.014 A 
ATOM     82  C   UNL A   1      45.706  28.383  34.888  1.00  0.00     0.009 A 
ATOM     83  C   UNL A   1      44.127  26.760  35.738  1.00  0.00     0.009 A 
ATOM     84  C   UNL A   1      46.703  27.831  35.696  1.00  0.00     0.001 A 
ATOM     85  C   UNL A   1      45.121  26.224  36.560  1.00  0.00     0.001 A 
ATOM     86  C   UNL A   1      46.408  26.759  36.538  1.00  0.00     0.000 A 
ENDBRANCH  62  81
BRANCH  74  87
ATOM     87  C   UNL A   1      39.537  32.727  36.160  1.00  0.00    -0.014 A 
ATOM     88  C   UNL A   1      40.004  34.043  36.288  1.00  0.00     0.009 A 
ATOM     89  C   UNL A   1      38.595  32.243  37.082  1.00  0.00     0.009 A 
ATOM     90  C   UNL A   1      39.529  34.859  37.317  1.00  0.00     0.001 A 
ATOM     91  C   UNL A   1      38.104  33.067  38.094  1.00  0.00     0.001 A 
ATOM     92  C   UNL A   1      38.571  34.376  38.211  1.00  0.00     0.000 A 
ENDBRANCH  74  87
ENDBRANCH  48  49
ENDBRANCH  41  43
ENDBRANCH  40  41
ENDBRANCH  39  40
ENDBRANCH  38  39
ENDBRANCH  37  38
ENDBRANCH  36  37
ENDBRANCH   1  36
TORSDOF 21
ENDMDL
MODEL 3
REMARK VINA RESULT:      -9.8      5.536     13.060
REMARK SMILES CC1(C)[C@H](O)CC[C@]2(C)[C@@H]1CC[C@@]1(C)Oc3oc(C(=O)OCCOCCOCCOCCOC(=O)c4ccc(-c5c6nc(c(-c7ccccc7)c7ccc([nH]7)c(-c7ccccc7)c7nc(c(-c8ccccc8)c8ccc5[nH]8)C=C7)C=C6)cc4)cc(=O)c3C[C@H]21
REMARK SMILES IDX 28 1 27 2 26 3 25 4 24 5 23 6 22 7 21 8 19 9 20 10 18 11
REMARK SMILES IDX 1 12 2 13 3 14 4 15 10 16 6 17 8 18 11 19 7 20 9 21 89 22
REMARK SMILES IDX 12 23 13 24 88 25 14 26 15 27 87 28 16 29 85 30 17 31 84 32
REMARK SMILES IDX 86 33 5 34 29 36 30 37 31 38 32 39 33 40 34 41 35 42 36 43
REMARK SMILES IDX 37 44 83 45 38 46 82 47 39 48 40 49 41 50 76 51 42 52 81 53
REMARK SMILES IDX 75 54 77 55 43 56 80 57 74 58 73 59 44 61 66 62 51 63 65 64
REMARK SMILES IDX 52 65 55 66 64 67 78 68 53 69 54 70 63 72 79 73 56 74 45 75
REMARK SMILES IDX 46 76 50 77 47 78 49 79 48 80 67 81 68 82 72 83 69 84 71 85
REMARK SMILES IDX 70 86 57 87 58 88 62 89 59 90 61 91 60 92
REMARK H PARENT 5 35 77 60 55 71
REMARK Flexibility Score: inf
ROOT
ATOM      1  C   UNL A   1      35.019  34.800  33.504  1.00  0.00     0.188 C 
ENDROOT
BRANCH   1   2
ATOM      2  O   UNL A   1      36.404  34.751  33.864  1.00  0.00    -0.377 OA
BRANCH   2   3
ATOM      3  C   UNL A   1      36.818  33.657  34.669  1.00  0.00     0.188 C 
BRANCH   3   4
ATOM      4  C   UNL A   1      36.935  32.344  33.867  1.00  0.00     0.188 C 
BRANCH   4   5
ATOM      5  O   UNL A   1      38.234  31.774  33.918  1.00  0.00    -0.376 OA
BRANCH   5   6
ATOM      6  C   UNL A   1      38.946  31.634  35.137  1.00  0.00     0.202 C 
BRANCH   6   7
ATOM      7  C   UNL A   1      40.429  31.268  35.184  1.00  0.00     0.261 C 
BRANCH   7   8
ATOM      8  O   UNL A   1      40.715  29.905  35.465  1.00  0.00    -0.457 OA
BRANCH   8   9
ATOM      9  C   UNL A   1      40.985  28.977  34.510  1.00  0.00     0.374 C 
ATOM     10  O   UNL A   1      40.699  29.038  33.332  1.00  0.00    -0.242 OA
BRANCH   9  11
ATOM     11  C   UNL A   1      41.858  27.963  35.188  1.00  0.00     0.219 A 
ATOM     12  C   UNL A   1      48.169  21.060  36.286  1.00  0.00     0.014 C 
ATOM     13  C   UNL A   1      47.811  22.425  35.616  1.00  0.00    -0.006 C 
ATOM     14  C   UNL A   1      48.869  22.614  34.499  1.00  0.00     0.014 C 
ATOM     15  C   UNL A   1      46.384  22.008  34.778  1.00  0.00     0.120 C 
ATOM     16  C   UNL A   1      47.550  23.677  36.909  1.00  0.00     0.004 C 
ATOM     17  C   UNL A   1      45.182  21.880  35.683  1.00  0.00     0.033 C 
ATOM     18  C   UNL A   1      46.209  24.135  36.426  1.00  0.00    -0.022 C 
ATOM     19  C   UNL A   1      48.206  24.980  37.527  1.00  0.00     0.009 C 
ATOM     20  C   UNL A   1      45.461  22.786  36.816  1.00  0.00     0.010 C 
ATOM     21  C   UNL A   1      46.845  24.915  35.112  1.00  0.00     0.012 C 
ATOM     22  C   UNL A   1      45.266  25.234  36.805  1.00  0.00     0.044 C 
ATOM     23  C   UNL A   1      47.265  26.335  37.794  1.00  0.00     0.049 C 
ATOM     24  C   UNL A   1      45.661  26.241  37.828  1.00  0.00     0.113 C 
ATOM     25  C   UNL A   1      43.816  24.836  36.875  1.00  0.00     0.055 C 
ATOM     26  C   UNL A   1      45.212  25.894  39.255  1.00  0.00     0.057 C 
ATOM     27  O   UNL A   1      44.892  27.486  37.388  1.00  0.00    -0.458 OA
ATOM     28  C   UNL A   1      43.045  26.052  36.683  1.00  0.00     0.081 A 
ATOM     29  C   UNL A   1      43.576  27.282  36.776  1.00  0.00     0.292 A 
ATOM     30  C   UNL A   1      41.796  25.730  35.997  1.00  0.00     0.192 A 
ATOM     31  O   UNL A   1      42.905  28.330  36.080  1.00  0.00    -0.418 OA
ATOM     32  C   UNL A   1      41.352  26.724  35.064  1.00  0.00     0.107 A 
ATOM     33  O   UNL A   1      41.205  24.668  36.135  1.00  0.00    -0.289 OA
BRANCH  15  34
ATOM     34  O   UNL A   1      45.949  22.892  33.747  1.00  0.00    -0.393 OA
ATOM     35  H   UNL A   1      46.321  23.774  33.900  1.00  0.00     0.210 HD
ENDBRANCH  15  34
ENDBRANCH   9  11
ENDBRANCH   8   9
ENDBRANCH   7   8
ENDBRANCH   6   7
ENDBRANCH   5   6
ENDBRANCH   4   5
ENDBRANCH   3   4
ENDBRANCH   2   3
ENDBRANCH   1   2
BRANCH   1  36
ATOM     36  C   UNL A   1      34.177  36.095  33.671  1.00  0.00     0.188 C 
BRANCH  36  37
ATOM     37  O   UNL A   1      34.125  36.910  32.511  1.00  0.00    -0.376 OA
BRANCH  37  38
ATOM     38  C   UNL A   1      33.251  36.573  31.453  1.00  0.00     0.202 C 
BRANCH  38  39
ATOM     39  C   UNL A   1      33.775  35.585  30.405  1.00  0.00     0.261 C 
BRANCH  39  40
ATOM     40  O   UNL A   1      33.089  35.581  29.148  1.00  0.00    -0.460 OA
BRANCH  40  41
ATOM     41  C   UNL A   1      33.012  34.396  28.491  1.00  0.00     0.338 C 
ATOM     42  O   UNL A   1      32.160  34.025  27.733  1.00  0.00    -0.246 OA
BRANCH  41  43
ATOM     43  C   UNL A   1      34.289  33.697  28.762  1.00  0.00     0.060 A 
ATOM     44  C   UNL A   1      34.355  32.756  29.798  1.00  0.00     0.016 A 
ATOM     45  C   UNL A   1      35.406  33.970  27.973  1.00  0.00     0.016 A 
ATOM     46  C   UNL A   1      35.553  32.094  30.057  1.00  0.00     0.010 A 
ATOM     47  C   UNL A   1      36.615  33.337  28.256  1.00  0.00     0.010 A 
ATOM     48  C   UNL A   1      36.699  32.421  29.319  1.00  0.00    -0.014 A 
BRANCH  48  49
ATOM     49  C   UNL A   1      38.025  31.993  29.812  1.00  0.00     0.031 A 
ATOM     50  C   UNL A   1      38.538  30.655  29.363  1.00  0.00     0.074 A 
ATOM     51  C   UNL A   1      38.764  32.773  30.618  1.00  0.00     0.049 A 
ATOM     52  N   UNL A   1      39.654  30.052  29.674  1.00  0.00    -0.248 NA
ATOM     53  C   UNL A   1      37.681  29.898  28.431  1.00  0.00     0.031 C 
ATOM     54  C   UNL A   1      38.398  34.110  31.077  1.00  0.00     0.029 A 
ATOM     55  N   UNL A   1      39.988  32.539  31.193  1.00  0.00    -0.354 N 
ATOM     56  C   UNL A   1      39.634  28.853  28.975  1.00  0.00     0.074 A 
ATOM     57  C   UNL A   1      38.389  28.795  28.246  1.00  0.00     0.031 C 
ATOM     58  C   UNL A   1      39.380  34.581  31.866  1.00  0.00     0.029 A 
ATOM     59  C   UNL A   1      40.427  33.567  31.989  1.00  0.00     0.049 A 
ATOM     60  H   UNL A   1      40.504  31.713  31.048  1.00  0.00     0.167 HD
ATOM     61  C   UNL A   1      40.578  27.886  28.939  1.00  0.00     0.031 A 
ATOM     62  C   UNL A   1      41.542  33.672  32.741  1.00  0.00     0.031 A 
ATOM     63  C   UNL A   1      41.808  27.934  29.675  1.00  0.00     0.049 A 
ATOM     64  C   UNL A   1      42.536  32.542  32.759  1.00  0.00     0.074 A 
ATOM     65  C   UNL A   1      42.826  26.999  29.698  1.00  0.00     0.029 A 
ATOM     66  N   UNL A   1      42.184  28.966  30.517  1.00  0.00    -0.354 N 
ATOM     67  N   UNL A   1      42.510  31.413  32.092  1.00  0.00    -0.248 NA
ATOM     68  C   UNL A   1      43.712  32.697  33.629  1.00  0.00     0.031 C 
ATOM     69  C   UNL A   1      43.798  27.441  30.597  1.00  0.00     0.029 A 
ATOM     70  C   UNL A   1      43.410  28.679  31.085  1.00  0.00     0.049 A 
ATOM     71  H   UNL A   1      41.658  29.781  30.686  1.00  0.00     0.167 HD
ATOM     72  C   UNL A   1      43.674  30.738  32.439  1.00  0.00     0.074 A 
ATOM     73  C   UNL A   1      44.385  31.581  33.377  1.00  0.00     0.031 C 
ATOM     74  C   UNL A   1      44.112  29.530  32.012  1.00  0.00     0.031 A 
BRANCH  61  75
ATOM     75  C   UNL A   1      40.320  26.685  28.081  1.00  0.00    -0.014 A 
ATOM     76  C   UNL A   1      40.860  26.596  26.789  1.00  0.00     0.009 A 
ATOM     77  C   UNL A   1      39.611  25.595  28.605  1.00  0.00     0.009 A 
ATOM     78  C   UNL A   1      40.695  25.432  26.038  1.00  0.00     0.001 A 
ATOM     79  C   UNL A   1      39.467  24.424  27.859  1.00  0.00     0.001 A 
ATOM     80  C   UNL A   1      40.009  24.345  26.577  1.00  0.00     0.000 A 
ENDBRANCH  61  75
BRANCH  62  81
ATOM     81  C   UNL A   1      41.775  34.910  33.527  1.00  0.00    -0.014 A 
ATOM     82  C   UNL A   1      41.118  35.107  34.751  1.00  0.00     0.009 A 
ATOM     83  C   UNL A   1      42.690  35.877  33.082  1.00  0.00     0.009 A 
ATOM     84  C   UNL A   1      41.377  36.247  35.517  1.00  0.00     0.001 A 
ATOM     85  C   UNL A   1      42.962  37.006  33.860  1.00  0.00     0.001 A 
ATOM     86  C   UNL A   1      42.305  37.190  35.075  1.00  0.00     0.000 A 
ENDBRANCH  62  81
BRANCH  74  87
ATOM     87  C   UNL A   1      45.433  29.025  32.515  1.00  0.00    -0.014 A 
ATOM     88  C   UNL A   1      46.613  29.255  31.793  1.00  0.00     0.009 A 
ATOM     89  C   UNL A   1      45.515  28.463  33.800  1.00  0.00     0.009 A 
ATOM     90  C   UNL A   1      47.852  28.932  32.352  1.00  0.00     0.001 A 
ATOM     91  C   UNL A   1      46.755  28.164  34.365  1.00  0.00     0.001 A 
ATOM     92  C   UNL A   1      47.923  28.399  33.640  1.00  0.00     0.000 A 
ENDBRANCH  74  87
ENDBRANCH  48  49
ENDBRANCH  41  43
ENDBRANCH  40  41
ENDBRANCH  39  40
ENDBRANCH  38  39
ENDBRANCH  37  38
ENDBRANCH  36  37
ENDBRANCH   1  36
TORSDOF 21
ENDMDL
