MODEL 1
REMARK VINA RESULT:      -9.1      0.000      0.000
REMARK SMILES CC[C@H]1SC[C@@H](C(=O)OCCOCCOCCOCCOC(=O)c2ccc(-c3c4nc(c(-c5ccccc5)c5ccc([nH]5)c(-c5ccccc5)c5nc(c(-c6ccccc6)c6ccc3[nH]6)C=C5)C=C4)cc2)N1C(=O)N[C@@H]1CCCCC1(C)C
REMARK SMILES IDX 15 1 14 2 13 3 12 4 11 5 10 6 9 7 7 8 8 9 6 10 3 11 4 12
REMARK SMILES IDX 72 13 5 14 2 15 1 16 73 17 74 18 75 19 76 21 77 22 81 23
REMARK SMILES IDX 78 24 80 25 82 26 83 27 79 28 16 29 17 30 18 31 19 32 20 33
REMARK SMILES IDX 21 34 22 35 23 36 24 37 25 38 71 39 26 40 70 41 27 42 28 43
REMARK SMILES IDX 29 44 64 45 30 46 69 47 63 48 65 49 31 50 68 51 62 52 61 53
REMARK SMILES IDX 32 55 54 56 39 57 53 58 40 59 43 60 52 61 66 62 41 63 42 64
REMARK SMILES IDX 51 66 67 67 44 68 33 69 34 70 38 71 35 72 37 73 36 74 55 75
REMARK SMILES IDX 56 76 60 77 57 78 59 79 58 80 45 81 46 82 50 83 47 84 49 85
REMARK SMILES IDX 48 86
REMARK H PARENT 75 20 65 54 43 65
REMARK Flexibility Score: inf
ROOT
ATOM      1  O   UNL A   1      35.717  18.600  24.784  1.00  0.00    -0.377 OA
ENDROOT
BRANCH   1   2
ATOM      2  C   UNL A   1      35.717  17.183  24.859  1.00  0.00     0.188 C 
BRANCH   2   3
ATOM      3  C   UNL A   1      34.478  16.281  24.672  1.00  0.00     0.188 C 
BRANCH   3   4
ATOM      4  O   UNL A   1      33.328  16.549  25.452  1.00  0.00    -0.376 OA
BRANCH   4   5
ATOM      5  C   UNL A   1      32.270  17.405  25.080  1.00  0.00     0.202 C 
BRANCH   5   6
ATOM      6  C   UNL A   1      32.370  18.601  24.131  1.00  0.00     0.261 C 
BRANCH   6   7
ATOM      7  O   UNL A   1      32.270  19.888  24.726  1.00  0.00    -0.462 OA
BRANCH   7   8
ATOM      8  C   UNL A   1      32.418  20.968  23.928  1.00  0.00     0.329 C 
ATOM      9  O   UNL A   1      32.079  21.001  22.750  1.00  0.00    -0.250 OA
BRANCH   8  10
ATOM     10  C   UNL A   1      33.133  22.133  24.637  1.00  0.00     0.208 C 
ATOM     11  C   UNL A   1      31.669  23.377  26.120  1.00  0.00     0.145 C 
ATOM     12  S   UNL A   1      32.901  22.649  27.269  1.00  0.00    -0.134 SA
ATOM     13  N   UNL A   1      32.418  23.436  24.873  1.00  0.00    -0.298 N 
ATOM     14  C   UNL A   1      33.631  21.599  25.986  1.00  0.00     0.109 C 
BRANCH  11  15
ATOM     15  C   UNL A   1      30.401  22.494  26.253  1.00  0.00     0.033 C 
ATOM     16  C   UNL A   1      29.365  22.836  27.317  1.00  0.00     0.007 C 
ENDBRANCH  11  15
BRANCH  13  17
ATOM     17  C   UNL A   1      32.864  24.498  24.136  1.00  0.00     0.319 C 
ATOM     18  O   UNL A   1      33.561  24.268  23.131  1.00  0.00    -0.249 OA
ATOM     19  N   UNL A   1      32.691  25.814  24.281  1.00  0.00    -0.335 N 
ATOM     20  H   UNL A   1      33.288  26.193  23.596  1.00  0.00     0.165 HD
BRANCH  19  21
ATOM     21  C   UNL A   1      32.077  27.048  24.922  1.00  0.00     0.089 C 
ATOM     22  C   UNL A   1      30.769  26.629  25.638  1.00  0.00     0.025 C 
ATOM     23  C   UNL A   1      31.794  28.273  24.039  1.00  0.00    -0.015 C 
ATOM     24  C   UNL A   1      29.662  26.259  24.648  1.00  0.00     0.002 C 
ATOM     25  C   UNL A   1      30.790  27.789  22.956  1.00  0.00     0.008 C 
ATOM     26  C   UNL A   1      31.140  29.493  24.745  1.00  0.00     0.013 C 
ATOM     27  C   UNL A   1      33.169  28.829  23.638  1.00  0.00     0.013 C 
ATOM     28  C   UNL A   1      29.460  27.294  23.538  1.00  0.00     0.001 C 
ENDBRANCH  19  21
ENDBRANCH  13  17
ENDBRANCH   8  10
ENDBRANCH   7   8
ENDBRANCH   6   7
ENDBRANCH   5   6
ENDBRANCH   4   5
ENDBRANCH   3   4
ENDBRANCH   2   3
ENDBRANCH   1   2
BRANCH   1  29
ATOM     29  C   UNL A   1      36.952  19.252  24.974  1.00  0.00     0.188 C 
BRANCH  29  30
ATOM     30  C   UNL A   1      36.855  20.747  24.648  1.00  0.00     0.188 C 
BRANCH  30  31
ATOM     31  O   UNL A   1      37.040  21.570  25.793  1.00  0.00    -0.376 OA
BRANCH  31  32
ATOM     32  C   UNL A   1      38.042  22.579  25.732  1.00  0.00     0.202 C 
BRANCH  32  33
ATOM     33  C   UNL A   1      39.366  22.404  26.504  1.00  0.00     0.261 C 
BRANCH  33  34
ATOM     34  O   UNL A   1      40.446  21.731  25.834  1.00  0.00    -0.460 OA
BRANCH  34  35
ATOM     35  C   UNL A   1      41.692  22.216  25.968  1.00  0.00     0.338 C 
ATOM     36  O   UNL A   1      42.731  21.733  25.549  1.00  0.00    -0.246 OA
BRANCH  35  37
ATOM     37  C   UNL A   1      41.578  23.562  26.566  1.00  0.00     0.060 A 
ATOM     38  C   UNL A   1      41.598  24.682  25.723  1.00  0.00     0.016 A 
ATOM     39  C   UNL A   1      41.435  23.718  27.947  1.00  0.00     0.016 A 
ATOM     40  C   UNL A   1      41.493  25.964  26.261  1.00  0.00     0.010 A 
ATOM     41  C   UNL A   1      41.365  25.003  28.488  1.00  0.00     0.010 A 
ATOM     42  C   UNL A   1      41.426  26.131  27.649  1.00  0.00    -0.014 A 
BRANCH  42  43
ATOM     43  C   UNL A   1      41.657  27.475  28.228  1.00  0.00     0.031 A 
ATOM     44  C   UNL A   1      43.078  27.901  28.473  1.00  0.00     0.074 A 
ATOM     45  C   UNL A   1      40.644  28.317  28.493  1.00  0.00     0.049 A 
ATOM     46  N   UNL A   1      43.538  29.017  28.977  1.00  0.00    -0.248 NA
ATOM     47  C   UNL A   1      44.120  26.932  28.095  1.00  0.00     0.031 C 
ATOM     48  C   UNL A   1      39.230  28.052  28.237  1.00  0.00     0.029 A 
ATOM     49  N   UNL A   1      40.660  29.577  29.034  1.00  0.00    -0.354 N 
ATOM     50  C   UNL A   1      44.922  28.883  28.977  1.00  0.00     0.074 A 
ATOM     51  C   UNL A   1      45.223  27.565  28.464  1.00  0.00     0.031 C 
ATOM     52  C   UNL A   1      38.512  29.123  28.620  1.00  0.00     0.029 A 
ATOM     53  C   UNL A   1      39.412  30.130  29.180  1.00  0.00     0.049 A 
ATOM     54  H   UNL A   1      41.489  30.041  29.295  1.00  0.00     0.167 HD
ATOM     55  C   UNL A   1      45.861  29.778  29.364  1.00  0.00     0.031 A 
ATOM     56  C   UNL A   1      39.043  31.309  29.717  1.00  0.00     0.031 A 
ATOM     57  C   UNL A   1      45.562  31.074  29.910  1.00  0.00     0.049 A 
ATOM     58  C   UNL A   1      40.099  32.240  30.257  1.00  0.00     0.074 A 
ATOM     59  C   UNL A   1      46.439  32.052  30.343  1.00  0.00     0.029 A 
ATOM     60  N   UNL A   1      44.281  31.564  30.115  1.00  0.00    -0.354 N 
ATOM     61  N   UNL A   1      41.404  32.112  30.241  1.00  0.00    -0.248 NA
ATOM     62  C   UNL A   1      39.626  33.482  30.885  1.00  0.00     0.031 C 
ATOM     63  C   UNL A   1      45.689  33.108  30.870  1.00  0.00     0.029 A 
ATOM     64  C   UNL A   1      44.344  32.819  30.697  1.00  0.00     0.049 A 
ATOM     65  H   UNL A   1      43.451  31.091  29.880  1.00  0.00     0.167 HD
ATOM     66  C   UNL A   1      41.908  33.270  30.822  1.00  0.00     0.074 A 
ATOM     67  C   UNL A   1      40.767  34.093  31.168  1.00  0.00     0.031 C 
ATOM     68  C   UNL A   1      43.199  33.625  31.041  1.00  0.00     0.031 A 
BRANCH  55  69
ATOM     69  C   UNL A   1      47.299  29.348  29.252  1.00  0.00    -0.014 A 
ATOM     70  C   UNL A   1      47.955  28.699  30.313  1.00  0.00     0.009 A 
ATOM     71  C   UNL A   1      48.013  29.607  28.072  1.00  0.00     0.009 A 
ATOM     72  C   UNL A   1      49.308  28.369  30.212  1.00  0.00     0.001 A 
ATOM     73  C   UNL A   1      49.355  29.242  27.960  1.00  0.00     0.001 A 
ATOM     74  C   UNL A   1      50.005  28.638  29.034  1.00  0.00     0.000 A 
ENDBRANCH  55  69
BRANCH  56  75
ATOM     75  C   UNL A   1      37.604  31.684  29.779  1.00  0.00    -0.014 A 
ATOM     76  C   UNL A   1      36.835  31.375  30.912  1.00  0.00     0.009 A 
ATOM     77  C   UNL A   1      36.987  32.335  28.700  1.00  0.00     0.009 A 
ATOM     78  C   UNL A   1      35.475  31.692  30.954  1.00  0.00     0.001 A 
ATOM     79  C   UNL A   1      35.634  32.678  28.756  1.00  0.00     0.001 A 
ATOM     80  C   UNL A   1      34.877  32.348  29.879  1.00  0.00     0.000 A 
ENDBRANCH  56  75
BRANCH  68  81
ATOM     81  C   UNL A   1      43.453  34.980  31.646  1.00  0.00    -0.014 A 
ATOM     82  C   UNL A   1      43.623  36.122  30.848  1.00  0.00     0.009 A 
ATOM     83  C   UNL A   1      43.480  35.119  33.043  1.00  0.00     0.009 A 
ATOM     84  C   UNL A   1      43.850  37.369  31.439  1.00  0.00     0.001 A 
ATOM     85  C   UNL A   1      43.672  36.371  33.631  1.00  0.00     0.001 A 
ATOM     86  C   UNL A   1      43.868  37.493  32.827  1.00  0.00     0.000 A 
ENDBRANCH  68  81
ENDBRANCH  42  43
ENDBRANCH  35  37
ENDBRANCH  34  35
ENDBRANCH  33  34
ENDBRANCH  32  33
ENDBRANCH  31  32
ENDBRANCH  30  31
ENDBRANCH  29  30
ENDBRANCH   1  29
TORSDOF 23
ENDMDL
MODEL 2
REMARK VINA RESULT:      -9.0      1.789      6.173
REMARK SMILES CC[C@H]1SC[C@@H](C(=O)OCCOCCOCCOCCOC(=O)c2ccc(-c3c4nc(c(-c5ccccc5)c5ccc([nH]5)c(-c5ccccc5)c5nc(c(-c6ccccc6)c6ccc3[nH]6)C=C5)C=C4)cc2)N1C(=O)N[C@@H]1CCCCC1(C)C
REMARK SMILES IDX 15 1 14 2 13 3 12 4 11 5 10 6 9 7 7 8 8 9 6 10 3 11 4 12
REMARK SMILES IDX 72 13 5 14 2 15 1 16 73 17 74 18 75 19 76 21 77 22 81 23
REMARK SMILES IDX 78 24 80 25 82 26 83 27 79 28 16 29 17 30 18 31 19 32 20 33
REMARK SMILES IDX 21 34 22 35 23 36 24 37 25 38 71 39 26 40 70 41 27 42 28 43
REMARK SMILES IDX 29 44 64 45 30 46 69 47 63 48 65 49 31 50 68 51 62 52 61 53
REMARK SMILES IDX 32 55 54 56 39 57 53 58 40 59 43 60 52 61 66 62 41 63 42 64
REMARK SMILES IDX 51 66 67 67 44 68 33 69 34 70 38 71 35 72 37 73 36 74 55 75
REMARK SMILES IDX 56 76 60 77 57 78 59 79 58 80 45 81 46 82 50 83 47 84 49 85
REMARK SMILES IDX 48 86
REMARK H PARENT 75 20 65 54 43 65
REMARK Flexibility Score: inf
ROOT
ATOM      1  O   UNL A   1      35.501  18.333  24.653  1.00  0.00    -0.377 OA
ENDROOT
BRANCH   1   2
ATOM      2  C   UNL A   1      35.028  17.003  24.514  1.00  0.00     0.188 C 
BRANCH   2   3
ATOM      3  C   UNL A   1      34.056  16.512  23.419  1.00  0.00     0.188 C 
BRANCH   3   4
ATOM      4  O   UNL A   1      32.744  17.042  23.399  1.00  0.00    -0.376 OA
BRANCH   4   5
ATOM      5  C   UNL A   1      32.329  18.169  22.658  1.00  0.00     0.202 C 
BRANCH   5   6
ATOM      6  C   UNL A   1      32.442  19.629  23.102  1.00  0.00     0.261 C 
BRANCH   6   7
ATOM      7  O   UNL A   1      32.109  19.904  24.457  1.00  0.00    -0.462 OA
BRANCH   7   8
ATOM      8  C   UNL A   1      32.043  21.197  24.843  1.00  0.00     0.329 C 
ATOM      9  O   UNL A   1      31.056  21.708  25.360  1.00  0.00    -0.250 OA
BRANCH   8  10
ATOM     10  C   UNL A   1      33.318  21.985  24.489  1.00  0.00     0.208 C 
ATOM     11  C   UNL A   1      33.700  23.873  25.966  1.00  0.00     0.145 C 
ATOM     12  S   UNL A   1      35.136  22.781  26.309  1.00  0.00    -0.134 SA
ATOM     13  N   UNL A   1      33.344  23.486  24.609  1.00  0.00    -0.298 N 
ATOM     14  C   UNL A   1      34.453  21.408  25.344  1.00  0.00     0.109 C 
BRANCH  11  15
ATOM     15  C   UNL A   1      32.718  23.654  27.146  1.00  0.00     0.033 C 
ATOM     16  C   UNL A   1      33.005  22.552  28.158  1.00  0.00     0.007 C 
ENDBRANCH  11  15
BRANCH  13  17
ATOM     17  C   UNL A   1      33.403  24.172  23.428  1.00  0.00     0.319 C 
ATOM     18  O   UNL A   1      34.016  23.656  22.475  1.00  0.00    -0.249 OA
ATOM     19  N   UNL A   1      32.902  25.354  23.063  1.00  0.00    -0.335 N 
ATOM     20  H   UNL A   1      33.294  25.495  22.170  1.00  0.00     0.165 HD
BRANCH  19  21
ATOM     21  C   UNL A   1      32.059  26.602  23.269  1.00  0.00     0.089 C 
ATOM     22  C   UNL A   1      32.795  27.803  22.626  1.00  0.00     0.025 C 
ATOM     23  C   UNL A   1      31.637  26.979  24.698  1.00  0.00    -0.015 C 
ATOM     24  C   UNL A   1      34.052  28.194  23.408  1.00  0.00     0.002 C 
ATOM     25  C   UNL A   1      32.961  27.202  25.482  1.00  0.00     0.008 C 
ATOM     26  C   UNL A   1      30.800  28.279  24.847  1.00  0.00     0.013 C 
ATOM     27  C   UNL A   1      30.639  25.897  25.141  1.00  0.00     0.013 C 
ATOM     28  C   UNL A   1      33.819  28.340  24.914  1.00  0.00     0.001 C 
ENDBRANCH  19  21
ENDBRANCH  13  17
ENDBRANCH   8  10
ENDBRANCH   7   8
ENDBRANCH   6   7
ENDBRANCH   5   6
ENDBRANCH   4   5
ENDBRANCH   3   4
ENDBRANCH   2   3
ENDBRANCH   1   2
BRANCH   1  29
ATOM     29  C   UNL A   1      36.867  18.499  24.957  1.00  0.00     0.188 C 
BRANCH  29  30
ATOM     30  C   UNL A   1      37.376  19.879  24.525  1.00  0.00     0.188 C 
BRANCH  30  31
ATOM     31  O   UNL A   1      37.884  20.641  25.614  1.00  0.00    -0.376 OA
BRANCH  31  32
ATOM     32  C   UNL A   1      39.262  20.998  25.590  1.00  0.00     0.202 C 
BRANCH  32  33
ATOM     33  C   UNL A   1      40.276  20.232  26.464  1.00  0.00     0.261 C 
BRANCH  33  34
ATOM     34  O   UNL A   1      41.254  19.417  25.795  1.00  0.00    -0.460 OA
BRANCH  34  35
ATOM     35  C   UNL A   1      42.521  19.856  25.721  1.00  0.00     0.338 C 
ATOM     36  O   UNL A   1      43.458  19.339  25.137  1.00  0.00    -0.246 OA
BRANCH  35  37
ATOM     37  C   UNL A   1      42.555  21.202  26.329  1.00  0.00     0.060 A 
ATOM     38  C   UNL A   1      42.710  22.319  25.496  1.00  0.00     0.016 A 
ATOM     39  C   UNL A   1      42.419  21.363  27.711  1.00  0.00     0.016 A 
ATOM     40  C   UNL A   1      42.746  23.600  26.045  1.00  0.00     0.010 A 
ATOM     41  C   UNL A   1      42.491  22.644  28.263  1.00  0.00     0.010 A 
ATOM     42  C   UNL A   1      42.687  23.764  27.434  1.00  0.00    -0.014 A 
BRANCH  42  43
ATOM     43  C   UNL A   1      43.064  25.068  28.026  1.00  0.00     0.031 A 
ATOM     44  C   UNL A   1      41.976  26.081  28.249  1.00  0.00     0.074 A 
ATOM     45  C   UNL A   1      44.327  25.339  28.398  1.00  0.00     0.049 A 
ATOM     46  N   UNL A   1      42.051  27.291  28.740  1.00  0.00    -0.248 NA
ATOM     47  C   UNL A   1      40.616  25.668  27.864  1.00  0.00     0.031 C 
ATOM     48  C   UNL A   1      45.458  24.419  28.300  1.00  0.00     0.029 A 
ATOM     49  N   UNL A   1      44.862  26.478  28.942  1.00  0.00    -0.354 N 
ATOM     50  C   UNL A   1      40.751  27.782  28.722  1.00  0.00     0.074 A 
ATOM     51  C   UNL A   1      39.916  26.758  28.134  1.00  0.00     0.031 C 
ATOM     52  C   UNL A   1      46.557  25.032  28.774  1.00  0.00     0.029 A 
ATOM     53  C   UNL A   1      46.213  26.396  29.173  1.00  0.00     0.049 A 
ATOM     54  H   UNL A   1      44.328  27.280  29.149  1.00  0.00     0.167 HD
ATOM     55  C   UNL A   1      40.289  28.977  29.160  1.00  0.00     0.031 A 
ATOM     56  C   UNL A   1      47.072  27.324  29.639  1.00  0.00     0.031 A 
ATOM     57  C   UNL A   1      41.124  30.011  29.710  1.00  0.00     0.049 A 
ATOM     58  C   UNL A   1      46.556  28.693  30.006  1.00  0.00     0.074 A 
ATOM     59  C   UNL A   1      40.758  31.261  30.174  1.00  0.00     0.029 A 
ATOM     60  N   UNL A   1      42.500  29.917  29.853  1.00  0.00    -0.354 N 
ATOM     61  N   UNL A   1      45.324  29.144  29.999  1.00  0.00    -0.248 NA
ATOM     62  C   UNL A   1      47.553  29.677  30.451  1.00  0.00     0.031 C 
ATOM     63  C   UNL A   1      41.920  31.949  30.537  1.00  0.00     0.029 A 
ATOM     64  C   UNL A   1      43.003  31.100  30.368  1.00  0.00     0.049 A 
ATOM     65  H   UNL A   1      43.040  29.127  29.623  1.00  0.00     0.167 HD
ATOM     66  C   UNL A   1      45.395  30.450  30.470  1.00  0.00     0.074 A 
ATOM     67  C   UNL A   1      46.788  30.713  30.765  1.00  0.00     0.031 C 
ATOM     68  C   UNL A   1      44.394  31.349  30.652  1.00  0.00     0.031 A 
BRANCH  55  69
ATOM     69  C   UNL A   1      38.815  29.235  29.007  1.00  0.00    -0.014 A 
ATOM     70  C   UNL A   1      38.269  29.672  27.788  1.00  0.00     0.009 A 
ATOM     71  C   UNL A   1      37.959  29.051  30.103  1.00  0.00     0.009 A 
ATOM     72  C   UNL A   1      36.908  29.969  27.687  1.00  0.00     0.001 A 
ATOM     73  C   UNL A   1      36.593  29.313  29.989  1.00  0.00     0.001 A 
ATOM     74  C   UNL A   1      36.072  29.786  28.787  1.00  0.00     0.000 A 
ENDBRANCH  55  69
BRANCH  56  75
ATOM     75  C   UNL A   1      48.516  26.998  29.787  1.00  0.00    -0.014 A 
ATOM     76  C   UNL A   1      49.410  27.227  28.729  1.00  0.00     0.009 A 
ATOM     77  C   UNL A   1      49.005  26.439  30.977  1.00  0.00     0.009 A 
ATOM     78  C   UNL A   1      50.758  26.885  28.854  1.00  0.00     0.001 A 
ATOM     79  C   UNL A   1      50.360  26.125  31.110  1.00  0.00     0.001 A 
ATOM     80  C   UNL A   1      51.234  26.340  30.046  1.00  0.00     0.000 A 
ENDBRANCH  56  75
BRANCH  68  81
ATOM     81  C   UNL A   1      44.761  32.687  31.236  1.00  0.00    -0.014 A 
ATOM     82  C   UNL A   1      45.093  33.780  30.420  1.00  0.00     0.009 A 
ATOM     83  C   UNL A   1      44.731  32.865  32.628  1.00  0.00     0.009 A 
ATOM     84  C   UNL A   1      45.422  35.013  30.990  1.00  0.00     0.001 A 
ATOM     85  C   UNL A   1      45.026  34.108  33.194  1.00  0.00     0.001 A 
ATOM     86  C   UNL A   1      45.382  35.177  32.374  1.00  0.00     0.000 A 
ENDBRANCH  68  81
ENDBRANCH  42  43
ENDBRANCH  35  37
ENDBRANCH  34  35
ENDBRANCH  33  34
ENDBRANCH  32  33
ENDBRANCH  31  32
ENDBRANCH  30  31
ENDBRANCH  29  30
ENDBRANCH   1  29
TORSDOF 23
ENDMDL
MODEL 3
REMARK VINA RESULT:      -8.4      6.051     10.132
REMARK SMILES CC[C@H]1SC[C@@H](C(=O)OCCOCCOCCOCCOC(=O)c2ccc(-c3c4nc(c(-c5ccccc5)c5ccc([nH]5)c(-c5ccccc5)c5nc(c(-c6ccccc6)c6ccc3[nH]6)C=C5)C=C4)cc2)N1C(=O)N[C@@H]1CCCCC1(C)C
REMARK SMILES IDX 15 1 14 2 13 3 12 4 11 5 10 6 9 7 7 8 8 9 6 10 3 11 4 12
REMARK SMILES IDX 72 13 5 14 2 15 1 16 73 17 74 18 75 19 76 21 77 22 81 23
REMARK SMILES IDX 78 24 80 25 82 26 83 27 79 28 16 29 17 30 18 31 19 32 20 33
REMARK SMILES IDX 21 34 22 35 23 36 24 37 25 38 71 39 26 40 70 41 27 42 28 43
REMARK SMILES IDX 29 44 64 45 30 46 69 47 63 48 65 49 31 50 68 51 62 52 61 53
REMARK SMILES IDX 32 55 54 56 39 57 53 58 40 59 43 60 52 61 66 62 41 63 42 64
REMARK SMILES IDX 51 66 67 67 44 68 33 69 34 70 38 71 35 72 37 73 36 74 55 75
REMARK SMILES IDX 56 76 60 77 57 78 59 79 58 80 45 81 46 82 50 83 47 84 49 85
REMARK SMILES IDX 48 86
REMARK H PARENT 75 20 65 54 43 65
REMARK Flexibility Score: inf
ROOT
ATOM      1  O   UNL A   1      39.772  26.835  28.423  1.00  0.00    -0.377 OA
ENDROOT
BRANCH   1   2
ATOM      2  C   UNL A   1      40.605  25.692  28.324  1.00  0.00     0.188 C 
BRANCH   2   3
ATOM      3  C   UNL A   1      40.622  24.701  27.140  1.00  0.00     0.188 C 
BRANCH   3   4
ATOM      4  O   UNL A   1      39.527  23.817  26.987  1.00  0.00    -0.376 OA
BRANCH   4   5
ATOM      5  C   UNL A   1      38.475  23.972  26.059  1.00  0.00     0.202 C 
BRANCH   5   6
ATOM      6  C   UNL A   1      37.303  23.009  25.860  1.00  0.00     0.261 C 
BRANCH   6   7
ATOM      7  O   UNL A   1      36.068  23.594  25.466  1.00  0.00    -0.462 OA
BRANCH   7   8
ATOM      8  C   UNL A   1      35.133  22.788  24.915  1.00  0.00     0.329 C 
ATOM      9  O   UNL A   1      35.246  22.264  23.812  1.00  0.00    -0.250 OA
BRANCH   8  10
ATOM     10  C   UNL A   1      33.872  22.662  25.789  1.00  0.00     0.208 C 
ATOM     11  C   UNL A   1      31.820  22.697  24.493  1.00  0.00     0.145 C 
ATOM     12  S   UNL A   1      31.821  21.012  25.222  1.00  0.00    -0.134 SA
ATOM     13  N   UNL A   1      32.628  23.439  25.449  1.00  0.00    -0.298 N 
ATOM     14  C   UNL A   1      33.514  21.171  25.847  1.00  0.00     0.109 C 
BRANCH  11  15
ATOM     15  C   UNL A   1      32.279  22.516  23.023  1.00  0.00     0.033 C 
ATOM     16  C   UNL A   1      32.082  21.166  22.343  1.00  0.00     0.007 C 
ENDBRANCH  11  15
BRANCH  13  17
ATOM     17  C   UNL A   1      32.307  24.448  26.314  1.00  0.00     0.319 C 
ATOM     18  O   UNL A   1      31.567  24.186  27.280  1.00  0.00    -0.249 OA
ATOM     19  N   UNL A   1      32.651  25.738  26.339  1.00  0.00    -0.335 N 
ATOM     20  H   UNL A   1      32.094  26.102  27.065  1.00  0.00     0.165 HD
BRANCH  19  21
ATOM     21  C   UNL A   1      33.431  26.953  25.863  1.00  0.00     0.089 C 
ATOM     22  C   UNL A   1      33.195  28.110  26.864  1.00  0.00     0.025 C 
ATOM     23  C   UNL A   1      33.191  27.468  24.435  1.00  0.00    -0.015 C 
ATOM     24  C   UNL A   1      31.768  28.657  26.786  1.00  0.00     0.002 C 
ATOM     25  C   UNL A   1      31.687  27.853  24.374  1.00  0.00     0.008 C 
ATOM     26  C   UNL A   1      33.997  28.729  24.016  1.00  0.00     0.013 C 
ATOM     27  C   UNL A   1      33.762  26.392  23.498  1.00  0.00     0.013 C 
ATOM     28  C   UNL A   1      31.303  28.964  25.360  1.00  0.00     0.001 C 
ENDBRANCH  19  21
ENDBRANCH  13  17
ENDBRANCH   8  10
ENDBRANCH   7   8
ENDBRANCH   6   7
ENDBRANCH   5   6
ENDBRANCH   4   5
ENDBRANCH   3   4
ENDBRANCH   2   3
ENDBRANCH   1   2
BRANCH   1  29
ATOM     29  C   UNL A   1      40.118  27.951  27.635  1.00  0.00     0.188 C 
BRANCH  29  30
ATOM     30  C   UNL A   1      39.287  29.184  28.008  1.00  0.00     0.188 C 
BRANCH  30  31
ATOM     31  O   UNL A   1      37.958  28.852  28.395  1.00  0.00    -0.376 OA
BRANCH  31  32
ATOM     32  C   UNL A   1      36.932  29.801  28.127  1.00  0.00     0.202 C 
BRANCH  32  33
ATOM     33  C   UNL A   1      36.535  30.837  29.199  1.00  0.00     0.261 C 
BRANCH  33  34
ATOM     34  O   UNL A   1      37.335  30.902  30.393  1.00  0.00    -0.460 OA
BRANCH  34  35
ATOM     35  C   UNL A   1      36.962  30.177  31.461  1.00  0.00     0.338 C 
ATOM     36  O   UNL A   1      36.458  29.067  31.471  1.00  0.00    -0.246 OA
BRANCH  35  37
ATOM     37  C   UNL A   1      37.443  30.888  32.663  1.00  0.00     0.060 A 
ATOM     38  C   UNL A   1      36.917  32.153  32.959  1.00  0.00     0.016 A 
ATOM     39  C   UNL A   1      38.395  30.304  33.503  1.00  0.00     0.016 A 
ATOM     40  C   UNL A   1      37.354  32.846  34.087  1.00  0.00     0.010 A 
ATOM     41  C   UNL A   1      38.859  31.013  34.613  1.00  0.00     0.010 A 
ATOM     42  C   UNL A   1      38.362  32.300  34.890  1.00  0.00    -0.014 A 
BRANCH  42  43
ATOM     43  C   UNL A   1      39.056  33.168  35.870  1.00  0.00     0.031 A 
ATOM     44  C   UNL A   1      38.625  33.091  37.308  1.00  0.00     0.074 A 
ATOM     45  C   UNL A   1      40.071  33.972  35.510  1.00  0.00     0.049 A 
ATOM     46  N   UNL A   1      39.067  33.752  38.347  1.00  0.00    -0.248 NA
ATOM     47  C   UNL A   1      37.546  32.136  37.612  1.00  0.00     0.031 C 
ATOM     48  C   UNL A   1      40.630  34.086  34.165  1.00  0.00     0.029 A 
ATOM     49  N   UNL A   1      40.816  34.845  36.262  1.00  0.00    -0.354 N 
ATOM     50  C   UNL A   1      38.320  33.293  39.425  1.00  0.00     0.074 A 
ATOM     51  C   UNL A   1      37.371  32.332  38.909  1.00  0.00     0.031 C 
ATOM     52  C   UNL A   1      41.635  34.979  34.187  1.00  0.00     0.029 A 
ATOM     53  C   UNL A   1      41.765  35.524  35.538  1.00  0.00     0.049 A 
ATOM     54  H   UNL A   1      40.683  34.973  37.229  1.00  0.00     0.167 HD
ATOM     55  C   UNL A   1      38.417  33.635  40.732  1.00  0.00     0.031 A 
ATOM     56  C   UNL A   1      42.627  36.484  35.924  1.00  0.00     0.031 A 
ATOM     57  C   UNL A   1      39.334  34.618  41.241  1.00  0.00     0.049 A 
ATOM     58  C   UNL A   1      42.634  36.940  37.362  1.00  0.00     0.074 A 
ATOM     59  C   UNL A   1      39.506  35.046  42.545  1.00  0.00     0.029 A 
ATOM     60  N   UNL A   1      40.225  35.341  40.461  1.00  0.00    -0.354 N 
ATOM     61  N   UNL A   1      41.934  36.492  38.377  1.00  0.00    -0.248 NA
ATOM     62  C   UNL A   1      43.555  38.033  37.704  1.00  0.00     0.031 C 
ATOM     63  C   UNL A   1      40.454  36.074  42.546  1.00  0.00     0.029 A 
ATOM     64  C   UNL A   1      40.927  36.234  41.252  1.00  0.00     0.049 A 
ATOM     65  H   UNL A   1      40.342  35.233  39.490  1.00  0.00     0.167 HD
ATOM     66  C   UNL A   1      42.357  37.222  39.482  1.00  0.00     0.074 A 
ATOM     67  C   UNL A   1      43.381  38.132  39.014  1.00  0.00     0.031 C 
ATOM     68  C   UNL A   1      41.941  37.139  40.771  1.00  0.00     0.031 A 
BRANCH  55  69
ATOM     69  C   UNL A   1      37.461  32.967  41.683  1.00  0.00    -0.014 A 
ATOM     70  C   UNL A   1      37.789  31.759  42.324  1.00  0.00     0.009 A 
ATOM     71  C   UNL A   1      36.208  33.547  41.933  1.00  0.00     0.009 A 
ATOM     72  C   UNL A   1      36.861  31.122  43.151  1.00  0.00     0.001 A 
ATOM     73  C   UNL A   1      35.297  32.927  42.789  1.00  0.00     0.001 A 
ATOM     74  C   UNL A   1      35.617  31.709  43.385  1.00  0.00     0.000 A 
ENDBRANCH  55  69
BRANCH  56  75
ATOM     75  C   UNL A   1      43.561  37.090  34.937  1.00  0.00    -0.014 A 
ATOM     76  C   UNL A   1      43.165  38.193  34.165  1.00  0.00     0.009 A 
ATOM     77  C   UNL A   1      44.846  36.557  34.747  1.00  0.00     0.009 A 
ATOM     78  C   UNL A   1      44.028  38.737  33.211  1.00  0.00     0.001 A 
ATOM     79  C   UNL A   1      45.718  37.122  33.813  1.00  0.00     0.001 A 
ATOM     80  C   UNL A   1      45.306  38.206  33.040  1.00  0.00     0.000 A 
ENDBRANCH  56  75
BRANCH  68  81
ATOM     81  C   UNL A   1      42.622  38.027  41.779  1.00  0.00    -0.014 A 
ATOM     82  C   UNL A   1      42.138  39.311  42.074  1.00  0.00     0.009 A 
ATOM     83  C   UNL A   1      43.745  37.549  42.474  1.00  0.00     0.009 A 
ATOM     84  C   UNL A   1      42.787  40.109  43.020  1.00  0.00     0.001 A 
ATOM     85  C   UNL A   1      44.370  38.335  43.443  1.00  0.00     0.001 A 
ATOM     86  C   UNL A   1      43.897  39.619  43.707  1.00  0.00     0.000 A 
ENDBRANCH  68  81
ENDBRANCH  42  43
ENDBRANCH  35  37
ENDBRANCH  34  35
ENDBRANCH  33  34
ENDBRANCH  32  33
ENDBRANCH  31  32
ENDBRANCH  30  31
ENDBRANCH  29  30
ENDBRANCH   1  29
TORSDOF 23
ENDMDL
