MODEL 1
REMARK VINA RESULT:     -10.3      0.000      0.000
REMARK SMILES O=C(OCCOCCOCCOCCOC(=O)[C@H]1CC2(CC[NH+](C(=O)c3cccc(O)c3)CC2)CN1C(=O)C1CC1)c1ccc(-c2c3nc(c(-c4ccccc4)c4ccc([nH]4)c(-c4ccccc4)c4nc(c(-c5ccccc5)c5ccc2[nH]5)C=C4)C=C3)cc1
REMARK SMILES IDX 10 1 9 2 8 3 7 4 6 5 5 6 4 7 3 8 2 9 1 10 42 11 43 12 89 13
REMARK SMILES IDX 44 14 88 15 45 16 46 17 47 18 82 19 48 20 87 21 81 22 83 23
REMARK SMILES IDX 49 24 86 25 80 26 79 27 50 29 72 30 57 31 71 32 58 33 61 34
REMARK SMILES IDX 70 35 84 36 59 37 60 38 69 40 85 41 62 42 51 43 52 44 56 45
REMARK SMILES IDX 53 46 55 47 54 48 73 49 74 50 78 51 75 52 77 53 76 54 63 55
REMARK SMILES IDX 64 56 68 57 65 58 67 59 66 60 11 61 12 62 13 63 14 64 15 65
REMARK SMILES IDX 16 66 17 67 18 68 19 69 36 70 20 71 35 72 21 73 34 74 22 75
REMARK SMILES IDX 33 76 23 77 37 79 38 80 39 81 40 82 41 83 24 84 25 85 26 86
REMARK SMILES IDX 27 87 32 88 28 89 30 90 29 91 31 92
REMARK H PARENT 83 28 61 39 23 78 31 93
REMARK Flexibility Score: inf
ROOT
ATOM      1  C   UNL A   1      33.712  26.955  25.895  1.00  0.00     0.188 C 
ENDROOT
BRANCH   1   2
ATOM      2  O   UNL A   1      34.332  28.198  26.158  1.00  0.00    -0.377 OA
BRANCH   2   3
ATOM      3  C   UNL A   1      33.907  28.863  27.335  1.00  0.00     0.188 C 
BRANCH   3   4
ATOM      4  C   UNL A   1      32.400  28.809  27.515  1.00  0.00     0.188 C 
BRANCH   4   5
ATOM      5  O   UNL A   1      31.687  29.938  26.990  1.00  0.00    -0.376 OA
BRANCH   5   6
ATOM      6  C   UNL A   1      32.403  31.139  26.700  1.00  0.00     0.202 C 
BRANCH   6   7
ATOM      7  C   UNL A   1      31.815  32.470  27.179  1.00  0.00     0.261 C 
BRANCH   7   8
ATOM      8  O   UNL A   1      32.761  33.544  27.179  1.00  0.00    -0.460 OA
BRANCH   8   9
ATOM      9  C   UNL A   1      33.055  34.185  28.343  1.00  0.00     0.338 C 
ATOM     10  O   UNL A   1      32.459  35.205  28.675  1.00  0.00    -0.246 OA
BRANCH   9  11
ATOM     11  C   UNL A   1      34.337  33.807  29.011  1.00  0.00     0.060 A 
ATOM     12  C   UNL A   1      35.592  34.102  28.475  1.00  0.00     0.016 A 
ATOM     13  C   UNL A   1      34.275  33.149  30.250  1.00  0.00     0.016 A 
ATOM     14  C   UNL A   1      36.752  33.866  29.188  1.00  0.00     0.010 A 
ATOM     15  C   UNL A   1      35.450  32.799  30.928  1.00  0.00     0.010 A 
ATOM     16  C   UNL A   1      36.689  33.150  30.381  1.00  0.00    -0.014 A 
BRANCH  16  17
ATOM     17  C   UNL A   1      37.954  32.496  30.758  1.00  0.00     0.031 A 
ATOM     18  C   UNL A   1      38.572  32.964  32.047  1.00  0.00     0.074 A 
ATOM     19  C   UNL A   1      38.359  31.372  30.144  1.00  0.00     0.049 A 
ATOM     20  N   UNL A   1      39.552  32.450  32.737  1.00  0.00    -0.248 NA
ATOM     21  C   UNL A   1      37.940  34.140  32.682  1.00  0.00     0.031 C 
ATOM     22  C   UNL A   1      37.691  30.737  29.009  1.00  0.00     0.029 A 
ATOM     23  N   UNL A   1      39.400  30.534  30.438  1.00  0.00    -0.354 N 
ATOM     24  C   UNL A   1      39.643  33.230  33.884  1.00  0.00     0.074 A 
ATOM     25  C   UNL A   1      38.615  34.239  33.812  1.00  0.00     0.031 C 
ATOM     26  C   UNL A   1      38.335  29.595  28.709  1.00  0.00     0.029 A 
ATOM     27  C   UNL A   1      39.477  29.443  29.608  1.00  0.00     0.049 A 
ATOM     28  H   UNL A   1      40.033  30.698  31.174  1.00  0.00     0.167 HD
ATOM     29  C   UNL A   1      40.528  33.129  34.900  1.00  0.00     0.031 A 
ATOM     30  C   UNL A   1      40.385  28.450  29.584  1.00  0.00     0.031 A 
ATOM     31  C   UNL A   1      41.594  32.172  34.910  1.00  0.00     0.049 A 
ATOM     32  C   UNL A   1      41.479  28.472  30.621  1.00  0.00     0.074 A 
ATOM     33  C   UNL A   1      42.645  32.051  35.797  1.00  0.00     0.029 A 
ATOM     34  N   UNL A   1      41.749  31.179  33.952  1.00  0.00    -0.354 N 
ATOM     35  N   UNL A   1      41.616  29.261  31.662  1.00  0.00    -0.248 NA
ATOM     36  C   UNL A   1      42.549  27.477  30.475  1.00  0.00     0.031 C 
ATOM     37  C   UNL A   1      43.470  31.017  35.340  1.00  0.00     0.029 A 
ATOM     38  C   UNL A   1      42.897  30.456  34.207  1.00  0.00     0.049 A 
ATOM     39  H   UNL A   1      41.132  31.015  33.203  1.00  0.00     0.167 HD
ATOM     40  C   UNL A   1      42.775  28.847  32.306  1.00  0.00     0.074 A 
ATOM     41  C   UNL A   1      43.290  27.723  31.547  1.00  0.00     0.031 C 
ATOM     42  C   UNL A   1      43.367  29.344  33.421  1.00  0.00     0.031 A 
BRANCH  29  43
ATOM     43  C   UNL A   1      40.431  34.174  35.973  1.00  0.00    -0.014 A 
ATOM     44  C   UNL A   1      39.569  34.029  37.071  1.00  0.00     0.009 A 
ATOM     45  C   UNL A   1      41.145  35.373  35.821  1.00  0.00     0.009 A 
ATOM     46  C   UNL A   1      39.392  35.084  37.971  1.00  0.00     0.001 A 
ATOM     47  C   UNL A   1      40.983  36.415  36.734  1.00  0.00     0.001 A 
ATOM     48  C   UNL A   1      40.096  36.275  37.800  1.00  0.00     0.000 A 
ENDBRANCH  29  43
BRANCH  30  49
ATOM     49  C   UNL A   1      40.348  27.404  28.525  1.00  0.00    -0.014 A 
ATOM     50  C   UNL A   1      40.990  27.589  27.291  1.00  0.00     0.009 A 
ATOM     51  C   UNL A   1      39.620  26.218  28.730  1.00  0.00     0.009 A 
ATOM     52  C   UNL A   1      40.883  26.625  26.282  1.00  0.00     0.001 A 
ATOM     53  C   UNL A   1      39.538  25.245  27.733  1.00  0.00     0.001 A 
ATOM     54  C   UNL A   1      40.161  25.453  26.505  1.00  0.00     0.000 A 
ENDBRANCH  30  49
BRANCH  42  55
ATOM     55  C   UNL A   1      44.611  28.653  33.895  1.00  0.00    -0.014 A 
ATOM     56  C   UNL A   1      45.879  29.045  33.442  1.00  0.00     0.009 A 
ATOM     57  C   UNL A   1      44.508  27.635  34.856  1.00  0.00     0.009 A 
ATOM     58  C   UNL A   1      47.023  28.406  33.923  1.00  0.00     0.001 A 
ATOM     59  C   UNL A   1      45.655  27.020  35.355  1.00  0.00     0.001 A 
ATOM     60  C   UNL A   1      46.909  27.400  34.881  1.00  0.00     0.000 A 
ENDBRANCH  42  55
ENDBRANCH  16  17
ENDBRANCH   9  11
ENDBRANCH   8   9
ENDBRANCH   7   8
ENDBRANCH   6   7
ENDBRANCH   5   6
ENDBRANCH   4   5
ENDBRANCH   3   4
ENDBRANCH   2   3
ENDBRANCH   1   2
BRANCH   1  61
ATOM     61  C   UNL A   1      34.228  26.162  24.684  1.00  0.00     0.188 C 
BRANCH  61  62
ATOM     62  O   UNL A   1      35.021  25.001  24.902  1.00  0.00    -0.376 OA
BRANCH  62  63
ATOM     63  C   UNL A   1      35.573  24.333  23.766  1.00  0.00     0.202 C 
BRANCH  63  64
ATOM     64  C   UNL A   1      36.589  23.226  24.064  1.00  0.00     0.261 C 
BRANCH  64  65
ATOM     65  O   UNL A   1      35.940  21.950  23.883  1.00  0.00    -0.462 OA
BRANCH  65  66
ATOM     66  C   UNL A   1      35.820  21.133  24.939  1.00  0.00     0.328 C 
ATOM     67  O   UNL A   1      36.776  20.727  25.593  1.00  0.00    -0.250 OA
BRANCH  66  68
ATOM     68  C   UNL A   1      34.352  20.886  25.369  1.00  0.00     0.195 C 
ATOM     69  C   UNL A   1      33.657  22.231  24.932  1.00  0.00     0.046 C 
ATOM     70  N   UNL A   1      33.333  19.889  24.945  1.00  0.00    -0.328 N 
ATOM     71  C   UNL A   1      32.141  22.027  25.067  1.00  0.00     0.001 C 
ATOM     72  C   UNL A   1      32.005  20.502  25.041  1.00  0.00     0.128 C 
ATOM     73  C   UNL A   1      31.283  22.611  23.910  1.00  0.00     0.071 C 
ATOM     74  C   UNL A   1      31.650  22.631  26.399  1.00  0.00     0.071 C 
ATOM     75  C   UNL A   1      31.139  24.130  23.924  1.00  0.00     0.271 C 
ATOM     76  C   UNL A   1      31.593  24.160  26.346  1.00  0.00     0.271 C 
ATOM     77  N   UNL A   1      30.745  24.608  25.247  1.00  0.00    -0.267 N 
ATOM     78  H   UNL A   1      30.110  24.066  25.767  1.00  0.00     0.357 HD
BRANCH  70  79
ATOM     79  C   UNL A   1      33.247  18.486  24.934  1.00  0.00     0.226 C 
ATOM     80  O   UNL A   1      32.220  17.970  25.394  1.00  0.00    -0.275 OA
BRANCH  79  81
ATOM     81  C   UNL A   1      34.186  17.472  24.393  1.00  0.00     0.079 C 
ATOM     82  C   UNL A   1      34.123  15.998  24.203  1.00  0.00     0.014 C 
ATOM     83  C   UNL A   1      34.088  16.905  23.008  1.00  0.00     0.014 C 
ENDBRANCH  79  81
ENDBRANCH  70  79
BRANCH  77  84
ATOM     84  C   UNL A   1      29.812  25.610  25.512  1.00  0.00     0.344 C 
ATOM     85  O   UNL A   1      29.050  25.576  26.478  1.00  0.00    -0.226 OA
BRANCH  84  86
ATOM     86  C   UNL A   1      29.675  26.772  24.607  1.00  0.00     0.083 A 
ATOM     87  C   UNL A   1      30.798  27.496  24.188  1.00  0.00     0.018 A 
ATOM     88  C   UNL A   1      28.422  27.031  24.041  1.00  0.00     0.064 A 
ATOM     89  C   UNL A   1      30.656  28.501  23.227  1.00  0.00     0.005 A 
ATOM     90  C   UNL A   1      28.296  28.029  23.083  1.00  0.00     0.116 A 
ATOM     91  C   UNL A   1      29.401  28.770  22.672  1.00  0.00     0.046 A 
BRANCH  90  92
ATOM     92  O   UNL A   1      27.061  28.242  22.547  1.00  0.00    -0.508 OA
ATOM     93  H   UNL A   1      26.972  28.441  21.636  1.00  0.00     0.293 HD
ENDBRANCH  90  92
ENDBRANCH  84  86
ENDBRANCH  77  84
ENDBRANCH  66  68
ENDBRANCH  65  66
ENDBRANCH  64  65
ENDBRANCH  63  64
ENDBRANCH  62  63
ENDBRANCH  61  62
ENDBRANCH   1  61
TORSDOF 25
ENDMDL
MODEL 2
REMARK VINA RESULT:      -9.8      5.065     10.468
REMARK SMILES O=C(OCCOCCOCCOCCOC(=O)[C@H]1CC2(CC[NH+](C(=O)c3cccc(O)c3)CC2)CN1C(=O)C1CC1)c1ccc(-c2c3nc(c(-c4ccccc4)c4ccc([nH]4)c(-c4ccccc4)c4nc(c(-c5ccccc5)c5ccc2[nH]5)C=C4)C=C3)cc1
REMARK SMILES IDX 10 1 9 2 8 3 7 4 6 5 5 6 4 7 3 8 2 9 1 10 42 11 43 12 89 13
REMARK SMILES IDX 44 14 88 15 45 16 46 17 47 18 82 19 48 20 87 21 81 22 83 23
REMARK SMILES IDX 49 24 86 25 80 26 79 27 50 29 72 30 57 31 71 32 58 33 61 34
REMARK SMILES IDX 70 35 84 36 59 37 60 38 69 40 85 41 62 42 51 43 52 44 56 45
REMARK SMILES IDX 53 46 55 47 54 48 73 49 74 50 78 51 75 52 77 53 76 54 63 55
REMARK SMILES IDX 64 56 68 57 65 58 67 59 66 60 11 61 12 62 13 63 14 64 15 65
REMARK SMILES IDX 16 66 17 67 18 68 19 69 36 70 20 71 35 72 21 73 34 74 22 75
REMARK SMILES IDX 33 76 23 77 37 79 38 80 39 81 40 82 41 83 24 84 25 85 26 86
REMARK SMILES IDX 27 87 32 88 28 89 30 90 29 91 31 92
REMARK H PARENT 83 28 61 39 23 78 31 93
REMARK Flexibility Score: inf
ROOT
ATOM      1  C   UNL A   1      36.367  21.922  25.163  1.00  0.00     0.188 C 
ENDROOT
BRANCH   1   2
ATOM      2  O   UNL A   1      37.744  21.768  24.882  1.00  0.00    -0.377 OA
BRANCH   2   3
ATOM      3  C   UNL A   1      38.397  20.710  25.563  1.00  0.00     0.188 C 
BRANCH   3   4
ATOM      4  C   UNL A   1      39.737  21.133  26.137  1.00  0.00     0.188 C 
BRANCH   4   5
ATOM      5  O   UNL A   1      40.402  20.135  26.924  1.00  0.00    -0.376 OA
BRANCH   5   6
ATOM      6  C   UNL A   1      41.822  20.008  26.830  1.00  0.00     0.202 C 
BRANCH   6   7
ATOM      7  C   UNL A   1      42.395  18.948  25.883  1.00  0.00     0.261 C 
BRANCH   7   8
ATOM      8  O   UNL A   1      43.787  19.127  25.604  1.00  0.00    -0.460 OA
BRANCH   8   9
ATOM      9  C   UNL A   1      44.174  19.983  24.619  1.00  0.00     0.338 C 
ATOM     10  O   UNL A   1      44.457  19.575  23.497  1.00  0.00    -0.246 OA
BRANCH   9  11
ATOM     11  C   UNL A   1      44.568  21.360  25.045  1.00  0.00     0.060 A 
ATOM     12  C   UNL A   1      45.190  21.632  26.264  1.00  0.00     0.016 A 
ATOM     13  C   UNL A   1      44.327  22.426  24.162  1.00  0.00     0.016 A 
ATOM     14  C   UNL A   1      45.670  22.894  26.561  1.00  0.00     0.010 A 
ATOM     15  C   UNL A   1      44.704  23.731  24.506  1.00  0.00     0.010 A 
ATOM     16  C   UNL A   1      45.365  23.959  25.718  1.00  0.00    -0.014 A 
BRANCH  16  17
ATOM     17  C   UNL A   1      45.432  25.279  26.367  1.00  0.00     0.031 A 
ATOM     18  C   UNL A   1      46.753  25.991  26.266  1.00  0.00     0.074 A 
ATOM     19  C   UNL A   1      44.314  25.911  26.759  1.00  0.00     0.049 A 
ATOM     20  N   UNL A   1      47.059  27.226  26.548  1.00  0.00    -0.248 NA
ATOM     21  C   UNL A   1      47.870  25.210  25.692  1.00  0.00     0.031 C 
ATOM     22  C   UNL A   1      42.961  25.361  26.696  1.00  0.00     0.029 A 
ATOM     23  N   UNL A   1      44.141  27.185  27.231  1.00  0.00    -0.354 N 
ATOM     24  C   UNL A   1      48.390  27.370  26.178  1.00  0.00     0.074 A 
ATOM     25  C   UNL A   1      48.835  26.109  25.636  1.00  0.00     0.031 C 
ATOM     26  C   UNL A   1      42.089  26.302  27.103  1.00  0.00     0.029 A 
ATOM     27  C   UNL A   1      42.830  27.501  27.487  1.00  0.00     0.049 A 
ATOM     28  H   UNL A   1      44.886  27.813  27.373  1.00  0.00     0.167 HD
ATOM     29  C   UNL A   1      49.184  28.455  26.304  1.00  0.00     0.031 A 
ATOM     30  C   UNL A   1      42.307  28.636  27.990  1.00  0.00     0.031 A 
ATOM     31  C   UNL A   1      48.747  29.671  26.924  1.00  0.00     0.049 A 
ATOM     32  C   UNL A   1      43.252  29.767  28.301  1.00  0.00     0.074 A 
ATOM     33  C   UNL A   1      49.481  30.794  27.249  1.00  0.00     0.029 A 
ATOM     34  N   UNL A   1      47.441  29.901  27.336  1.00  0.00    -0.354 N 
ATOM     35  N   UNL A   1      44.533  29.875  28.028  1.00  0.00    -0.248 NA
ATOM     36  C   UNL A   1      42.686  30.929  29.000  1.00  0.00     0.031 C 
ATOM     37  C   UNL A   1      48.627  31.682  27.913  1.00  0.00     0.029 A 
ATOM     38  C   UNL A   1      47.351  31.138  27.942  1.00  0.00     0.049 A 
ATOM     39  H   UNL A   1      46.692  29.274  27.214  1.00  0.00     0.167 HD
ATOM     40  C   UNL A   1      44.921  31.121  28.503  1.00  0.00     0.074 A 
ATOM     41  C   UNL A   1      43.734  31.739  29.064  1.00  0.00     0.031 C 
ATOM     42  C   UNL A   1      46.144  31.708  28.484  1.00  0.00     0.031 A 
BRANCH  29  43
ATOM     43  C   UNL A   1      50.617  28.285  25.888  1.00  0.00    -0.014 A 
ATOM     44  C   UNL A   1      51.005  28.326  24.539  1.00  0.00     0.009 A 
ATOM     45  C   UNL A   1      51.576  27.974  26.864  1.00  0.00     0.009 A 
ATOM     46  C   UNL A   1      52.317  28.014  24.175  1.00  0.00     0.001 A 
ATOM     47  C   UNL A   1      52.892  27.687  26.498  1.00  0.00     0.001 A 
ATOM     48  C   UNL A   1      53.258  27.693  25.153  1.00  0.00     0.000 A 
ENDBRANCH  29  43
BRANCH  30  49
ATOM     49  C   UNL A   1      40.853  28.740  28.291  1.00  0.00    -0.014 A 
ATOM     50  C   UNL A   1      40.323  28.286  29.509  1.00  0.00     0.009 A 
ATOM     51  C   UNL A   1      39.969  29.260  27.329  1.00  0.00     0.009 A 
ATOM     52  C   UNL A   1      38.944  28.327  29.744  1.00  0.00     0.001 A 
ATOM     53  C   UNL A   1      38.597  29.327  27.577  1.00  0.00     0.001 A 
ATOM     54  C   UNL A   1      38.083  28.850  28.780  1.00  0.00     0.000 A 
ENDBRANCH  30  49
BRANCH  42  55
ATOM     55  C   UNL A   1      46.243  33.092  29.054  1.00  0.00    -0.014 A 
ATOM     56  C   UNL A   1      46.576  33.303  30.400  1.00  0.00     0.009 A 
ATOM     57  C   UNL A   1      46.056  34.198  28.211  1.00  0.00     0.009 A 
ATOM     58  C   UNL A   1      46.691  34.602  30.898  1.00  0.00     0.001 A 
ATOM     59  C   UNL A   1      46.201  35.493  28.705  1.00  0.00     0.001 A 
ATOM     60  C   UNL A   1      46.509  35.693  30.049  1.00  0.00     0.000 A 
ENDBRANCH  42  55
ENDBRANCH  16  17
ENDBRANCH   9  11
ENDBRANCH   8   9
ENDBRANCH   7   8
ENDBRANCH   6   7
ENDBRANCH   5   6
ENDBRANCH   4   5
ENDBRANCH   3   4
ENDBRANCH   2   3
ENDBRANCH   1   2
BRANCH   1  61
ATOM     61  C   UNL A   1      35.958  23.164  25.971  1.00  0.00     0.188 C 
BRANCH  61  62
ATOM     62  O   UNL A   1      34.677  23.198  26.590  1.00  0.00    -0.376 OA
BRANCH  62  63
ATOM     63  C   UNL A   1      33.727  22.192  26.237  1.00  0.00     0.202 C 
BRANCH  63  64
ATOM     64  C   UNL A   1      32.254  22.613  26.280  1.00  0.00     0.261 C 
BRANCH  64  65
ATOM     65  O   UNL A   1      32.172  23.929  26.865  1.00  0.00    -0.462 OA
BRANCH  65  66
ATOM     66  C   UNL A   1      31.238  24.778  26.413  1.00  0.00     0.328 C 
ATOM     67  O   UNL A   1      30.073  24.770  26.799  1.00  0.00    -0.250 OA
BRANCH  66  68
ATOM     68  C   UNL A   1      31.802  25.886  25.489  1.00  0.00     0.195 C 
ATOM     69  C   UNL A   1      32.293  26.959  26.533  1.00  0.00     0.046 C 
ATOM     70  N   UNL A   1      32.923  25.907  24.511  1.00  0.00    -0.328 N 
ATOM     71  C   UNL A   1      33.110  28.006  25.762  1.00  0.00     0.001 C 
ATOM     72  C   UNL A   1      33.504  27.254  24.489  1.00  0.00     0.128 C 
ATOM     73  C   UNL A   1      34.411  28.487  26.464  1.00  0.00     0.071 C 
ATOM     74  C   UNL A   1      32.229  29.236  25.461  1.00  0.00     0.071 C 
ATOM     75  C   UNL A   1      34.191  29.436  27.639  1.00  0.00     0.271 C 
ATOM     76  C   UNL A   1      32.009  30.100  26.706  1.00  0.00     0.271 C 
ATOM     77  N   UNL A   1      33.285  30.522  27.275  1.00  0.00    -0.267 N 
ATOM     78  H   UNL A   1      33.349  30.896  26.367  1.00  0.00     0.357 HD
BRANCH  70  79
ATOM     79  C   UNL A   1      33.253  25.191  23.347  1.00  0.00     0.226 C 
ATOM     80  O   UNL A   1      34.205  24.403  23.408  1.00  0.00    -0.275 OA
BRANCH  79  81
ATOM     81  C   UNL A   1      32.596  25.170  22.017  1.00  0.00     0.079 C 
ATOM     82  C   UNL A   1      31.498  25.954  21.390  1.00  0.00     0.014 C 
ATOM     83  C   UNL A   1      32.911  26.141  20.919  1.00  0.00     0.014 C 
ENDBRANCH  79  81
ENDBRANCH  70  79
BRANCH  77  84
ATOM     84  C   UNL A   1      33.426  31.863  27.631  1.00  0.00     0.344 C 
ATOM     85  O   UNL A   1      32.613  32.729  27.312  1.00  0.00    -0.226 OA
BRANCH  84  86
ATOM     86  C   UNL A   1      34.604  32.317  28.403  1.00  0.00     0.083 A 
ATOM     87  C   UNL A   1      35.902  31.983  28.001  1.00  0.00     0.018 A 
ATOM     88  C   UNL A   1      34.404  33.229  29.445  1.00  0.00     0.064 A 
ATOM     89  C   UNL A   1      36.999  32.538  28.667  1.00  0.00     0.005 A 
ATOM     90  C   UNL A   1      35.503  33.777  30.096  1.00  0.00     0.116 A 
ATOM     91  C   UNL A   1      36.800  33.437  29.719  1.00  0.00     0.046 A 
BRANCH  90  92
ATOM     92  O   UNL A   1      35.267  34.670  31.098  1.00  0.00    -0.508 OA
ATOM     93  H   UNL A   1      34.786  35.455  30.923  1.00  0.00     0.293 HD
ENDBRANCH  90  92
ENDBRANCH  84  86
ENDBRANCH  77  84
ENDBRANCH  66  68
ENDBRANCH  65  66
ENDBRANCH  64  65
ENDBRANCH  63  64
ENDBRANCH  62  63
ENDBRANCH  61  62
ENDBRANCH   1  61
TORSDOF 25
ENDMDL
MODEL 3
REMARK VINA RESULT:      -9.8      1.026      5.547
REMARK SMILES O=C(OCCOCCOCCOCCOC(=O)[C@H]1CC2(CC[NH+](C(=O)c3cccc(O)c3)CC2)CN1C(=O)C1CC1)c1ccc(-c2c3nc(c(-c4ccccc4)c4ccc([nH]4)c(-c4ccccc4)c4nc(c(-c5ccccc5)c5ccc2[nH]5)C=C4)C=C3)cc1
REMARK SMILES IDX 10 1 9 2 8 3 7 4 6 5 5 6 4 7 3 8 2 9 1 10 42 11 43 12 89 13
REMARK SMILES IDX 44 14 88 15 45 16 46 17 47 18 82 19 48 20 87 21 81 22 83 23
REMARK SMILES IDX 49 24 86 25 80 26 79 27 50 29 72 30 57 31 71 32 58 33 61 34
REMARK SMILES IDX 70 35 84 36 59 37 60 38 69 40 85 41 62 42 51 43 52 44 56 45
REMARK SMILES IDX 53 46 55 47 54 48 73 49 74 50 78 51 75 52 77 53 76 54 63 55
REMARK SMILES IDX 64 56 68 57 65 58 67 59 66 60 11 61 12 62 13 63 14 64 15 65
REMARK SMILES IDX 16 66 17 67 18 68 19 69 36 70 20 71 35 72 21 73 34 74 22 75
REMARK SMILES IDX 33 76 23 77 37 79 38 80 39 81 40 82 41 83 24 84 25 85 26 86
REMARK SMILES IDX 27 87 32 88 28 89 30 90 29 91 31 92
REMARK H PARENT 83 28 61 39 23 78 31 93
REMARK Flexibility Score: inf
ROOT
ATOM      1  C   UNL A   1      33.409  27.309  25.463  1.00  0.00     0.188 C 
ENDROOT
BRANCH   1   2
ATOM      2  O   UNL A   1      34.199  28.299  26.090  1.00  0.00    -0.377 OA
BRANCH   2   3
ATOM      3  C   UNL A   1      33.675  28.834  27.293  1.00  0.00     0.188 C 
BRANCH   3   4
ATOM      4  C   UNL A   1      32.181  29.091  27.208  1.00  0.00     0.188 C 
BRANCH   4   5
ATOM      5  O   UNL A   1      31.817  30.415  26.789  1.00  0.00    -0.376 OA
BRANCH   5   6
ATOM      6  C   UNL A   1      32.783  31.462  26.878  1.00  0.00     0.202 C 
BRANCH   6   7
ATOM      7  C   UNL A   1      32.300  32.866  27.262  1.00  0.00     0.261 C 
BRANCH   7   8
ATOM      8  O   UNL A   1      33.367  33.779  27.539  1.00  0.00    -0.460 OA
BRANCH   8   9
ATOM      9  C   UNL A   1      33.414  34.418  28.739  1.00  0.00     0.338 C 
ATOM     10  O   UNL A   1      32.845  35.491  28.911  1.00  0.00    -0.246 OA
BRANCH   9  11
ATOM     11  C   UNL A   1      34.451  33.948  29.707  1.00  0.00     0.060 A 
ATOM     12  C   UNL A   1      35.813  34.208  29.552  1.00  0.00     0.016 A 
ATOM     13  C   UNL A   1      34.029  33.235  30.841  1.00  0.00     0.016 A 
ATOM     14  C   UNL A   1      36.724  33.884  30.539  1.00  0.00     0.010 A 
ATOM     15  C   UNL A   1      34.961  32.797  31.792  1.00  0.00     0.010 A 
ATOM     16  C   UNL A   1      36.314  33.115  31.624  1.00  0.00    -0.014 A 
BRANCH  16  17
ATOM     17  C   UNL A   1      37.405  32.385  32.292  1.00  0.00     0.031 A 
ATOM     18  C   UNL A   1      38.110  31.354  31.453  1.00  0.00     0.074 A 
ATOM     19  C   UNL A   1      37.911  32.818  33.458  1.00  0.00     0.049 A 
ATOM     20  N   UNL A   1      39.219  30.709  31.684  1.00  0.00    -0.248 NA
ATOM     21  C   UNL A   1      37.511  31.070  30.132  1.00  0.00     0.031 C 
ATOM     22  C   UNL A   1      37.407  33.949  34.234  1.00  0.00     0.029 A 
ATOM     23  N   UNL A   1      39.007  32.388  34.156  1.00  0.00    -0.354 N 
ATOM     24  C   UNL A   1      39.452  29.957  30.538  1.00  0.00     0.074 A 
ATOM     25  C   UNL A   1      38.386  30.233  29.606  1.00  0.00     0.031 C 
ATOM     26  C   UNL A   1      38.204  34.134  35.303  1.00  0.00     0.029 A 
ATOM     27  C   UNL A   1      39.248  33.112  35.298  1.00  0.00     0.049 A 
ATOM     28  H   UNL A   1      39.568  31.632  33.868  1.00  0.00     0.167 HD
ATOM     29  C   UNL A   1      40.457  29.087  30.295  1.00  0.00     0.031 A 
ATOM     30  C   UNL A   1      40.204  32.942  36.231  1.00  0.00     0.031 A 
ATOM     31  C   UNL A   1      41.458  28.763  31.267  1.00  0.00     0.049 A 
ATOM     32  C   UNL A   1      41.202  31.832  36.023  1.00  0.00     0.074 A 
ATOM     33  C   UNL A   1      42.445  27.800  31.211  1.00  0.00     0.029 A 
ATOM     34  N   UNL A   1      41.573  29.397  32.497  1.00  0.00    -0.354 N 
ATOM     35  N   UNL A   1      41.373  31.061  34.974  1.00  0.00    -0.248 NA
ATOM     36  C   UNL A   1      42.129  31.560  37.128  1.00  0.00     0.031 C 
ATOM     37  C   UNL A   1      43.121  27.812  32.436  1.00  0.00     0.029 A 
ATOM     38  C   UNL A   1      42.596  28.826  33.226  1.00  0.00     0.049 A 
ATOM     39  H   UNL A   1      41.008  30.143  32.803  1.00  0.00     0.167 HD
ATOM     40  C   UNL A   1      42.439  30.226  35.283  1.00  0.00     0.074 A 
ATOM     41  C   UNL A   1      42.885  30.601  36.612  1.00  0.00     0.031 C 
ATOM     42  C   UNL A   1      43.003  29.237  34.546  1.00  0.00     0.031 A 
BRANCH  29  43
ATOM     43  C   UNL A   1      40.400  28.353  28.987  1.00  0.00    -0.014 A 
ATOM     44  C   UNL A   1      39.774  27.102  28.868  1.00  0.00     0.009 A 
ATOM     45  C   UNL A   1      41.077  28.884  27.878  1.00  0.00     0.009 A 
ATOM     46  C   UNL A   1      39.868  26.378  27.676  1.00  0.00     0.001 A 
ATOM     47  C   UNL A   1      41.150  28.168  26.683  1.00  0.00     0.001 A 
ATOM     48  C   UNL A   1      40.557  26.910  26.587  1.00  0.00     0.000 A 
ENDBRANCH  29  43
BRANCH  30  49
ATOM     49  C   UNL A   1      40.229  33.781  37.461  1.00  0.00    -0.014 A 
ATOM     50  C   UNL A   1      41.063  34.906  37.562  1.00  0.00     0.009 A 
ATOM     51  C   UNL A   1      39.442  33.430  38.572  1.00  0.00     0.009 A 
ATOM     52  C   UNL A   1      41.126  35.640  38.752  1.00  0.00     0.001 A 
ATOM     53  C   UNL A   1      39.485  34.181  39.748  1.00  0.00     0.001 A 
ATOM     54  C   UNL A   1      40.335  35.280  39.842  1.00  0.00     0.000 A 
ENDBRANCH  30  49
BRANCH  42  55
ATOM     55  C   UNL A   1      44.176  28.523  35.148  1.00  0.00    -0.014 A 
ATOM     56  C   UNL A   1      44.004  27.378  35.941  1.00  0.00     0.009 A 
ATOM     57  C   UNL A   1      45.475  28.975  34.866  1.00  0.00     0.009 A 
ATOM     58  C   UNL A   1      45.115  26.716  36.465  1.00  0.00     0.001 A 
ATOM     59  C   UNL A   1      46.582  28.293  35.367  1.00  0.00     0.001 A 
ATOM     60  C   UNL A   1      46.401  27.171  36.173  1.00  0.00     0.000 A 
ENDBRANCH  42  55
ENDBRANCH  16  17
ENDBRANCH   9  11
ENDBRANCH   8   9
ENDBRANCH   7   8
ENDBRANCH   6   7
ENDBRANCH   5   6
ENDBRANCH   4   5
ENDBRANCH   3   4
ENDBRANCH   2   3
ENDBRANCH   1   2
BRANCH   1  61
ATOM     61  C   UNL A   1      34.104  26.423  24.417  1.00  0.00     0.188 C 
BRANCH  61  62
ATOM     62  O   UNL A   1      34.769  25.239  24.841  1.00  0.00    -0.376 OA
BRANCH  62  63
ATOM     63  C   UNL A   1      35.240  24.331  23.844  1.00  0.00     0.202 C 
BRANCH  63  64
ATOM     64  C   UNL A   1      36.356  23.374  24.279  1.00  0.00     0.261 C 
BRANCH  64  65
ATOM     65  O   UNL A   1      35.993  22.037  23.877  1.00  0.00    -0.462 OA
BRANCH  65  66
ATOM     66  C   UNL A   1      35.879  21.090  24.819  1.00  0.00     0.328 C 
ATOM     67  O   UNL A   1      36.842  20.571  25.377  1.00  0.00    -0.250 OA
BRANCH  66  68
ATOM     68  C   UNL A   1      34.419  20.834  25.268  1.00  0.00     0.195 C 
ATOM     69  C   UNL A   1      33.713  22.181  24.855  1.00  0.00     0.046 C 
ATOM     70  N   UNL A   1      33.397  19.838  24.849  1.00  0.00    -0.328 N 
ATOM     71  C   UNL A   1      32.199  21.970  25.011  1.00  0.00     0.001 C 
ATOM     72  C   UNL A   1      32.068  20.445  24.971  1.00  0.00     0.128 C 
ATOM     73  C   UNL A   1      31.322  22.562  23.872  1.00  0.00     0.071 C 
ATOM     74  C   UNL A   1      31.726  22.559  26.355  1.00  0.00     0.071 C 
ATOM     75  C   UNL A   1      31.174  24.081  23.903  1.00  0.00     0.271 C 
ATOM     76  C   UNL A   1      31.663  24.088  26.318  1.00  0.00     0.271 C 
ATOM     77  N   UNL A   1      30.798  24.545  25.236  1.00  0.00    -0.267 N 
ATOM     78  H   UNL A   1      30.172  23.995  25.760  1.00  0.00     0.357 HD
BRANCH  70  79
ATOM     79  C   UNL A   1      33.315  18.434  24.825  1.00  0.00     0.226 C 
ATOM     80  O   UNL A   1      32.221  17.918  25.087  1.00  0.00    -0.275 OA
BRANCH  79  81
ATOM     81  C   UNL A   1      34.339  17.421  24.470  1.00  0.00     0.079 C 
ATOM     82  C   UNL A   1      34.408  15.938  24.569  1.00  0.00     0.014 C 
ATOM     83  C   UNL A   1      34.288  16.590  23.222  1.00  0.00     0.014 C 
ENDBRANCH  79  81
ENDBRANCH  70  79
BRANCH  77  84
ATOM     84  C   UNL A   1      29.865  25.540  25.525  1.00  0.00     0.344 C 
ATOM     85  O   UNL A   1      29.170  25.531  26.540  1.00  0.00    -0.226 OA
BRANCH  84  86
ATOM     86  C   UNL A   1      29.646  26.663  24.587  1.00  0.00     0.083 A 
ATOM     87  C   UNL A   1      28.446  26.786  23.877  1.00  0.00     0.018 A 
ATOM     88  C   UNL A   1      30.592  27.693  24.551  1.00  0.00     0.064 A 
ATOM     89  C   UNL A   1      28.211  27.927  23.104  1.00  0.00     0.005 A 
ATOM     90  C   UNL A   1      30.344  28.825  23.783  1.00  0.00     0.116 A 
ATOM     91  C   UNL A   1      29.163  28.950  23.055  1.00  0.00     0.046 A 
BRANCH  90  92
ATOM     92  O   UNL A   1      31.284  29.811  23.783  1.00  0.00    -0.508 OA
ATOM     93  H   UNL A   1      32.048  29.731  23.246  1.00  0.00     0.293 HD
ENDBRANCH  90  92
ENDBRANCH  84  86
ENDBRANCH  77  84
ENDBRANCH  66  68
ENDBRANCH  65  66
ENDBRANCH  64  65
ENDBRANCH  63  64
ENDBRANCH  62  63
ENDBRANCH  61  62
ENDBRANCH   1  61
TORSDOF 25
ENDMDL
