MODEL 1
REMARK VINA RESULT:     -10.1      0.000      0.000
REMARK SMILES Cc1cn(C)c(CC(=O)NCC[NH+]2CCC(C)CC2)c1C(=O)OCCOCCOCCOCCOC(=O)c1ccc(-c2c3nc(c(-c4ccccc4)c4ccc([nH]4)c(-c4ccccc4)c4nc(c(-c5ccccc5)c5ccc2[nH]5)C=C4)C=C3)cc1
REMARK SMILES IDX 27 1 26 2 25 3 24 4 23 5 21 6 22 7 20 8 1 9 2 10 3 11 4 12
REMARK SMILES IDX 6 13 5 14 7 15 8 16 9 17 10 18 11 20 12 21 13 22 14 23 19 24
REMARK SMILES IDX 15 26 18 27 16 28 17 29 28 30 29 31 30 32 31 33 32 34 33 35
REMARK SMILES IDX 34 36 35 37 36 38 37 39 38 40 39 41 85 42 40 43 84 44 41 45
REMARK SMILES IDX 42 46 43 47 78 48 44 49 83 50 77 51 79 52 45 53 82 54 76 55
REMARK SMILES IDX 75 56 46 58 68 59 53 60 67 61 54 62 57 63 66 64 80 65 55 66
REMARK SMILES IDX 56 67 65 69 81 70 58 71 47 72 48 73 52 74 49 75 51 76 50 77
REMARK SMILES IDX 69 78 70 79 74 80 71 81 73 82 72 83 59 84 60 85 64 86 61 87
REMARK SMILES IDX 63 88 62 89
REMARK H PARENT 10 19 13 25 79 57 57 68
REMARK Flexibility Score: inf
ROOT
ATOM      1  C   UNL A   1      33.810  32.708  28.012  1.00  0.00     0.188 C 
ENDROOT
BRANCH   1   2
ATOM      2  O   UNL A   1      34.966  31.973  27.634  1.00  0.00    -0.376 OA
BRANCH   2   3
ATOM      3  C   UNL A   1      34.929  30.558  27.617  1.00  0.00     0.202 C 
BRANCH   3   4
ATOM      4  C   UNL A   1      33.710  29.848  27.007  1.00  0.00     0.261 C 
BRANCH   4   5
ATOM      5  O   UNL A   1      33.464  28.511  27.466  1.00  0.00    -0.460 OA
BRANCH   5   6
ATOM      6  C   UNL A   1      32.247  27.981  27.152  1.00  0.00     0.340 C 
ATOM      7  O   UNL A   1      31.263  28.033  27.887  1.00  0.00    -0.246 OA
BRANCH   6   8
ATOM      8  C   UNL A   1      32.185  27.429  25.789  1.00  0.00     0.084 A 
ATOM      9  C   UNL A   1      30.820  29.247  24.445  1.00  0.00     0.047 C 
ATOM     10  C   UNL A   1      31.616  27.997  24.595  1.00  0.00    -0.019 A 
ATOM     11  C   UNL A   1      31.998  27.177  23.551  1.00  0.00     0.089 A 
ATOM     12  N   UNL A   1      32.721  26.135  24.057  1.00  0.00    -0.353 N 
ATOM     13  C   UNL A   1      32.629  26.146  25.429  1.00  0.00     0.041 A 
ATOM     14  C   UNL A   1      33.467  25.194  23.246  1.00  0.00     0.149 C 
BRANCH  13  15
ATOM     15  C   UNL A   1      33.014  24.975  26.304  1.00  0.00     0.154 C 
BRANCH  15  16
ATOM     16  C   UNL A   1      31.841  24.086  26.731  1.00  0.00     0.226 C 
ATOM     17  O   UNL A   1      30.679  24.482  26.593  1.00  0.00    -0.275 OA
ATOM     18  N   UNL A   1      32.018  22.837  27.257  1.00  0.00    -0.350 N 
ATOM     19  H   UNL A   1      31.187  22.347  27.450  1.00  0.00     0.163 HD
BRANCH  18  20
ATOM     20  C   UNL A   1      33.238  22.118  27.579  1.00  0.00     0.177 C 
BRANCH  20  21
ATOM     21  C   UNL A   1      33.430  20.839  26.737  1.00  0.00     0.283 C 
BRANCH  21  22
ATOM     22  N   UNL A   1      33.623  21.071  25.285  1.00  0.00    -0.333 N 
ATOM     23  C   UNL A   1      32.530  20.471  24.499  1.00  0.00     0.262 C 
ATOM     24  C   UNL A   1      34.904  20.551  24.768  1.00  0.00     0.262 C 
ATOM     25  H   UNL A   1      33.628  22.085  25.178  1.00  0.00     0.348 HD
ATOM     26  C   UNL A   1      32.506  18.943  24.560  1.00  0.00     0.065 C 
ATOM     27  C   UNL A   1      35.023  19.019  24.793  1.00  0.00     0.065 C 
ATOM     28  C   UNL A   1      33.835  18.340  24.096  1.00  0.00    -0.003 C 
ATOM     29  C   UNL A   1      33.837  16.831  24.328  1.00  0.00     0.008 C 
ENDBRANCH  21  22
ENDBRANCH  20  21
ENDBRANCH  18  20
ENDBRANCH  15  16
ENDBRANCH  13  15
ENDBRANCH   6   8
ENDBRANCH   5   6
ENDBRANCH   4   5
ENDBRANCH   3   4
ENDBRANCH   2   3
ENDBRANCH   1   2
BRANCH   1  30
ATOM     30  C   UNL A   1      33.807  34.254  28.075  1.00  0.00     0.188 C 
BRANCH  30  31
ATOM     31  O   UNL A   1      32.682  34.835  28.709  1.00  0.00    -0.377 OA
BRANCH  31  32
ATOM     32  C   UNL A   1      32.885  36.136  29.249  1.00  0.00     0.188 C 
BRANCH  32  33
ATOM     33  C   UNL A   1      33.127  36.268  30.769  1.00  0.00     0.188 C 
BRANCH  33  34
ATOM     34  O   UNL A   1      32.871  35.085  31.517  1.00  0.00    -0.376 OA
BRANCH  34  35
ATOM     35  C   UNL A   1      33.894  34.537  32.333  1.00  0.00     0.202 C 
BRANCH  35  36
ATOM     36  C   UNL A   1      35.097  34.089  31.515  1.00  0.00     0.261 C 
BRANCH  36  37
ATOM     37  O   UNL A   1      35.070  32.710  31.176  1.00  0.00    -0.460 OA
BRANCH  37  38
ATOM     38  C   UNL A   1      35.919  31.934  31.866  1.00  0.00     0.338 C 
ATOM     39  O   UNL A   1      36.078  31.907  33.085  1.00  0.00    -0.246 OA
BRANCH  38  40
ATOM     40  C   UNL A   1      36.778  31.223  30.925  1.00  0.00     0.060 A 
ATOM     41  C   UNL A   1      36.482  29.874  30.770  1.00  0.00     0.016 A 
ATOM     42  C   UNL A   1      38.012  31.773  30.541  1.00  0.00     0.016 A 
ATOM     43  C   UNL A   1      37.533  29.024  30.559  1.00  0.00     0.010 A 
ATOM     44  C   UNL A   1      39.060  30.919  30.318  1.00  0.00     0.010 A 
ATOM     45  C   UNL A   1      38.823  29.561  30.458  1.00  0.00    -0.014 A 
BRANCH  45  46
ATOM     46  C   UNL A   1      39.907  28.616  30.411  1.00  0.00     0.031 A 
ATOM     47  C   UNL A   1      40.587  28.506  31.704  1.00  0.00     0.074 A 
ATOM     48  C   UNL A   1      40.276  27.944  29.310  1.00  0.00     0.049 A 
ATOM     49  N   UNL A   1      41.698  29.064  32.038  1.00  0.00    -0.248 NA
ATOM     50  C   UNL A   1      39.836  27.892  32.807  1.00  0.00     0.031 C 
ATOM     51  C   UNL A   1      39.522  27.738  28.072  1.00  0.00     0.029 A 
ATOM     52  N   UNL A   1      41.409  27.218  29.121  1.00  0.00    -0.354 N 
ATOM     53  C   UNL A   1      41.895  28.697  33.358  1.00  0.00     0.074 A 
ATOM     54  C   UNL A   1      40.645  28.160  33.831  1.00  0.00     0.031 C 
ATOM     55  C   UNL A   1      40.124  26.761  27.353  1.00  0.00     0.029 A 
ATOM     56  C   UNL A   1      41.373  26.401  28.007  1.00  0.00     0.049 A 
ATOM     57  H   UNL A   1      42.186  27.269  29.723  1.00  0.00     0.167 HD
ATOM     58  C   UNL A   1      43.152  28.569  33.854  1.00  0.00     0.031 A 
ATOM     59  C   UNL A   1      42.282  25.450  27.696  1.00  0.00     0.031 A 
ATOM     60  C   UNL A   1      44.132  29.193  33.003  1.00  0.00     0.049 A 
ATOM     61  C   UNL A   1      43.548  25.772  28.394  1.00  0.00     0.074 A 
ATOM     62  C   UNL A   1      44.502  30.481  32.687  1.00  0.00     0.029 A 
ATOM     63  N   UNL A   1      44.649  28.370  32.035  1.00  0.00    -0.354 N 
ATOM     64  N   UNL A   1      44.273  26.818  28.113  1.00  0.00    -0.248 NA
ATOM     65  C   UNL A   1      43.867  25.124  29.660  1.00  0.00     0.031 C 
ATOM     66  C   UNL A   1      45.055  30.419  31.372  1.00  0.00     0.029 A 
ATOM     67  C   UNL A   1      45.017  29.096  30.933  1.00  0.00     0.049 A 
ATOM     68  H   UNL A   1      44.743  27.394  32.120  1.00  0.00     0.167 HD
ATOM     69  C   UNL A   1      44.825  27.201  29.323  1.00  0.00     0.074 A 
ATOM     70  C   UNL A   1      44.688  26.037  30.186  1.00  0.00     0.031 C 
ATOM     71  C   UNL A   1      45.063  28.516  29.603  1.00  0.00     0.031 A 
BRANCH  58  72
ATOM     72  C   UNL A   1      43.528  27.443  34.783  1.00  0.00    -0.014 A 
ATOM     73  C   UNL A   1      43.537  26.135  34.275  1.00  0.00     0.009 A 
ATOM     74  C   UNL A   1      43.569  27.582  36.186  1.00  0.00     0.009 A 
ATOM     75  C   UNL A   1      43.530  25.027  35.130  1.00  0.00     0.001 A 
ATOM     76  C   UNL A   1      43.602  26.480  37.040  1.00  0.00     0.001 A 
ATOM     77  C   UNL A   1      43.556  25.201  36.512  1.00  0.00     0.000 A 
ENDBRANCH  58  72
BRANCH  59  78
ATOM     78  C   UNL A   1      42.023  24.139  27.072  1.00  0.00    -0.014 A 
ATOM     79  C   UNL A   1      42.689  23.747  25.904  1.00  0.00     0.009 A 
ATOM     80  C   UNL A   1      41.303  23.159  27.782  1.00  0.00     0.009 A 
ATOM     81  C   UNL A   1      42.663  22.413  25.479  1.00  0.00     0.001 A 
ATOM     82  C   UNL A   1      41.276  21.828  27.359  1.00  0.00     0.001 A 
ATOM     83  C   UNL A   1      41.970  21.452  26.214  1.00  0.00     0.000 A 
ENDBRANCH  59  78
BRANCH  71  84
ATOM     84  C   UNL A   1      45.167  29.462  28.438  1.00  0.00    -0.014 A 
ATOM     85  C   UNL A   1      44.093  30.244  27.979  1.00  0.00     0.009 A 
ATOM     86  C   UNL A   1      46.424  29.633  27.839  1.00  0.00     0.009 A 
ATOM     87  C   UNL A   1      44.271  31.148  26.927  1.00  0.00     0.001 A 
ATOM     88  C   UNL A   1      46.605  30.552  26.804  1.00  0.00     0.001 A 
ATOM     89  C   UNL A   1      45.529  31.304  26.343  1.00  0.00     0.000 A 
ENDBRANCH  71  84
ENDBRANCH  45  46
ENDBRANCH  38  40
ENDBRANCH  37  38
ENDBRANCH  36  37
ENDBRANCH  35  36
ENDBRANCH  34  35
ENDBRANCH  33  34
ENDBRANCH  32  33
ENDBRANCH  31  32
ENDBRANCH  30  31
ENDBRANCH   1  30
TORSDOF 25
ENDMDL
MODEL 2
REMARK VINA RESULT:      -9.6      2.051      2.904
REMARK SMILES Cc1cn(C)c(CC(=O)NCC[NH+]2CCC(C)CC2)c1C(=O)OCCOCCOCCOCCOC(=O)c1ccc(-c2c3nc(c(-c4ccccc4)c4ccc([nH]4)c(-c4ccccc4)c4nc(c(-c5ccccc5)c5ccc2[nH]5)C=C4)C=C3)cc1
REMARK SMILES IDX 27 1 26 2 25 3 24 4 23 5 21 6 22 7 20 8 1 9 2 10 3 11 4 12
REMARK SMILES IDX 6 13 5 14 7 15 8 16 9 17 10 18 11 20 12 21 13 22 14 23 19 24
REMARK SMILES IDX 15 26 18 27 16 28 17 29 28 30 29 31 30 32 31 33 32 34 33 35
REMARK SMILES IDX 34 36 35 37 36 38 37 39 38 40 39 41 85 42 40 43 84 44 41 45
REMARK SMILES IDX 42 46 43 47 78 48 44 49 83 50 77 51 79 52 45 53 82 54 76 55
REMARK SMILES IDX 75 56 46 58 68 59 53 60 67 61 54 62 57 63 66 64 80 65 55 66
REMARK SMILES IDX 56 67 65 69 81 70 58 71 47 72 48 73 52 74 49 75 51 76 50 77
REMARK SMILES IDX 69 78 70 79 74 80 71 81 73 82 72 83 59 84 60 85 64 86 61 87
REMARK SMILES IDX 63 88 62 89
REMARK H PARENT 10 19 13 25 79 57 57 68
REMARK Flexibility Score: inf
ROOT
ATOM      1  C   UNL A   1      35.113  32.227  27.640  1.00  0.00     0.188 C 
ENDROOT
BRANCH   1   2
ATOM      2  O   UNL A   1      34.614  30.902  27.537  1.00  0.00    -0.376 OA
BRANCH   2   3
ATOM      3  C   UNL A   1      33.260  30.682  27.186  1.00  0.00     0.202 C 
BRANCH   3   4
ATOM      4  C   UNL A   1      32.912  29.527  26.234  1.00  0.00     0.261 C 
BRANCH   4   5
ATOM      5  O   UNL A   1      31.526  29.160  26.168  1.00  0.00    -0.460 OA
BRANCH   5   6
ATOM      6  C   UNL A   1      31.262  27.843  25.933  1.00  0.00     0.340 C 
ATOM      7  O   UNL A   1      30.977  27.030  26.812  1.00  0.00    -0.246 OA
BRANCH   6   8
ATOM      8  C   UNL A   1      31.241  27.497  24.503  1.00  0.00     0.084 A 
ATOM      9  C   UNL A   1      29.597  29.279  23.458  1.00  0.00     0.047 C 
ATOM     10  C   UNL A   1      30.566  28.149  23.413  1.00  0.00    -0.019 A 
ATOM     11  C   UNL A   1      31.031  27.558  22.253  1.00  0.00     0.089 A 
ATOM     12  N   UNL A   1      31.909  26.567  22.592  1.00  0.00    -0.353 N 
ATOM     13  C   UNL A   1      31.854  26.360  23.950  1.00  0.00     0.041 A 
ATOM     14  C   UNL A   1      32.758  25.875  21.644  1.00  0.00     0.149 C 
BRANCH  13  15
ATOM     15  C   UNL A   1      32.424  25.139  24.636  1.00  0.00     0.154 C 
BRANCH  15  16
ATOM     16  C   UNL A   1      33.905  25.255  25.015  1.00  0.00     0.226 C 
ATOM     17  O   UNL A   1      34.283  26.149  25.777  1.00  0.00    -0.275 OA
ATOM     18  N   UNL A   1      34.853  24.387  24.550  1.00  0.00    -0.350 N 
ATOM     19  H   UNL A   1      35.760  24.538  24.900  1.00  0.00     0.163 HD
BRANCH  18  20
ATOM     20  C   UNL A   1      34.735  23.277  23.621  1.00  0.00     0.177 C 
BRANCH  20  21
ATOM     21  C   UNL A   1      34.665  21.903  24.320  1.00  0.00     0.283 C 
BRANCH  21  22
ATOM     22  N   UNL A   1      33.369  21.602  24.974  1.00  0.00    -0.333 N 
ATOM     23  C   UNL A   1      33.435  20.337  25.730  1.00  0.00     0.262 C 
ATOM     24  C   UNL A   1      32.236  21.519  24.033  1.00  0.00     0.262 C 
ATOM     25  H   UNL A   1      33.201  22.387  25.603  1.00  0.00     0.348 HD
ATOM     26  C   UNL A   1      33.618  19.106  24.840  1.00  0.00     0.065 C 
ATOM     27  C   UNL A   1      32.306  20.332  23.059  1.00  0.00     0.065 C 
ATOM     28  C   UNL A   1      32.505  18.998  23.793  1.00  0.00    -0.003 C 
ATOM     29  C   UNL A   1      32.808  17.862  22.820  1.00  0.00     0.008 C 
ENDBRANCH  21  22
ENDBRANCH  20  21
ENDBRANCH  18  20
ENDBRANCH  15  16
ENDBRANCH  13  15
ENDBRANCH   6   8
ENDBRANCH   5   6
ENDBRANCH   4   5
ENDBRANCH   3   4
ENDBRANCH   2   3
ENDBRANCH   1   2
BRANCH   1  30
ATOM     30  C   UNL A   1      34.334  33.342  28.376  1.00  0.00     0.188 C 
BRANCH  30  31
ATOM     31  O   UNL A   1      34.444  34.637  27.813  1.00  0.00    -0.377 OA
BRANCH  31  32
ATOM     32  C   UNL A   1      33.943  35.700  28.614  1.00  0.00     0.188 C 
BRANCH  32  33
ATOM     33  C   UNL A   1      32.932  35.361  29.732  1.00  0.00     0.188 C 
BRANCH  33  34
ATOM     34  O   UNL A   1      32.652  36.431  30.626  1.00  0.00    -0.376 OA
BRANCH  34  35
ATOM     35  C   UNL A   1      32.673  36.199  32.026  1.00  0.00     0.202 C 
BRANCH  35  36
ATOM     36  C   UNL A   1      34.062  36.395  32.616  1.00  0.00     0.261 C 
BRANCH  36  37
ATOM     37  O   UNL A   1      34.453  35.356  33.503  1.00  0.00    -0.460 OA
BRANCH  37  38
ATOM     38  C   UNL A   1      34.188  34.111  33.079  1.00  0.00     0.338 C 
ATOM     39  O   UNL A   1      33.324  33.348  33.507  1.00  0.00    -0.246 OA
BRANCH  38  40
ATOM     40  C   UNL A   1      35.214  33.711  32.122  1.00  0.00     0.060 A 
ATOM     41  C   UNL A   1      34.979  32.496  31.490  1.00  0.00     0.016 A 
ATOM     42  C   UNL A   1      36.483  34.312  32.154  1.00  0.00     0.016 A 
ATOM     43  C   UNL A   1      36.070  31.722  31.200  1.00  0.00     0.010 A 
ATOM     44  C   UNL A   1      37.573  33.539  31.850  1.00  0.00     0.010 A 
ATOM     45  C   UNL A   1      37.346  32.217  31.501  1.00  0.00    -0.014 A 
BRANCH  45  46
ATOM     46  C   UNL A   1      38.442  31.300  31.338  1.00  0.00     0.031 A 
ATOM     47  C   UNL A   1      39.128  31.045  32.606  1.00  0.00     0.074 A 
ATOM     48  C   UNL A   1      38.815  30.770  30.163  1.00  0.00     0.049 A 
ATOM     49  N   UNL A   1      40.233  31.575  33.003  1.00  0.00    -0.248 NA
ATOM     50  C   UNL A   1      38.391  30.292  33.629  1.00  0.00     0.031 C 
ATOM     51  C   UNL A   1      38.059  30.705  28.911  1.00  0.00     0.029 A 
ATOM     52  N   UNL A   1      39.958  30.089  29.885  1.00  0.00    -0.354 N 
ATOM     53  C   UNL A   1      40.441  31.054  34.268  1.00  0.00     0.074 A 
ATOM     54  C   UNL A   1      39.200  30.446  34.677  1.00  0.00     0.031 C 
ATOM     55  C   UNL A   1      38.671  29.830  28.078  1.00  0.00     0.029 A 
ATOM     56  C   UNL A   1      39.928  29.411  28.681  1.00  0.00     0.049 A 
ATOM     57  H   UNL A   1      40.737  30.079  30.487  1.00  0.00     0.167 HD
ATOM     58  C   UNL A   1      41.701  30.885  34.742  1.00  0.00     0.031 A 
ATOM     59  C   UNL A   1      40.849  28.517  28.256  1.00  0.00     0.031 A 
ATOM     60  C   UNL A   1      42.669  31.621  33.970  1.00  0.00     0.049 A 
ATOM     61  C   UNL A   1      42.113  28.772  28.984  1.00  0.00     0.074 A 
ATOM     62  C   UNL A   1      43.020  32.943  33.811  1.00  0.00     0.029 A 
ATOM     63  N   UNL A   1      43.194  30.927  32.909  1.00  0.00    -0.354 N 
ATOM     64  N   UNL A   1      42.822  29.854  28.830  1.00  0.00    -0.248 NA
ATOM     65  C   UNL A   1      42.446  27.980  30.163  1.00  0.00     0.031 C 
ATOM     66  C   UNL A   1      43.569  33.047  32.497  1.00  0.00     0.029 A 
ATOM     67  C   UNL A   1      43.547  31.786  31.901  1.00  0.00     0.049 A 
ATOM     68  H   UNL A   1      43.301  29.950  32.875  1.00  0.00     0.167 HD
ATOM     69  C   UNL A   1      43.375  30.096  30.075  1.00  0.00     0.074 A 
ATOM     70  C   UNL A   1      43.257  28.835  30.793  1.00  0.00     0.031 C 
ATOM     71  C   UNL A   1      43.596  31.371  30.511  1.00  0.00     0.031 A 
BRANCH  58  72
ATOM     72  C   UNL A   1      42.096  29.661  35.528  1.00  0.00    -0.014 A 
ATOM     73  C   UNL A   1      43.092  29.791  36.507  1.00  0.00     0.009 A 
ATOM     74  C   UNL A   1      41.755  28.349  35.136  1.00  0.00     0.009 A 
ATOM     75  C   UNL A   1      43.749  28.669  37.024  1.00  0.00     0.001 A 
ATOM     76  C   UNL A   1      42.380  27.226  35.678  1.00  0.00     0.001 A 
ATOM     77  C   UNL A   1      43.398  27.388  36.604  1.00  0.00     0.000 A 
ENDBRANCH  58  72
BRANCH  59  78
ATOM     78  C   UNL A   1      40.605  27.288  27.479  1.00  0.00    -0.014 A 
ATOM     79  C   UNL A   1      41.382  26.973  26.356  1.00  0.00     0.009 A 
ATOM     80  C   UNL A   1      39.768  26.285  28.005  1.00  0.00     0.009 A 
ATOM     81  C   UNL A   1      41.346  25.688  25.800  1.00  0.00     0.001 A 
ATOM     82  C   UNL A   1      39.731  25.004  27.451  1.00  0.00     0.001 A 
ATOM     83  C   UNL A   1      40.532  24.701  26.355  1.00  0.00     0.000 A 
ENDBRANCH  59  78
BRANCH  71  84
ATOM     84  C   UNL A   1      43.681  32.452  29.469  1.00  0.00    -0.014 A 
ATOM     85  C   UNL A   1      42.730  33.478  29.339  1.00  0.00     0.009 A 
ATOM     86  C   UNL A   1      44.816  32.481  28.643  1.00  0.00     0.009 A 
ATOM     87  C   UNL A   1      42.899  34.487  28.385  1.00  0.00     0.001 A 
ATOM     88  C   UNL A   1      44.994  33.502  27.707  1.00  0.00     0.001 A 
ATOM     89  C   UNL A   1      44.034  34.500  27.573  1.00  0.00     0.000 A 
ENDBRANCH  71  84
ENDBRANCH  45  46
ENDBRANCH  38  40
ENDBRANCH  37  38
ENDBRANCH  36  37
ENDBRANCH  35  36
ENDBRANCH  34  35
ENDBRANCH  33  34
ENDBRANCH  32  33
ENDBRANCH  31  32
ENDBRANCH  30  31
ENDBRANCH   1  30
TORSDOF 25
ENDMDL
MODEL 3
REMARK VINA RESULT:      -9.0      1.699      2.451
REMARK SMILES Cc1cn(C)c(CC(=O)NCC[NH+]2CCC(C)CC2)c1C(=O)OCCOCCOCCOCCOC(=O)c1ccc(-c2c3nc(c(-c4ccccc4)c4ccc([nH]4)c(-c4ccccc4)c4nc(c(-c5ccccc5)c5ccc2[nH]5)C=C4)C=C3)cc1
REMARK SMILES IDX 27 1 26 2 25 3 24 4 23 5 21 6 22 7 20 8 1 9 2 10 3 11 4 12
REMARK SMILES IDX 6 13 5 14 7 15 8 16 9 17 10 18 11 20 12 21 13 22 14 23 19 24
REMARK SMILES IDX 15 26 18 27 16 28 17 29 28 30 29 31 30 32 31 33 32 34 33 35
REMARK SMILES IDX 34 36 35 37 36 38 37 39 38 40 39 41 85 42 40 43 84 44 41 45
REMARK SMILES IDX 42 46 43 47 78 48 44 49 83 50 77 51 79 52 45 53 82 54 76 55
REMARK SMILES IDX 75 56 46 58 68 59 53 60 67 61 54 62 57 63 66 64 80 65 55 66
REMARK SMILES IDX 56 67 65 69 81 70 58 71 47 72 48 73 52 74 49 75 51 76 50 77
REMARK SMILES IDX 69 78 70 79 74 80 71 81 73 82 72 83 59 84 60 85 64 86 61 87
REMARK SMILES IDX 63 88 62 89
REMARK H PARENT 10 19 13 25 79 57 57 68
REMARK Flexibility Score: inf
ROOT
ATOM      1  C   UNL A   1      33.347  33.886  28.126  1.00  0.00     0.188 C 
ENDROOT
BRANCH   1   2
ATOM      2  O   UNL A   1      32.015  33.769  27.647  1.00  0.00    -0.376 OA
BRANCH   2   3
ATOM      3  C   UNL A   1      31.728  32.911  26.558  1.00  0.00     0.202 C 
BRANCH   3   4
ATOM      4  C   UNL A   1      31.769  31.390  26.772  1.00  0.00     0.261 C 
BRANCH   4   5
ATOM      5  O   UNL A   1      31.200  30.590  25.725  1.00  0.00    -0.460 OA
BRANCH   5   6
ATOM      6  C   UNL A   1      32.078  29.857  24.982  1.00  0.00     0.340 C 
ATOM      7  O   UNL A   1      33.300  29.919  25.101  1.00  0.00    -0.246 OA
BRANCH   6   8
ATOM      8  C   UNL A   1      31.421  28.892  24.086  1.00  0.00     0.084 A 
ATOM      9  C   UNL A   1      29.756  30.384  22.680  1.00  0.00     0.047 C 
ATOM     10  C   UNL A   1      30.453  29.119  23.046  1.00  0.00    -0.019 A 
ATOM     11  C   UNL A   1      30.312  27.921  22.372  1.00  0.00     0.089 A 
ATOM     12  N   UNL A   1      31.104  26.986  22.976  1.00  0.00    -0.353 N 
ATOM     13  C   UNL A   1      31.587  27.499  24.158  1.00  0.00     0.041 A 
ATOM     14  C   UNL A   1      31.382  25.677  22.423  1.00  0.00     0.149 C 
BRANCH  13  15
ATOM     15  C   UNL A   1      32.215  26.655  25.243  1.00  0.00     0.154 C 
BRANCH  15  16
ATOM     16  C   UNL A   1      31.269  26.288  26.392  1.00  0.00     0.226 C 
ATOM     17  O   UNL A   1      31.003  27.118  27.267  1.00  0.00    -0.275 OA
ATOM     18  N   UNL A   1      30.678  25.060  26.495  1.00  0.00    -0.350 N 
ATOM     19  H   UNL A   1      30.057  24.962  27.251  1.00  0.00     0.163 HD
BRANCH  18  20
ATOM     20  C   UNL A   1      30.820  23.877  25.665  1.00  0.00     0.177 C 
BRANCH  20  21
ATOM     21  C   UNL A   1      31.598  22.738  26.358  1.00  0.00     0.283 C 
BRANCH  21  22
ATOM     22  N   UNL A   1      32.790  23.174  27.126  1.00  0.00    -0.333 N 
ATOM     23  C   UNL A   1      33.804  23.775  26.240  1.00  0.00     0.262 C 
ATOM     24  C   UNL A   1      33.429  22.087  27.892  1.00  0.00     0.262 C 
ATOM     25  H   UNL A   1      32.438  23.864  27.789  1.00  0.00     0.348 HD
ATOM     26  C   UNL A   1      34.424  22.775  25.262  1.00  0.00     0.065 C 
ATOM     27  C   UNL A   1      34.078  20.996  27.025  1.00  0.00     0.065 C 
ATOM     28  C   UNL A   1      35.051  21.585  25.994  1.00  0.00    -0.003 C 
ATOM     29  C   UNL A   1      35.508  20.532  24.989  1.00  0.00     0.008 C 
ENDBRANCH  21  22
ENDBRANCH  20  21
ENDBRANCH  18  20
ENDBRANCH  15  16
ENDBRANCH  13  15
ENDBRANCH   6   8
ENDBRANCH   5   6
ENDBRANCH   4   5
ENDBRANCH   3   4
ENDBRANCH   2   3
ENDBRANCH   1   2
BRANCH   1  30
ATOM     30  C   UNL A   1      33.865  35.178  28.799  1.00  0.00     0.188 C 
BRANCH  30  31
ATOM     31  O   UNL A   1      32.866  36.089  29.221  1.00  0.00    -0.377 OA
BRANCH  31  32
ATOM     32  C   UNL A   1      32.889  36.430  30.602  1.00  0.00     0.188 C 
BRANCH  32  33
ATOM     33  C   UNL A   1      33.485  35.410  31.598  1.00  0.00     0.188 C 
BRANCH  33  34
ATOM     34  O   UNL A   1      34.473  35.941  32.473  1.00  0.00    -0.376 OA
BRANCH  34  35
ATOM     35  C   UNL A   1      34.797  35.246  33.667  1.00  0.00     0.202 C 
BRANCH  35  36
ATOM     36  C   UNL A   1      35.257  33.821  33.390  1.00  0.00     0.261 C 
BRANCH  36  37
ATOM     37  O   UNL A   1      36.664  33.699  33.237  1.00  0.00    -0.460 OA
BRANCH  37  38
ATOM     38  C   UNL A   1      37.066  33.000  32.165  1.00  0.00     0.338 C 
ATOM     39  O   UNL A   1      36.654  33.106  31.012  1.00  0.00    -0.246 OA
BRANCH  38  40
ATOM     40  C   UNL A   1      37.970  31.943  32.603  1.00  0.00     0.060 A 
ATOM     41  C   UNL A   1      39.305  32.142  32.270  1.00  0.00     0.016 A 
ATOM     42  C   UNL A   1      37.463  30.684  32.964  1.00  0.00     0.016 A 
ATOM     43  C   UNL A   1      40.043  31.032  31.961  1.00  0.00     0.010 A 
ATOM     44  C   UNL A   1      38.210  29.575  32.665  1.00  0.00     0.010 A 
ATOM     45  C   UNL A   1      39.436  29.773  32.050  1.00  0.00    -0.014 A 
BRANCH  45  46
ATOM     46  C   UNL A   1      40.197  28.659  31.551  1.00  0.00     0.031 A 
ATOM     47  C   UNL A   1      41.102  28.121  32.569  1.00  0.00     0.074 A 
ATOM     48  C   UNL A   1      40.118  28.191  30.296  1.00  0.00     0.049 A 
ATOM     49  N   UNL A   1      42.366  28.347  32.671  1.00  0.00    -0.248 NA
ATOM     50  C   UNL A   1      40.491  27.444  33.720  1.00  0.00     0.031 C 
ATOM     51  C   UNL A   1      39.074  28.431  29.298  1.00  0.00     0.029 A 
ATOM     52  N   UNL A   1      40.950  27.307  29.685  1.00  0.00    -0.354 N 
ATOM     53  C   UNL A   1      42.758  27.658  33.806  1.00  0.00     0.074 A 
ATOM     54  C   UNL A   1      41.553  27.300  34.512  1.00  0.00     0.031 C 
ATOM     55  C   UNL A   1      39.221  27.538  28.291  1.00  0.00     0.029 A 
ATOM     56  C   UNL A   1      40.450  26.788  28.506  1.00  0.00     0.049 A 
ATOM     57  H   UNL A   1      41.830  27.059  30.049  1.00  0.00     0.167 HD
ATOM     58  C   UNL A   1      44.017  27.163  33.908  1.00  0.00     0.031 A 
ATOM     59  C   UNL A   1      40.985  25.764  27.805  1.00  0.00     0.031 A 
ATOM     60  C   UNL A   1      44.904  27.747  32.934  1.00  0.00     0.049 A 
ATOM     61  C   UNL A   1      42.416  25.651  28.169  1.00  0.00     0.074 A 
ATOM     62  C   UNL A   1      45.513  28.967  32.744  1.00  0.00     0.029 A 
ATOM     63  N   UNL A   1      44.955  27.074  31.739  1.00  0.00    -0.354 N 
ATOM     64  N   UNL A   1      43.303  26.560  27.875  1.00  0.00    -0.248 NA
ATOM     65  C   UNL A   1      42.837  24.682  29.174  1.00  0.00     0.031 C 
ATOM     66  C   UNL A   1      45.715  29.089  31.337  1.00  0.00     0.029 A 
ATOM     67  C   UNL A   1      45.236  27.937  30.713  1.00  0.00     0.049 A 
ATOM     68  H   UNL A   1      44.810  26.106  31.634  1.00  0.00     0.167 HD
ATOM     69  C   UNL A   1      44.198  26.536  28.930  1.00  0.00     0.074 A 
ATOM     70  C   UNL A   1      43.965  25.262  29.595  1.00  0.00     0.031 C 
ATOM     71  C   UNL A   1      44.825  27.675  29.346  1.00  0.00     0.031 A 
BRANCH  58  72
ATOM     72  C   UNL A   1      44.291  25.804  34.499  1.00  0.00    -0.014 A 
ATOM     73  C   UNL A   1      45.235  25.705  35.531  1.00  0.00     0.009 A 
ATOM     74  C   UNL A   1      43.892  24.600  33.882  1.00  0.00     0.009 A 
ATOM     75  C   UNL A   1      45.792  24.471  35.886  1.00  0.00     0.001 A 
ATOM     76  C   UNL A   1      44.416  23.364  34.259  1.00  0.00     0.001 A 
ATOM     77  C   UNL A   1      45.387  23.302  35.245  1.00  0.00     0.000 A 
ENDBRANCH  58  72
BRANCH  59  78
ATOM     78  C   UNL A   1      40.260  24.712  27.069  1.00  0.00    -0.014 A 
ATOM     79  C   UNL A   1      40.820  23.441  26.881  1.00  0.00     0.009 A 
ATOM     80  C   UNL A   1      38.893  24.881  26.778  1.00  0.00     0.009 A 
ATOM     81  C   UNL A   1      40.029  22.369  26.447  1.00  0.00     0.001 A 
ATOM     82  C   UNL A   1      38.104  23.813  26.344  1.00  0.00     0.001 A 
ATOM     83  C   UNL A   1      38.671  22.552  26.192  1.00  0.00     0.000 A 
ENDBRANCH  59  78
BRANCH  71  84
ATOM     84  C   UNL A   1      44.901  28.817  28.370  1.00  0.00    -0.014 A 
ATOM     85  C   UNL A   1      45.945  28.974  27.443  1.00  0.00     0.009 A 
ATOM     86  C   UNL A   1      43.828  29.721  28.330  1.00  0.00     0.009 A 
ATOM     87  C   UNL A   1      45.926  30.027  26.522  1.00  0.00     0.001 A 
ATOM     88  C   UNL A   1      43.800  30.758  27.396  1.00  0.00     0.001 A 
ATOM     89  C   UNL A   1      44.851  30.916  26.497  1.00  0.00     0.000 A 
ENDBRANCH  71  84
ENDBRANCH  45  46
ENDBRANCH  38  40
ENDBRANCH  37  38
ENDBRANCH  36  37
ENDBRANCH  35  36
ENDBRANCH  34  35
ENDBRANCH  33  34
ENDBRANCH  32  33
ENDBRANCH  31  32
ENDBRANCH  30  31
ENDBRANCH   1  30
TORSDOF 25
ENDMDL
