MODEL 1
REMARK VINA RESULT:     -10.3      0.000      0.000
REMARK SMILES Cc1cc(C)c2c(C(=O)OCCOCCOCCOCCOC(=O)c3ccc(-c4c5nc(c(-c6ccccc6)c6ccc([nH]6)c(-c6ccccc6)c6nc(c(-c7ccccc7)c7ccc4[nH]7)C=C6)C=C5)cc3)cc(-c3ccco3)nc2c1
REMARK SMILES IDX 17 1 16 2 15 3 14 4 13 5 12 6 11 7 10 8 8 9 9 10 7 11 1 12
REMARK SMILES IDX 2 13 3 14 82 15 4 16 81 17 5 18 6 19 80 20 74 21 73 22 75 23
REMARK SMILES IDX 76 24 79 25 77 26 78 27 18 28 19 29 20 30 21 31 22 32 23 33
REMARK SMILES IDX 24 34 25 35 26 36 72 37 27 38 71 39 28 40 29 41 30 42 65 43
REMARK SMILES IDX 31 44 70 45 64 46 66 47 32 48 69 49 63 50 62 51 33 53 55 54
REMARK SMILES IDX 40 55 54 56 41 57 44 58 53 59 67 60 42 61 43 62 52 64 68 65
REMARK SMILES IDX 45 66 34 67 35 68 39 69 36 70 38 71 37 72 56 73 57 74 61 75
REMARK SMILES IDX 58 76 60 77 59 78 46 79 47 80 51 81 48 82 50 83 49 84
REMARK H PARENT 66 52 44 63
REMARK Flexibility Score: inf
ROOT
ATOM      1  C   UNL A   1      34.133  21.973  26.519  1.00  0.00     0.188 C 
ENDROOT
BRANCH   1   2
ATOM      2  O   UNL A   1      33.123  21.026  26.208  1.00  0.00    -0.377 OA
BRANCH   2   3
ATOM      3  C   UNL A   1      33.371  20.239  25.051  1.00  0.00     0.188 C 
BRANCH   3   4
ATOM      4  C   UNL A   1      32.599  20.624  23.773  1.00  0.00     0.188 C 
BRANCH   4   5
ATOM      5  O   UNL A   1      31.820  21.808  23.944  1.00  0.00    -0.376 OA
BRANCH   5   6
ATOM      6  C   UNL A   1      32.106  22.915  23.103  1.00  0.00     0.202 C 
BRANCH   6   7
ATOM      7  C   UNL A   1      31.287  24.170  23.405  1.00  0.00     0.261 C 
BRANCH   7   8
ATOM      8  O   UNL A   1      31.445  25.164  22.385  1.00  0.00    -0.460 OA
BRANCH   8   9
ATOM      9  C   UNL A   1      32.503  25.987  22.425  1.00  0.00     0.338 C 
ATOM     10  O   UNL A   1      33.523  25.885  21.765  1.00  0.00    -0.246 OA
BRANCH   9  11
ATOM     11  C   UNL A   1      32.147  27.188  23.220  1.00  0.00     0.072 A 
ATOM     12  C   UNL A   1      34.777  29.679  27.716  1.00  0.00     0.044 C 
ATOM     13  C   UNL A   1      34.044  28.924  26.650  1.00  0.00    -0.049 A 
ATOM     14  C   UNL A   1      34.400  27.625  26.323  1.00  0.00     0.007 A 
ATOM     15  C   UNL A   1      33.017  29.527  25.927  1.00  0.00     0.032 A 
ATOM     16  C   UNL A   1      33.787  26.950  25.249  1.00  0.00    -0.041 A 
ATOM     17  C   UNL A   1      32.379  28.900  24.866  1.00  0.00     0.072 A 
ATOM     18  C   UNL A   1      34.167  25.499  25.107  1.00  0.00     0.045 C 
ATOM     19  C   UNL A   1      32.796  27.616  24.431  1.00  0.00     0.018 A 
ATOM     20  N   UNL A   1      31.376  29.599  24.316  1.00  0.00    -0.244 NA
ATOM     21  C   UNL A   1      30.734  29.103  23.245  1.00  0.00     0.107 A 
ATOM     22  C   UNL A   1      31.104  27.926  22.643  1.00  0.00     0.048 A 
BRANCH  21  23
ATOM     23  C   UNL A   1      29.591  29.868  22.788  1.00  0.00     0.152 A 
ATOM     24  C   UNL A   1      28.802  30.845  23.363  1.00  0.00     0.052 A 
ATOM     25  O   UNL A   1      29.141  29.587  21.531  1.00  0.00    -0.463 OA
ATOM     26  C   UNL A   1      27.816  31.180  22.401  1.00  0.00     0.043 A 
ATOM     27  C   UNL A   1      28.067  30.389  21.305  1.00  0.00     0.196 A 
ENDBRANCH  21  23
ENDBRANCH   9  11
ENDBRANCH   8   9
ENDBRANCH   7   8
ENDBRANCH   6   7
ENDBRANCH   5   6
ENDBRANCH   4   5
ENDBRANCH   3   4
ENDBRANCH   2   3
ENDBRANCH   1   2
BRANCH   1  28
ATOM     28  C   UNL A   1      35.554  21.551  26.078  1.00  0.00     0.188 C 
BRANCH  28  29
ATOM     29  O   UNL A   1      36.272  22.242  25.062  1.00  0.00    -0.376 OA
BRANCH  29  30
ATOM     30  C   UNL A   1      37.304  21.596  24.338  1.00  0.00     0.202 C 
BRANCH  30  31
ATOM     31  C   UNL A   1      38.204  20.564  25.035  1.00  0.00     0.261 C 
BRANCH  31  32
ATOM     32  O   UNL A   1      38.679  20.910  26.341  1.00  0.00    -0.460 OA
BRANCH  32  33
ATOM     33  C   UNL A   1      40.014  21.096  26.446  1.00  0.00     0.338 C 
ATOM     34  O   UNL A   1      40.906  20.363  26.057  1.00  0.00    -0.246 OA
BRANCH  33  35
ATOM     35  C   UNL A   1      40.258  22.435  27.014  1.00  0.00     0.060 A 
ATOM     36  C   UNL A   1      39.466  23.508  26.584  1.00  0.00     0.016 A 
ATOM     37  C   UNL A   1      41.297  22.634  27.925  1.00  0.00     0.016 A 
ATOM     38  C   UNL A   1      39.716  24.793  27.055  1.00  0.00     0.010 A 
ATOM     39  C   UNL A   1      41.583  23.931  28.355  1.00  0.00     0.010 A 
ATOM     40  C   UNL A   1      40.813  25.013  27.895  1.00  0.00    -0.014 A 
BRANCH  40  41
ATOM     41  C   UNL A   1      41.304  26.392  28.086  1.00  0.00     0.031 A 
ATOM     42  C   UNL A   1      42.631  26.754  27.483  1.00  0.00     0.074 A 
ATOM     43  C   UNL A   1      40.585  27.303  28.764  1.00  0.00     0.049 A 
ATOM     44  N   UNL A   1      43.299  27.873  27.570  1.00  0.00    -0.248 NA
ATOM     45  C   UNL A   1      43.290  25.719  26.666  1.00  0.00     0.031 C 
ATOM     46  C   UNL A   1      39.253  27.087  29.323  1.00  0.00     0.029 A 
ATOM     47  N   UNL A   1      40.888  28.599  29.093  1.00  0.00    -0.354 N 
ATOM     48  C   UNL A   1      44.449  27.679  26.820  1.00  0.00     0.074 A 
ATOM     49  C   UNL A   1      44.402  26.334  26.294  1.00  0.00     0.031 C 
ATOM     50  C   UNL A   1      38.856  28.212  29.942  1.00  0.00     0.029 A 
ATOM     51  C   UNL A   1      39.921  29.212  29.849  1.00  0.00     0.049 A 
ATOM     52  H   UNL A   1      41.720  29.045  28.815  1.00  0.00     0.167 HD
ATOM     53  C   UNL A   1      45.461  28.545  26.593  1.00  0.00     0.031 A 
ATOM     54  C   UNL A   1      39.910  30.432  30.417  1.00  0.00     0.031 A 
ATOM     55  C   UNL A   1      45.523  29.868  27.142  1.00  0.00     0.049 A 
ATOM     56  C   UNL A   1      41.096  31.341  30.242  1.00  0.00     0.074 A 
ATOM     57  C   UNL A   1      46.519  30.815  26.987  1.00  0.00     0.029 A 
ATOM     58  N   UNL A   1      44.552  30.427  27.956  1.00  0.00    -0.354 N 
ATOM     59  N   UNL A   1      42.191  31.140  29.550  1.00  0.00    -0.248 NA
ATOM     60  C   UNL A   1      41.049  32.641  30.930  1.00  0.00     0.031 C 
ATOM     61  C   UNL A   1      46.171  31.935  27.747  1.00  0.00     0.029 A 
ATOM     62  C   UNL A   1      44.935  31.702  28.329  1.00  0.00     0.049 A 
ATOM     63  H   UNL A   1      43.717  29.984  28.229  1.00  0.00     0.167 HD
ATOM     64  C   UNL A   1      42.953  32.293  29.697  1.00  0.00     0.074 A 
ATOM     65  C   UNL A   1      42.195  33.190  30.546  1.00  0.00     0.031 C 
ATOM     66  C   UNL A   1      44.167  32.582  29.170  1.00  0.00     0.031 A 
BRANCH  53  67
ATOM     67  C   UNL A   1      46.598  28.082  25.735  1.00  0.00    -0.014 A 
ATOM     68  C   UNL A   1      47.722  27.464  26.303  1.00  0.00     0.009 A 
ATOM     69  C   UNL A   1      46.510  28.199  24.340  1.00  0.00     0.009 A 
ATOM     70  C   UNL A   1      48.741  26.973  25.485  1.00  0.00     0.001 A 
ATOM     71  C   UNL A   1      47.522  27.690  23.525  1.00  0.00     0.001 A 
ATOM     72  C   UNL A   1      48.637  27.078  24.098  1.00  0.00     0.000 A 
ENDBRANCH  53  67
BRANCH  54  73
ATOM     73  C   UNL A   1      38.731  30.855  31.215  1.00  0.00    -0.014 A 
ATOM     74  C   UNL A   1      38.740  30.735  32.612  1.00  0.00     0.009 A 
ATOM     75  C   UNL A   1      37.609  31.417  30.586  1.00  0.00     0.009 A 
ATOM     76  C   UNL A   1      37.646  31.171  33.363  1.00  0.00     0.001 A 
ATOM     77  C   UNL A   1      36.526  31.869  31.341  1.00  0.00     0.001 A 
ATOM     78  C   UNL A   1      36.544  31.744  32.729  1.00  0.00     0.000 A 
ENDBRANCH  54  73
BRANCH  66  79
ATOM     79  C   UNL A   1      44.762  33.927  29.459  1.00  0.00    -0.014 A 
ATOM     80  C   UNL A   1      45.561  34.135  30.591  1.00  0.00     0.009 A 
ATOM     81  C   UNL A   1      44.635  34.955  28.511  1.00  0.00     0.009 A 
ATOM     82  C   UNL A   1      46.224  35.350  30.769  1.00  0.00     0.001 A 
ATOM     83  C   UNL A   1      45.316  36.161  28.681  1.00  0.00     0.001 A 
ATOM     84  C   UNL A   1      46.109  36.358  29.811  1.00  0.00     0.000 A 
ENDBRANCH  66  79
ENDBRANCH  40  41
ENDBRANCH  33  35
ENDBRANCH  32  33
ENDBRANCH  31  32
ENDBRANCH  30  31
ENDBRANCH  29  30
ENDBRANCH  28  29
ENDBRANCH   1  28
TORSDOF 21
ENDMDL
MODEL 2
REMARK VINA RESULT:     -10.1      2.475      3.286
REMARK SMILES Cc1cc(C)c2c(C(=O)OCCOCCOCCOCCOC(=O)c3ccc(-c4c5nc(c(-c6ccccc6)c6ccc([nH]6)c(-c6ccccc6)c6nc(c(-c7ccccc7)c7ccc4[nH]7)C=C6)C=C5)cc3)cc(-c3ccco3)nc2c1
REMARK SMILES IDX 17 1 16 2 15 3 14 4 13 5 12 6 11 7 10 8 8 9 9 10 7 11 1 12
REMARK SMILES IDX 2 13 3 14 82 15 4 16 81 17 5 18 6 19 80 20 74 21 73 22 75 23
REMARK SMILES IDX 76 24 79 25 77 26 78 27 18 28 19 29 20 30 21 31 22 32 23 33
REMARK SMILES IDX 24 34 25 35 26 36 72 37 27 38 71 39 28 40 29 41 30 42 65 43
REMARK SMILES IDX 31 44 70 45 64 46 66 47 32 48 69 49 63 50 62 51 33 53 55 54
REMARK SMILES IDX 40 55 54 56 41 57 44 58 53 59 67 60 42 61 43 62 52 64 68 65
REMARK SMILES IDX 45 66 34 67 35 68 39 69 36 70 38 71 37 72 56 73 57 74 61 75
REMARK SMILES IDX 58 76 60 77 59 78 46 79 47 80 51 81 48 82 50 83 49 84
REMARK H PARENT 66 52 44 63
REMARK Flexibility Score: inf
ROOT
ATOM      1  C   UNL A   1      33.718  21.204  25.964  1.00  0.00     0.188 C 
ENDROOT
BRANCH   1   2
ATOM      2  O   UNL A   1      32.462  20.807  25.435  1.00  0.00    -0.377 OA
BRANCH   2   3
ATOM      3  C   UNL A   1      32.529  19.994  24.272  1.00  0.00     0.188 C 
BRANCH   3   4
ATOM      4  C   UNL A   1      32.236  20.684  22.925  1.00  0.00     0.188 C 
BRANCH   4   5
ATOM      5  O   UNL A   1      31.486  21.889  23.084  1.00  0.00    -0.376 OA
BRANCH   5   6
ATOM      6  C   UNL A   1      32.137  23.115  22.792  1.00  0.00     0.202 C 
BRANCH   6   7
ATOM      7  C   UNL A   1      31.346  24.364  23.183  1.00  0.00     0.261 C 
BRANCH   7   8
ATOM      8  O   UNL A   1      31.499  25.412  22.218  1.00  0.00    -0.460 OA
BRANCH   8   9
ATOM      9  C   UNL A   1      32.519  26.274  22.337  1.00  0.00     0.338 C 
ATOM     10  O   UNL A   1      33.554  26.262  21.692  1.00  0.00    -0.246 OA
BRANCH   9  11
ATOM     11  C   UNL A   1      32.098  27.400  23.206  1.00  0.00     0.072 A 
ATOM     12  C   UNL A   1      34.573  29.714  27.882  1.00  0.00     0.044 C 
ATOM     13  C   UNL A   1      33.885  28.996  26.761  1.00  0.00    -0.049 A 
ATOM     14  C   UNL A   1      34.309  27.741  26.352  1.00  0.00     0.007 A 
ATOM     15  C   UNL A   1      32.833  29.593  26.070  1.00  0.00     0.032 A 
ATOM     16  C   UNL A   1      33.737  27.109  25.230  1.00  0.00    -0.041 A 
ATOM     17  C   UNL A   1      32.234  29.007  24.965  1.00  0.00     0.072 A 
ATOM     18  C   UNL A   1      34.191  25.692  24.995  1.00  0.00     0.045 C 
ATOM     19  C   UNL A   1      32.717  27.778  24.449  1.00  0.00     0.018 A 
ATOM     20  N   UNL A   1      31.200  29.691  24.453  1.00  0.00    -0.244 NA
ATOM     21  C   UNL A   1      30.590  29.235  23.346  1.00  0.00     0.107 A 
ATOM     22  C   UNL A   1      31.023  28.122  22.670  1.00  0.00     0.048 A 
BRANCH  21  23
ATOM     23  C   UNL A   1      29.413  29.971  22.930  1.00  0.00     0.152 A 
ATOM     24  C   UNL A   1      28.563  29.883  21.845  1.00  0.00     0.052 A 
ATOM     25  O   UNL A   1      29.028  31.000  23.739  1.00  0.00    -0.463 OA
ATOM     26  C   UNL A   1      27.605  30.915  22.002  1.00  0.00     0.043 A 
ATOM     27  C   UNL A   1      27.930  31.564  23.169  1.00  0.00     0.196 A 
ENDBRANCH  21  23
ENDBRANCH   9  11
ENDBRANCH   8   9
ENDBRANCH   7   8
ENDBRANCH   6   7
ENDBRANCH   5   6
ENDBRANCH   4   5
ENDBRANCH   3   4
ENDBRANCH   2   3
ENDBRANCH   1   2
BRANCH   1  28
ATOM     28  C   UNL A   1      34.924  20.854  25.063  1.00  0.00     0.188 C 
BRANCH  28  29
ATOM     29  O   UNL A   1      35.396  21.733  24.048  1.00  0.00    -0.376 OA
BRANCH  29  30
ATOM     30  C   UNL A   1      36.623  22.424  24.201  1.00  0.00     0.202 C 
BRANCH  30  31
ATOM     31  C   UNL A   1      37.183  22.696  25.606  1.00  0.00     0.261 C 
BRANCH  31  32
ATOM     32  O   UNL A   1      38.169  23.729  25.711  1.00  0.00    -0.460 OA
BRANCH  32  33
ATOM     33  C   UNL A   1      39.345  23.359  26.267  1.00  0.00     0.338 C 
ATOM     34  O   UNL A   1      39.898  22.275  26.199  1.00  0.00    -0.246 OA
BRANCH  33  35
ATOM     35  C   UNL A   1      39.959  24.542  26.897  1.00  0.00     0.060 A 
ATOM     36  C   UNL A   1      40.000  24.620  28.295  1.00  0.00     0.016 A 
ATOM     37  C   UNL A   1      40.441  25.589  26.110  1.00  0.00     0.016 A 
ATOM     38  C   UNL A   1      40.515  25.753  28.917  1.00  0.00     0.010 A 
ATOM     39  C   UNL A   1      40.907  26.748  26.732  1.00  0.00     0.010 A 
ATOM     40  C   UNL A   1      40.913  26.842  28.134  1.00  0.00    -0.014 A 
BRANCH  40  41
ATOM     41  C   UNL A   1      41.095  28.159  28.777  1.00  0.00     0.031 A 
ATOM     42  C   UNL A   1      42.445  28.477  29.353  1.00  0.00     0.074 A 
ATOM     43  C   UNL A   1      40.094  29.053  28.835  1.00  0.00     0.049 A 
ATOM     44  N   UNL A   1      42.829  29.532  30.021  1.00  0.00    -0.248 NA
ATOM     45  C   UNL A   1      43.507  27.476  29.142  1.00  0.00     0.031 C 
ATOM     46  C   UNL A   1      38.770  28.884  28.242  1.00  0.00     0.029 A 
ATOM     47  N   UNL A   1      40.047  30.288  29.429  1.00  0.00    -0.354 N 
ATOM     48  C   UNL A   1      44.171  29.324  30.305  1.00  0.00     0.074 A 
ATOM     49  C   UNL A   1      44.538  28.040  29.753  1.00  0.00     0.031 C 
ATOM     50  C   UNL A   1      38.032  29.974  28.515  1.00  0.00     0.029 A 
ATOM     51  C   UNL A   1      38.823  30.898  29.328  1.00  0.00     0.049 A 
ATOM     52  H   UNL A   1      40.819  30.697  29.884  1.00  0.00     0.167 HD
ATOM     53  C   UNL A   1      45.023  30.132  30.974  1.00  0.00     0.031 A 
ATOM     54  C   UNL A   1      38.387  32.058  29.853  1.00  0.00     0.031 A 
ATOM     55  C   UNL A   1      44.651  31.391  31.549  1.00  0.00     0.049 A 
ATOM     56  C   UNL A   1      39.323  32.891  30.687  1.00  0.00     0.074 A 
ATOM     57  C   UNL A   1      45.439  32.273  32.265  1.00  0.00     0.029 A 
ATOM     58  N   UNL A   1      43.382  31.942  31.480  1.00  0.00    -0.354 N 
ATOM     59  N   UNL A   1      40.584  32.676  30.971  1.00  0.00    -0.248 NA
ATOM     60  C   UNL A   1      38.776  34.122  31.277  1.00  0.00     0.031 C 
ATOM     61  C   UNL A   1      44.634  33.341  32.669  1.00  0.00     0.029 A 
ATOM     62  C   UNL A   1      43.360  33.146  32.158  1.00  0.00     0.049 A 
ATOM     63  H   UNL A   1      42.613  31.538  31.019  1.00  0.00     0.167 HD
ATOM     64  C   UNL A   1      40.990  33.752  31.750  1.00  0.00     0.074 A 
ATOM     65  C   UNL A   1      39.839  34.620  31.897  1.00  0.00     0.031 C 
ATOM     66  C   UNL A   1      42.208  33.998  32.290  1.00  0.00     0.031 A 
BRANCH  53  67
ATOM     67  C   UNL A   1      46.437  29.668  31.142  1.00  0.00    -0.014 A 
ATOM     68  C   UNL A   1      46.792  28.811  32.194  1.00  0.00     0.009 A 
ATOM     69  C   UNL A   1      47.408  30.033  30.197  1.00  0.00     0.009 A 
ATOM     70  C   UNL A   1      48.098  28.329  32.298  1.00  0.00     0.001 A 
ATOM     71  C   UNL A   1      48.707  29.535  30.293  1.00  0.00     0.001 A 
ATOM     72  C   UNL A   1      49.052  28.684  31.344  1.00  0.00     0.000 A 
ENDBRANCH  53  67
BRANCH  54  73
ATOM     73  C   UNL A   1      36.988  32.491  29.608  1.00  0.00    -0.014 A 
ATOM     74  C   UNL A   1      35.974  32.159  30.517  1.00  0.00     0.009 A 
ATOM     75  C   UNL A   1      36.670  33.270  28.485  1.00  0.00     0.009 A 
ATOM     76  C   UNL A   1      34.665  32.602  30.305  1.00  0.00     0.001 A 
ATOM     77  C   UNL A   1      35.365  33.726  28.286  1.00  0.00     0.001 A 
ATOM     78  C   UNL A   1      34.364  33.390  29.195  1.00  0.00     0.000 A 
ENDBRANCH  54  73
BRANCH  66  79
ATOM     79  C   UNL A   1      42.393  35.265  33.071  1.00  0.00    -0.014 A 
ATOM     80  C   UNL A   1      42.014  35.344  34.417  1.00  0.00     0.009 A 
ATOM     81  C   UNL A   1      43.083  36.340  32.487  1.00  0.00     0.009 A 
ATOM     82  C   UNL A   1      42.323  36.480  35.168  1.00  0.00     0.001 A 
ATOM     83  C   UNL A   1      43.409  37.465  33.246  1.00  0.00     0.001 A 
ATOM     84  C   UNL A   1      43.028  37.534  34.585  1.00  0.00     0.000 A 
ENDBRANCH  66  79
ENDBRANCH  40  41
ENDBRANCH  33  35
ENDBRANCH  32  33
ENDBRANCH  31  32
ENDBRANCH  30  31
ENDBRANCH  29  30
ENDBRANCH  28  29
ENDBRANCH   1  28
TORSDOF 21
ENDMDL
MODEL 3
REMARK VINA RESULT:     -10.1      3.967      9.619
REMARK SMILES Cc1cc(C)c2c(C(=O)OCCOCCOCCOCCOC(=O)c3ccc(-c4c5nc(c(-c6ccccc6)c6ccc([nH]6)c(-c6ccccc6)c6nc(c(-c7ccccc7)c7ccc4[nH]7)C=C6)C=C5)cc3)cc(-c3ccco3)nc2c1
REMARK SMILES IDX 17 1 16 2 15 3 14 4 13 5 12 6 11 7 10 8 8 9 9 10 7 11 1 12
REMARK SMILES IDX 2 13 3 14 82 15 4 16 81 17 5 18 6 19 80 20 74 21 73 22 75 23
REMARK SMILES IDX 76 24 79 25 77 26 78 27 18 28 19 29 20 30 21 31 22 32 23 33
REMARK SMILES IDX 24 34 25 35 26 36 72 37 27 38 71 39 28 40 29 41 30 42 65 43
REMARK SMILES IDX 31 44 70 45 64 46 66 47 32 48 69 49 63 50 62 51 33 53 55 54
REMARK SMILES IDX 40 55 54 56 41 57 44 58 53 59 67 60 42 61 43 62 52 64 68 65
REMARK SMILES IDX 45 66 34 67 35 68 39 69 36 70 38 71 37 72 56 73 57 74 61 75
REMARK SMILES IDX 58 76 60 77 59 78 46 79 47 80 51 81 48 82 50 83 49 84
REMARK H PARENT 66 52 44 63
REMARK Flexibility Score: inf
ROOT
ATOM      1  C   UNL A   1      32.356  28.798  25.976  1.00  0.00     0.188 C 
ENDROOT
BRANCH   1   2
ATOM      2  O   UNL A   1      31.294  27.890  25.728  1.00  0.00    -0.377 OA
BRANCH   2   3
ATOM      3  C   UNL A   1      30.968  27.706  24.357  1.00  0.00     0.188 C 
BRANCH   3   4
ATOM      4  C   UNL A   1      29.674  26.924  24.051  1.00  0.00     0.188 C 
BRANCH   4   5
ATOM      5  O   UNL A   1      29.856  25.512  24.148  1.00  0.00    -0.376 OA
BRANCH   5   6
ATOM      6  C   UNL A   1      31.004  24.950  23.531  1.00  0.00     0.202 C 
BRANCH   6   7
ATOM      7  C   UNL A   1      31.155  23.441  23.724  1.00  0.00     0.261 C 
BRANCH   7   8
ATOM      8  O   UNL A   1      30.713  23.024  25.022  1.00  0.00    -0.460 OA
BRANCH   8   9
ATOM      9  C   UNL A   1      31.561  23.090  26.059  1.00  0.00     0.338 C 
ATOM     10  O   UNL A   1      31.316  23.544  27.164  1.00  0.00    -0.246 OA
BRANCH   9  11
ATOM     11  C   UNL A   1      32.775  22.301  25.738  1.00  0.00     0.072 A 
ATOM     12  C   UNL A   1      38.379  23.648  26.085  1.00  0.00     0.044 C 
ATOM     13  C   UNL A   1      36.920  23.386  25.865  1.00  0.00    -0.049 A 
ATOM     14  C   UNL A   1      35.997  24.419  25.896  1.00  0.00     0.007 A 
ATOM     15  C   UNL A   1      36.450  22.089  25.672  1.00  0.00     0.032 A 
ATOM     16  C   UNL A   1      34.615  24.165  25.799  1.00  0.00    -0.041 A 
ATOM     17  C   UNL A   1      35.099  21.790  25.564  1.00  0.00     0.072 A 
ATOM     18  C   UNL A   1      33.745  25.392  25.697  1.00  0.00     0.045 C 
ATOM     19  C   UNL A   1      34.122  22.807  25.706  1.00  0.00     0.018 A 
ATOM     20  N   UNL A   1      34.823  20.499  25.326  1.00  0.00    -0.244 NA
ATOM     21  C   UNL A   1      33.542  20.099  25.262  1.00  0.00     0.107 A 
ATOM     22  C   UNL A   1      32.491  20.950  25.496  1.00  0.00     0.048 A 
BRANCH  21  23
ATOM     23  C   UNL A   1      33.335  18.715  24.886  1.00  0.00     0.152 A 
ATOM     24  C   UNL A   1      33.942  17.868  23.979  1.00  0.00     0.052 A 
ATOM     25  O   UNL A   1      32.317  18.064  25.520  1.00  0.00    -0.463 OA
ATOM     26  C   UNL A   1      33.257  16.631  24.066  1.00  0.00     0.043 A 
ATOM     27  C   UNL A   1      32.280  16.801  25.018  1.00  0.00     0.196 A 
ENDBRANCH  21  23
ENDBRANCH   9  11
ENDBRANCH   8   9
ENDBRANCH   7   8
ENDBRANCH   6   7
ENDBRANCH   5   6
ENDBRANCH   4   5
ENDBRANCH   3   4
ENDBRANCH   2   3
ENDBRANCH   1   2
BRANCH   1  28
ATOM     28  C   UNL A   1      31.990  30.281  25.736  1.00  0.00     0.188 C 
BRANCH  28  29
ATOM     29  O   UNL A   1      31.334  31.072  26.721  1.00  0.00    -0.376 OA
BRANCH  29  30
ATOM     30  C   UNL A   1      31.513  32.477  26.759  1.00  0.00     0.202 C 
BRANCH  30  31
ATOM     31  C   UNL A   1      32.746  33.076  27.452  1.00  0.00     0.261 C 
BRANCH  31  32
ATOM     32  O   UNL A   1      32.653  34.451  27.844  1.00  0.00    -0.460 OA
BRANCH  32  33
ATOM     33  C   UNL A   1      33.285  34.774  28.995  1.00  0.00     0.338 C 
ATOM     34  O   UNL A   1      32.952  35.598  29.828  1.00  0.00    -0.246 OA
BRANCH  33  35
ATOM     35  C   UNL A   1      34.428  33.860  29.174  1.00  0.00     0.060 A 
ATOM     36  C   UNL A   1      34.202  32.594  29.731  1.00  0.00     0.016 A 
ATOM     37  C   UNL A   1      35.720  34.274  28.844  1.00  0.00     0.016 A 
ATOM     38  C   UNL A   1      35.270  31.736  29.972  1.00  0.00     0.010 A 
ATOM     39  C   UNL A   1      36.797  33.435  29.136  1.00  0.00     0.010 A 
ATOM     40  C   UNL A   1      36.575  32.181  29.729  1.00  0.00    -0.014 A 
BRANCH  40  41
ATOM     41  C   UNL A   1      37.706  31.444  30.325  1.00  0.00     0.031 A 
ATOM     42  C   UNL A   1      38.029  31.702  31.769  1.00  0.00     0.074 A 
ATOM     43  C   UNL A   1      38.419  30.559  29.609  1.00  0.00     0.049 A 
ATOM     44  N   UNL A   1      39.008  31.231  32.493  1.00  0.00    -0.248 NA
ATOM     45  C   UNL A   1      37.120  32.607  32.497  1.00  0.00     0.031 C 
ATOM     46  C   UNL A   1      38.148  30.171  28.227  1.00  0.00     0.029 A 
ATOM     47  N   UNL A   1      39.524  29.826  29.959  1.00  0.00    -0.354 N 
ATOM     48  C   UNL A   1      38.833  31.777  33.756  1.00  0.00     0.074 A 
ATOM     49  C   UNL A   1      37.665  32.625  33.705  1.00  0.00     0.031 C 
ATOM     50  C   UNL A   1      39.075  29.277  27.839  1.00  0.00     0.029 A 
ATOM     51  C   UNL A   1      40.019  29.059  28.935  1.00  0.00     0.049 A 
ATOM     52  H   UNL A   1      39.924  29.850  30.859  1.00  0.00     0.167 HD
ATOM     53  C   UNL A   1      39.585  31.590  34.864  1.00  0.00     0.031 A 
ATOM     54  C   UNL A   1      41.122  28.289  28.886  1.00  0.00     0.031 A 
ATOM     55  C   UNL A   1      40.763  30.774  34.906  1.00  0.00     0.049 A 
ATOM     56  C   UNL A   1      42.006  28.182  30.099  1.00  0.00     0.074 A 
ATOM     57  C   UNL A   1      41.605  30.540  35.978  1.00  0.00     0.029 A 
ATOM     58  N   UNL A   1      41.267  30.066  33.828  1.00  0.00    -0.354 N 
ATOM     59  N   UNL A   1      41.846  28.720  31.283  1.00  0.00    -0.248 NA
ATOM     60  C   UNL A   1      43.224  27.368  29.968  1.00  0.00     0.031 C 
ATOM     61  C   UNL A   1      42.648  29.722  35.535  1.00  0.00     0.029 A 
ATOM     62  C   UNL A   1      42.423  29.407  34.204  1.00  0.00     0.049 A 
ATOM     63  H   UNL A   1      40.864  30.036  32.931  1.00  0.00     0.167 HD
ATOM     64  C   UNL A   1      42.925  28.293  32.046  1.00  0.00     0.074 A 
ATOM     65  C   UNL A   1      43.736  27.451  31.190  1.00  0.00     0.031 C 
ATOM     66  C   UNL A   1      43.213  28.570  33.340  1.00  0.00     0.031 A 
BRANCH  53  67
ATOM     67  C   UNL A   1      39.172  32.302  36.115  1.00  0.00    -0.014 A 
ATOM     68  C   UNL A   1      39.691  33.568  36.427  1.00  0.00     0.009 A 
ATOM     69  C   UNL A   1      38.201  31.733  36.952  1.00  0.00     0.009 A 
ATOM     70  C   UNL A   1      39.244  34.250  37.559  1.00  0.00     0.001 A 
ATOM     71  C   UNL A   1      37.743  32.426  38.073  1.00  0.00     0.001 A 
ATOM     72  C   UNL A   1      38.265  33.684  38.376  1.00  0.00     0.000 A 
ENDBRANCH  53  67
BRANCH  54  73
ATOM     73  C   UNL A   1      41.452  27.566  27.631  1.00  0.00    -0.014 A 
ATOM     74  C   UNL A   1      42.042  28.244  26.556  1.00  0.00     0.009 A 
ATOM     75  C   UNL A   1      41.213  26.187  27.520  1.00  0.00     0.009 A 
ATOM     76  C   UNL A   1      42.388  27.554  25.391  1.00  0.00     0.001 A 
ATOM     77  C   UNL A   1      41.578  25.497  26.362  1.00  0.00     0.001 A 
ATOM     78  C   UNL A   1      42.163  26.181  25.299  1.00  0.00     0.000 A 
ENDBRANCH  54  73
BRANCH  66  79
ATOM     79  C   UNL A   1      44.437  27.947  33.943  1.00  0.00    -0.014 A 
ATOM     80  C   UNL A   1      44.392  26.663  34.502  1.00  0.00     0.009 A 
ATOM     81  C   UNL A   1      45.675  28.599  33.820  1.00  0.00     0.009 A 
ATOM     82  C   UNL A   1      45.567  26.041  34.927  1.00  0.00     0.001 A 
ATOM     83  C   UNL A   1      46.850  27.966  34.227  1.00  0.00     0.001 A 
ATOM     84  C   UNL A   1      46.795  26.688  34.782  1.00  0.00     0.000 A 
ENDBRANCH  66  79
ENDBRANCH  40  41
ENDBRANCH  33  35
ENDBRANCH  32  33
ENDBRANCH  31  32
ENDBRANCH  30  31
ENDBRANCH  29  30
ENDBRANCH  28  29
ENDBRANCH   1  28
TORSDOF 21
ENDMDL
