MODEL 1
REMARK VINA RESULT:     -11.4      0.000      0.000
REMARK SMILES COc1ccc(C2=NN(C(=O)CCC(=O)OCCOCCOCCOCCOC(=O)c3ccc(-c4c5nc(c(-c6ccccc6)c6ccc([nH]6)c(-c6ccccc6)c6nc(c(-c7ccccc7)c7ccc4[nH]7)C=C6)C=C5)cc3)[C@H](c3ccc(Cl)cc3Cl)C2)cc1
REMARK SMILES IDX 20 1 19 2 18 3 17 4 16 5 14 6 15 7 13 8 12 9 10 10 11 11
REMARK SMILES IDX 9 12 7 13 8 14 88 15 79 16 6 17 3 18 4 19 90 20 5 21 89 22
REMARK SMILES IDX 2 23 1 24 80 25 81 26 86 27 82 28 85 29 87 30 83 31 84 32
REMARK SMILES IDX 21 33 22 34 23 35 24 36 25 37 26 38 27 39 28 40 29 41 30 42
REMARK SMILES IDX 31 43 32 44 78 45 33 46 77 47 34 48 35 49 36 50 71 51 37 52
REMARK SMILES IDX 76 53 70 54 72 55 38 56 75 57 69 58 68 59 39 61 61 62 46 63
REMARK SMILES IDX 60 64 47 65 50 66 59 67 73 68 48 69 49 70 58 72 74 73 51 74
REMARK SMILES IDX 40 75 41 76 45 77 42 78 44 79 43 80 62 81 63 82 67 83 64 84
REMARK SMILES IDX 66 85 65 86 52 87 53 88 57 89 54 90 56 91 55 92
REMARK H PARENT 72 60 50 71
REMARK Flexibility Score: inf
ROOT
ATOM      1  C   UNL A   1      31.789  20.997  21.996  1.00  0.00     0.188 C 
ENDROOT
BRANCH   1   2
ATOM      2  O   UNL A   1      32.276  19.561  21.571  1.00  0.00    -0.376 OA
BRANCH   2   3
ATOM      3  C   UNL A   1      32.107  18.246  22.332  1.00  0.00     0.202 C 
BRANCH   3   4
ATOM      4  C   UNL A   1      32.298  18.092  23.895  1.00  0.00     0.261 C 
BRANCH   4   5
ATOM      5  O   UNL A   1      33.670  18.020  24.294  1.00  0.00    -0.463 OA
BRANCH   5   6
ATOM      6  C   UNL A   1      34.113  19.134  24.907  1.00  0.00     0.306 C 
ATOM      7  O   UNL A   1      35.165  19.696  24.623  1.00  0.00    -0.252 OA
BRANCH   6   8
ATOM      8  C   UNL A   1      33.108  19.779  25.829  1.00  0.00     0.132 C 
BRANCH   8   9
ATOM      9  C   UNL A   1      33.433  20.732  26.978  1.00  0.00     0.114 C 
BRANCH   9  10
ATOM     10  C   UNL A   1      33.583  22.251  26.924  1.00  0.00     0.243 C 
ATOM     11  O   UNL A   1      32.887  22.809  27.806  1.00  0.00    -0.273 OA
BRANCH  10  12
ATOM     12  N   UNL A   1      34.418  23.043  26.109  1.00  0.00    -0.225 N 
ATOM     13  C   UNL A   1      36.573  23.019  25.839  1.00  0.00     0.071 C 
ATOM     14  N   UNL A   1      35.530  22.306  25.999  1.00  0.00    -0.174 NA
ATOM     15  C   UNL A   1      36.392  24.484  25.546  1.00  0.00     0.091 C 
ATOM     16  C   UNL A   1      34.787  24.629  25.397  1.00  0.00     0.149 C 
BRANCH  13  17
ATOM     17  C   UNL A   1      37.824  22.280  25.924  1.00  0.00    -0.002 A 
ATOM     18  C   UNL A   1      40.147  20.964  26.447  1.00  0.00     0.118 A 
ATOM     19  C   UNL A   1      40.055  22.309  26.768  1.00  0.00     0.047 A 
ATOM     20  C   UNL A   1      39.226  20.387  25.581  1.00  0.00     0.047 A 
ATOM     21  C   UNL A   1      38.843  22.927  26.630  1.00  0.00     0.014 A 
ATOM     22  C   UNL A   1      38.059  21.080  25.275  1.00  0.00     0.014 A 
BRANCH  18  23
ATOM     23  O   UNL A   1      40.748  20.170  27.390  1.00  0.00    -0.497 OA
ATOM     24  C   UNL A   1      42.135  19.992  27.246  1.00  0.00     0.278 C 
ENDBRANCH  18  23
ENDBRANCH  13  17
BRANCH  16  25
ATOM     25  C   UNL A   1      33.718  25.648  24.095  1.00  0.00    -0.004 A 
ATOM     26  C   UNL A   1      33.695  27.273  24.653  1.00  0.00     0.009 A 
ATOM     27  C   UNL A   1      32.743  25.493  22.594  1.00  0.00     0.047 A 
ATOM     28  C   UNL A   1      32.564  28.694  24.107  1.00  0.00     0.021 A 
ATOM     29  C   UNL A   1      31.710  26.792  21.955  1.00  0.00     0.041 A 
ATOM     30  Cl  UNL A   1      32.959  24.431  21.198  1.00  0.00    -0.084 Cl
ATOM     31  C   UNL A   1      31.578  28.381  22.676  1.00  0.00     0.042 A 
ATOM     32  Cl  UNL A   1      30.607  29.563  21.912  1.00  0.00    -0.084 Cl
ENDBRANCH  16  25
ENDBRANCH  10  12
ENDBRANCH   9  10
ENDBRANCH   8   9
ENDBRANCH   6   8
ENDBRANCH   5   6
ENDBRANCH   4   5
ENDBRANCH   3   4
ENDBRANCH   2   3
ENDBRANCH   1   2
BRANCH   1  33
ATOM     33  C   UNL A   1      31.903  22.003  23.652  1.00  0.00     0.188 C 
BRANCH  33  34
ATOM     34  O   UNL A   1      30.890  23.334  24.317  1.00  0.00    -0.377 OA
BRANCH  34  35
ATOM     35  C   UNL A   1      30.719  24.388  25.759  1.00  0.00     0.188 C 
BRANCH  35  36
ATOM     36  C   UNL A   1      30.501  26.339  26.099  1.00  0.00     0.188 C 
BRANCH  36  37
ATOM     37  O   UNL A   1      31.456  27.201  27.412  1.00  0.00    -0.376 OA
BRANCH  37  38
ATOM     38  C   UNL A   1      31.559  29.065  27.428  1.00  0.00     0.202 C 
BRANCH  38  39
ATOM     39  C   UNL A   1      33.575  29.980  27.296  1.00  0.00     0.261 C 
BRANCH  39  40
ATOM     40  O   UNL A   1      33.968  31.507  28.224  1.00  0.00    -0.460 OA
BRANCH  40  41
ATOM     41  C   UNL A   1      34.774  31.877  29.319  1.00  0.00     0.338 C 
ATOM     42  O   UNL A   1      34.383  32.553  30.265  1.00  0.00    -0.246 OA
BRANCH  41  43
ATOM     43  C   UNL A   1      36.186  31.204  29.489  1.00  0.00     0.060 A 
ATOM     44  C   UNL A   1      36.350  29.979  30.201  1.00  0.00     0.016 A 
ATOM     45  C   UNL A   1      37.373  31.746  28.995  1.00  0.00     0.016 A 
ATOM     46  C   UNL A   1      37.588  29.268  30.297  1.00  0.00     0.010 A 
ATOM     47  C   UNL A   1      38.640  31.091  29.192  1.00  0.00     0.010 A 
ATOM     48  C   UNL A   1      38.776  29.839  29.835  1.00  0.00    -0.014 A 
BRANCH  48  49
ATOM     49  C   UNL A   1      40.132  29.276  30.235  1.00  0.00     0.031 A 
ATOM     50  C   UNL A   1      40.752  29.723  31.522  1.00  0.00     0.074 A 
ATOM     51  C   UNL A   1      40.886  28.421  29.506  1.00  0.00     0.049 A 
ATOM     52  N   UNL A   1      41.906  29.382  32.038  1.00  0.00    -0.248 NA
ATOM     53  C   UNL A   1      39.988  30.693  32.310  1.00  0.00     0.031 C 
ATOM     54  C   UNL A   1      40.445  27.868  28.251  1.00  0.00     0.029 A 
ATOM     55  N   UNL A   1      42.155  27.862  29.686  1.00  0.00    -0.354 N 
ATOM     56  C   UNL A   1      42.036  30.135  33.189  1.00  0.00     0.074 A 
ATOM     57  C   UNL A   1      40.837  30.948  33.295  1.00  0.00     0.031 C 
ATOM     58  C   UNL A   1      41.423  27.085  27.783  1.00  0.00     0.029 A 
ATOM     59  C   UNL A   1      42.548  27.014  28.666  1.00  0.00     0.049 A 
ATOM     60  H   UNL A   1      42.719  28.054  30.469  1.00  0.00     0.167 HD
ATOM     61  C   UNL A   1      43.069  30.166  34.062  1.00  0.00     0.031 A 
ATOM     62  C   UNL A   1      43.616  26.221  28.392  1.00  0.00     0.031 A 
ATOM     63  C   UNL A   1      44.291  29.409  33.935  1.00  0.00     0.049 A 
ATOM     64  C   UNL A   1      44.717  26.219  29.390  1.00  0.00     0.074 A 
ATOM     65  C   UNL A   1      45.389  29.411  34.781  1.00  0.00     0.029 A 
ATOM     66  N   UNL A   1      44.599  28.536  32.899  1.00  0.00    -0.354 N 
ATOM     67  N   UNL A   1      44.758  26.875  30.520  1.00  0.00    -0.248 NA
ATOM     68  C   UNL A   1      45.897  25.389  29.115  1.00  0.00     0.031 C 
ATOM     69  C   UNL A   1      46.382  28.599  34.224  1.00  0.00     0.029 A 
ATOM     70  C   UNL A   1      45.880  28.023  33.072  1.00  0.00     0.049 A 
ATOM     71  H   UNL A   1      43.998  28.314  32.151  1.00  0.00     0.167 HD
ATOM     72  C   UNL A   1      45.970  26.549  31.088  1.00  0.00     0.074 A 
ATOM     73  C   UNL A   1      46.594  25.563  30.227  1.00  0.00     0.031 C 
ATOM     74  C   UNL A   1      46.521  27.067  32.206  1.00  0.00     0.031 A 
BRANCH  61  75
ATOM     75  C   UNL A   1      42.935  31.144  35.193  1.00  0.00    -0.014 A 
ATOM     76  C   UNL A   1      42.369  30.774  36.423  1.00  0.00     0.009 A 
ATOM     77  C   UNL A   1      43.335  32.475  34.998  1.00  0.00     0.009 A 
ATOM     78  C   UNL A   1      42.155  31.731  37.416  1.00  0.00     0.001 A 
ATOM     79  C   UNL A   1      43.157  33.420  36.008  1.00  0.00     0.001 A 
ATOM     80  C   UNL A   1      42.552  33.052  37.208  1.00  0.00     0.000 A 
ENDBRANCH  61  75
BRANCH  62  81
ATOM     81  C   UNL A   1      43.685  25.306  27.179  1.00  0.00    -0.014 A 
ATOM     82  C   UNL A   1      44.233  25.756  25.960  1.00  0.00     0.009 A 
ATOM     83  C   UNL A   1      43.263  23.964  27.227  1.00  0.00     0.009 A 
ATOM     84  C   UNL A   1      44.393  24.898  24.859  1.00  0.00     0.001 A 
ATOM     85  C   UNL A   1      43.478  23.091  26.148  1.00  0.00     0.001 A 
ATOM     86  C   UNL A   1      44.044  23.557  24.966  1.00  0.00     0.000 A 
ENDBRANCH  62  81
BRANCH  74  87
ATOM     87  C   UNL A   1      47.890  26.563  32.540  1.00  0.00    -0.014 A 
ATOM     88  C   UNL A   1      49.039  27.205  32.046  1.00  0.00     0.009 A 
ATOM     89  C   UNL A   1      48.029  25.402  33.309  1.00  0.00     0.009 A 
ATOM     90  C   UNL A   1      50.300  26.659  32.271  1.00  0.00     0.001 A 
ATOM     91  C   UNL A   1      49.295  24.882  33.569  1.00  0.00     0.001 A 
ATOM     92  C   UNL A   1      50.427  25.501  33.037  1.00  0.00     0.000 A 
ENDBRANCH  74  87
ENDBRANCH  48  49
ENDBRANCH  41  43
ENDBRANCH  40  41
ENDBRANCH  39  40
ENDBRANCH  38  39
ENDBRANCH  37  38
ENDBRANCH  36  37
ENDBRANCH  35  36
ENDBRANCH  34  35
ENDBRANCH  33  34
ENDBRANCH   1  33
TORSDOF 26
ENDMDL
MODEL 2
REMARK VINA RESULT:     -11.3      2.962      7.312
REMARK SMILES COc1ccc(C2=NN(C(=O)CCC(=O)OCCOCCOCCOCCOC(=O)c3ccc(-c4c5nc(c(-c6ccccc6)c6ccc([nH]6)c(-c6ccccc6)c6nc(c(-c7ccccc7)c7ccc4[nH]7)C=C6)C=C5)cc3)[C@H](c3ccc(Cl)cc3Cl)C2)cc1
REMARK SMILES IDX 20 1 19 2 18 3 17 4 16 5 14 6 15 7 13 8 12 9 10 10 11 11
REMARK SMILES IDX 9 12 7 13 8 14 88 15 79 16 6 17 3 18 4 19 90 20 5 21 89 22
REMARK SMILES IDX 2 23 1 24 80 25 81 26 86 27 82 28 85 29 87 30 83 31 84 32
REMARK SMILES IDX 21 33 22 34 23 35 24 36 25 37 26 38 27 39 28 40 29 41 30 42
REMARK SMILES IDX 31 43 32 44 78 45 33 46 77 47 34 48 35 49 36 50 71 51 37 52
REMARK SMILES IDX 76 53 70 54 72 55 38 56 75 57 69 58 68 59 39 61 61 62 46 63
REMARK SMILES IDX 60 64 47 65 50 66 59 67 73 68 48 69 49 70 58 72 74 73 51 74
REMARK SMILES IDX 40 75 41 76 45 77 42 78 44 79 43 80 62 81 63 82 67 83 64 84
REMARK SMILES IDX 66 85 65 86 52 87 53 88 57 89 54 90 56 91 55 92
REMARK H PARENT 72 60 50 71
REMARK Flexibility Score: inf
ROOT
ATOM      1  C   UNL A   1      31.038  23.351  24.497  1.00  0.00     0.188 C 
ENDROOT
BRANCH   1   2
ATOM      2  O   UNL A   1      32.219  22.439  23.993  1.00  0.00    -0.376 OA
BRANCH   2   3
ATOM      3  C   UNL A   1      32.138  21.206  23.093  1.00  0.00     0.202 C 
BRANCH   3   4
ATOM      4  C   UNL A   1      32.107  19.716  23.624  1.00  0.00     0.261 C 
BRANCH   4   5
ATOM      5  O   UNL A   1      33.407  19.135  23.759  1.00  0.00    -0.463 OA
BRANCH   5   6
ATOM      6  C   UNL A   1      34.106  19.610  24.807  1.00  0.00     0.306 C 
ATOM      7  O   UNL A   1      35.320  19.777  24.798  1.00  0.00    -0.252 OA
BRANCH   6   8
ATOM      8  C   UNL A   1      33.255  20.139  25.935  1.00  0.00     0.132 C 
BRANCH   8   9
ATOM      9  C   UNL A   1      33.744  21.010  27.090  1.00  0.00     0.114 C 
BRANCH   9  10
ATOM     10  C   UNL A   1      34.254  22.448  27.031  1.00  0.00     0.243 C 
ATOM     11  O   UNL A   1      33.756  23.146  27.947  1.00  0.00    -0.273 OA
BRANCH  10  12
ATOM     12  N   UNL A   1      35.218  23.025  26.179  1.00  0.00    -0.225 N 
ATOM     13  C   UNL A   1      34.991  24.321  24.452  1.00  0.00     0.071 C 
ATOM     14  N   UNL A   1      34.563  24.049  25.619  1.00  0.00    -0.174 NA
ATOM     15  C   UNL A   1      36.271  23.674  23.996  1.00  0.00     0.091 C 
ATOM     16  C   UNL A   1      36.767  22.882  25.318  1.00  0.00     0.149 C 
BRANCH  13  17
ATOM     17  C   UNL A   1      34.177  25.284  23.723  1.00  0.00    -0.002 A 
ATOM     18  C   UNL A   1      32.408  26.806  22.325  1.00  0.00     0.118 A 
ATOM     19  C   UNL A   1      32.927  25.668  21.728  1.00  0.00     0.047 A 
ATOM     20  C   UNL A   1      33.018  27.345  23.452  1.00  0.00     0.047 A 
ATOM     21  C   UNL A   1      33.705  24.837  22.485  1.00  0.00     0.014 A 
ATOM     22  C   UNL A   1      33.959  26.585  24.140  1.00  0.00     0.014 A 
BRANCH  18  23
ATOM     23  O   UNL A   1      31.064  27.008  22.147  1.00  0.00    -0.497 OA
ATOM     24  C   UNL A   1      30.251  26.738  23.263  1.00  0.00     0.278 C 
ENDBRANCH  18  23
ENDBRANCH  13  17
BRANCH  16  25
ATOM     25  C   UNL A   1      38.568  22.706  26.093  1.00  0.00    -0.004 A 
ATOM     26  C   UNL A   1      38.854  24.146  26.986  1.00  0.00     0.009 A 
ATOM     27  C   UNL A   1      40.008  21.633  26.169  1.00  0.00     0.047 A 
ATOM     28  C   UNL A   1      40.496  24.809  27.665  1.00  0.00     0.021 A 
ATOM     29  C   UNL A   1      41.570  22.132  26.856  1.00  0.00     0.041 A 
ATOM     30  Cl  UNL A   1      40.116  19.869  26.168  1.00  0.00    -0.084 Cl
ATOM     31  C   UNL A   1      41.862  23.693  27.590  1.00  0.00     0.042 A 
ATOM     32  Cl  UNL A   1      43.392  24.013  28.284  1.00  0.00    -0.084 Cl
ENDBRANCH  16  25
ENDBRANCH  10  12
ENDBRANCH   9  10
ENDBRANCH   8   9
ENDBRANCH   6   8
ENDBRANCH   5   6
ENDBRANCH   4   5
ENDBRANCH   3   4
ENDBRANCH   2   3
ENDBRANCH   1   2
BRANCH   1  33
ATOM     33  C   UNL A   1      30.648  24.203  26.196  1.00  0.00     0.188 C 
BRANCH  33  34
ATOM     34  O   UNL A   1      30.595  25.936  26.684  1.00  0.00    -0.377 OA
BRANCH  34  35
ATOM     35  C   UNL A   1      31.654  27.364  26.926  1.00  0.00     0.188 C 
BRANCH  35  36
ATOM     36  C   UNL A   1      31.836  29.176  26.118  1.00  0.00     0.188 C 
BRANCH  36  37
ATOM     37  O   UNL A   1      32.164  30.662  27.149  1.00  0.00    -0.376 OA
BRANCH  37  38
ATOM     38  C   UNL A   1      33.914  31.110  27.620  1.00  0.00     0.202 C 
BRANCH  38  39
ATOM     39  C   UNL A   1      35.454  29.522  27.461  1.00  0.00     0.261 C 
BRANCH  39  40
ATOM     40  O   UNL A   1      37.009  29.632  28.419  1.00  0.00    -0.460 OA
BRANCH  40  41
ATOM     41  C   UNL A   1      37.454  29.303  29.716  1.00  0.00     0.338 C 
ATOM     42  O   UNL A   1      36.710  29.130  30.676  1.00  0.00    -0.246 OA
BRANCH  41  43
ATOM     43  C   UNL A   1      38.958  28.894  29.926  1.00  0.00     0.060 A 
ATOM     44  C   UNL A   1      39.349  27.529  30.067  1.00  0.00     0.016 A 
ATOM     45  C   UNL A   1      40.010  29.807  30.018  1.00  0.00     0.016 A 
ATOM     46  C   UNL A   1      40.708  27.091  30.153  1.00  0.00     0.010 A 
ATOM     47  C   UNL A   1      41.367  29.373  30.223  1.00  0.00     0.010 A 
ATOM     48  C   UNL A   1      41.748  28.013  30.285  1.00  0.00    -0.014 A 
BRANCH  48  49
ATOM     49  C   UNL A   1      43.139  27.580  30.728  1.00  0.00     0.031 A 
ATOM     50  C   UNL A   1      44.199  27.373  29.691  1.00  0.00     0.074 A 
ATOM     51  C   UNL A   1      43.522  27.308  31.996  1.00  0.00     0.049 A 
ATOM     52  N   UNL A   1      45.438  26.987  29.852  1.00  0.00    -0.248 NA
ATOM     53  C   UNL A   1      43.802  27.604  28.300  1.00  0.00     0.031 C 
ATOM     54  C   UNL A   1      42.645  27.470  33.128  1.00  0.00     0.029 A 
ATOM     55  N   UNL A   1      44.714  26.848  32.566  1.00  0.00    -0.354 N 
ATOM     56  C   UNL A   1      45.963  26.877  28.579  1.00  0.00     0.074 A 
ATOM     57  C   UNL A   1      44.901  27.241  27.657  1.00  0.00     0.031 C 
ATOM     58  C   UNL A   1      43.317  27.099  34.223  1.00  0.00     0.029 A 
ATOM     59  C   UNL A   1      44.666  26.708  33.941  1.00  0.00     0.049 A 
ATOM     60  H   UNL A   1      45.516  26.643  32.035  1.00  0.00     0.167 HD
ATOM     61  C   UNL A   1      47.203  26.481  28.211  1.00  0.00     0.031 A 
ATOM     62  C   UNL A   1      45.525  26.356  34.932  1.00  0.00     0.031 A 
ATOM     63  C   UNL A   1      48.246  26.058  29.114  1.00  0.00     0.049 A 
ATOM     64  C   UNL A   1      46.903  25.983  34.517  1.00  0.00     0.074 A 
ATOM     65  C   UNL A   1      49.525  25.626  28.800  1.00  0.00     0.029 A 
ATOM     66  N   UNL A   1      48.139  25.985  30.497  1.00  0.00    -0.354 N 
ATOM     67  N   UNL A   1      47.389  25.985  33.305  1.00  0.00    -0.248 NA
ATOM     68  C   UNL A   1      47.852  25.576  35.562  1.00  0.00     0.031 C 
ATOM     69  C   UNL A   1      50.164  25.229  29.979  1.00  0.00     0.029 A 
ATOM     70  C   UNL A   1      49.317  25.487  31.041  1.00  0.00     0.049 A 
ATOM     71  H   UNL A   1      47.344  26.248  31.016  1.00  0.00     0.167 HD
ATOM     72  C   UNL A   1      48.696  25.570  33.434  1.00  0.00     0.074 A 
ATOM     73  C   UNL A   1      48.958  25.417  34.853  1.00  0.00     0.031 C 
ATOM     74  C   UNL A   1      49.576  25.302  32.446  1.00  0.00     0.031 A 
BRANCH  61  75
ATOM     75  C   UNL A   1      47.449  26.405  26.732  1.00  0.00    -0.014 A 
ATOM     76  C   UNL A   1      48.016  27.477  26.024  1.00  0.00     0.009 A 
ATOM     77  C   UNL A   1      47.053  25.257  26.029  1.00  0.00     0.009 A 
ATOM     78  C   UNL A   1      48.128  27.423  24.634  1.00  0.00     0.001 A 
ATOM     79  C   UNL A   1      47.205  25.189  24.645  1.00  0.00     0.001 A 
ATOM     80  C   UNL A   1      47.726  26.277  23.947  1.00  0.00     0.000 A 
ENDBRANCH  61  75
BRANCH  62  81
ATOM     81  C   UNL A   1      45.160  26.407  36.408  1.00  0.00    -0.014 A 
ATOM     82  C   UNL A   1      44.632  25.275  37.064  1.00  0.00     0.009 A 
ATOM     83  C   UNL A   1      45.380  27.551  37.196  1.00  0.00     0.009 A 
ATOM     84  C   UNL A   1      44.379  25.272  38.446  1.00  0.00     0.001 A 
ATOM     85  C   UNL A   1      45.185  27.530  38.587  1.00  0.00     0.001 A 
ATOM     86  C   UNL A   1      44.686  26.391  39.211  1.00  0.00     0.000 A 
ENDBRANCH  62  81
BRANCH  74  87
ATOM     87  C   UNL A   1      50.911  24.798  32.896  1.00  0.00    -0.014 A 
ATOM     88  C   UNL A   1      51.096  23.450  33.250  1.00  0.00     0.009 A 
ATOM     89  C   UNL A   1      51.980  25.693  33.020  1.00  0.00     0.009 A 
ATOM     90  C   UNL A   1      52.314  23.022  33.773  1.00  0.00     0.001 A 
ATOM     91  C   UNL A   1      53.210  25.253  33.504  1.00  0.00     0.001 A 
ATOM     92  C   UNL A   1      53.370  23.923  33.895  1.00  0.00     0.000 A 
ENDBRANCH  74  87
ENDBRANCH  48  49
ENDBRANCH  41  43
ENDBRANCH  40  41
ENDBRANCH  39  40
ENDBRANCH  38  39
ENDBRANCH  37  38
ENDBRANCH  36  37
ENDBRANCH  35  36
ENDBRANCH  34  35
ENDBRANCH  33  34
ENDBRANCH   1  33
TORSDOF 26
ENDMDL
MODEL 3
REMARK VINA RESULT:     -10.9      2.665      5.362
REMARK SMILES COc1ccc(C2=NN(C(=O)CCC(=O)OCCOCCOCCOCCOC(=O)c3ccc(-c4c5nc(c(-c6ccccc6)c6ccc([nH]6)c(-c6ccccc6)c6nc(c(-c7ccccc7)c7ccc4[nH]7)C=C6)C=C5)cc3)[C@H](c3ccc(Cl)cc3Cl)C2)cc1
REMARK SMILES IDX 20 1 19 2 18 3 17 4 16 5 14 6 15 7 13 8 12 9 10 10 11 11
REMARK SMILES IDX 9 12 7 13 8 14 88 15 79 16 6 17 3 18 4 19 90 20 5 21 89 22
REMARK SMILES IDX 2 23 1 24 80 25 81 26 86 27 82 28 85 29 87 30 83 31 84 32
REMARK SMILES IDX 21 33 22 34 23 35 24 36 25 37 26 38 27 39 28 40 29 41 30 42
REMARK SMILES IDX 31 43 32 44 78 45 33 46 77 47 34 48 35 49 36 50 71 51 37 52
REMARK SMILES IDX 76 53 70 54 72 55 38 56 75 57 69 58 68 59 39 61 61 62 46 63
REMARK SMILES IDX 60 64 47 65 50 66 59 67 73 68 48 69 49 70 58 72 74 73 51 74
REMARK SMILES IDX 40 75 41 76 45 77 42 78 44 79 43 80 62 81 63 82 67 83 64 84
REMARK SMILES IDX 66 85 65 86 52 87 53 88 57 89 54 90 56 91 55 92
REMARK H PARENT 72 60 50 71
REMARK Flexibility Score: inf
ROOT
ATOM      1  C   UNL A   1      31.051  23.041  23.855  1.00  0.00     0.188 C 
ENDROOT
BRANCH   1   2
ATOM      2  O   UNL A   1      32.228  22.162  23.288  1.00  0.00    -0.376 OA
BRANCH   2   3
ATOM      3  C   UNL A   1      32.175  20.706  22.823  1.00  0.00     0.202 C 
BRANCH   3   4
ATOM      4  C   UNL A   1      32.281  19.459  23.790  1.00  0.00     0.261 C 
BRANCH   4   5
ATOM      5  O   UNL A   1      33.629  19.076  24.076  1.00  0.00    -0.463 OA
BRANCH   5   6
ATOM      6  C   UNL A   1      34.233  19.860  24.988  1.00  0.00     0.306 C 
ATOM      7  O   UNL A   1      35.356  20.331  24.846  1.00  0.00    -0.252 OA
BRANCH   6   8
ATOM      8  C   UNL A   1      33.335  20.310  26.114  1.00  0.00     0.132 C 
BRANCH   8   9
ATOM      9  C   UNL A   1      33.666  21.391  27.142  1.00  0.00     0.114 C 
BRANCH   9  10
ATOM     10  C   UNL A   1      33.925  22.876  26.893  1.00  0.00     0.243 C 
ATOM     11  O   UNL A   1      33.183  23.593  27.606  1.00  0.00    -0.273 OA
BRANCH  10  12
ATOM     12  N   UNL A   1      34.893  23.493  26.075  1.00  0.00    -0.225 N 
ATOM     13  C   UNL A   1      34.674  24.720  24.296  1.00  0.00     0.071 C 
ATOM     14  N   UNL A   1      34.201  24.452  25.447  1.00  0.00    -0.174 NA
ATOM     15  C   UNL A   1      36.019  24.151  23.932  1.00  0.00     0.091 C 
ATOM     16  C   UNL A   1      36.493  23.435  25.304  1.00  0.00     0.149 C 
BRANCH  13  17
ATOM     17  C   UNL A   1      33.837  25.601  23.494  1.00  0.00    -0.002 A 
ATOM     18  C   UNL A   1      32.019  26.977  22.010  1.00  0.00     0.118 A 
ATOM     19  C   UNL A   1      32.475  25.754  21.542  1.00  0.00     0.047 A 
ATOM     20  C   UNL A   1      32.710  27.642  23.017  1.00  0.00     0.047 A 
ATOM     21  C   UNL A   1      33.280  25.008  22.356  1.00  0.00     0.014 A 
ATOM     22  C   UNL A   1      33.674  26.952  23.745  1.00  0.00     0.014 A 
BRANCH  18  23
ATOM     23  O   UNL A   1      30.671  27.193  21.885  1.00  0.00    -0.497 OA
ATOM     24  C   UNL A   1      30.193  28.401  22.425  1.00  0.00     0.278 C 
ENDBRANCH  18  23
ENDBRANCH  13  17
BRANCH  16  25
ATOM     25  C   UNL A   1      38.257  23.408  26.179  1.00  0.00    -0.004 A 
ATOM     26  C   UNL A   1      38.958  21.883  25.809  1.00  0.00     0.009 A 
ATOM     27  C   UNL A   1      39.357  24.357  27.236  1.00  0.00     0.047 A 
ATOM     28  C   UNL A   1      40.453  21.043  26.617  1.00  0.00     0.021 A 
ATOM     29  C   UNL A   1      40.825  23.685  27.980  1.00  0.00     0.041 A 
ATOM     30  Cl  UNL A   1      39.622  26.102  27.332  1.00  0.00    -0.084 Cl
ATOM     31  C   UNL A   1      41.397  22.052  27.717  1.00  0.00     0.042 A 
ATOM     32  Cl  UNL A   1      42.869  21.561  28.434  1.00  0.00    -0.084 Cl
ENDBRANCH  16  25
ENDBRANCH  10  12
ENDBRANCH   9  10
ENDBRANCH   8   9
ENDBRANCH   6   8
ENDBRANCH   5   6
ENDBRANCH   4   5
ENDBRANCH   3   4
ENDBRANCH   2   3
ENDBRANCH   1   2
BRANCH   1  33
ATOM     33  C   UNL A   1      30.521  23.555  25.650  1.00  0.00     0.188 C 
BRANCH  33  34
ATOM     34  O   UNL A   1      30.592  25.132  26.515  1.00  0.00    -0.377 OA
BRANCH  34  35
ATOM     35  C   UNL A   1      31.565  26.636  26.627  1.00  0.00     0.188 C 
BRANCH  35  36
ATOM     36  C   UNL A   1      31.339  28.541  26.090  1.00  0.00     0.188 C 
BRANCH  36  37
ATOM     37  O   UNL A   1      31.772  29.920  27.226  1.00  0.00    -0.376 OA
BRANCH  37  38
ATOM     38  C   UNL A   1      33.527  30.549  27.313  1.00  0.00     0.202 C 
BRANCH  38  39
ATOM     39  C   UNL A   1      35.158  29.054  27.169  1.00  0.00     0.261 C 
BRANCH  39  40
ATOM     40  O   UNL A   1      36.736  29.306  28.062  1.00  0.00    -0.460 OA
BRANCH  40  41
ATOM     41  C   UNL A   1      37.187  29.283  29.397  1.00  0.00     0.338 C 
ATOM     42  O   UNL A   1      36.445  29.251  30.374  1.00  0.00    -0.246 OA
BRANCH  41  43
ATOM     43  C   UNL A   1      38.715  29.043  29.682  1.00  0.00     0.060 A 
ATOM     44  C   UNL A   1      39.728  29.794  29.015  1.00  0.00     0.016 A 
ATOM     45  C   UNL A   1      39.201  28.081  30.568  1.00  0.00     0.016 A 
ATOM     46  C   UNL A   1      41.124  29.693  29.310  1.00  0.00     0.010 A 
ATOM     47  C   UNL A   1      40.613  27.897  30.780  1.00  0.00     0.010 A 
ATOM     48  C   UNL A   1      41.602  28.700  30.167  1.00  0.00    -0.014 A 
BRANCH  48  49
ATOM     49  C   UNL A   1      43.082  28.347  30.222  1.00  0.00     0.031 A 
ATOM     50  C   UNL A   1      43.952  29.024  31.236  1.00  0.00     0.074 A 
ATOM     51  C   UNL A   1      43.728  27.493  29.396  1.00  0.00     0.049 A 
ATOM     52  N   UNL A   1      45.237  28.884  31.437  1.00  0.00    -0.248 NA
ATOM     53  C   UNL A   1      43.294  29.999  32.110  1.00  0.00     0.031 C 
ATOM     54  C   UNL A   1      43.053  26.736  28.374  1.00  0.00     0.029 A 
ATOM     55  N   UNL A   1      45.066  27.106  29.266  1.00  0.00    -0.354 N 
ATOM     56  C   UNL A   1      45.560  29.790  32.429  1.00  0.00     0.074 A 
ATOM     57  C   UNL A   1      44.329  30.472  32.788  1.00  0.00     0.031 C 
ATOM     58  C   UNL A   1      43.973  26.011  27.727  1.00  0.00     0.029 A 
ATOM     59  C   UNL A   1      45.291  26.181  28.262  1.00  0.00     0.049 A 
ATOM     60  H   UNL A   1      45.784  27.459  29.837  1.00  0.00     0.167 HD
ATOM     61  C   UNL A   1      46.773  30.049  32.970  1.00  0.00     0.031 A 
ATOM     62  C   UNL A   1      46.349  25.482  27.776  1.00  0.00     0.031 A 
ATOM     63  C   UNL A   1      48.012  29.422  32.578  1.00  0.00     0.049 A 
ATOM     64  C   UNL A   1      47.664  25.732  28.422  1.00  0.00     0.074 A 
ATOM     65  C   UNL A   1      49.283  29.655  33.078  1.00  0.00     0.029 A 
ATOM     66  N   UNL A   1      48.154  28.461  31.585  1.00  0.00    -0.354 N 
ATOM     67  N   UNL A   1      47.910  26.530  29.427  1.00  0.00    -0.248 NA
ATOM     68  C   UNL A   1      48.835  25.009  27.907  1.00  0.00     0.031 C 
ATOM     69  C   UNL A   1      50.198  28.892  32.345  1.00  0.00     0.029 A 
ATOM     70  C   UNL A   1      49.494  28.119  31.441  1.00  0.00     0.049 A 
ATOM     71  H   UNL A   1      47.414  28.078  31.061  1.00  0.00     0.167 HD
ATOM     72  C   UNL A   1      49.263  26.417  29.661  1.00  0.00     0.074 A 
ATOM     73  C   UNL A   1      49.770  25.402  28.757  1.00  0.00     0.031 C 
ATOM     74  C   UNL A   1      50.012  27.135  30.525  1.00  0.00     0.031 A 
BRANCH  61  75
ATOM     75  C   UNL A   1      46.806  31.146  33.994  1.00  0.00    -0.014 A 
ATOM     76  C   UNL A   1      46.924  30.869  35.366  1.00  0.00     0.009 A 
ATOM     77  C   UNL A   1      46.662  32.478  33.577  1.00  0.00     0.009 A 
ATOM     78  C   UNL A   1      46.839  31.899  36.303  1.00  0.00     0.001 A 
ATOM     79  C   UNL A   1      46.619  33.510  34.513  1.00  0.00     0.001 A 
ATOM     80  C   UNL A   1      46.690  33.219  35.874  1.00  0.00     0.000 A 
ENDBRANCH  61  75
BRANCH  62  81
ATOM     81  C   UNL A   1      46.222  24.429  26.686  1.00  0.00    -0.014 A 
ATOM     82  C   UNL A   1      45.737  23.137  26.977  1.00  0.00     0.009 A 
ATOM     83  C   UNL A   1      46.526  24.703  25.340  1.00  0.00     0.009 A 
ATOM     84  C   UNL A   1      45.522  22.183  25.970  1.00  0.00     0.001 A 
ATOM     85  C   UNL A   1      46.255  23.771  24.324  1.00  0.00     0.001 A 
ATOM     86  C   UNL A   1      45.751  22.512  24.639  1.00  0.00     0.000 A 
ENDBRANCH  62  81
BRANCH  74  87
ATOM     87  C   UNL A   1      51.477  26.833  30.508  1.00  0.00    -0.014 A 
ATOM     88  C   UNL A   1      52.310  27.339  29.494  1.00  0.00     0.009 A 
ATOM     89  C   UNL A   1      52.019  25.989  31.484  1.00  0.00     0.009 A 
ATOM     90  C   UNL A   1      53.647  26.958  29.428  1.00  0.00     0.001 A 
ATOM     91  C   UNL A   1      53.368  25.643  31.440  1.00  0.00     0.001 A 
ATOM     92  C   UNL A   1      54.176  26.115  30.404  1.00  0.00     0.000 A 
ENDBRANCH  74  87
ENDBRANCH  48  49
ENDBRANCH  41  43
ENDBRANCH  40  41
ENDBRANCH  39  40
ENDBRANCH  38  39
ENDBRANCH  37  38
ENDBRANCH  36  37
ENDBRANCH  35  36
ENDBRANCH  34  35
ENDBRANCH  33  34
ENDBRANCH   1  33
TORSDOF 26
ENDMDL
