MODEL 1
REMARK VINA RESULT:     -10.9      0.000      0.000
REMARK SMILES Cc1ccc(S(=O)(=O)n2cc(C(=O)C(=O)N[C@@H](Cc3c[nH]c4ccccc34)C(=O)OCCOCCOCCOCCOC(=O)c3ccc(-c4c5nc(c(-c6ccccc6)c6ccc([nH]6)c(-c6ccccc6)c6nc(c(-c7ccccc7)c7ccc4[nH]7)C=C6)C=C5)cc3)c3ccccc32)cc1
REMARK SMILES IDX 34 1 33 2 32 3 31 4 30 5 28 6 29 7 17 8 16 9 14 10 15 11
REMARK SMILES IDX 12 13 13 14 11 15 9 16 10 17 98 18 93 19 97 20 94 21 96 22
REMARK SMILES IDX 95 23 6 24 7 25 8 26 5 27 1 28 2 29 3 30 100 31 4 32 99 33
REMARK SMILES IDX 18 34 19 35 20 36 27 37 21 38 22 39 26 40 23 42 25 43 24 44
REMARK SMILES IDX 35 45 36 46 37 47 38 48 39 49 40 50 41 51 42 52 43 53 44 54
REMARK SMILES IDX 45 55 46 56 92 57 47 58 91 59 48 60 49 61 50 62 85 63 51 64
REMARK SMILES IDX 90 65 84 66 86 67 52 68 89 69 83 70 82 71 53 73 75 74 60 75
REMARK SMILES IDX 74 76 61 77 64 78 73 79 87 80 62 81 63 82 72 84 88 85 65 86
REMARK SMILES IDX 54 87 55 88 59 89 56 90 58 91 57 92 76 93 77 94 81 95 78 96
REMARK SMILES IDX 80 97 79 98 66 99 67 100 71 101 68 102 70 103 69 104
REMARK H PARENT 16 12 21 41 86 72 64 83
REMARK Flexibility Score: inf
ROOT
ATOM      1  C   UNL A   1      42.707  22.300  25.521  1.00  0.00     0.188 C 
ENDROOT
BRANCH   1   2
ATOM      2  O   UNL A   1      42.153  21.497  26.553  1.00  0.00    -0.376 OA
BRANCH   2   3
ATOM      3  C   UNL A   1      40.915  20.902  26.169  1.00  0.00     0.202 C 
BRANCH   3   4
ATOM      4  C   UNL A   1      39.641  21.665  26.568  1.00  0.00     0.261 C 
BRANCH   4   5
ATOM      5  O   UNL A   1      38.824  22.128  25.489  1.00  0.00    -0.462 OA
BRANCH   5   6
ATOM      6  C   UNL A   1      37.784  21.298  25.207  1.00  0.00     0.329 C 
ATOM      7  O   UNL A   1      37.880  20.078  25.080  1.00  0.00    -0.250 OA
BRANCH   6   8
ATOM      8  C   UNL A   1      36.424  22.018  25.087  1.00  0.00     0.197 C 
BRANCH   8   9
ATOM      9  N   UNL A   1      35.890  22.415  23.755  1.00  0.00    -0.335 N 
ATOM     10  C   UNL A   1      34.996  23.447  23.472  1.00  0.00     0.293 C 
ATOM     11  O   UNL A   1      34.396  23.516  22.403  1.00  0.00    -0.265 OA
ATOM     12  H   UNL A   1      36.204  21.886  22.986  1.00  0.00     0.164 HD
BRANCH  10  13
ATOM     13  C   UNL A   1      34.910  24.589  24.481  1.00  0.00     0.252 C 
ATOM     14  O   UNL A   1      35.730  24.497  25.398  1.00  0.00    -0.283 OA
BRANCH  13  15
ATOM     15  C   UNL A   1      34.046  25.771  24.513  1.00  0.00     0.054 A 
ATOM     16  N   UNL A   1      32.699  27.468  23.959  1.00  0.00    -0.240 N 
ATOM     17  C   UNL A   1      34.056  27.102  24.074  1.00  0.00     0.117 A 
ATOM     18  C   UNL A   1      31.950  26.313  24.265  1.00  0.00     0.065 A 
ATOM     19  C   UNL A   1      32.773  25.632  25.133  1.00  0.00     0.012 A 
ATOM     20  C   UNL A   1      30.582  26.014  24.176  1.00  0.00     0.028 A 
ATOM     21  C   UNL A   1      32.196  24.820  26.130  1.00  0.00     0.011 A 
ATOM     22  C   UNL A   1      30.027  25.233  25.192  1.00  0.00     0.002 A 
ATOM     23  C   UNL A   1      30.815  24.694  26.198  1.00  0.00     0.001 A 
BRANCH  16  24
ATOM     24  S   UNL A   1      31.865  28.857  24.577  1.00  0.00     0.268 S 
ATOM     25  O   UNL A   1      32.932  29.801  24.869  1.00  0.00    -0.201 OA
ATOM     26  O   UNL A   1      31.104  28.225  25.652  1.00  0.00    -0.201 OA
BRANCH  24  27
ATOM     27  C   UNL A   1      30.588  29.818  23.871  1.00  0.00     0.088 A 
ATOM     28  C   UNL A   1      27.941  31.802  21.109  1.00  0.00     0.044 C 
ATOM     29  C   UNL A   1      28.786  31.091  22.126  1.00  0.00    -0.051 A 
ATOM     30  C   UNL A   1      29.504  29.998  21.673  1.00  0.00     0.005 A 
ATOM     31  C   UNL A   1      28.931  31.503  23.472  1.00  0.00     0.005 A 
ATOM     32  C   UNL A   1      30.362  29.366  22.543  1.00  0.00     0.022 A 
ATOM     33  C   UNL A   1      29.842  30.872  24.360  1.00  0.00     0.022 A 
ENDBRANCH  24  27
ENDBRANCH  16  24
ENDBRANCH  13  15
ENDBRANCH  10  13
ENDBRANCH   8   9
BRANCH   8  34
ATOM     34  C   UNL A   1      35.404  21.286  25.990  1.00  0.00     0.074 C 
BRANCH  34  35
ATOM     35  C   UNL A   1      34.199  20.679  25.339  1.00  0.00    -0.020 A 
ATOM     36  C   UNL A   1      32.972  21.292  25.177  1.00  0.00     0.087 A 
ATOM     37  C   UNL A   1      34.111  19.410  24.678  1.00  0.00     0.003 A 
ATOM     38  N   UNL A   1      32.162  20.460  24.453  1.00  0.00    -0.361 N 
ATOM     39  C   UNL A   1      32.818  19.287  24.167  1.00  0.00     0.046 A 
ATOM     40  C   UNL A   1      35.014  18.347  24.467  1.00  0.00     0.010 A 
ATOM     41  H   UNL A   1      31.242  20.671  24.175  1.00  0.00     0.166 HD
ATOM     42  C   UNL A   1      32.377  18.144  23.491  1.00  0.00     0.026 A 
ATOM     43  C   UNL A   1      34.573  17.174  23.849  1.00  0.00     0.001 A 
ATOM     44  C   UNL A   1      33.274  17.078  23.364  1.00  0.00     0.002 A 
ENDBRANCH  34  35
ENDBRANCH   8  34
ENDBRANCH   6   8
ENDBRANCH   5   6
ENDBRANCH   4   5
ENDBRANCH   3   4
ENDBRANCH   2   3
ENDBRANCH   1   2
BRANCH   1  45
ATOM     45  C   UNL A   1      44.151  22.695  25.796  1.00  0.00     0.188 C 
BRANCH  45  46
ATOM     46  O   UNL A   1      44.941  23.062  24.689  1.00  0.00    -0.377 OA
BRANCH  46  47
ATOM     47  C   UNL A   1      46.108  23.774  25.081  1.00  0.00     0.188 C 
BRANCH  47  48
ATOM     48  C   UNL A   1      45.606  25.002  25.786  1.00  0.00     0.188 C 
BRANCH  48  49
ATOM     49  O   UNL A   1      44.989  25.788  24.765  1.00  0.00    -0.376 OA
BRANCH  49  50
ATOM     50  C   UNL A   1      43.924  26.619  25.204  1.00  0.00     0.202 C 
BRANCH  50  51
ATOM     51  C   UNL A   1      42.591  25.946  24.872  1.00  0.00     0.261 C 
BRANCH  51  52
ATOM     52  O   UNL A   1      41.543  26.643  25.590  1.00  0.00    -0.460 OA
BRANCH  52  53
ATOM     53  C   UNL A   1      41.725  26.717  26.931  1.00  0.00     0.338 C 
ATOM     54  O   UNL A   1      41.914  25.740  27.668  1.00  0.00    -0.246 OA
BRANCH  53  55
ATOM     55  C   UNL A   1      41.401  28.075  27.468  1.00  0.00     0.060 A 
ATOM     56  C   UNL A   1      42.455  28.897  27.905  1.00  0.00     0.016 A 
ATOM     57  C   UNL A   1      40.100  28.359  27.884  1.00  0.00     0.016 A 
ATOM     58  C   UNL A   1      42.234  29.875  28.885  1.00  0.00     0.010 A 
ATOM     59  C   UNL A   1      39.910  29.235  28.947  1.00  0.00     0.010 A 
ATOM     60  C   UNL A   1      40.977  29.969  29.495  1.00  0.00    -0.014 A 
BRANCH  60  61
ATOM     61  C   UNL A   1      40.777  30.500  30.863  1.00  0.00     0.031 A 
ATOM     62  C   UNL A   1      39.814  31.626  31.191  1.00  0.00     0.074 A 
ATOM     63  C   UNL A   1      41.118  29.648  31.859  1.00  0.00     0.049 A 
ATOM     64  N   UNL A   1      39.547  32.090  32.381  1.00  0.00    -0.248 NA
ATOM     65  C   UNL A   1      39.118  32.385  30.151  1.00  0.00     0.031 C 
ATOM     66  C   UNL A   1      40.236  29.377  32.968  1.00  0.00     0.029 A 
ATOM     67  N   UNL A   1      42.074  28.680  32.040  1.00  0.00    -0.354 N 
ATOM     68  C   UNL A   1      38.464  32.956  32.282  1.00  0.00     0.074 A 
ATOM     69  C   UNL A   1      38.334  33.199  30.866  1.00  0.00     0.031 C 
ATOM     70  C   UNL A   1      40.732  28.461  33.799  1.00  0.00     0.029 A 
ATOM     71  C   UNL A   1      42.064  28.202  33.355  1.00  0.00     0.049 A 
ATOM     72  H   UNL A   1      42.686  28.363  31.337  1.00  0.00     0.167 HD
ATOM     73  C   UNL A   1      37.676  33.271  33.363  1.00  0.00     0.031 A 
ATOM     74  C   UNL A   1      43.134  28.315  34.180  1.00  0.00     0.031 A 
ATOM     75  C   UNL A   1      38.226  32.829  34.667  1.00  0.00     0.049 A 
ATOM     76  C   UNL A   1      43.000  29.433  35.212  1.00  0.00     0.074 A 
ATOM     77  C   UNL A   1      37.688  32.357  35.857  1.00  0.00     0.029 A 
ATOM     78  N   UNL A   1      39.611  32.746  34.849  1.00  0.00    -0.354 N 
ATOM     79  N   UNL A   1      41.924  30.174  35.391  1.00  0.00    -0.248 NA
ATOM     80  C   UNL A   1      44.076  29.839  36.113  1.00  0.00     0.031 C 
ATOM     81  C   UNL A   1      38.746  31.856  36.672  1.00  0.00     0.029 A 
ATOM     82  C   UNL A   1      39.947  32.149  36.047  1.00  0.00     0.049 A 
ATOM     83  H   UNL A   1      40.271  33.075  34.196  1.00  0.00     0.167 HD
ATOM     84  C   UNL A   1      42.181  31.193  36.282  1.00  0.00     0.074 A 
ATOM     85  C   UNL A   1      43.520  30.883  36.756  1.00  0.00     0.031 C 
ATOM     86  C   UNL A   1      41.321  32.234  36.540  1.00  0.00     0.031 A 
BRANCH  73  87
ATOM     87  C   UNL A   1      36.241  33.843  33.231  1.00  0.00    -0.014 A 
ATOM     88  C   UNL A   1      35.111  33.007  33.364  1.00  0.00     0.009 A 
ATOM     89  C   UNL A   1      35.935  35.169  32.852  1.00  0.00     0.009 A 
ATOM     90  C   UNL A   1      33.794  33.447  33.111  1.00  0.00     0.001 A 
ATOM     91  C   UNL A   1      34.618  35.636  32.664  1.00  0.00     0.001 A 
ATOM     92  C   UNL A   1      33.545  34.769  32.774  1.00  0.00     0.000 A 
ENDBRANCH  73  87
BRANCH  74  93
ATOM     93  C   UNL A   1      44.245  27.453  33.654  1.00  0.00    -0.014 A 
ATOM     94  C   UNL A   1      45.407  27.548  34.462  1.00  0.00     0.009 A 
ATOM     95  C   UNL A   1      43.917  26.177  33.158  1.00  0.00     0.009 A 
ATOM     96  C   UNL A   1      45.967  26.405  35.051  1.00  0.00     0.001 A 
ATOM     97  C   UNL A   1      44.493  25.030  33.742  1.00  0.00     0.001 A 
ATOM     98  C   UNL A   1      45.462  25.148  34.740  1.00  0.00     0.000 A 
ENDBRANCH  74  93
BRANCH  86  99
ATOM     99  C   UNL A   1      41.639  33.533  37.294  1.00  0.00    -0.014 A 
ATOM    100  C   UNL A   1      41.888  34.775  36.705  1.00  0.00     0.009 A 
ATOM    101  C   UNL A   1      41.557  33.545  38.714  1.00  0.00     0.009 A 
ATOM    102  C   UNL A   1      42.082  35.935  37.476  1.00  0.00     0.001 A 
ATOM    103  C   UNL A   1      41.708  34.700  39.487  1.00  0.00     0.001 A 
ATOM    104  C   UNL A   1      41.984  35.900  38.862  1.00  0.00     0.000 A 
ENDBRANCH  86  99
ENDBRANCH  60  61
ENDBRANCH  53  55
ENDBRANCH  52  53
ENDBRANCH  51  52
ENDBRANCH  50  51
ENDBRANCH  49  50
ENDBRANCH  48  49
ENDBRANCH  47  48
ENDBRANCH  46  47
ENDBRANCH  45  46
ENDBRANCH   1  45
TORSDOF 27
ENDMDL
MODEL 2
REMARK VINA RESULT:     -10.2      5.768     11.574
REMARK SMILES Cc1ccc(S(=O)(=O)n2cc(C(=O)C(=O)N[C@@H](Cc3c[nH]c4ccccc34)C(=O)OCCOCCOCCOCCOC(=O)c3ccc(-c4c5nc(c(-c6ccccc6)c6ccc([nH]6)c(-c6ccccc6)c6nc(c(-c7ccccc7)c7ccc4[nH]7)C=C6)C=C5)cc3)c3ccccc32)cc1
REMARK SMILES IDX 34 1 33 2 32 3 31 4 30 5 28 6 29 7 17 8 16 9 14 10 15 11
REMARK SMILES IDX 12 13 13 14 11 15 9 16 10 17 98 18 93 19 97 20 94 21 96 22
REMARK SMILES IDX 95 23 6 24 7 25 8 26 5 27 1 28 2 29 3 30 100 31 4 32 99 33
REMARK SMILES IDX 18 34 19 35 20 36 27 37 21 38 22 39 26 40 23 42 25 43 24 44
REMARK SMILES IDX 35 45 36 46 37 47 38 48 39 49 40 50 41 51 42 52 43 53 44 54
REMARK SMILES IDX 45 55 46 56 92 57 47 58 91 59 48 60 49 61 50 62 85 63 51 64
REMARK SMILES IDX 90 65 84 66 86 67 52 68 89 69 83 70 82 71 53 73 75 74 60 75
REMARK SMILES IDX 74 76 61 77 64 78 73 79 87 80 62 81 63 82 72 84 88 85 65 86
REMARK SMILES IDX 54 87 55 88 59 89 56 90 58 91 57 92 76 93 77 94 81 95 78 96
REMARK SMILES IDX 80 97 79 98 66 99 67 100 71 101 68 102 70 103 69 104
REMARK H PARENT 16 12 21 41 86 72 64 83
REMARK Flexibility Score: inf
ROOT
ATOM      1  C   UNL A   1      40.716  21.384  26.226  1.00  0.00     0.188 C 
ENDROOT
BRANCH   1   2
ATOM      2  O   UNL A   1      40.329  22.287  27.252  1.00  0.00    -0.376 OA
BRANCH   2   3
ATOM      3  C   UNL A   1      39.702  23.457  26.732  1.00  0.00     0.202 C 
BRANCH   3   4
ATOM      4  C   UNL A   1      39.364  24.558  27.752  1.00  0.00     0.261 C 
BRANCH   4   5
ATOM      5  O   UNL A   1      40.417  25.476  28.057  1.00  0.00    -0.462 OA
BRANCH   5   6
ATOM      6  C   UNL A   1      39.970  26.674  28.521  1.00  0.00     0.329 C 
ATOM      7  O   UNL A   1      39.285  26.818  29.533  1.00  0.00    -0.250 OA
BRANCH   6   8
ATOM      8  C   UNL A   1      40.429  27.881  27.676  1.00  0.00     0.197 C 
BRANCH   8   9
ATOM      9  N   UNL A   1      41.060  27.678  26.344  1.00  0.00    -0.335 N 
ATOM     10  C   UNL A   1      42.207  28.298  25.845  1.00  0.00     0.293 C 
ATOM     11  O   UNL A   1      42.485  28.289  24.649  1.00  0.00    -0.265 OA
ATOM     12  H   UNL A   1      40.617  27.034  25.746  1.00  0.00     0.164 HD
BRANCH  10  13
ATOM     13  C   UNL A   1      43.198  28.853  26.865  1.00  0.00     0.252 C 
ATOM     14  O   UNL A   1      43.483  28.052  27.759  1.00  0.00    -0.283 OA
BRANCH  13  15
ATOM     15  C   UNL A   1      43.875  30.151  26.928  1.00  0.00     0.054 A 
ATOM     16  N   UNL A   1      44.676  32.129  27.589  1.00  0.00    -0.240 N 
ATOM     17  C   UNL A   1      43.550  31.510  27.009  1.00  0.00     0.117 A 
ATOM     18  C   UNL A   1      45.585  31.095  27.891  1.00  0.00     0.065 A 
ATOM     19  C   UNL A   1      45.297  30.144  26.938  1.00  0.00     0.012 A 
ATOM     20  C   UNL A   1      46.794  31.066  28.604  1.00  0.00     0.028 A 
ATOM     21  C   UNL A   1      46.326  29.297  26.482  1.00  0.00     0.011 A 
ATOM     22  C   UNL A   1      47.810  30.242  28.113  1.00  0.00     0.002 A 
ATOM     23  C   UNL A   1      47.601  29.412  27.022  1.00  0.00     0.001 A 
BRANCH  16  24
ATOM     24  S   UNL A   1      45.567  33.526  27.076  1.00  0.00     0.268 S 
ATOM     25  O   UNL A   1      44.963  34.617  27.823  1.00  0.00    -0.201 OA
ATOM     26  O   UNL A   1      45.385  33.411  25.630  1.00  0.00    -0.201 OA
BRANCH  24  27
ATOM     27  C   UNL A   1      47.284  33.849  27.108  1.00  0.00     0.088 A 
ATOM     28  C   UNL A   1      51.158  35.587  27.841  1.00  0.00     0.044 C 
ATOM     29  C   UNL A   1      49.849  34.895  27.600  1.00  0.00    -0.051 A 
ATOM     30  C   UNL A   1      48.810  35.230  28.451  1.00  0.00     0.005 A 
ATOM     31  C   UNL A   1      49.608  33.988  26.540  1.00  0.00     0.005 A 
ATOM     32  C   UNL A   1      47.566  34.691  28.218  1.00  0.00     0.022 A 
ATOM     33  C   UNL A   1      48.316  33.458  26.279  1.00  0.00     0.022 A 
ENDBRANCH  24  27
ENDBRANCH  16  24
ENDBRANCH  13  15
ENDBRANCH  10  13
ENDBRANCH   8   9
BRANCH   8  34
ATOM     34  C   UNL A   1      39.303  28.942  27.693  1.00  0.00     0.074 C 
BRANCH  34  35
ATOM     35  C   UNL A   1      39.344  29.992  28.761  1.00  0.00    -0.020 A 
ATOM     36  C   UNL A   1      40.431  30.290  29.562  1.00  0.00     0.087 A 
ATOM     37  C   UNL A   1      38.324  30.944  29.088  1.00  0.00     0.003 A 
ATOM     38  N   UNL A   1      40.112  31.369  30.342  1.00  0.00    -0.361 N 
ATOM     39  C   UNL A   1      38.819  31.766  30.102  1.00  0.00     0.046 A 
ATOM     40  C   UNL A   1      37.016  31.185  28.616  1.00  0.00     0.010 A 
ATOM     41  H   UNL A   1      40.723  31.800  30.982  1.00  0.00     0.166 HD
ATOM     42  C   UNL A   1      38.062  32.786  30.687  1.00  0.00     0.026 A 
ATOM     43  C   UNL A   1      36.225  32.158  29.230  1.00  0.00     0.001 A 
ATOM     44  C   UNL A   1      36.744  32.950  30.248  1.00  0.00     0.002 A 
ENDBRANCH  34  35
ENDBRANCH   8  34
ENDBRANCH   6   8
ENDBRANCH   5   6
ENDBRANCH   4   5
ENDBRANCH   3   4
ENDBRANCH   2   3
ENDBRANCH   1   2
BRANCH   1  45
ATOM     45  C   UNL A   1      41.375  20.124  26.772  1.00  0.00     0.188 C 
BRANCH  45  46
ATOM     46  O   UNL A   1      41.393  18.991  25.934  1.00  0.00    -0.377 OA
BRANCH  46  47
ATOM     47  C   UNL A   1      42.490  18.134  26.222  1.00  0.00     0.188 C 
BRANCH  47  48
ATOM     48  C   UNL A   1      43.717  18.931  25.876  1.00  0.00     0.188 C 
BRANCH  48  49
ATOM     49  O   UNL A   1      44.198  18.358  24.659  1.00  0.00    -0.376 OA
BRANCH  49  50
ATOM     50  C   UNL A   1      44.965  19.232  23.843  1.00  0.00     0.202 C 
BRANCH  50  51
ATOM     51  C   UNL A   1      45.167  20.558  24.579  1.00  0.00     0.261 C 
BRANCH  51  52
ATOM     52  O   UNL A   1      44.715  21.628  23.713  1.00  0.00    -0.460 OA
BRANCH  52  53
ATOM     53  C   UNL A   1      44.137  22.672  24.356  1.00  0.00     0.338 C 
ATOM     54  O   UNL A   1      42.918  22.889  24.387  1.00  0.00    -0.246 OA
BRANCH  53  55
ATOM     55  C   UNL A   1      45.143  23.690  24.792  1.00  0.00     0.060 A 
ATOM     56  C   UNL A   1      46.346  23.246  25.368  1.00  0.00     0.016 A 
ATOM     57  C   UNL A   1      44.746  25.014  24.983  1.00  0.00     0.016 A 
ATOM     58  C   UNL A   1      47.046  24.061  26.270  1.00  0.00     0.010 A 
ATOM     59  C   UNL A   1      45.367  25.766  25.974  1.00  0.00     0.010 A 
ATOM     60  C   UNL A   1      46.494  25.285  26.665  1.00  0.00    -0.014 A 
BRANCH  60  61
ATOM     61  C   UNL A   1      46.792  25.927  27.965  1.00  0.00     0.031 A 
ATOM     62  C   UNL A   1      45.836  25.912  29.145  1.00  0.00     0.074 A 
ATOM     63  C   UNL A   1      48.108  26.112  28.219  1.00  0.00     0.049 A 
ATOM     64  N   UNL A   1      46.070  26.401  30.331  1.00  0.00    -0.248 NA
ATOM     65  C   UNL A   1      44.473  25.391  29.037  1.00  0.00     0.031 C 
ATOM     66  C   UNL A   1      48.709  25.714  29.470  1.00  0.00     0.029 A 
ATOM     67  N   UNL A   1      49.223  26.397  27.472  1.00  0.00    -0.354 N 
ATOM     68  C   UNL A   1      45.046  25.997  31.182  1.00  0.00     0.074 A 
ATOM     69  C   UNL A   1      44.027  25.493  30.294  1.00  0.00     0.031 C 
ATOM     70  C   UNL A   1      50.024  25.921  29.490  1.00  0.00     0.029 A 
ATOM     71  C   UNL A   1      50.333  26.632  28.291  1.00  0.00     0.049 A 
ATOM     72  H   UNL A   1      49.240  26.432  26.488  1.00  0.00     0.167 HD
ATOM     73  C   UNL A   1      45.196  25.969  32.548  1.00  0.00     0.031 A 
ATOM     74  C   UNL A   1      50.993  27.817  28.304  1.00  0.00     0.031 A 
ATOM     75  C   UNL A   1      46.421  26.645  33.039  1.00  0.00     0.049 A 
ATOM     76  C   UNL A   1      50.660  28.693  29.510  1.00  0.00     0.074 A 
ATOM     77  C   UNL A   1      47.315  26.433  34.081  1.00  0.00     0.029 A 
ATOM     78  N   UNL A   1      46.957  27.724  32.329  1.00  0.00    -0.354 N 
ATOM     79  N   UNL A   1      49.892  28.332  30.520  1.00  0.00    -0.248 NA
ATOM     80  C   UNL A   1      51.133  30.065  29.671  1.00  0.00     0.031 C 
ATOM     81  C   UNL A   1      48.447  27.281  33.893  1.00  0.00     0.029 A 
ATOM     82  C   UNL A   1      48.186  28.115  32.818  1.00  0.00     0.049 A 
ATOM     83  H   UNL A   1      46.509  28.154  31.565  1.00  0.00     0.167 HD
ATOM     84  C   UNL A   1      49.662  29.400  31.359  1.00  0.00     0.074 A 
ATOM     85  C   UNL A   1      50.528  30.435  30.816  1.00  0.00     0.031 C 
ATOM     86  C   UNL A   1      48.761  29.392  32.398  1.00  0.00     0.031 A 
BRANCH  73  87
ATOM     87  C   UNL A   1      44.292  25.128  33.486  1.00  0.00    -0.014 A 
ATOM     88  C   UNL A   1      43.276  25.737  34.254  1.00  0.00     0.009 A 
ATOM     89  C   UNL A   1      44.468  23.752  33.752  1.00  0.00     0.009 A 
ATOM     90  C   UNL A   1      42.524  25.043  35.226  1.00  0.00     0.001 A 
ATOM     91  C   UNL A   1      43.676  23.034  34.671  1.00  0.00     0.001 A 
ATOM     92  C   UNL A   1      42.715  23.684  35.425  1.00  0.00     0.000 A 
ENDBRANCH  73  87
BRANCH  74  93
ATOM     93  C   UNL A   1      51.668  28.010  26.978  1.00  0.00    -0.014 A 
ATOM     94  C   UNL A   1      51.424  29.304  26.451  1.00  0.00     0.009 A 
ATOM     95  C   UNL A   1      52.966  27.490  26.812  1.00  0.00     0.009 A 
ATOM     96  C   UNL A   1      52.486  30.165  26.140  1.00  0.00     0.001 A 
ATOM     97  C   UNL A   1      54.031  28.355  26.484  1.00  0.00     0.001 A 
ATOM     98  C   UNL A   1      53.796  29.706  26.223  1.00  0.00     0.000 A 
ENDBRANCH  74  93
BRANCH  86  99
ATOM     99  C   UNL A   1      48.251  30.603  33.191  1.00  0.00    -0.014 A 
ATOM    100  C   UNL A   1      49.012  31.377  34.070  1.00  0.00     0.009 A 
ATOM    101  C   UNL A   1      46.939  31.090  32.940  1.00  0.00     0.009 A 
ATOM    102  C   UNL A   1      48.488  32.528  34.687  1.00  0.00     0.001 A 
ATOM    103  C   UNL A   1      46.423  32.255  33.516  1.00  0.00     0.001 A 
ATOM    104  C   UNL A   1      47.201  32.971  34.404  1.00  0.00     0.000 A 
ENDBRANCH  86  99
ENDBRANCH  60  61
ENDBRANCH  53  55
ENDBRANCH  52  53
ENDBRANCH  51  52
ENDBRANCH  50  51
ENDBRANCH  49  50
ENDBRANCH  48  49
ENDBRANCH  47  48
ENDBRANCH  46  47
ENDBRANCH  45  46
ENDBRANCH   1  45
TORSDOF 27
ENDMDL
MODEL 3
REMARK VINA RESULT:     -10.2      5.455     10.534
REMARK SMILES Cc1ccc(S(=O)(=O)n2cc(C(=O)C(=O)N[C@@H](Cc3c[nH]c4ccccc34)C(=O)OCCOCCOCCOCCOC(=O)c3ccc(-c4c5nc(c(-c6ccccc6)c6ccc([nH]6)c(-c6ccccc6)c6nc(c(-c7ccccc7)c7ccc4[nH]7)C=C6)C=C5)cc3)c3ccccc32)cc1
REMARK SMILES IDX 34 1 33 2 32 3 31 4 30 5 28 6 29 7 17 8 16 9 14 10 15 11
REMARK SMILES IDX 12 13 13 14 11 15 9 16 10 17 98 18 93 19 97 20 94 21 96 22
REMARK SMILES IDX 95 23 6 24 7 25 8 26 5 27 1 28 2 29 3 30 100 31 4 32 99 33
REMARK SMILES IDX 18 34 19 35 20 36 27 37 21 38 22 39 26 40 23 42 25 43 24 44
REMARK SMILES IDX 35 45 36 46 37 47 38 48 39 49 40 50 41 51 42 52 43 53 44 54
REMARK SMILES IDX 45 55 46 56 92 57 47 58 91 59 48 60 49 61 50 62 85 63 51 64
REMARK SMILES IDX 90 65 84 66 86 67 52 68 89 69 83 70 82 71 53 73 75 74 60 75
REMARK SMILES IDX 74 76 61 77 64 78 73 79 87 80 62 81 63 82 72 84 88 85 65 86
REMARK SMILES IDX 54 87 55 88 59 89 56 90 58 91 57 92 76 93 77 94 81 95 78 96
REMARK SMILES IDX 80 97 79 98 66 99 67 100 71 101 68 102 70 103 69 104
REMARK H PARENT 16 12 21 41 86 72 64 83
REMARK Flexibility Score: inf
ROOT
ATOM      1  C   UNL A   1      40.898  22.114  26.186  1.00  0.00     0.188 C 
ENDROOT
BRANCH   1   2
ATOM      2  O   UNL A   1      39.973  22.577  27.159  1.00  0.00    -0.376 OA
BRANCH   2   3
ATOM      3  C   UNL A   1      39.516  23.899  26.882  1.00  0.00     0.202 C 
BRANCH   3   4
ATOM      4  C   UNL A   1      39.678  24.927  28.015  1.00  0.00     0.261 C 
BRANCH   4   5
ATOM      5  O   UNL A   1      40.940  25.599  28.075  1.00  0.00    -0.462 OA
BRANCH   5   6
ATOM      6  C   UNL A   1      41.079  26.567  27.129  1.00  0.00     0.329 C 
ATOM      7  O   UNL A   1      41.189  26.353  25.923  1.00  0.00    -0.250 OA
BRANCH   6   8
ATOM      8  C   UNL A   1      41.054  28.002  27.696  1.00  0.00     0.197 C 
BRANCH   8   9
ATOM      9  N   UNL A   1      42.262  28.869  27.620  1.00  0.00    -0.335 N 
ATOM     10  C   UNL A   1      42.678  29.828  28.545  1.00  0.00     0.293 C 
ATOM     11  O   UNL A   1      43.512  30.684  28.266  1.00  0.00    -0.265 OA
ATOM     12  H   UNL A   1      42.831  28.753  26.826  1.00  0.00     0.164 HD
BRANCH  10  13
ATOM     13  C   UNL A   1      42.178  29.675  29.979  1.00  0.00     0.252 C 
ATOM     14  O   UNL A   1      42.485  28.596  30.494  1.00  0.00    -0.283 OA
BRANCH  13  15
ATOM     15  C   UNL A   1      41.433  30.603  30.833  1.00  0.00     0.054 A 
ATOM     16  N   UNL A   1      39.831  31.658  31.979  1.00  0.00    -0.240 N 
ATOM     17  C   UNL A   1      40.451  31.594  30.715  1.00  0.00     0.117 A 
ATOM     18  C   UNL A   1      40.427  30.651  32.765  1.00  0.00     0.065 A 
ATOM     19  C   UNL A   1      41.692  30.552  32.232  1.00  0.00     0.012 A 
ATOM     20  C   UNL A   1      40.133  30.135  34.037  1.00  0.00     0.028 A 
ATOM     21  C   UNL A   1      42.762  30.176  33.068  1.00  0.00     0.011 A 
ATOM     22  C   UNL A   1      41.211  29.798  34.859  1.00  0.00     0.002 A 
ATOM     23  C   UNL A   1      42.518  29.879  34.402  1.00  0.00     0.001 A 
BRANCH  16  24
ATOM     24  S   UNL A   1      39.496  33.030  32.986  1.00  0.00     0.268 S 
ATOM     25  O   UNL A   1      38.164  32.765  33.503  1.00  0.00    -0.201 OA
ATOM     26  O   UNL A   1      39.731  34.102  32.021  1.00  0.00    -0.201 OA
BRANCH  24  27
ATOM     27  C   UNL A   1      40.386  33.685  34.340  1.00  0.00     0.088 A 
ATOM     28  C   UNL A   1      42.914  36.107  36.853  1.00  0.00     0.044 C 
ATOM     29  C   UNL A   1      41.972  35.257  36.052  1.00  0.00    -0.051 A 
ATOM     30  C   UNL A   1      41.471  35.820  34.891  1.00  0.00     0.005 A 
ATOM     31  C   UNL A   1      41.623  33.925  36.379  1.00  0.00     0.005 A 
ATOM     32  C   UNL A   1      40.674  35.052  34.075  1.00  0.00     0.022 A 
ATOM     33  C   UNL A   1      40.828  33.120  35.519  1.00  0.00     0.022 A 
ENDBRANCH  24  27
ENDBRANCH  16  24
ENDBRANCH  13  15
ENDBRANCH  10  13
ENDBRANCH   8   9
BRANCH   8  34
ATOM     34  C   UNL A   1      39.748  28.687  27.229  1.00  0.00     0.074 C 
BRANCH  34  35
ATOM     35  C   UNL A   1      38.800  29.180  28.279  1.00  0.00    -0.020 A 
ATOM     36  C   UNL A   1      37.854  30.174  28.112  1.00  0.00     0.087 A 
ATOM     37  C   UNL A   1      38.616  28.662  29.603  1.00  0.00     0.003 A 
ATOM     38  N   UNL A   1      37.117  30.270  29.262  1.00  0.00    -0.361 N 
ATOM     39  C   UNL A   1      37.586  29.386  30.203  1.00  0.00     0.046 A 
ATOM     40  C   UNL A   1      39.236  27.640  30.353  1.00  0.00     0.010 A 
ATOM     41  H   UNL A   1      36.360  30.885  29.395  1.00  0.00     0.166 HD
ATOM     42  C   UNL A   1      37.172  29.163  31.521  1.00  0.00     0.026 A 
ATOM     43  C   UNL A   1      38.879  27.445  31.689  1.00  0.00     0.001 A 
ATOM     44  C   UNL A   1      37.857  28.194  32.261  1.00  0.00     0.002 A 
ENDBRANCH  34  35
ENDBRANCH   8  34
ENDBRANCH   6   8
ENDBRANCH   5   6
ENDBRANCH   4   5
ENDBRANCH   3   4
ENDBRANCH   2   3
ENDBRANCH   1   2
BRANCH   1  45
ATOM     45  C   UNL A   1      41.606  20.835  26.613  1.00  0.00     0.188 C 
BRANCH  45  46
ATOM     46  O   UNL A   1      41.257  19.649  25.938  1.00  0.00    -0.377 OA
BRANCH  46  47
ATOM     47  C   UNL A   1      42.116  18.568  26.282  1.00  0.00     0.188 C 
BRANCH  47  48
ATOM     48  C   UNL A   1      43.504  19.051  25.968  1.00  0.00     0.188 C 
BRANCH  48  49
ATOM     49  O   UNL A   1      43.673  18.807  24.570  1.00  0.00    -0.376 OA
BRANCH  49  50
ATOM     50  C   UNL A   1      44.887  19.295  24.016  1.00  0.00     0.202 C 
BRANCH  50  51
ATOM     51  C   UNL A   1      45.448  20.392  24.922  1.00  0.00     0.261 C 
BRANCH  51  52
ATOM     52  O   UNL A   1      45.667  21.576  24.115  1.00  0.00    -0.460 OA
BRANCH  52  53
ATOM     53  C   UNL A   1      44.846  22.616  24.400  1.00  0.00     0.338 C 
ATOM     54  O   UNL A   1      43.641  22.657  24.117  1.00  0.00    -0.246 OA
BRANCH  53  55
ATOM     55  C   UNL A   1      45.606  23.826  24.845  1.00  0.00     0.060 A 
ATOM     56  C   UNL A   1      46.773  23.646  25.608  1.00  0.00     0.016 A 
ATOM     57  C   UNL A   1      44.980  25.072  24.845  1.00  0.00     0.016 A 
ATOM     58  C   UNL A   1      47.202  24.643  26.496  1.00  0.00     0.010 A 
ATOM     59  C   UNL A   1      45.329  26.001  25.819  1.00  0.00     0.010 A 
ATOM     60  C   UNL A   1      46.411  25.782  26.689  1.00  0.00    -0.014 A 
BRANCH  60  61
ATOM     61  C   UNL A   1      46.420  26.573  27.940  1.00  0.00     0.031 A 
ATOM     62  C   UNL A   1      45.489  26.303  29.108  1.00  0.00     0.074 A 
ATOM     63  C   UNL A   1      47.580  27.225  28.193  1.00  0.00     0.049 A 
ATOM     64  N   UNL A   1      45.495  26.921  30.257  1.00  0.00    -0.248 NA
ATOM     65  C   UNL A   1      44.398  25.330  29.026  1.00  0.00     0.031 C 
ATOM     66  C   UNL A   1      48.236  27.147  29.476  1.00  0.00     0.029 A 
ATOM     67  N   UNL A   1      48.551  27.832  27.437  1.00  0.00    -0.354 N 
ATOM     68  C   UNL A   1      44.647  26.241  31.125  1.00  0.00     0.074 A 
ATOM     69  C   UNL A   1      43.900  25.353  30.267  1.00  0.00     0.031 C 
ATOM     70  C   UNL A   1      49.395  27.803  29.493  1.00  0.00     0.029 A 
ATOM     71  C   UNL A   1      49.479  28.496  28.247  1.00  0.00     0.049 A 
ATOM     72  H   UNL A   1      48.589  27.805  26.453  1.00  0.00     0.167 HD
ATOM     73  C   UNL A   1      44.749  26.359  32.491  1.00  0.00     0.031 A 
ATOM     74  C   UNL A   1      49.683  29.834  28.178  1.00  0.00     0.031 A 
ATOM     75  C   UNL A   1      45.642  27.453  32.942  1.00  0.00     0.049 A 
ATOM     76  C   UNL A   1      49.022  30.617  29.311  1.00  0.00     0.074 A 
ATOM     77  C   UNL A   1      46.516  27.638  34.006  1.00  0.00     0.029 A 
ATOM     78  N   UNL A   1      45.793  28.601  32.158  1.00  0.00    -0.354 N 
ATOM     79  N   UNL A   1      48.393  30.078  30.337  1.00  0.00    -0.248 NA
ATOM     80  C   UNL A   1      48.981  32.075  29.374  1.00  0.00     0.031 C 
ATOM     81  C   UNL A   1      47.287  28.815  33.766  1.00  0.00     0.029 A 
ATOM     82  C   UNL A   1      46.789  29.430  32.629  1.00  0.00     0.049 A 
ATOM     83  H   UNL A   1      45.250  28.795  31.359  1.00  0.00     0.167 HD
ATOM     84  C   UNL A   1      47.775  31.051  31.092  1.00  0.00     0.074 A 
ATOM     85  C   UNL A   1      48.244  32.285  30.481  1.00  0.00     0.031 C 
ATOM     86  C   UNL A   1      46.898  30.797  32.120  1.00  0.00     0.031 A 
BRANCH  73  87
ATOM     87  C   UNL A   1      44.162  25.319  33.480  1.00  0.00    -0.014 A 
ATOM     88  C   UNL A   1      44.436  23.941  33.333  1.00  0.00     0.009 A 
ATOM     89  C   UNL A   1      43.233  25.615  34.503  1.00  0.00     0.009 A 
ATOM     90  C   UNL A   1      43.813  22.945  34.114  1.00  0.00     0.001 A 
ATOM     91  C   UNL A   1      42.659  24.633  35.335  1.00  0.00     0.001 A 
ATOM     92  C   UNL A   1      42.933  23.292  35.128  1.00  0.00     0.000 A 
ENDBRANCH  73  87
BRANCH  74  93
ATOM     93  C   UNL A   1      50.295  30.163  26.847  1.00  0.00    -0.014 A 
ATOM     94  C   UNL A   1      50.202  31.549  26.558  1.00  0.00     0.009 A 
ATOM     95  C   UNL A   1      51.494  29.518  26.491  1.00  0.00     0.009 A 
ATOM     96  C   UNL A   1      51.353  32.307  26.301  1.00  0.00     0.001 A 
ATOM     97  C   UNL A   1      52.647  30.283  26.218  1.00  0.00     0.001 A 
ATOM     98  C   UNL A   1      52.588  31.677  26.198  1.00  0.00     0.000 A 
ENDBRANCH  74  93
BRANCH  86  99
ATOM     99  C   UNL A   1      45.969  31.802  32.814  1.00  0.00    -0.014 A 
ATOM    100  C   UNL A   1      45.821  31.953  34.195  1.00  0.00     0.009 A 
ATOM    101  C   UNL A   1      45.282  32.767  32.026  1.00  0.00     0.009 A 
ATOM    102  C   UNL A   1      45.014  32.964  34.748  1.00  0.00     0.001 A 
ATOM    103  C   UNL A   1      44.511  33.799  32.566  1.00  0.00     0.001 A 
ATOM    104  C   UNL A   1      44.368  33.890  33.937  1.00  0.00     0.000 A 
ENDBRANCH  86  99
ENDBRANCH  60  61
ENDBRANCH  53  55
ENDBRANCH  52  53
ENDBRANCH  51  52
ENDBRANCH  50  51
ENDBRANCH  49  50
ENDBRANCH  48  49
ENDBRANCH  47  48
ENDBRANCH  46  47
ENDBRANCH  45  46
ENDBRANCH   1  45
TORSDOF 27
ENDMDL
