MODEL 1
REMARK VINA RESULT:      -7.4      0.000      0.000
REMARK SMILES COc1ccc(/C=C2/C(=O)N(c3ccccc3)C(=O)N=C2OCCOCCOCCOCCOC(=O)c2ccc(-c3c4nc(c(-c5ccccc5)c5ccc([nH]5)c(-c5ccccc5)c5nc(c(-c6ccccc6)c6ccc3[nH]6)C=C5)C=C4)cc2)cc1C(=O)[O-]
REMARK SMILES IDX 29 1 28 2 27 3 26 4 25 5 24 6 23 7 22 8 21 9 7 10 8 11 9 12
REMARK SMILES IDX 10 13 11 14 20 15 18 16 19 17 6 18 3 19 4 20 86 21 5 22
REMARK SMILES IDX 85 23 2 24 1 25 87 26 88 27 89 28 12 29 13 30 17 31 14 32
REMARK SMILES IDX 16 33 15 34 30 35 31 36 32 37 33 38 34 39 35 40 36 41 37 42
REMARK SMILES IDX 38 43 84 44 39 45 83 46 40 47 41 48 42 49 77 50 43 51 82 52
REMARK SMILES IDX 76 53 78 54 44 55 81 56 75 57 74 58 45 60 67 61 52 62 66 63
REMARK SMILES IDX 53 64 56 65 65 66 79 67 54 68 55 69 64 71 80 72 57 73 46 74
REMARK SMILES IDX 47 75 51 76 48 77 50 78 49 79 68 80 69 81 73 82 70 83 72 84
REMARK SMILES IDX 71 85 58 86 59 87 63 88 60 89 62 90 61 91
REMARK H PARENT 78 59 56 70
REMARK Flexibility Score: inf
ROOT
ATOM      1  C   UNL A   1      49.585  24.764  40.296  1.00  0.00     0.188 C 
ENDROOT
BRANCH   1   2
ATOM      2  O   UNL A   1      48.841  24.183  39.238  1.00  0.00    -0.377 OA
BRANCH   2   3
ATOM      3  C   UNL A   1      49.498  24.209  37.983  1.00  0.00     0.188 C 
BRANCH   3   4
ATOM      4  C   UNL A   1      49.177  23.121  36.939  1.00  0.00     0.188 C 
BRANCH   4   5
ATOM      5  O   UNL A   1      49.892  22.943  35.722  1.00  0.00    -0.376 OA
BRANCH   5   6
ATOM      6  C   UNL A   1      50.052  23.903  34.695  1.00  0.00     0.201 C 
BRANCH   6   7
ATOM      7  C   UNL A   1      49.068  24.022  33.534  1.00  0.00     0.260 C 
BRANCH   7   8
ATOM      8  O   UNL A   1      47.880  24.754  33.854  1.00  0.00    -0.475 OA
BRANCH   8   9
ATOM      9  C   UNL A   1      47.163  25.248  32.830  1.00  0.00     0.231 C 
ATOM     10  C   UNL A   1      45.090  23.899  33.554  1.00  0.00     0.027 C 
ATOM     11  C   UNL A   1      45.812  24.671  32.696  1.00  0.00     0.103 C 
ATOM     12  C   UNL A   1      45.215  24.919  31.323  1.00  0.00     0.272 C 
ATOM     13  O   UNL A   1      44.094  24.497  31.039  1.00  0.00    -0.268 OA
ATOM     14  N   UNL A   1      46.055  25.580  30.428  1.00  0.00    -0.226 N 
ATOM     15  N   UNL A   1      47.733  26.046  32.019  1.00  0.00    -0.156 NA
ATOM     16  C   UNL A   1      47.175  26.332  30.819  1.00  0.00     0.358 C 
ATOM     17  O   UNL A   1      47.672  27.194  30.119  1.00  0.00    -0.245 OA
BRANCH  10  18
ATOM     18  C   UNL A   1      45.293  23.284  34.908  1.00  0.00    -0.024 A 
ATOM     19  C   UNL A   1      45.827  21.951  37.422  1.00  0.00     0.127 A 
ATOM     20  C   UNL A   1      45.478  23.303  37.345  1.00  0.00     0.048 A 
ATOM     21  C   UNL A   1      45.831  21.229  36.227  1.00  0.00     0.040 A 
ATOM     22  C   UNL A   1      45.153  23.928  36.131  1.00  0.00     0.012 A 
ATOM     23  C   UNL A   1      45.609  21.911  34.991  1.00  0.00     0.022 A 
BRANCH  19  24
ATOM     24  O   UNL A   1      45.956  21.564  38.723  1.00  0.00    -0.496 OA
ATOM     25  C   UNL A   1      45.658  22.465  39.772  1.00  0.00     0.278 C 
ENDBRANCH  19  24
BRANCH  21  26
ATOM     26  C   UNL A   1      45.815  19.754  36.102  1.00  0.00     0.075 C 
ATOM     27  O   UNL A   1      45.719  18.989  37.046  1.00  0.00    -0.545 OA
ATOM     28  O   UNL A   1      45.818  19.280  34.850  1.00  0.00    -0.545 OA
ENDBRANCH  21  26
ENDBRANCH  10  18
BRANCH  14  29
ATOM     29  C   UNL A   1      45.726  25.665  29.044  1.00  0.00     0.054 A 
ATOM     30  C   UNL A   1      45.203  26.871  28.540  1.00  0.00     0.027 A 
ATOM     31  C   UNL A   1      45.758  24.534  28.230  1.00  0.00     0.027 A 
ATOM     32  C   UNL A   1      44.702  26.935  27.240  1.00  0.00     0.002 A 
ATOM     33  C   UNL A   1      45.223  24.595  26.941  1.00  0.00     0.002 A 
ATOM     34  C   UNL A   1      44.695  25.789  26.448  1.00  0.00     0.000 A 
ENDBRANCH  14  29
ENDBRANCH   8   9
ENDBRANCH   7   8
ENDBRANCH   6   7
ENDBRANCH   5   6
ENDBRANCH   4   5
ENDBRANCH   3   4
ENDBRANCH   2   3
ENDBRANCH   1   2
BRANCH   1  35
ATOM     35  C   UNL A   1      49.230  26.244  40.492  1.00  0.00     0.188 C 
BRANCH  35  36
ATOM     36  O   UNL A   1      47.838  26.448  40.663  1.00  0.00    -0.376 OA
BRANCH  36  37
ATOM     37  C   UNL A   1      47.270  27.685  40.252  1.00  0.00     0.202 C 
BRANCH  37  38
ATOM     38  C   UNL A   1      45.805  27.783  39.782  1.00  0.00     0.261 C 
BRANCH  38  39
ATOM     39  O   UNL A   1      45.424  27.020  38.628  1.00  0.00    -0.460 OA
BRANCH  39  40
ATOM     40  C   UNL A   1      46.142  27.156  37.495  1.00  0.00     0.338 C 
ATOM     41  O   UNL A   1      47.303  26.848  37.310  1.00  0.00    -0.246 OA
BRANCH  40  42
ATOM     42  C   UNL A   1      45.189  27.566  36.439  1.00  0.00     0.060 A 
ATOM     43  C   UNL A   1      45.636  28.403  35.407  1.00  0.00     0.016 A 
ATOM     44  C   UNL A   1      43.877  27.086  36.444  1.00  0.00     0.016 A 
ATOM     45  C   UNL A   1      44.758  28.793  34.396  1.00  0.00     0.010 A 
ATOM     46  C   UNL A   1      42.992  27.499  35.448  1.00  0.00     0.010 A 
ATOM     47  C   UNL A   1      43.420  28.384  34.443  1.00  0.00    -0.014 A 
BRANCH  47  48
ATOM     48  C   UNL A   1      42.410  29.072  33.608  1.00  0.00     0.031 A 
ATOM     49  C   UNL A   1      41.665  30.224  34.224  1.00  0.00     0.074 A 
ATOM     50  C   UNL A   1      42.158  28.702  32.342  1.00  0.00     0.049 A 
ATOM     51  N   UNL A   1      40.674  30.926  33.741  1.00  0.00    -0.248 NA
ATOM     52  C   UNL A   1      42.104  30.639  35.567  1.00  0.00     0.031 C 
ATOM     53  C   UNL A   1      42.861  27.656  31.603  1.00  0.00     0.029 A 
ATOM     54  N   UNL A   1      41.211  29.163  31.461  1.00  0.00    -0.354 N 
ATOM     55  C   UNL A   1      40.377  31.869  34.717  1.00  0.00     0.074 A 
ATOM     56  C   UNL A   1      41.262  31.624  35.833  1.00  0.00     0.031 C 
ATOM     57  C   UNL A   1      42.296  27.532  30.387  1.00  0.00     0.029 A 
ATOM     58  C   UNL A   1      41.164  28.451  30.289  1.00  0.00     0.049 A 
ATOM     59  H   UNL A   1      40.624  29.931  31.652  1.00  0.00     0.167 HD
ATOM     60  C   UNL A   1      39.456  32.858  34.684  1.00  0.00     0.031 A 
ATOM     61  C   UNL A   1      40.276  28.503  29.278  1.00  0.00     0.031 A 
ATOM     62  C   UNL A   1      38.555  33.082  33.587  1.00  0.00     0.049 A 
ATOM     63  C   UNL A   1      39.160  29.509  29.324  1.00  0.00     0.074 A 
ATOM     64  C   UNL A   1      37.595  34.067  33.445  1.00  0.00     0.029 A 
ATOM     65  N   UNL A   1      38.497  32.294  32.448  1.00  0.00    -0.354 N 
ATOM     66  N   UNL A   1      38.890  30.403  30.243  1.00  0.00    -0.248 NA
ATOM     67  C   UNL A   1      38.235  29.521  28.181  1.00  0.00     0.031 C 
ATOM     68  C   UNL A   1      36.913  33.838  32.244  1.00  0.00     0.029 A 
ATOM     69  C   UNL A   1      37.492  32.749  31.612  1.00  0.00     0.049 A 
ATOM     70  H   UNL A   1      39.081  31.524  32.262  1.00  0.00     0.167 HD
ATOM     71  C   UNL A   1      37.794  31.114  29.772  1.00  0.00     0.074 A 
ATOM     72  C   UNL A   1      37.443  30.538  28.490  1.00  0.00     0.031 C 
ATOM     73  C   UNL A   1      37.150  32.162  30.342  1.00  0.00     0.031 A 
BRANCH  60  74
ATOM     74  C   UNL A   1      39.358  33.742  35.894  1.00  0.00    -0.014 A 
ATOM     75  C   UNL A   1      38.567  33.384  36.998  1.00  0.00     0.009 A 
ATOM     76  C   UNL A   1      40.067  34.952  35.930  1.00  0.00     0.009 A 
ATOM     77  C   UNL A   1      38.459  34.238  38.097  1.00  0.00     0.001 A 
ATOM     78  C   UNL A   1      39.979  35.791  37.042  1.00  0.00     0.001 A 
ATOM     79  C   UNL A   1      39.168  35.439  38.120  1.00  0.00     0.000 A 
ENDBRANCH  60  74
BRANCH  61  80
ATOM     80  C   UNL A   1      40.370  27.531  28.160  1.00  0.00    -0.014 A 
ATOM     81  C   UNL A   1      41.143  27.807  27.024  1.00  0.00     0.009 A 
ATOM     82  C   UNL A   1      39.664  26.319  28.225  1.00  0.00     0.009 A 
ATOM     83  C   UNL A   1      41.201  26.888  25.973  1.00  0.00     0.001 A 
ATOM     84  C   UNL A   1      39.747  25.391  27.187  1.00  0.00     0.001 A 
ATOM     85  C   UNL A   1      40.510  25.680  26.058  1.00  0.00     0.000 A 
ENDBRANCH  61  80
BRANCH  73  86
ATOM     86  C   UNL A   1      36.036  32.793  29.557  1.00  0.00    -0.014 A 
ATOM     87  C   UNL A   1      34.758  32.219  29.502  1.00  0.00     0.009 A 
ATOM     88  C   UNL A   1      36.267  34.011  28.896  1.00  0.00     0.009 A 
ATOM     89  C   UNL A   1      33.740  32.837  28.772  1.00  0.00     0.001 A 
ATOM     90  C   UNL A   1      35.240  34.642  28.194  1.00  0.00     0.001 A 
ATOM     91  C   UNL A   1      33.980  34.050  28.124  1.00  0.00     0.000 A 
ENDBRANCH  73  86
ENDBRANCH  47  48
ENDBRANCH  40  42
ENDBRANCH  39  40
ENDBRANCH  38  39
ENDBRANCH  37  38
ENDBRANCH  36  37
ENDBRANCH  35  36
ENDBRANCH   1  35
TORSDOF 23
ENDMDL
MODEL 2
REMARK VINA RESULT:      -7.3      7.135     12.339
REMARK SMILES COc1ccc(/C=C2/C(=O)N(c3ccccc3)C(=O)N=C2OCCOCCOCCOCCOC(=O)c2ccc(-c3c4nc(c(-c5ccccc5)c5ccc([nH]5)c(-c5ccccc5)c5nc(c(-c6ccccc6)c6ccc3[nH]6)C=C5)C=C4)cc2)cc1C(=O)[O-]
REMARK SMILES IDX 29 1 28 2 27 3 26 4 25 5 24 6 23 7 22 8 21 9 7 10 8 11 9 12
REMARK SMILES IDX 10 13 11 14 20 15 18 16 19 17 6 18 3 19 4 20 86 21 5 22
REMARK SMILES IDX 85 23 2 24 1 25 87 26 88 27 89 28 12 29 13 30 17 31 14 32
REMARK SMILES IDX 16 33 15 34 30 35 31 36 32 37 33 38 34 39 35 40 36 41 37 42
REMARK SMILES IDX 38 43 84 44 39 45 83 46 40 47 41 48 42 49 77 50 43 51 82 52
REMARK SMILES IDX 76 53 78 54 44 55 81 56 75 57 74 58 45 60 67 61 52 62 66 63
REMARK SMILES IDX 53 64 56 65 65 66 79 67 54 68 55 69 64 71 80 72 57 73 46 74
REMARK SMILES IDX 47 75 51 76 48 77 50 78 49 79 68 80 69 81 73 82 70 83 72 84
REMARK SMILES IDX 71 85 58 86 59 87 63 88 60 89 62 90 61 91
REMARK H PARENT 78 59 56 70
REMARK Flexibility Score: inf
ROOT
ATOM      1  C   UNL A   1      40.516  29.163  31.793  1.00  0.00     0.188 C 
ENDROOT
BRANCH   1   2
ATOM      2  O   UNL A   1      40.249  30.176  30.836  1.00  0.00    -0.377 OA
BRANCH   2   3
ATOM      3  C   UNL A   1      41.034  30.084  29.659  1.00  0.00     0.188 C 
BRANCH   3   4
ATOM      4  C   UNL A   1      40.455  29.374  28.420  1.00  0.00     0.188 C 
BRANCH   4   5
ATOM      5  O   UNL A   1      39.519  28.304  28.474  1.00  0.00    -0.376 OA
BRANCH   5   6
ATOM      6  C   UNL A   1      38.110  28.423  28.516  1.00  0.00     0.201 C 
BRANCH   6   7
ATOM      7  C   UNL A   1      37.383  29.650  27.970  1.00  0.00     0.260 C 
BRANCH   7   8
ATOM      8  O   UNL A   1      36.012  29.739  28.375  1.00  0.00    -0.475 OA
BRANCH   8   9
ATOM      9  C   UNL A   1      35.076  29.599  27.421  1.00  0.00     0.231 C 
ATOM     10  C   UNL A   1      33.921  31.785  28.153  1.00  0.00     0.027 C 
ATOM     11  C   UNL A   1      34.004  30.613  27.463  1.00  0.00     0.103 C 
ATOM     12  C   UNL A   1      32.777  30.185  26.680  1.00  0.00     0.272 C 
ATOM     13  O   UNL A   1      31.786  30.912  26.618  1.00  0.00    -0.268 OA
ATOM     14  N   UNL A   1      32.852  28.910  26.121  1.00  0.00    -0.226 N 
ATOM     15  N   UNL A   1      35.121  28.573  26.672  1.00  0.00    -0.156 NA
ATOM     16  C   UNL A   1      34.058  28.220  25.911  1.00  0.00     0.358 C 
ATOM     17  O   UNL A   1      34.170  27.313  25.108  1.00  0.00    -0.245 OA
BRANCH  10  18
ATOM     18  C   UNL A   1      34.769  32.540  29.134  1.00  0.00    -0.024 A 
ATOM     19  C   UNL A   1      36.362  33.831  31.178  1.00  0.00     0.127 A 
ATOM     20  C   UNL A   1      36.620  33.983  29.812  1.00  0.00     0.048 A 
ATOM     21  C   UNL A   1      35.236  33.084  31.529  1.00  0.00     0.040 A 
ATOM     22  C   UNL A   1      35.804  33.412  28.823  1.00  0.00     0.012 A 
ATOM     23  C   UNL A   1      34.486  32.417  30.511  1.00  0.00     0.022 A 
BRANCH  19  24
ATOM     24  O   UNL A   1      37.215  34.597  31.915  1.00  0.00    -0.496 OA
ATOM     25  C   UNL A   1      38.611  34.533  31.693  1.00  0.00     0.278 C 
ENDBRANCH  19  24
BRANCH  21  26
ATOM     26  C   UNL A   1      34.571  33.082  32.853  1.00  0.00     0.075 C 
ATOM     27  O   UNL A   1      33.363  33.083  33.010  1.00  0.00    -0.545 OA
ATOM     28  O   UNL A   1      35.388  32.980  33.909  1.00  0.00    -0.545 OA
ENDBRANCH  21  26
ENDBRANCH  10  18
BRANCH  14  29
ATOM     29  C   UNL A   1      31.696  28.285  25.570  1.00  0.00     0.054 A 
ATOM     30  C   UNL A   1      31.207  27.109  26.168  1.00  0.00     0.027 A 
ATOM     31  C   UNL A   1      31.152  28.724  24.364  1.00  0.00     0.027 A 
ATOM     32  C   UNL A   1      30.194  26.372  25.554  1.00  0.00     0.002 A 
ATOM     33  C   UNL A   1      30.163  27.963  23.735  1.00  0.00     0.002 A 
ATOM     34  C   UNL A   1      29.687  26.791  24.326  1.00  0.00     0.000 A 
ENDBRANCH  14  29
ENDBRANCH   8   9
ENDBRANCH   7   8
ENDBRANCH   6   7
ENDBRANCH   5   6
ENDBRANCH   4   5
ENDBRANCH   3   4
ENDBRANCH   2   3
ENDBRANCH   1   2
BRANCH   1  35
ATOM     35  C   UNL A   1      39.247  28.384  32.162  1.00  0.00     0.188 C 
BRANCH  35  36
ATOM     36  O   UNL A   1      38.063  29.073  31.797  1.00  0.00    -0.376 OA
BRANCH  36  37
ATOM     37  C   UNL A   1      37.302  29.715  32.813  1.00  0.00     0.202 C 
BRANCH  37  38
ATOM     38  C   UNL A   1      37.858  30.925  33.591  1.00  0.00     0.261 C 
BRANCH  38  39
ATOM     39  O   UNL A   1      38.329  30.698  34.928  1.00  0.00    -0.460 OA
BRANCH  39  40
ATOM     40  C   UNL A   1      38.195  31.682  35.838  1.00  0.00     0.338 C 
ATOM     41  O   UNL A   1      37.463  31.704  36.807  1.00  0.00    -0.246 OA
BRANCH  40  42
ATOM     42  C   UNL A   1      39.266  32.665  35.557  1.00  0.00     0.060 A 
ATOM     43  C   UNL A   1      38.918  34.001  35.314  1.00  0.00     0.016 A 
ATOM     44  C   UNL A   1      40.609  32.275  35.581  1.00  0.00     0.016 A 
ATOM     45  C   UNL A   1      39.912  34.945  35.057  1.00  0.00     0.010 A 
ATOM     46  C   UNL A   1      41.600  33.214  35.297  1.00  0.00     0.010 A 
ATOM     47  C   UNL A   1      41.252  34.543  34.997  1.00  0.00    -0.014 A 
BRANCH  47  48
ATOM     48  C   UNL A   1      42.259  35.431  34.374  1.00  0.00     0.031 A 
ATOM     49  C   UNL A   1      42.931  36.448  35.255  1.00  0.00     0.074 A 
ATOM     50  C   UNL A   1      42.581  35.343  33.073  1.00  0.00     0.049 A 
ATOM     51  N   UNL A   1      43.772  37.396  34.937  1.00  0.00    -0.248 NA
ATOM     52  C   UNL A   1      42.610  36.379  36.690  1.00  0.00     0.031 C 
ATOM     53  C   UNL A   1      42.063  34.355  32.130  1.00  0.00     0.029 A 
ATOM     54  N   UNL A   1      43.418  36.128  32.318  1.00  0.00    -0.354 N 
ATOM     55  C   UNL A   1      44.085  38.031  36.133  1.00  0.00     0.074 A 
ATOM     56  C   UNL A   1      43.315  37.388  37.174  1.00  0.00     0.031 C 
ATOM     57  C   UNL A   1      42.569  34.615  30.910  1.00  0.00     0.029 A 
ATOM     58  C   UNL A   1      43.399  35.815  30.982  1.00  0.00     0.049 A 
ATOM     59  H   UNL A   1      43.976  36.844  32.698  1.00  0.00     0.167 HD
ATOM     60  C   UNL A   1      44.946  39.052  36.348  1.00  0.00     0.031 A 
ATOM     61  C   UNL A   1      43.949  36.457  29.934  1.00  0.00     0.031 A 
ATOM     62  C   UNL A   1      45.687  39.710  35.308  1.00  0.00     0.049 A 
ATOM     63  C   UNL A   1      44.782  37.686  30.172  1.00  0.00     0.074 A 
ATOM     64  C   UNL A   1      46.598  40.745  35.420  1.00  0.00     0.029 A 
ATOM     65  N   UNL A   1      45.587  39.406  33.960  1.00  0.00    -0.354 N 
ATOM     66  N   UNL A   1      45.082  38.274  31.304  1.00  0.00    -0.248 NA
ATOM     67  C   UNL A   1      45.365  38.328  28.985  1.00  0.00     0.031 C 
ATOM     68  C   UNL A   1      47.005  41.106  34.131  1.00  0.00     0.029 A 
ATOM     69  C   UNL A   1      46.394  40.255  33.224  1.00  0.00     0.049 A 
ATOM     70  H   UNL A   1      45.024  38.692  33.582  1.00  0.00     0.167 HD
ATOM     71  C   UNL A   1      45.924  39.328  30.972  1.00  0.00     0.074 A 
ATOM     72  C   UNL A   1      46.076  39.304  29.532  1.00  0.00     0.031 C 
ATOM     73  C   UNL A   1      46.531  40.223  31.791  1.00  0.00     0.031 A 
BRANCH  60  74
ATOM     74  C   UNL A   1      45.090  39.537  37.762  1.00  0.00    -0.014 A 
ATOM     75  C   UNL A   1      46.023  38.961  38.640  1.00  0.00     0.009 A 
ATOM     76  C   UNL A   1      44.278  40.584  38.223  1.00  0.00     0.009 A 
ATOM     77  C   UNL A   1      46.113  39.401  39.962  1.00  0.00     0.001 A 
ATOM     78  C   UNL A   1      44.389  41.040  39.538  1.00  0.00     0.001 A 
ATOM     79  C   UNL A   1      45.299  40.442  40.408  1.00  0.00     0.000 A 
ENDBRANCH  60  74
BRANCH  61  80
ATOM     80  C   UNL A   1      43.682  35.984  28.553  1.00  0.00    -0.014 A 
ATOM     81  C   UNL A   1      42.588  36.466  27.821  1.00  0.00     0.009 A 
ATOM     82  C   UNL A   1      44.525  35.026  27.965  1.00  0.00     0.009 A 
ATOM     83  C   UNL A   1      42.341  35.992  26.529  1.00  0.00     0.001 A 
ATOM     84  C   UNL A   1      44.292  34.576  26.665  1.00  0.00     0.001 A 
ATOM     85  C   UNL A   1      43.196  35.055  25.951  1.00  0.00     0.000 A 
ENDBRANCH  61  80
BRANCH  73  86
ATOM     86  C   UNL A   1      47.463  41.213  31.154  1.00  0.00    -0.014 A 
ATOM     87  C   UNL A   1      48.848  41.002  31.119  1.00  0.00     0.009 A 
ATOM     88  C   UNL A   1      46.932  42.360  30.540  1.00  0.00     0.009 A 
ATOM     89  C   UNL A   1      49.688  41.936  30.509  1.00  0.00     0.001 A 
ATOM     90  C   UNL A   1      47.770  43.276  29.906  1.00  0.00     0.001 A 
ATOM     91  C   UNL A   1      49.148  43.069  29.899  1.00  0.00     0.000 A 
ENDBRANCH  73  86
ENDBRANCH  47  48
ENDBRANCH  40  42
ENDBRANCH  39  40
ENDBRANCH  38  39
ENDBRANCH  37  38
ENDBRANCH  36  37
ENDBRANCH  35  36
ENDBRANCH   1  35
TORSDOF 23
ENDMDL
MODEL 3
REMARK VINA RESULT:      -7.1      1.201      5.711
REMARK SMILES COc1ccc(/C=C2/C(=O)N(c3ccccc3)C(=O)N=C2OCCOCCOCCOCCOC(=O)c2ccc(-c3c4nc(c(-c5ccccc5)c5ccc([nH]5)c(-c5ccccc5)c5nc(c(-c6ccccc6)c6ccc3[nH]6)C=C5)C=C4)cc2)cc1C(=O)[O-]
REMARK SMILES IDX 29 1 28 2 27 3 26 4 25 5 24 6 23 7 22 8 21 9 7 10 8 11 9 12
REMARK SMILES IDX 10 13 11 14 20 15 18 16 19 17 6 18 3 19 4 20 86 21 5 22
REMARK SMILES IDX 85 23 2 24 1 25 87 26 88 27 89 28 12 29 13 30 17 31 14 32
REMARK SMILES IDX 16 33 15 34 30 35 31 36 32 37 33 38 34 39 35 40 36 41 37 42
REMARK SMILES IDX 38 43 84 44 39 45 83 46 40 47 41 48 42 49 77 50 43 51 82 52
REMARK SMILES IDX 76 53 78 54 44 55 81 56 75 57 74 58 45 60 67 61 52 62 66 63
REMARK SMILES IDX 53 64 56 65 65 66 79 67 54 68 55 69 64 71 80 72 57 73 46 74
REMARK SMILES IDX 47 75 51 76 48 77 50 78 49 79 68 80 69 81 73 82 70 83 72 84
REMARK SMILES IDX 71 85 58 86 59 87 63 88 60 89 62 90 61 91
REMARK H PARENT 78 59 56 70
REMARK Flexibility Score: inf
ROOT
ATOM      1  C   UNL A   1      50.025  27.055  39.843  1.00  0.00     0.188 C 
ENDROOT
BRANCH   1   2
ATOM      2  O   UNL A   1      50.532  25.731  39.861  1.00  0.00    -0.377 OA
BRANCH   2   3
ATOM      3  C   UNL A   1      50.509  25.084  38.600  1.00  0.00     0.188 C 
BRANCH   3   4
ATOM      4  C   UNL A   1      50.364  23.551  38.541  1.00  0.00     0.188 C 
BRANCH   4   5
ATOM      5  O   UNL A   1      49.698  22.849  37.498  1.00  0.00    -0.376 OA
BRANCH   5   6
ATOM      6  C   UNL A   1      50.159  22.682  36.171  1.00  0.00     0.201 C 
BRANCH   6   7
ATOM      7  C   UNL A   1      50.053  23.793  35.129  1.00  0.00     0.260 C 
BRANCH   7   8
ATOM      8  O   UNL A   1      49.118  23.517  34.080  1.00  0.00    -0.475 OA
BRANCH   8   9
ATOM      9  C   UNL A   1      48.438  24.558  33.568  1.00  0.00     0.231 C 
ATOM     10  C   UNL A   1      46.218  23.639  34.503  1.00  0.00     0.027 C 
ATOM     11  C   UNL A   1      46.974  24.471  33.734  1.00  0.00     0.103 C 
ATOM     12  C   UNL A   1      46.234  25.406  32.796  1.00  0.00     0.272 C 
ATOM     13  O   UNL A   1      45.004  25.454  32.798  1.00  0.00    -0.268 OA
ATOM     14  N   UNL A   1      47.047  26.124  31.919  1.00  0.00    -0.226 N 
ATOM     15  N   UNL A   1      49.077  25.432  32.901  1.00  0.00    -0.156 NA
ATOM     16  C   UNL A   1      48.423  26.321  32.116  1.00  0.00     0.358 C 
ATOM     17  O   UNL A   1      49.044  27.226  31.592  1.00  0.00    -0.245 OA
BRANCH  10  18
ATOM     18  C   UNL A   1      46.462  22.496  35.445  1.00  0.00    -0.024 A 
ATOM     19  C   UNL A   1      46.766  20.377  37.394  1.00  0.00     0.127 A 
ATOM     20  C   UNL A   1      47.051  20.200  36.036  1.00  0.00     0.048 A 
ATOM     21  C   UNL A   1      46.400  21.662  37.801  1.00  0.00     0.040 A 
ATOM     22  C   UNL A   1      46.968  21.248  35.106  1.00  0.00     0.012 A 
ATOM     23  C   UNL A   1      46.211  22.685  36.821  1.00  0.00     0.022 A 
BRANCH  19  24
ATOM     24  O   UNL A   1      47.060  19.246  38.096  1.00  0.00    -0.496 OA
ATOM     25  C   UNL A   1      46.025  18.465  38.662  1.00  0.00     0.278 C 
ENDBRANCH  19  24
BRANCH  21  26
ATOM     26  C   UNL A   1      46.400  22.166  39.193  1.00  0.00     0.075 C 
ATOM     27  O   UNL A   1      47.375  22.154  39.924  1.00  0.00    -0.545 OA
ATOM     28  O   UNL A   1      45.263  22.745  39.598  1.00  0.00    -0.545 OA
ENDBRANCH  21  26
ENDBRANCH  10  18
BRANCH  14  29
ATOM     29  C   UNL A   1      46.483  26.851  30.830  1.00  0.00     0.054 A 
ATOM     30  C   UNL A   1      46.261  28.232  30.975  1.00  0.00     0.027 A 
ATOM     31  C   UNL A   1      46.002  26.189  29.702  1.00  0.00     0.027 A 
ATOM     32  C   UNL A   1      45.549  28.939  30.006  1.00  0.00     0.002 A 
ATOM     33  C   UNL A   1      45.259  26.894  28.752  1.00  0.00     0.002 A 
ATOM     34  C   UNL A   1      45.031  28.264  28.904  1.00  0.00     0.000 A 
ENDBRANCH  14  29
ENDBRANCH   8   9
ENDBRANCH   7   8
ENDBRANCH   6   7
ENDBRANCH   5   6
ENDBRANCH   4   5
ENDBRANCH   3   4
ENDBRANCH   2   3
ENDBRANCH   1   2
BRANCH   1  35
ATOM     35  C   UNL A   1      48.789  27.200  40.740  1.00  0.00     0.188 C 
BRANCH  35  36
ATOM     36  O   UNL A   1      48.009  26.017  40.783  1.00  0.00    -0.376 OA
BRANCH  36  37
ATOM     37  C   UNL A   1      46.801  25.963  40.035  1.00  0.00     0.202 C 
BRANCH  37  38
ATOM     38  C   UNL A   1      46.809  25.915  38.495  1.00  0.00     0.261 C 
BRANCH  38  39
ATOM     39  O   UNL A   1      46.598  27.146  37.788  1.00  0.00    -0.460 OA
BRANCH  39  40
ATOM     40  C   UNL A   1      47.017  27.240  36.511  1.00  0.00     0.338 C 
ATOM     41  O   UNL A   1      48.073  26.862  36.046  1.00  0.00    -0.246 OA
BRANCH  40  42
ATOM     42  C   UNL A   1      45.857  27.710  35.721  1.00  0.00     0.060 A 
ATOM     43  C   UNL A   1      46.025  28.786  34.837  1.00  0.00     0.016 A 
ATOM     44  C   UNL A   1      44.623  27.059  35.818  1.00  0.00     0.016 A 
ATOM     45  C   UNL A   1      44.948  29.238  34.076  1.00  0.00     0.010 A 
ATOM     46  C   UNL A   1      43.540  27.530  35.076  1.00  0.00     0.010 A 
ATOM     47  C   UNL A   1      43.690  28.645  34.232  1.00  0.00    -0.014 A 
BRANCH  47  48
ATOM     48  C   UNL A   1      42.483  29.334  33.723  1.00  0.00     0.031 A 
ATOM     49  C   UNL A   1      41.943  28.900  32.389  1.00  0.00     0.074 A 
ATOM     50  C   UNL A   1      41.872  30.309  34.416  1.00  0.00     0.049 A 
ATOM     51  N   UNL A   1      40.963  29.403  31.685  1.00  0.00    -0.248 NA
ATOM     52  C   UNL A   1      42.600  27.737  31.768  1.00  0.00     0.031 C 
ATOM     53  C   UNL A   1      42.246  30.769  35.752  1.00  0.00     0.029 A 
ATOM     54  N   UNL A   1      40.809  31.105  34.067  1.00  0.00    -0.354 N 
ATOM     55  C   UNL A   1      40.882  28.614  30.545  1.00  0.00     0.074 A 
ATOM     56  C   UNL A   1      41.935  27.627  30.630  1.00  0.00     0.031 C 
ATOM     57  C   UNL A   1      41.443  31.794  36.095  1.00  0.00     0.029 A 
ATOM     58  C   UNL A   1      40.541  32.089  34.985  1.00  0.00     0.049 A 
ATOM     59  H   UNL A   1      40.290  30.980  33.240  1.00  0.00     0.167 HD
ATOM     60  C   UNL A   1      40.002  28.696  29.521  1.00  0.00     0.031 A 
ATOM     61  C   UNL A   1      39.699  33.137  34.911  1.00  0.00     0.031 A 
ATOM     62  C   UNL A   1      38.976  29.696  29.422  1.00  0.00     0.049 A 
ATOM     63  C   UNL A   1      38.831  33.305  33.695  1.00  0.00     0.074 A 
ATOM     64  C   UNL A   1      38.021  29.859  28.434  1.00  0.00     0.029 A 
ATOM     65  N   UNL A   1      38.783  30.715  30.340  1.00  0.00    -0.354 N 
ATOM     66  N   UNL A   1      38.752  32.551  32.625  1.00  0.00    -0.248 NA
ATOM     67  C   UNL A   1      37.924  34.463  33.685  1.00  0.00     0.031 C 
ATOM     68  C   UNL A   1      37.288  31.014  28.726  1.00  0.00     0.029 A 
ATOM     69  C   UNL A   1      37.746  31.533  29.926  1.00  0.00     0.049 A 
ATOM     70  H   UNL A   1      39.307  30.840  31.164  1.00  0.00     0.167 HD
ATOM     71  C   UNL A   1      37.757  33.115  31.836  1.00  0.00     0.074 A 
ATOM     72  C   UNL A   1      37.272  34.281  32.546  1.00  0.00     0.031 C 
ATOM     73  C   UNL A   1      37.278  32.693  30.640  1.00  0.00     0.031 A 
BRANCH  60  74
ATOM     74  C   UNL A   1      40.150  27.695  28.412  1.00  0.00    -0.014 A 
ATOM     75  C   UNL A   1      39.516  26.443  28.468  1.00  0.00     0.009 A 
ATOM     76  C   UNL A   1      40.938  28.008  27.294  1.00  0.00     0.009 A 
ATOM     77  C   UNL A   1      39.700  25.512  27.444  1.00  0.00     0.001 A 
ATOM     78  C   UNL A   1      41.097  27.086  26.258  1.00  0.00     0.001 A 
ATOM     79  C   UNL A   1      40.486  25.835  26.339  1.00  0.00     0.000 A 
ENDBRANCH  60  74
BRANCH  61  80
ATOM     80  C   UNL A   1      39.676  34.147  35.998  1.00  0.00    -0.014 A 
ATOM     81  C   UNL A   1      38.914  33.948  37.157  1.00  0.00     0.009 A 
ATOM     82  C   UNL A   1      40.417  35.334  35.866  1.00  0.00     0.009 A 
ATOM     83  C   UNL A   1      38.890  34.920  38.160  1.00  0.00     0.001 A 
ATOM     84  C   UNL A   1      40.413  36.290  36.882  1.00  0.00     0.001 A 
ATOM     85  C   UNL A   1      39.644  36.085  38.025  1.00  0.00     0.000 A 
ENDBRANCH  61  80
BRANCH  73  86
ATOM     86  C   UNL A   1      36.130  33.461  30.051  1.00  0.00    -0.014 A 
ATOM     87  C   UNL A   1      36.224  34.075  28.794  1.00  0.00     0.009 A 
ATOM     88  C   UNL A   1      34.916  33.531  30.755  1.00  0.00     0.009 A 
ATOM     89  C   UNL A   1      35.135  34.772  28.267  1.00  0.00     0.001 A 
ATOM     90  C   UNL A   1      33.820  34.202  30.213  1.00  0.00     0.001 A 
ATOM     91  C   UNL A   1      33.933  34.830  28.974  1.00  0.00     0.000 A 
ENDBRANCH  73  86
ENDBRANCH  47  48
ENDBRANCH  40  42
ENDBRANCH  39  40
ENDBRANCH  38  39
ENDBRANCH  37  38
ENDBRANCH  36  37
ENDBRANCH  35  36
ENDBRANCH   1  35
TORSDOF 23
ENDMDL
