MODEL 1
REMARK VINA RESULT:      -8.7      0.000      0.000
REMARK SMILES CC(C)(C)OC(=O)N[C@H](Cc1ccc(N=[N+]=[N-])cc1)C(=O)OCCOCCOCCOCCOC(=O)c1ccc(-c2c3nc(c(-c4ccccc4)c4ccc([nH]4)c(-c4ccccc4)c4nc(c(-c5ccccc5)c5ccc2[nH]5)C=C4)C=C3)cc1
REMARK SMILES IDX 27 1 26 2 25 3 24 4 23 5 22 6 20 7 21 8 9 9 8 10 6 11 7 12
REMARK SMILES IDX 5 14 2 15 1 16 3 17 4 18 10 19 11 20 12 21 19 22 13 23 18 24
REMARK SMILES IDX 14 25 15 26 16 27 17 28 28 29 29 30 30 31 31 32 32 33 33 34
REMARK SMILES IDX 34 35 35 36 36 37 37 38 38 39 84 40 39 41 83 42 40 43 41 44
REMARK SMILES IDX 42 45 77 46 43 47 82 48 76 49 78 50 44 51 81 52 75 53 74 54
REMARK SMILES IDX 45 56 67 57 52 58 66 59 53 60 56 61 65 62 79 63 54 64 55 65
REMARK SMILES IDX 64 67 80 68 57 69 46 70 47 71 51 72 48 73 50 74 49 75 68 76
REMARK SMILES IDX 69 77 73 78 70 79 72 80 71 81 58 82 59 83 63 84 60 85 62 86
REMARK SMILES IDX 61 87
REMARK H PARENT 8 13 78 55 56 66
REMARK Flexibility Score: inf
ROOT
ATOM      1  C   UNL A   1      32.094  22.407  25.720  1.00  0.00     0.188 C 
ENDROOT
BRANCH   1   2
ATOM      2  C   UNL A   1      31.922  23.687  26.545  1.00  0.00     0.188 C 
BRANCH   2   3
ATOM      3  O   UNL A   1      30.719  24.378  26.256  1.00  0.00    -0.376 OA
BRANCH   3   4
ATOM      4  C   UNL A   1      30.551  25.055  25.025  1.00  0.00     0.202 C 
BRANCH   4   5
ATOM      5  C   UNL A   1      29.660  26.302  24.864  1.00  0.00     0.261 C 
BRANCH   5   6
ATOM      6  O   UNL A   1      29.193  26.722  23.573  1.00  0.00    -0.462 OA
BRANCH   6   7
ATOM      7  C   UNL A   1      29.438  27.973  23.128  1.00  0.00     0.329 C 
ATOM      8  O   UNL A   1      28.796  28.543  22.252  1.00  0.00    -0.250 OA
BRANCH   7   9
ATOM      9  C   UNL A   1      30.731  28.549  23.740  1.00  0.00     0.199 C 
BRANCH   9  10
ATOM     10  N   UNL A   1      30.565  29.942  24.174  1.00  0.00    -0.308 N 
ATOM     11  C   UNL A   1      31.020  30.539  25.312  1.00  0.00     0.408 C 
ATOM     12  O   UNL A   1      30.947  31.751  25.450  1.00  0.00    -0.225 OA
ATOM     13  H   UNL A   1      30.058  30.522  23.561  1.00  0.00     0.168 HD
BRANCH  11  14
ATOM     14  O   UNL A   1      31.479  29.662  26.221  1.00  0.00    -0.444 OA
BRANCH  14  15
ATOM     15  C   UNL A   1      32.821  29.689  26.755  1.00  0.00     0.106 C 
ATOM     16  C   UNL A   1      33.766  29.626  25.540  1.00  0.00     0.056 C 
ATOM     17  C   UNL A   1      33.046  28.448  27.617  1.00  0.00     0.056 C 
ATOM     18  C   UNL A   1      33.089  31.002  27.487  1.00  0.00     0.056 C 
ENDBRANCH  14  15
ENDBRANCH  11  14
ENDBRANCH   9  10
BRANCH   9  19
ATOM     19  C   UNL A   1      31.934  28.351  22.770  1.00  0.00     0.072 C 
BRANCH  19  20
ATOM     20  C   UNL A   1      32.616  27.006  22.751  1.00  0.00    -0.045 A 
ATOM     21  C   UNL A   1      32.408  26.114  21.692  1.00  0.00     0.004 A 
ATOM     22  C   UNL A   1      33.516  26.651  23.759  1.00  0.00     0.004 A 
ATOM     23  C   UNL A   1      33.015  24.855  21.700  1.00  0.00     0.010 A 
ATOM     24  C   UNL A   1      34.092  25.380  23.780  1.00  0.00     0.010 A 
ATOM     25  C   UNL A   1      33.832  24.453  22.761  1.00  0.00     0.038 A 
BRANCH  25  26
ATOM     26  N   UNL A   1      34.363  23.150  22.709  1.00  0.00    -0.061 NA
ATOM     27  N   UNL A   1      35.591  23.063  22.856  1.00  0.00     0.005 N 
ATOM     28  N   UNL A   1      36.727  22.979  22.981  1.00  0.00    -0.003 NA
ENDBRANCH  25  26
ENDBRANCH  19  20
ENDBRANCH   9  19
ENDBRANCH   7   9
ENDBRANCH   6   7
ENDBRANCH   5   6
ENDBRANCH   4   5
ENDBRANCH   3   4
ENDBRANCH   2   3
ENDBRANCH   1   2
BRANCH   1  29
ATOM     29  O   UNL A   1      33.399  21.860  25.744  1.00  0.00    -0.377 OA
BRANCH  29  30
ATOM     30  C   UNL A   1      33.552  20.487  25.395  1.00  0.00     0.188 C 
BRANCH  30  31
ATOM     31  C   UNL A   1      34.831  19.969  24.692  1.00  0.00     0.188 C 
BRANCH  31  32
ATOM     32  O   UNL A   1      36.043  20.525  25.170  1.00  0.00    -0.376 OA
BRANCH  32  33
ATOM     33  C   UNL A   1      37.268  19.842  24.995  1.00  0.00     0.202 C 
BRANCH  33  34
ATOM     34  C   UNL A   1      38.584  20.540  25.371  1.00  0.00     0.261 C 
BRANCH  34  35
ATOM     35  O   UNL A   1      39.385  19.916  26.384  1.00  0.00    -0.460 OA
BRANCH  35  36
ATOM     36  C   UNL A   1      40.722  19.864  26.192  1.00  0.00     0.338 C 
ATOM     37  O   UNL A   1      41.345  19.009  25.594  1.00  0.00    -0.246 OA
BRANCH  36  38
ATOM     38  C   UNL A   1      41.281  21.156  26.654  1.00  0.00     0.060 A 
ATOM     39  C   UNL A   1      41.215  21.483  28.017  1.00  0.00     0.016 A 
ATOM     40  C   UNL A   1      41.912  22.017  25.754  1.00  0.00     0.016 A 
ATOM     41  C   UNL A   1      41.762  22.679  28.481  1.00  0.00     0.010 A 
ATOM     42  C   UNL A   1      42.423  23.234  26.213  1.00  0.00     0.010 A 
ATOM     43  C   UNL A   1      42.327  23.580  27.572  1.00  0.00    -0.014 A 
BRANCH  43  44
ATOM     44  C   UNL A   1      42.617  24.969  28.002  1.00  0.00     0.031 A 
ATOM     45  C   UNL A   1      44.050  25.340  28.266  1.00  0.00     0.074 A 
ATOM     46  C   UNL A   1      41.643  25.884  28.139  1.00  0.00     0.049 A 
ATOM     47  N   UNL A   1      44.548  26.460  28.722  1.00  0.00    -0.248 NA
ATOM     48  C   UNL A   1      45.056  24.304  27.978  1.00  0.00     0.031 C 
ATOM     49  C   UNL A   1      40.227  25.670  27.850  1.00  0.00     0.029 A 
ATOM     50  N   UNL A   1      41.708  27.186  28.573  1.00  0.00    -0.354 N 
ATOM     51  C   UNL A   1      45.921  26.258  28.788  1.00  0.00     0.074 A 
ATOM     52  C   UNL A   1      46.176  24.904  28.352  1.00  0.00     0.031 C 
ATOM     53  C   UNL A   1      39.553  26.800  28.128  1.00  0.00     0.029 A 
ATOM     54  C   UNL A   1      40.482  27.798  28.656  1.00  0.00     0.049 A 
ATOM     55  H   UNL A   1      42.553  27.636  28.802  1.00  0.00     0.167 HD
ATOM     56  C   UNL A   1      46.885  27.124  29.180  1.00  0.00     0.031 A 
ATOM     57  C   UNL A   1      40.148  29.013  29.135  1.00  0.00     0.031 A 
ATOM     58  C   UNL A   1      46.629  28.463  29.637  1.00  0.00     0.049 A 
ATOM     59  C   UNL A   1      41.229  29.920  29.667  1.00  0.00     0.074 A 
ATOM     60  C   UNL A   1      47.538  29.421  30.049  1.00  0.00     0.029 A 
ATOM     61  N   UNL A   1      45.369  29.028  29.755  1.00  0.00    -0.354 N 
ATOM     62  N   UNL A   1      42.526  29.730  29.709  1.00  0.00    -0.248 NA
ATOM     63  C   UNL A   1      40.795  31.214  30.215  1.00  0.00     0.031 C 
ATOM     64  C   UNL A   1      46.823  30.540  30.485  1.00  0.00     0.029 A 
ATOM     65  C   UNL A   1      45.473  30.309  30.270  1.00  0.00     0.049 A 
ATOM     66  H   UNL A   1      44.524  28.585  29.510  1.00  0.00     0.167 HD
ATOM     67  C   UNL A   1      43.064  30.888  30.257  1.00  0.00     0.074 A 
ATOM     68  C   UNL A   1      41.955  31.783  30.514  1.00  0.00     0.031 C 
ATOM     69  C   UNL A   1      44.360  31.187  30.524  1.00  0.00     0.031 A 
BRANCH  56  70
ATOM     70  C   UNL A   1      48.304  26.625  29.179  1.00  0.00    -0.014 A 
ATOM     71  C   UNL A   1      48.789  25.788  30.197  1.00  0.00     0.009 A 
ATOM     72  C   UNL A   1      49.162  26.980  28.126  1.00  0.00     0.009 A 
ATOM     73  C   UNL A   1      50.115  25.348  30.178  1.00  0.00     0.001 A 
ATOM     74  C   UNL A   1      50.475  26.511  28.092  1.00  0.00     0.001 A 
ATOM     75  C   UNL A   1      50.953  25.704  29.122  1.00  0.00     0.000 A 
ENDBRANCH  56  70
BRANCH  57  76
ATOM     76  C   UNL A   1      38.723  29.437  29.173  1.00  0.00    -0.014 A 
ATOM     77  C   UNL A   1      37.927  29.180  30.301  1.00  0.00     0.009 A 
ATOM     78  C   UNL A   1      38.137  30.070  28.065  1.00  0.00     0.009 A 
ATOM     79  C   UNL A   1      36.572  29.522  30.307  1.00  0.00     0.001 A 
ATOM     80  C   UNL A   1      36.791  30.442  28.086  1.00  0.00     0.001 A 
ATOM     81  C   UNL A   1      36.007  30.157  29.202  1.00  0.00     0.000 A 
ENDBRANCH  57  76
BRANCH  69  82
ATOM     82  C   UNL A   1      44.657  32.552  31.087  1.00  0.00    -0.014 A 
ATOM     83  C   UNL A   1      45.030  33.622  30.260  1.00  0.00     0.009 A 
ATOM     84  C   UNL A   1      44.516  32.778  32.466  1.00  0.00     0.009 A 
ATOM     85  C   UNL A   1      45.291  34.881  30.807  1.00  0.00     0.001 A 
ATOM     86  C   UNL A   1      44.743  34.046  33.005  1.00  0.00     0.001 A 
ATOM     87  C   UNL A   1      45.141  35.093  32.177  1.00  0.00     0.000 A 
ENDBRANCH  69  82
ENDBRANCH  43  44
ENDBRANCH  36  38
ENDBRANCH  35  36
ENDBRANCH  34  35
ENDBRANCH  33  34
ENDBRANCH  32  33
ENDBRANCH  31  32
ENDBRANCH  30  31
ENDBRANCH  29  30
ENDBRANCH   1  29
TORSDOF 26
ENDMDL
MODEL 2
REMARK VINA RESULT:      -8.3      3.246      8.133
REMARK SMILES CC(C)(C)OC(=O)N[C@H](Cc1ccc(N=[N+]=[N-])cc1)C(=O)OCCOCCOCCOCCOC(=O)c1ccc(-c2c3nc(c(-c4ccccc4)c4ccc([nH]4)c(-c4ccccc4)c4nc(c(-c5ccccc5)c5ccc2[nH]5)C=C4)C=C3)cc1
REMARK SMILES IDX 27 1 26 2 25 3 24 4 23 5 22 6 20 7 21 8 9 9 8 10 6 11 7 12
REMARK SMILES IDX 5 14 2 15 1 16 3 17 4 18 10 19 11 20 12 21 19 22 13 23 18 24
REMARK SMILES IDX 14 25 15 26 16 27 17 28 28 29 29 30 30 31 31 32 32 33 33 34
REMARK SMILES IDX 34 35 35 36 36 37 37 38 38 39 84 40 39 41 83 42 40 43 41 44
REMARK SMILES IDX 42 45 77 46 43 47 82 48 76 49 78 50 44 51 81 52 75 53 74 54
REMARK SMILES IDX 45 56 67 57 52 58 66 59 53 60 56 61 65 62 79 63 54 64 55 65
REMARK SMILES IDX 64 67 80 68 57 69 46 70 47 71 51 72 48 73 50 74 49 75 68 76
REMARK SMILES IDX 69 77 73 78 70 79 72 80 71 81 58 82 59 83 63 84 60 85 62 86
REMARK SMILES IDX 61 87
REMARK H PARENT 8 13 78 55 56 66
REMARK Flexibility Score: inf
ROOT
ATOM      1  C   UNL A   1      33.284  31.178  27.579  1.00  0.00     0.188 C 
ENDROOT
BRANCH   1   2
ATOM      2  C   UNL A   1      34.125  30.047  26.976  1.00  0.00     0.188 C 
BRANCH   2   3
ATOM      3  O   UNL A   1      33.366  29.152  26.183  1.00  0.00    -0.376 OA
BRANCH   3   4
ATOM      4  C   UNL A   1      33.368  29.256  24.770  1.00  0.00     0.202 C 
BRANCH   4   5
ATOM      5  C   UNL A   1      32.641  28.257  23.851  1.00  0.00     0.261 C 
BRANCH   5   6
ATOM      6  O   UNL A   1      31.229  28.028  23.969  1.00  0.00    -0.462 OA
BRANCH   6   7
ATOM      7  C   UNL A   1      30.558  27.360  23.005  1.00  0.00     0.329 C 
ATOM      8  O   UNL A   1      30.715  27.525  21.800  1.00  0.00    -0.250 OA
BRANCH   7   9
ATOM      9  C   UNL A   1      29.448  26.470  23.600  1.00  0.00     0.199 C 
BRANCH   9  10
ATOM     10  N   UNL A   1      28.115  27.061  23.431  1.00  0.00    -0.308 N 
ATOM     11  C   UNL A   1      27.768  28.378  23.373  1.00  0.00     0.408 C 
ATOM     12  O   UNL A   1      26.635  28.709  23.058  1.00  0.00    -0.225 OA
ATOM     13  H   UNL A   1      27.372  26.420  23.349  1.00  0.00     0.168 HD
BRANCH  11  14
ATOM     14  O   UNL A   1      28.765  29.203  23.738  1.00  0.00    -0.444 OA
BRANCH  14  15
ATOM     15  C   UNL A   1      28.798  30.611  23.417  1.00  0.00     0.106 C 
ATOM     16  C   UNL A   1      29.090  30.697  21.907  1.00  0.00     0.056 C 
ATOM     17  C   UNL A   1      29.945  31.275  24.177  1.00  0.00     0.056 C 
ATOM     18  C   UNL A   1      27.439  31.259  23.667  1.00  0.00     0.056 C 
ENDBRANCH  14  15
ENDBRANCH  11  14
ENDBRANCH   9  10
BRANCH   9  19
ATOM     19  C   UNL A   1      29.771  26.103  25.079  1.00  0.00     0.072 C 
BRANCH  19  20
ATOM     20  C   UNL A   1      30.665  24.916  25.338  1.00  0.00    -0.045 A 
ATOM     21  C   UNL A   1      31.404  24.823  26.523  1.00  0.00     0.004 A 
ATOM     22  C   UNL A   1      30.724  23.859  24.427  1.00  0.00     0.004 A 
ATOM     23  C   UNL A   1      32.259  23.738  26.738  1.00  0.00     0.010 A 
ATOM     24  C   UNL A   1      31.604  22.795  24.631  1.00  0.00     0.010 A 
ATOM     25  C   UNL A   1      32.403  22.731  25.781  1.00  0.00     0.038 A 
BRANCH  25  26
ATOM     26  N   UNL A   1      33.321  21.700  26.061  1.00  0.00    -0.061 NA
ATOM     27  N   UNL A   1      34.343  21.684  25.360  1.00  0.00     0.005 N 
ATOM     28  N   UNL A   1      35.285  21.660  24.707  1.00  0.00    -0.003 NA
ENDBRANCH  25  26
ENDBRANCH  19  20
ENDBRANCH   9  19
ENDBRANCH   7   9
ENDBRANCH   6   7
ENDBRANCH   5   6
ENDBRANCH   4   5
ENDBRANCH   3   4
ENDBRANCH   2   3
ENDBRANCH   1   2
BRANCH   1  29
ATOM     29  O   UNL A   1      34.032  32.285  28.046  1.00  0.00    -0.377 OA
BRANCH  29  30
ATOM     30  C   UNL A   1      33.440  33.578  27.946  1.00  0.00     0.188 C 
BRANCH  30  31
ATOM     31  C   UNL A   1      33.870  34.737  28.878  1.00  0.00     0.188 C 
BRANCH  31  32
ATOM     32  O   UNL A   1      33.121  34.854  30.074  1.00  0.00    -0.376 OA
BRANCH  32  33
ATOM     33  C   UNL A   1      33.769  35.027  31.318  1.00  0.00     0.202 C 
BRANCH  33  34
ATOM     34  C   UNL A   1      34.385  33.812  32.027  1.00  0.00     0.261 C 
BRANCH  34  35
ATOM     35  O   UNL A   1      35.815  33.756  32.099  1.00  0.00    -0.460 OA
BRANCH  35  36
ATOM     36  C   UNL A   1      36.374  32.862  32.944  1.00  0.00     0.338 C 
ATOM     37  O   UNL A   1      36.020  32.603  34.078  1.00  0.00    -0.246 OA
BRANCH  36  38
ATOM     38  C   UNL A   1      37.368  32.085  32.167  1.00  0.00     0.060 A 
ATOM     39  C   UNL A   1      38.311  31.303  32.850  1.00  0.00     0.016 A 
ATOM     40  C   UNL A   1      37.336  32.091  30.770  1.00  0.00     0.016 A 
ATOM     41  C   UNL A   1      39.237  30.539  32.139  1.00  0.00     0.010 A 
ATOM     42  C   UNL A   1      38.290  31.357  30.060  1.00  0.00     0.010 A 
ATOM     43  C   UNL A   1      39.259  30.601  30.742  1.00  0.00    -0.014 A 
BRANCH  43  44
ATOM     44  C   UNL A   1      40.422  30.054  30.003  1.00  0.00     0.031 A 
ATOM     45  C   UNL A   1      41.604  30.956  29.782  1.00  0.00     0.074 A 
ATOM     46  C   UNL A   1      40.441  28.789  29.552  1.00  0.00     0.049 A 
ATOM     47  N   UNL A   1      42.701  30.738  29.104  1.00  0.00    -0.248 NA
ATOM     48  C   UNL A   1      41.537  32.286  30.410  1.00  0.00     0.031 C 
ATOM     49  C   UNL A   1      39.390  27.795  29.759  1.00  0.00     0.029 A 
ATOM     50  N   UNL A   1      41.391  28.128  28.811  1.00  0.00    -0.354 N 
ATOM     51  C   UNL A   1      43.445  31.907  29.212  1.00  0.00     0.074 A 
ATOM     52  C   UNL A   1      42.667  32.838  29.998  1.00  0.00     0.031 C 
ATOM     53  C   UNL A   1      39.747  26.653  29.145  1.00  0.00     0.029 A 
ATOM     54  C   UNL A   1      41.027  26.850  28.467  1.00  0.00     0.049 A 
ATOM     55  H   UNL A   1      42.250  28.533  28.551  1.00  0.00     0.167 HD
ATOM     56  C   UNL A   1      44.669  32.180  28.702  1.00  0.00     0.031 A 
ATOM     57  C   UNL A   1      41.644  25.956  27.669  1.00  0.00     0.031 A 
ATOM     58  C   UNL A   1      45.432  31.262  27.900  1.00  0.00     0.049 A 
ATOM     59  C   UNL A   1      42.956  26.324  27.023  1.00  0.00     0.074 A 
ATOM     60  C   UNL A   1      46.685  31.442  27.342  1.00  0.00     0.029 A 
ATOM     61  N   UNL A   1      45.006  29.996  27.531  1.00  0.00    -0.354 N 
ATOM     62  N   UNL A   1      43.662  27.422  27.145  1.00  0.00    -0.248 NA
ATOM     63  C   UNL A   1      43.557  25.323  26.128  1.00  0.00     0.031 C 
ATOM     64  C   UNL A   1      46.986  30.313  26.575  1.00  0.00     0.029 A 
ATOM     65  C   UNL A   1      45.955  29.397  26.721  1.00  0.00     0.049 A 
ATOM     66  H   UNL A   1      44.155  29.583  27.805  1.00  0.00     0.167 HD
ATOM     67  C   UNL A   1      44.802  27.232  26.372  1.00  0.00     0.074 A 
ATOM     68  C   UNL A   1      44.701  25.905  25.800  1.00  0.00     0.031 C 
ATOM     69  C   UNL A   1      45.840  28.077  26.155  1.00  0.00     0.031 A 
BRANCH  56  70
ATOM     70  C   UNL A   1      45.232  33.551  28.955  1.00  0.00    -0.014 A 
ATOM     71  C   UNL A   1      45.882  33.868  30.159  1.00  0.00     0.009 A 
ATOM     72  C   UNL A   1      45.131  34.536  27.959  1.00  0.00     0.009 A 
ATOM     73  C   UNL A   1      46.386  35.154  30.373  1.00  0.00     0.001 A 
ATOM     74  C   UNL A   1      45.666  35.808  28.162  1.00  0.00     0.001 A 
ATOM     75  C   UNL A   1      46.283  36.119  29.371  1.00  0.00     0.000 A 
ENDBRANCH  56  70
BRANCH  57  76
ATOM     76  C   UNL A   1      41.016  24.635  27.397  1.00  0.00    -0.014 A 
ATOM     77  C   UNL A   1      39.881  24.534  26.576  1.00  0.00     0.009 A 
ATOM     78  C   UNL A   1      41.525  23.468  27.990  1.00  0.00     0.009 A 
ATOM     79  C   UNL A   1      39.257  23.300  26.378  1.00  0.00     0.001 A 
ATOM     80  C   UNL A   1      40.920  22.231  27.763  1.00  0.00     0.001 A 
ATOM     81  C   UNL A   1      39.778  22.150  26.966  1.00  0.00     0.000 A 
ENDBRANCH  57  76
BRANCH  69  82
ATOM     82  C   UNL A   1      46.972  27.582  25.294  1.00  0.00    -0.014 A 
ATOM     83  C   UNL A   1      48.005  26.793  25.822  1.00  0.00     0.009 A 
ATOM     84  C   UNL A   1      46.976  27.874  23.920  1.00  0.00     0.009 A 
ATOM     85  C   UNL A   1      49.039  26.338  24.998  1.00  0.00     0.001 A 
ATOM     86  C   UNL A   1      47.991  27.389  23.093  1.00  0.00     0.001 A 
ATOM     87  C   UNL A   1      49.027  26.631  23.635  1.00  0.00     0.000 A 
ENDBRANCH  69  82
ENDBRANCH  43  44
ENDBRANCH  36  38
ENDBRANCH  35  36
ENDBRANCH  34  35
ENDBRANCH  33  34
ENDBRANCH  32  33
ENDBRANCH  31  32
ENDBRANCH  30  31
ENDBRANCH  29  30
ENDBRANCH   1  29
TORSDOF 26
ENDMDL
MODEL 3
REMARK VINA RESULT:      -8.2      2.807      9.018
REMARK SMILES CC(C)(C)OC(=O)N[C@H](Cc1ccc(N=[N+]=[N-])cc1)C(=O)OCCOCCOCCOCCOC(=O)c1ccc(-c2c3nc(c(-c4ccccc4)c4ccc([nH]4)c(-c4ccccc4)c4nc(c(-c5ccccc5)c5ccc2[nH]5)C=C4)C=C3)cc1
REMARK SMILES IDX 27 1 26 2 25 3 24 4 23 5 22 6 20 7 21 8 9 9 8 10 6 11 7 12
REMARK SMILES IDX 5 14 2 15 1 16 3 17 4 18 10 19 11 20 12 21 19 22 13 23 18 24
REMARK SMILES IDX 14 25 15 26 16 27 17 28 28 29 29 30 30 31 31 32 32 33 33 34
REMARK SMILES IDX 34 35 35 36 36 37 37 38 38 39 84 40 39 41 83 42 40 43 41 44
REMARK SMILES IDX 42 45 77 46 43 47 82 48 76 49 78 50 44 51 81 52 75 53 74 54
REMARK SMILES IDX 45 56 67 57 52 58 66 59 53 60 56 61 65 62 79 63 54 64 55 65
REMARK SMILES IDX 64 67 80 68 57 69 46 70 47 71 51 72 48 73 50 74 49 75 68 76
REMARK SMILES IDX 69 77 73 78 70 79 72 80 71 81 58 82 59 83 63 84 60 85 62 86
REMARK SMILES IDX 61 87
REMARK H PARENT 8 13 78 55 56 66
REMARK Flexibility Score: inf
ROOT
ATOM      1  C   UNL A   1      31.320  32.107  26.435  1.00  0.00     0.188 C 
ENDROOT
BRANCH   1   2
ATOM      2  C   UNL A   1      31.711  30.666  26.089  1.00  0.00     0.188 C 
BRANCH   2   3
ATOM      3  O   UNL A   1      32.152  29.924  27.212  1.00  0.00    -0.376 OA
BRANCH   3   4
ATOM      4  C   UNL A   1      31.457  28.765  27.633  1.00  0.00     0.202 C 
BRANCH   4   5
ATOM      5  C   UNL A   1      31.714  27.366  27.041  1.00  0.00     0.261 C 
BRANCH   5   6
ATOM      6  O   UNL A   1      31.216  27.003  25.745  1.00  0.00    -0.462 OA
BRANCH   6   7
ATOM      7  C   UNL A   1      30.319  26.002  25.610  1.00  0.00     0.329 C 
ATOM      8  O   UNL A   1      29.909  25.300  26.528  1.00  0.00    -0.250 OA
BRANCH   7   9
ATOM      9  C   UNL A   1      29.986  25.736  24.127  1.00  0.00     0.199 C 
BRANCH   9  10
ATOM     10  N   UNL A   1      30.262  24.348  23.738  1.00  0.00    -0.308 N 
ATOM     11  C   UNL A   1      31.467  23.720  23.618  1.00  0.00     0.408 C 
ATOM     12  O   UNL A   1      31.524  22.512  23.450  1.00  0.00    -0.225 OA
ATOM     13  H   UNL A   1      29.472  23.796  23.537  1.00  0.00     0.168 HD
BRANCH  11  14
ATOM     14  O   UNL A   1      32.510  24.568  23.655  1.00  0.00    -0.444 OA
BRANCH  14  15
ATOM     15  C   UNL A   1      33.668  24.378  24.497  1.00  0.00     0.106 C 
ATOM     16  C   UNL A   1      33.148  23.749  25.803  1.00  0.00     0.056 C 
ATOM     17  C   UNL A   1      34.286  25.738  24.819  1.00  0.00     0.056 C 
ATOM     18  C   UNL A   1      34.647  23.394  23.862  1.00  0.00     0.056 C 
ENDBRANCH  14  15
ENDBRANCH  11  14
ENDBRANCH   9  10
BRANCH   9  19
ATOM     19  C   UNL A   1      30.691  26.779  23.210  1.00  0.00     0.072 C 
BRANCH  19  20
ATOM     20  C   UNL A   1      29.927  28.024  22.834  1.00  0.00    -0.045 A 
ATOM     21  C   UNL A   1      28.599  28.199  23.242  1.00  0.00     0.004 A 
ATOM     22  C   UNL A   1      30.550  29.053  22.124  1.00  0.00     0.004 A 
ATOM     23  C   UNL A   1      27.887  29.339  22.857  1.00  0.00     0.010 A 
ATOM     24  C   UNL A   1      29.825  30.173  21.714  1.00  0.00     0.010 A 
ATOM     25  C   UNL A   1      28.474  30.322  22.056  1.00  0.00     0.038 A 
BRANCH  25  26
ATOM     26  N   UNL A   1      27.668  31.413  21.678  1.00  0.00    -0.061 NA
ATOM     27  N   UNL A   1      28.018  32.518  22.116  1.00  0.00     0.005 N 
ATOM     28  N   UNL A   1      28.333  33.541  22.527  1.00  0.00    -0.003 NA
ENDBRANCH  25  26
ENDBRANCH  19  20
ENDBRANCH   9  19
ENDBRANCH   7   9
ENDBRANCH   6   7
ENDBRANCH   5   6
ENDBRANCH   4   5
ENDBRANCH   3   4
ENDBRANCH   2   3
ENDBRANCH   1   2
BRANCH   1  29
ATOM     29  O   UNL A   1      31.840  32.581  27.663  1.00  0.00    -0.377 OA
BRANCH  29  30
ATOM     30  C   UNL A   1      32.963  33.458  27.617  1.00  0.00     0.188 C 
BRANCH  30  31
ATOM     31  C   UNL A   1      33.745  33.838  28.897  1.00  0.00     0.188 C 
BRANCH  31  32
ATOM     32  O   UNL A   1      33.052  34.690  29.792  1.00  0.00    -0.376 OA
BRANCH  32  33
ATOM     33  C   UNL A   1      33.607  35.021  31.049  1.00  0.00     0.202 C 
BRANCH  33  34
ATOM     34  C   UNL A   1      34.417  33.969  31.821  1.00  0.00     0.261 C 
BRANCH  34  35
ATOM     35  O   UNL A   1      35.781  33.778  31.423  1.00  0.00    -0.460 OA
BRANCH  35  36
ATOM     36  C   UNL A   1      36.674  33.417  32.371  1.00  0.00     0.338 C 
ATOM     37  O   UNL A   1      36.550  33.525  33.575  1.00  0.00    -0.246 OA
BRANCH  36  38
ATOM     38  C   UNL A   1      37.749  32.657  31.692  1.00  0.00     0.060 A 
ATOM     39  C   UNL A   1      38.559  31.794  32.447  1.00  0.00     0.016 A 
ATOM     40  C   UNL A   1      37.925  32.758  30.310  1.00  0.00     0.016 A 
ATOM     41  C   UNL A   1      39.558  31.045  31.825  1.00  0.00     0.010 A 
ATOM     42  C   UNL A   1      38.953  32.038  29.695  1.00  0.00     0.010 A 
ATOM     43  C   UNL A   1      39.789  31.200  30.454  1.00  0.00    -0.014 A 
BRANCH  43  44
ATOM     44  C   UNL A   1      41.032  30.660  29.855  1.00  0.00     0.031 A 
ATOM     45  C   UNL A   1      40.980  29.291  29.237  1.00  0.00     0.074 A 
ATOM     46  C   UNL A   1      42.175  31.367  29.841  1.00  0.00     0.049 A 
ATOM     47  N   UNL A   1      41.945  28.574  28.721  1.00  0.00    -0.248 NA
ATOM     48  C   UNL A   1      39.658  28.642  29.199  1.00  0.00     0.031 C 
ATOM     49  C   UNL A   1      42.339  32.728  30.345  1.00  0.00     0.029 A 
ATOM     50  N   UNL A   1      43.424  31.020  29.387  1.00  0.00    -0.354 N 
ATOM     51  C   UNL A   1      41.350  27.387  28.312  1.00  0.00     0.074 A 
ATOM     52  C   UNL A   1      39.949  27.468  28.661  1.00  0.00     0.031 C 
ATOM     53  C   UNL A   1      43.623  33.097  30.185  1.00  0.00     0.029 A 
ATOM     54  C   UNL A   1      44.376  31.983  29.611  1.00  0.00     0.049 A 
ATOM     55  H   UNL A   1      43.617  30.162  28.945  1.00  0.00     0.167 HD
ATOM     56  C   UNL A   1      41.921  26.322  27.700  1.00  0.00     0.031 A 
ATOM     57  C   UNL A   1      45.707  31.954  29.404  1.00  0.00     0.031 A 
ATOM     58  C   UNL A   1      43.318  26.232  27.376  1.00  0.00     0.049 A 
ATOM     59  C   UNL A   1      46.337  30.714  28.821  1.00  0.00     0.074 A 
ATOM     60  C   UNL A   1      43.992  25.199  26.750  1.00  0.00     0.029 A 
ATOM     61  N   UNL A   1      44.259  27.208  27.665  1.00  0.00    -0.354 N 
ATOM     62  N   UNL A   1      45.766  29.604  28.419  1.00  0.00    -0.248 NA
ATOM     63  C   UNL A   1      47.799  30.727  28.661  1.00  0.00     0.031 C 
ATOM     64  C   UNL A   1      45.353  25.519  26.726  1.00  0.00     0.029 A 
ATOM     65  C   UNL A   1      45.515  26.785  27.265  1.00  0.00     0.049 A 
ATOM     66  H   UNL A   1      44.064  28.074  28.093  1.00  0.00     0.167 HD
ATOM     67  C   UNL A   1      46.792  28.802  27.931  1.00  0.00     0.074 A 
ATOM     68  C   UNL A   1      48.017  29.561  28.069  1.00  0.00     0.031 C 
ATOM     69  C   UNL A   1      46.727  27.550  27.413  1.00  0.00     0.031 A 
BRANCH  56  70
ATOM     70  C   UNL A   1      41.035  25.147  27.392  1.00  0.00    -0.014 A 
ATOM     71  C   UNL A   1      41.197  23.913  28.043  1.00  0.00     0.009 A 
ATOM     72  C   UNL A   1      40.003  25.286  26.450  1.00  0.00     0.009 A 
ATOM     73  C   UNL A   1      40.367  22.833  27.728  1.00  0.00     0.001 A 
ATOM     74  C   UNL A   1      39.155  24.216  26.163  1.00  0.00     0.001 A 
ATOM     75  C   UNL A   1      39.343  22.989  26.794  1.00  0.00     0.000 A 
ENDBRANCH  56  70
BRANCH  57  76
ATOM     76  C   UNL A   1      46.551  33.118  29.785  1.00  0.00    -0.014 A 
ATOM     77  C   UNL A   1      46.838  34.132  28.857  1.00  0.00     0.009 A 
ATOM     78  C   UNL A   1      47.108  33.205  31.071  1.00  0.00     0.009 A 
ATOM     79  C   UNL A   1      47.684  35.190  29.200  1.00  0.00     0.001 A 
ATOM     80  C   UNL A   1      47.926  34.280  31.423  1.00  0.00     0.001 A 
ATOM     81  C   UNL A   1      48.224  35.266  30.483  1.00  0.00     0.000 A 
ENDBRANCH  57  76
BRANCH  69  82
ATOM     82  C   UNL A   1      48.009  26.935  26.919  1.00  0.00    -0.014 A 
ATOM     83  C   UNL A   1      48.800  26.122  27.745  1.00  0.00     0.009 A 
ATOM     84  C   UNL A   1      48.406  27.137  25.587  1.00  0.00     0.009 A 
ATOM     85  C   UNL A   1      49.981  25.556  27.258  1.00  0.00     0.001 A 
ATOM     86  C   UNL A   1      49.567  26.540  25.093  1.00  0.00     0.001 A 
ATOM     87  C   UNL A   1      50.360  25.760  25.932  1.00  0.00     0.000 A 
ENDBRANCH  69  82
ENDBRANCH  43  44
ENDBRANCH  36  38
ENDBRANCH  35  36
ENDBRANCH  34  35
ENDBRANCH  33  34
ENDBRANCH  32  33
ENDBRANCH  31  32
ENDBRANCH  30  31
ENDBRANCH  29  30
ENDBRANCH   1  29
TORSDOF 26
ENDMDL
