MODEL 1
REMARK VINA RESULT:     -10.2      0.000      0.000
REMARK SMILES Cc1nc(NC(=O)[C@H]2[C@@H]3CC[C@@H](C3)[C@@H]2C(=O)OCCOCCOCCOCCOC(=O)c2ccc(-c3c4nc(c(-c5ccccc5)c5ccc([nH]5)c(-c5ccccc5)c5nc(c(-c6ccccc6)c6ccc3[nH]6)C=C5)C=C4)cc2)sc1-c1ccccc1
REMARK SMILES IDX 22 1 21 2 20 3 19 4 18 5 17 6 15 7 16 8 14 9 8 10 9 11 10 12
REMARK SMILES IDX 13 13 12 14 11 15 6 16 5 17 7 19 4 20 1 21 2 22 3 23 81 24
REMARK SMILES IDX 80 25 82 26 83 27 87 28 84 29 86 30 85 31 23 32 24 33 25 34
REMARK SMILES IDX 26 35 27 36 28 37 29 38 30 39 31 40 32 41 33 42 79 43 34 44
REMARK SMILES IDX 78 45 35 46 36 47 37 48 72 49 38 50 77 51 71 52 73 53 39 54
REMARK SMILES IDX 76 55 70 56 69 57 40 59 62 60 47 61 61 62 48 63 51 64 60 65
REMARK SMILES IDX 74 66 49 67 50 68 59 70 75 71 52 72 41 73 42 74 46 75 43 76
REMARK SMILES IDX 45 77 44 78 63 79 64 80 68 81 65 82 67 83 66 84 53 85 54 86
REMARK SMILES IDX 58 87 55 88 57 89 56 90
REMARK H PARENT 5 18 73 58 51 69
REMARK Flexibility Score: inf
ROOT
ATOM      1  C   UNL A   1      38.886  21.300  25.741  1.00  0.00     0.188 C 
ENDROOT
BRANCH   1   2
ATOM      2  C   UNL A   1      37.810  22.238  25.188  1.00  0.00     0.188 C 
BRANCH   2   3
ATOM      3  O   UNL A   1      37.201  21.816  23.968  1.00  0.00    -0.376 OA
BRANCH   3   4
ATOM      4  C   UNL A   1      36.537  22.796  23.170  1.00  0.00     0.202 C 
BRANCH   4   5
ATOM      5  C   UNL A   1      35.737  23.861  23.930  1.00  0.00     0.261 C 
BRANCH   5   6
ATOM      6  O   UNL A   1      34.330  23.634  23.777  1.00  0.00    -0.463 OA
BRANCH   6   7
ATOM      7  C   UNL A   1      33.609  24.595  23.135  1.00  0.00     0.310 C 
ATOM      8  O   UNL A   1      33.236  24.547  21.968  1.00  0.00    -0.252 OA
BRANCH   7   9
ATOM      9  C   UNL A   1      33.244  25.668  24.138  1.00  0.00     0.115 C 
ATOM     10  C   UNL A   1      31.746  25.922  24.305  1.00  0.00     0.096 C 
ATOM     11  C   UNL A   1      31.607  27.390  23.835  1.00  0.00     0.003 C 
ATOM     12  C   UNL A   1      31.991  27.497  22.338  1.00  0.00     0.005 C 
ATOM     13  C   UNL A   1      32.819  28.023  24.511  1.00  0.00     0.009 C 
ATOM     14  C   UNL A   1      33.812  27.071  23.827  1.00  0.00     0.004 C 
ATOM     15  C   UNL A   1      33.528  27.430  22.362  1.00  0.00     0.005 C 
BRANCH  10  16
ATOM     16  C   UNL A   1      31.081  25.754  25.683  1.00  0.00     0.230 C 
ATOM     17  N   UNL A   1      31.209  24.762  26.595  1.00  0.00    -0.302 N 
ATOM     18  H   UNL A   1      30.730  24.949  27.434  1.00  0.00     0.172 HD
ATOM     19  O   UNL A   1      30.327  26.676  26.049  1.00  0.00    -0.274 OA
BRANCH  17  20
ATOM     20  C   UNL A   1      31.855  23.557  26.609  1.00  0.00     0.190 A 
ATOM     21  C   UNL A   1      34.765  21.472  26.560  1.00  0.00     0.068 C 
ATOM     22  C   UNL A   1      33.376  21.955  26.386  1.00  0.00     0.058 A 
ATOM     23  N   UNL A   1      33.069  23.206  26.924  1.00  0.00    -0.225 NA
ATOM     24  C   UNL A   1      32.323  21.323  25.755  1.00  0.00     0.059 A 
ATOM     25  S   UNL A   1      30.885  22.258  26.110  1.00  0.00    -0.096 S 
BRANCH  24  26
ATOM     26  C   UNL A   1      32.136  20.007  25.107  1.00  0.00    -0.006 A 
ATOM     27  C   UNL A   1      32.687  18.421  25.848  1.00  0.00     0.009 A 
ATOM     28  C   UNL A   1      32.129  20.151  23.303  1.00  0.00     0.009 A 
ATOM     29  C   UNL A   1      33.358  17.074  24.801  1.00  0.00     0.001 A 
ATOM     30  C   UNL A   1      32.802  18.843  22.270  1.00  0.00     0.001 A 
ATOM     31  C   UNL A   1      33.480  17.333  22.998  1.00  0.00     0.000 A 
ENDBRANCH  24  26
ENDBRANCH  17  20
ENDBRANCH  10  16
ENDBRANCH   7   9
ENDBRANCH   6   7
ENDBRANCH   5   6
ENDBRANCH   4   5
ENDBRANCH   3   4
ENDBRANCH   2   3
ENDBRANCH   1   2
BRANCH   1  32
ATOM     32  O   UNL A   1      39.621  21.874  26.819  1.00  0.00    -0.377 OA
BRANCH  32  33
ATOM     33  C   UNL A   1      40.946  21.356  26.930  1.00  0.00     0.188 C 
BRANCH  33  34
ATOM     34  C   UNL A   1      42.033  22.130  26.128  1.00  0.00     0.188 C 
BRANCH  34  35
ATOM     35  O   UNL A   1      43.141  22.752  26.805  1.00  0.00    -0.376 OA
BRANCH  35  36
ATOM     36  C   UNL A   1      43.822  23.818  26.130  1.00  0.00     0.202 C 
BRANCH  36  37
ATOM     37  C   UNL A   1      42.882  24.735  25.223  1.00  0.00     0.261 C 
BRANCH  37  38
ATOM     38  O   UNL A   1      41.596  25.572  26.027  1.00  0.00    -0.460 OA
BRANCH  38  39
ATOM     39  C   UNL A   1      40.315  25.790  27.365  1.00  0.00     0.338 C 
ATOM     40  O   UNL A   1      39.767  24.870  28.063  1.00  0.00    -0.246 OA
BRANCH  39  41
ATOM     41  C   UNL A   1      39.726  27.083  28.030  1.00  0.00     0.060 A 
ATOM     42  C   UNL A   1      40.141  28.379  27.618  1.00  0.00     0.016 A 
ATOM     43  C   UNL A   1      39.317  26.918  29.359  1.00  0.00     0.016 A 
ATOM     44  C   UNL A   1      40.232  29.444  28.505  1.00  0.00     0.010 A 
ATOM     45  C   UNL A   1      39.436  27.976  30.257  1.00  0.00     0.010 A 
ATOM     46  C   UNL A   1      39.953  29.213  29.841  1.00  0.00    -0.014 A 
BRANCH  46  47
ATOM     47  C   UNL A   1      40.307  30.195  30.876  1.00  0.00     0.031 A 
ATOM     48  C   UNL A   1      41.520  29.943  31.713  1.00  0.00     0.074 A 
ATOM     49  C   UNL A   1      39.431  31.170  31.156  1.00  0.00     0.049 A 
ATOM     50  N   UNL A   1      41.766  30.319  32.936  1.00  0.00    -0.248 NA
ATOM     51  C   UNL A   1      42.580  29.127  31.097  1.00  0.00     0.031 C 
ATOM     52  C   UNL A   1      38.275  31.529  30.337  1.00  0.00     0.029 A 
ATOM     53  N   UNL A   1      39.330  31.956  32.270  1.00  0.00    -0.354 N 
ATOM     54  C   UNL A   1      42.978  29.725  33.269  1.00  0.00     0.074 A 
ATOM     55  C   UNL A   1      43.431  28.993  32.107  1.00  0.00     0.031 C 
ATOM     56  C   UNL A   1      37.519  32.399  31.022  1.00  0.00     0.029 A 
ATOM     57  C   UNL A   1      38.114  32.591  32.341  1.00  0.00     0.049 A 
ATOM     58  H   UNL A   1      40.044  32.057  32.941  1.00  0.00     0.167 HD
ATOM     59  C   UNL A   1      43.618  29.769  34.462  1.00  0.00     0.031 A 
ATOM     60  C   UNL A   1      37.507  33.172  33.389  1.00  0.00     0.031 A 
ATOM     61  C   UNL A   1      43.116  30.506  35.593  1.00  0.00     0.049 A 
ATOM     62  C   UNL A   1      38.208  33.180  34.713  1.00  0.00     0.074 A 
ATOM     63  C   UNL A   1      43.678  30.664  36.846  1.00  0.00     0.029 A 
ATOM     64  N   UNL A   1      41.919  31.211  35.595  1.00  0.00    -0.354 N 
ATOM     65  N   UNL A   1      39.340  32.607  35.050  1.00  0.00    -0.248 NA
ATOM     66  C   UNL A   1      37.555  33.918  35.798  1.00  0.00     0.031 C 
ATOM     67  C   UNL A   1      42.801  31.433  37.620  1.00  0.00     0.029 A 
ATOM     68  C   UNL A   1      41.719  31.799  36.830  1.00  0.00     0.049 A 
ATOM     69  H   UNL A   1      41.303  31.282  34.830  1.00  0.00     0.167 HD
ATOM     70  C   UNL A   1      39.558  32.949  36.376  1.00  0.00     0.074 A 
ATOM     71  C   UNL A   1      38.435  33.774  36.781  1.00  0.00     0.031 C 
ATOM     72  C   UNL A   1      40.594  32.623  37.186  1.00  0.00     0.031 A 
BRANCH  59  73
ATOM     73  C   UNL A   1      44.879  28.964  34.621  1.00  0.00    -0.014 A 
ATOM     74  C   UNL A   1      46.148  29.534  34.444  1.00  0.00     0.009 A 
ATOM     75  C   UNL A   1      44.793  27.612  34.996  1.00  0.00     0.009 A 
ATOM     76  C   UNL A   1      47.302  28.762  34.609  1.00  0.00     0.001 A 
ATOM     77  C   UNL A   1      45.948  26.850  35.187  1.00  0.00     0.001 A 
ATOM     78  C   UNL A   1      47.201  27.423  34.985  1.00  0.00     0.000 A 
ENDBRANCH  59  73
BRANCH  60  79
ATOM     79  C   UNL A   1      36.156  33.752  33.207  1.00  0.00    -0.014 A 
ATOM     80  C   UNL A   1      36.015  35.036  32.665  1.00  0.00     0.009 A 
ATOM     81  C   UNL A   1      35.005  32.999  33.491  1.00  0.00     0.009 A 
ATOM     82  C   UNL A   1      34.747  35.561  32.417  1.00  0.00     0.001 A 
ATOM     83  C   UNL A   1      33.736  33.519  33.221  1.00  0.00     0.001 A 
ATOM     84  C   UNL A   1      33.610  34.800  32.687  1.00  0.00     0.000 A 
ENDBRANCH  60  79
BRANCH  72  85
ATOM     85  C   UNL A   1      40.591  33.220  38.562  1.00  0.00    -0.014 A 
ATOM     86  C   UNL A   1      41.373  34.340  38.875  1.00  0.00     0.009 A 
ATOM     87  C   UNL A   1      39.746  32.675  39.542  1.00  0.00     0.009 A 
ATOM     88  C   UNL A   1      41.325  34.891  40.156  1.00  0.00     0.001 A 
ATOM     89  C   UNL A   1      39.682  33.243  40.814  1.00  0.00     0.001 A 
ATOM     90  C   UNL A   1      40.477  34.346  41.121  1.00  0.00     0.000 A 
ENDBRANCH  72  85
ENDBRANCH  46  47
ENDBRANCH  39  41
ENDBRANCH  38  39
ENDBRANCH  37  38
ENDBRANCH  36  37
ENDBRANCH  35  36
ENDBRANCH  34  35
ENDBRANCH  33  34
ENDBRANCH  32  33
ENDBRANCH   1  32
TORSDOF 23
ENDMDL
MODEL 2
REMARK VINA RESULT:     -10.1      2.440      4.858
REMARK SMILES Cc1nc(NC(=O)[C@H]2[C@@H]3CC[C@@H](C3)[C@@H]2C(=O)OCCOCCOCCOCCOC(=O)c2ccc(-c3c4nc(c(-c5ccccc5)c5ccc([nH]5)c(-c5ccccc5)c5nc(c(-c6ccccc6)c6ccc3[nH]6)C=C5)C=C4)cc2)sc1-c1ccccc1
REMARK SMILES IDX 22 1 21 2 20 3 19 4 18 5 17 6 15 7 16 8 14 9 8 10 9 11 10 12
REMARK SMILES IDX 13 13 12 14 11 15 6 16 5 17 7 19 4 20 1 21 2 22 3 23 81 24
REMARK SMILES IDX 80 25 82 26 83 27 87 28 84 29 86 30 85 31 23 32 24 33 25 34
REMARK SMILES IDX 26 35 27 36 28 37 29 38 30 39 31 40 32 41 33 42 79 43 34 44
REMARK SMILES IDX 78 45 35 46 36 47 37 48 72 49 38 50 77 51 71 52 73 53 39 54
REMARK SMILES IDX 76 55 70 56 69 57 40 59 62 60 47 61 61 62 48 63 51 64 60 65
REMARK SMILES IDX 74 66 49 67 50 68 59 70 75 71 52 72 41 73 42 74 46 75 43 76
REMARK SMILES IDX 45 77 44 78 63 79 64 80 68 81 65 82 67 83 66 84 53 85 54 86
REMARK SMILES IDX 58 87 55 88 57 89 56 90
REMARK H PARENT 5 18 73 58 51 69
REMARK Flexibility Score: inf
ROOT
ATOM      1  C   UNL A   1      40.806  20.331  26.747  1.00  0.00     0.188 C 
ENDROOT
BRANCH   1   2
ATOM      2  C   UNL A   1      40.343  21.616  26.056  1.00  0.00     0.188 C 
BRANCH   2   3
ATOM      3  O   UNL A   1      39.365  22.374  26.769  1.00  0.00    -0.376 OA
BRANCH   3   4
ATOM      4  C   UNL A   1      39.093  23.706  26.332  1.00  0.00     0.202 C 
BRANCH   4   5
ATOM      5  C   UNL A   1      37.651  24.197  26.508  1.00  0.00     0.261 C 
BRANCH   5   6
ATOM      6  O   UNL A   1      36.874  23.897  25.342  1.00  0.00    -0.463 OA
BRANCH   6   7
ATOM      7  C   UNL A   1      35.589  24.350  25.315  1.00  0.00     0.310 C 
ATOM      8  O   UNL A   1      35.247  25.526  25.354  1.00  0.00    -0.252 OA
BRANCH   7   9
ATOM      9  C   UNL A   1      34.670  23.166  25.106  1.00  0.00     0.115 C 
ATOM     10  C   UNL A   1      34.625  22.164  26.259  1.00  0.00     0.096 C 
ATOM     11  C   UNL A   1      35.176  20.878  25.599  1.00  0.00     0.003 C 
ATOM     12  C   UNL A   1      36.644  21.103  25.161  1.00  0.00     0.005 C 
ATOM     13  C   UNL A   1      34.445  20.908  24.260  1.00  0.00     0.009 C 
ATOM     14  C   UNL A   1      35.007  22.286  23.882  1.00  0.00     0.004 C 
ATOM     15  C   UNL A   1      36.505  21.951  23.884  1.00  0.00     0.005 C 
BRANCH  10  16
ATOM     16  C   UNL A   1      33.292  21.854  26.965  1.00  0.00     0.230 C 
ATOM     17  N   UNL A   1      32.029  22.212  26.633  1.00  0.00    -0.302 N 
ATOM     18  H   UNL A   1      31.350  21.804  27.217  1.00  0.00     0.172 HD
ATOM     19  O   UNL A   1      33.359  21.141  27.985  1.00  0.00    -0.274 OA
BRANCH  17  20
ATOM     20  C   UNL A   1      31.488  23.013  25.667  1.00  0.00     0.190 A 
ATOM     21  C   UNL A   1      31.458  24.606  22.461  1.00  0.00     0.068 C 
ATOM     22  C   UNL A   1      31.214  24.321  23.893  1.00  0.00     0.058 A 
ATOM     23  N   UNL A   1      31.665  23.092  24.379  1.00  0.00    -0.225 NA
ATOM     24  C   UNL A   1      30.586  25.117  24.831  1.00  0.00     0.059 A 
ATOM     25  S   UNL A   1      30.363  24.134  26.262  1.00  0.00    -0.096 S 
BRANCH  24  26
ATOM     26  C   UNL A   1      29.907  26.430  24.794  1.00  0.00    -0.006 A 
ATOM     27  C   UNL A   1      28.259  26.701  24.032  1.00  0.00     0.009 A 
ATOM     28  C   UNL A   1      31.096  27.793  24.763  1.00  0.00     0.009 A 
ATOM     29  C   UNL A   1      27.880  28.251  23.130  1.00  0.00     0.001 A 
ATOM     30  C   UNL A   1      30.741  29.308  23.865  1.00  0.00     0.001 A 
ATOM     31  C   UNL A   1      29.175  29.531  22.990  1.00  0.00     0.000 A 
ENDBRANCH  24  26
ENDBRANCH  17  20
ENDBRANCH  10  16
ENDBRANCH   7   9
ENDBRANCH   6   7
ENDBRANCH   5   6
ENDBRANCH   4   5
ENDBRANCH   3   4
ENDBRANCH   2   3
ENDBRANCH   1   2
BRANCH   1  32
ATOM     32  O   UNL A   1      42.209  20.115  26.633  1.00  0.00    -0.377 OA
BRANCH  32  33
ATOM     33  C   UNL A   1      42.535  18.852  26.053  1.00  0.00     0.188 C 
BRANCH  33  34
ATOM     34  C   UNL A   1      43.798  18.845  25.141  1.00  0.00     0.188 C 
BRANCH  34  35
ATOM     35  O   UNL A   1      45.111  19.011  25.706  1.00  0.00    -0.376 OA
BRANCH  35  36
ATOM     36  C   UNL A   1      46.026  19.881  25.024  1.00  0.00     0.202 C 
BRANCH  36  37
ATOM     37  C   UNL A   1      45.329  21.056  24.198  1.00  0.00     0.261 C 
BRANCH  37  38
ATOM     38  O   UNL A   1      44.350  22.167  25.095  1.00  0.00    -0.460 OA
BRANCH  38  39
ATOM     39  C   UNL A   1      43.854  23.107  26.628  1.00  0.00     0.338 C 
ATOM     40  O   UNL A   1      44.384  23.022  27.788  1.00  0.00    -0.246 OA
BRANCH  39  41
ATOM     41  C   UNL A   1      42.820  24.268  26.840  1.00  0.00     0.060 A 
ATOM     42  C   UNL A   1      43.056  25.569  26.315  1.00  0.00     0.016 A 
ATOM     43  C   UNL A   1      42.057  24.162  28.009  1.00  0.00     0.016 A 
ATOM     44  C   UNL A   1      42.629  26.718  26.967  1.00  0.00     0.010 A 
ATOM     45  C   UNL A   1      41.656  25.313  28.681  1.00  0.00     0.010 A 
ATOM     46  C   UNL A   1      41.999  26.584  28.192  1.00  0.00    -0.014 A 
BRANCH  46  47
ATOM     47  C   UNL A   1      41.787  27.742  29.073  1.00  0.00     0.031 A 
ATOM     48  C   UNL A   1      42.602  27.846  30.321  1.00  0.00     0.074 A 
ATOM     49  C   UNL A   1      40.748  28.550  28.824  1.00  0.00     0.049 A 
ATOM     50  N   UNL A   1      42.302  28.417  31.454  1.00  0.00    -0.248 NA
ATOM     51  C   UNL A   1      43.919  27.185  30.299  1.00  0.00     0.031 C 
ATOM     52  C   UNL A   1      39.962  28.564  27.591  1.00  0.00     0.029 A 
ATOM     53  N   UNL A   1      40.117  29.437  29.652  1.00  0.00    -0.354 N 
ATOM     54  C   UNL A   1      43.358  28.124  32.309  1.00  0.00     0.074 A 
ATOM     55  C   UNL A   1      44.321  27.354  31.553  1.00  0.00     0.031 C 
ATOM     56  C   UNL A   1      38.889  29.346  27.776  1.00  0.00     0.029 A 
ATOM     57  C   UNL A   1      38.894  29.820  29.156  1.00  0.00     0.049 A 
ATOM     58  H   UNL A   1      40.494  29.763  30.501  1.00  0.00     0.167 HD
ATOM     59  C   UNL A   1      43.473  28.448  33.618  1.00  0.00     0.031 A 
ATOM     60  C   UNL A   1      37.856  30.399  29.782  1.00  0.00     0.031 A 
ATOM     61  C   UNL A   1      42.477  29.209  34.327  1.00  0.00     0.049 A 
ATOM     62  C   UNL A   1      37.980  30.716  31.241  1.00  0.00     0.074 A 
ATOM     63  C   UNL A   1      42.481  29.635  35.643  1.00  0.00     0.029 A 
ATOM     64  N   UNL A   1      41.289  29.656  33.762  1.00  0.00    -0.354 N 
ATOM     65  N   UNL A   1      38.960  30.428  32.067  1.00  0.00    -0.248 NA
ATOM     66  C   UNL A   1      36.864  31.443  31.853  1.00  0.00     0.031 C 
ATOM     67  C   UNL A   1      41.278  30.307  35.884  1.00  0.00     0.029 A 
ATOM     68  C   UNL A   1      40.548  30.345  34.703  1.00  0.00     0.049 A 
ATOM     69  H   UNL A   1      41.015  29.504  32.829  1.00  0.00     0.167 HD
ATOM     70  C   UNL A   1      38.598  30.974  33.289  1.00  0.00     0.074 A 
ATOM     71  C   UNL A   1      37.305  31.604  33.094  1.00  0.00     0.031 C 
ATOM     72  C   UNL A   1      39.272  30.968  34.464  1.00  0.00     0.031 A 
BRANCH  59  73
ATOM     73  C   UNL A   1      44.670  27.937  34.373  1.00  0.00    -0.014 A 
ATOM     74  C   UNL A   1      44.666  26.687  35.010  1.00  0.00     0.009 A 
ATOM     75  C   UNL A   1      45.843  28.711  34.413  1.00  0.00     0.009 A 
ATOM     76  C   UNL A   1      45.798  26.237  35.695  1.00  0.00     0.001 A 
ATOM     77  C   UNL A   1      46.981  28.246  35.075  1.00  0.00     0.001 A 
ATOM     78  C   UNL A   1      46.956  27.014  35.723  1.00  0.00     0.000 A 
ENDBRANCH  59  73
BRANCH  60  79
ATOM     79  C   UNL A   1      36.616  30.670  29.018  1.00  0.00    -0.014 A 
ATOM     80  C   UNL A   1      36.219  31.991  28.779  1.00  0.00     0.009 A 
ATOM     81  C   UNL A   1      35.874  29.619  28.453  1.00  0.00     0.009 A 
ATOM     82  C   UNL A   1      35.095  32.259  27.995  1.00  0.00     0.001 A 
ATOM     83  C   UNL A   1      34.764  29.891  27.650  1.00  0.00     0.001 A 
ATOM     84  C   UNL A   1      34.375  31.210  27.425  1.00  0.00     0.000 A 
ENDBRANCH  60  79
BRANCH  72  85
ATOM     85  C   UNL A   1      38.655  31.724  35.603  1.00  0.00    -0.014 A 
ATOM     86  C   UNL A   1      38.533  33.120  35.573  1.00  0.00     0.009 A 
ATOM     87  C   UNL A   1      38.141  31.011  36.699  1.00  0.00     0.009 A 
ATOM     88  C   UNL A   1      37.925  33.792  36.635  1.00  0.00     0.001 A 
ATOM     89  C   UNL A   1      37.514  31.684  37.746  1.00  0.00     0.001 A 
ATOM     90  C   UNL A   1      37.413  33.074  37.716  1.00  0.00     0.000 A 
ENDBRANCH  72  85
ENDBRANCH  46  47
ENDBRANCH  39  41
ENDBRANCH  38  39
ENDBRANCH  37  38
ENDBRANCH  36  37
ENDBRANCH  35  36
ENDBRANCH  34  35
ENDBRANCH  33  34
ENDBRANCH  32  33
ENDBRANCH   1  32
TORSDOF 23
ENDMDL
MODEL 3
REMARK VINA RESULT:      -9.8      2.805      3.912
REMARK SMILES Cc1nc(NC(=O)[C@H]2[C@@H]3CC[C@@H](C3)[C@@H]2C(=O)OCCOCCOCCOCCOC(=O)c2ccc(-c3c4nc(c(-c5ccccc5)c5ccc([nH]5)c(-c5ccccc5)c5nc(c(-c6ccccc6)c6ccc3[nH]6)C=C5)C=C4)cc2)sc1-c1ccccc1
REMARK SMILES IDX 22 1 21 2 20 3 19 4 18 5 17 6 15 7 16 8 14 9 8 10 9 11 10 12
REMARK SMILES IDX 13 13 12 14 11 15 6 16 5 17 7 19 4 20 1 21 2 22 3 23 81 24
REMARK SMILES IDX 80 25 82 26 83 27 87 28 84 29 86 30 85 31 23 32 24 33 25 34
REMARK SMILES IDX 26 35 27 36 28 37 29 38 30 39 31 40 32 41 33 42 79 43 34 44
REMARK SMILES IDX 78 45 35 46 36 47 37 48 72 49 38 50 77 51 71 52 73 53 39 54
REMARK SMILES IDX 76 55 70 56 69 57 40 59 62 60 47 61 61 62 48 63 51 64 60 65
REMARK SMILES IDX 74 66 49 67 50 68 59 70 75 71 52 72 41 73 42 74 46 75 43 76
REMARK SMILES IDX 45 77 44 78 63 79 64 80 68 81 65 82 67 83 66 84 53 85 54 86
REMARK SMILES IDX 58 87 55 88 57 89 56 90
REMARK H PARENT 5 18 73 58 51 69
REMARK Flexibility Score: inf
ROOT
ATOM      1  C   UNL A   1      38.951  21.475  25.971  1.00  0.00     0.188 C 
ENDROOT
BRANCH   1   2
ATOM      2  C   UNL A   1      37.839  22.415  25.499  1.00  0.00     0.188 C 
BRANCH   2   3
ATOM      3  O   UNL A   1      37.233  22.067  24.254  1.00  0.00    -0.376 OA
BRANCH   3   4
ATOM      4  C   UNL A   1      36.379  23.024  23.628  1.00  0.00     0.202 C 
BRANCH   4   5
ATOM      5  C   UNL A   1      35.763  24.087  24.546  1.00  0.00     0.261 C 
BRANCH   5   6
ATOM      6  O   UNL A   1      34.343  24.149  24.358  1.00  0.00    -0.463 OA
BRANCH   6   7
ATOM      7  C   UNL A   1      33.796  25.379  24.142  1.00  0.00     0.310 C 
ATOM      8  O   UNL A   1      33.778  25.972  23.069  1.00  0.00    -0.252 OA
BRANCH   7   9
ATOM      9  C   UNL A   1      33.111  25.827  25.414  1.00  0.00     0.115 C 
ATOM     10  C   UNL A   1      31.619  26.127  25.279  1.00  0.00     0.096 C 
ATOM     11  C   UNL A   1      31.555  27.636  25.621  1.00  0.00     0.003 C 
ATOM     12  C   UNL A   1      32.347  28.444  24.564  1.00  0.00     0.005 C 
ATOM     13  C   UNL A   1      32.491  27.696  26.824  1.00  0.00     0.009 C 
ATOM     14  C   UNL A   1      33.680  27.119  26.041  1.00  0.00     0.004 C 
ATOM     15  C   UNL A   1      33.814  28.201  24.962  1.00  0.00     0.005 C 
BRANCH  10  16
ATOM     16  C   UNL A   1      30.593  25.359  26.133  1.00  0.00     0.230 C 
ATOM     17  N   UNL A   1      30.663  24.117  26.667  1.00  0.00    -0.302 N 
ATOM     18  H   UNL A   1      29.895  23.905  27.244  1.00  0.00     0.172 HD
ATOM     19  O   UNL A   1      29.541  25.966  26.412  1.00  0.00    -0.274 OA
BRANCH  17  20
ATOM     20  C   UNL A   1      31.564  23.092  26.582  1.00  0.00     0.190 A 
ATOM     21  C   UNL A   1      34.742  21.552  27.171  1.00  0.00     0.068 C 
ATOM     22  C   UNL A   1      33.439  21.902  26.562  1.00  0.00     0.058 A 
ATOM     23  N   UNL A   1      32.623  22.784  27.274  1.00  0.00    -0.225 NA
ATOM     24  C   UNL A   1      32.908  21.465  25.363  1.00  0.00     0.059 A 
ATOM     25  S   UNL A   1      31.243  22.006  25.320  1.00  0.00    -0.096 S 
BRANCH  24  26
ATOM     26  C   UNL A   1      33.343  20.513  24.319  1.00  0.00    -0.006 A 
ATOM     27  C   UNL A   1      32.214  19.803  23.057  1.00  0.00     0.009 A 
ATOM     28  C   UNL A   1      34.741  19.509  24.876  1.00  0.00     0.009 A 
ATOM     29  C   UNL A   1      32.405  18.071  22.489  1.00  0.00     0.001 A 
ATOM     30  C   UNL A   1      34.925  17.804  24.339  1.00  0.00     0.001 A 
ATOM     31  C   UNL A   1      33.737  17.048  23.204  1.00  0.00     0.000 A 
ENDBRANCH  24  26
ENDBRANCH  17  20
ENDBRANCH  10  16
ENDBRANCH   7   9
ENDBRANCH   6   7
ENDBRANCH   5   6
ENDBRANCH   4   5
ENDBRANCH   3   4
ENDBRANCH   2   3
ENDBRANCH   1   2
BRANCH   1  32
ATOM     32  O   UNL A   1      39.937  22.134  26.760  1.00  0.00    -0.377 OA
BRANCH  32  33
ATOM     33  C   UNL A   1      41.124  21.362  26.932  1.00  0.00     0.188 C 
BRANCH  33  34
ATOM     34  C   UNL A   1      42.222  21.577  25.849  1.00  0.00     0.188 C 
BRANCH  34  35
ATOM     35  O   UNL A   1      43.614  21.616  26.213  1.00  0.00    -0.376 OA
BRANCH  35  36
ATOM     36  C   UNL A   1      44.581  21.377  25.180  1.00  0.00     0.202 C 
BRANCH  36  37
ATOM     37  C   UNL A   1      44.663  22.523  24.073  1.00  0.00     0.261 C 
BRANCH  37  38
ATOM     38  O   UNL A   1      44.170  24.112  24.554  1.00  0.00    -0.460 OA
BRANCH  38  39
ATOM     39  C   UNL A   1      43.128  25.327  25.511  1.00  0.00     0.338 C 
ATOM     40  O   UNL A   1      41.982  25.112  26.037  1.00  0.00    -0.246 OA
BRANCH  39  41
ATOM     41  C   UNL A   1      43.431  26.785  26.005  1.00  0.00     0.060 A 
ATOM     42  C   UNL A   1      44.748  27.182  26.366  1.00  0.00     0.016 A 
ATOM     43  C   UNL A   1      42.358  27.417  26.646  1.00  0.00     0.016 A 
ATOM     44  C   UNL A   1      44.994  28.100  27.378  1.00  0.00     0.010 A 
ATOM     45  C   UNL A   1      42.602  28.314  27.683  1.00  0.00     0.010 A 
ATOM     46  C   UNL A   1      43.915  28.602  28.087  1.00  0.00    -0.014 A 
BRANCH  46  47
ATOM     47  C   UNL A   1      44.104  29.337  29.346  1.00  0.00     0.031 A 
ATOM     48  C   UNL A   1      44.086  28.568  30.628  1.00  0.00     0.074 A 
ATOM     49  C   UNL A   1      44.092  30.676  29.311  1.00  0.00     0.049 A 
ATOM     50  N   UNL A   1      43.731  28.964  31.818  1.00  0.00    -0.248 NA
ATOM     51  C   UNL A   1      44.489  27.154  30.548  1.00  0.00     0.031 C 
ATOM     52  C   UNL A   1      44.195  31.492  28.102  1.00  0.00     0.029 A 
ATOM     53  N   UNL A   1      43.876  31.571  30.322  1.00  0.00    -0.354 N 
ATOM     54  C   UNL A   1      43.795  27.830  32.620  1.00  0.00     0.074 A 
ATOM     55  C   UNL A   1      44.256  26.741  31.787  1.00  0.00     0.031 C 
ATOM     56  C   UNL A   1      43.942  32.768  28.425  1.00  0.00     0.029 A 
ATOM     57  C   UNL A   1      43.598  32.828  29.842  1.00  0.00     0.049 A 
ATOM     58  H   UNL A   1      43.915  31.343  31.279  1.00  0.00     0.167 HD
ATOM     59  C   UNL A   1      43.455  27.724  33.926  1.00  0.00     0.031 A 
ATOM     60  C   UNL A   1      43.031  33.878  30.459  1.00  0.00     0.031 A 
ATOM     61  C   UNL A   1      42.991  28.841  34.708  1.00  0.00     0.049 A 
ATOM     62  C   UNL A   1      42.624  33.736  31.894  1.00  0.00     0.074 A 
ATOM     63  C   UNL A   1      42.646  28.882  36.046  1.00  0.00     0.029 A 
ATOM     64  N   UNL A   1      42.808  30.123  34.204  1.00  0.00    -0.354 N 
ATOM     65  N   UNL A   1      42.657  32.669  32.658  1.00  0.00    -0.248 NA
ATOM     66  C   UNL A   1      42.108  34.940  32.553  1.00  0.00     0.031 C 
ATOM     67  C   UNL A   1      42.217  30.181  36.343  1.00  0.00     0.029 A 
ATOM     68  C   UNL A   1      42.346  30.961  35.202  1.00  0.00     0.049 A 
ATOM     69  H   UNL A   1      42.980  30.394  33.274  1.00  0.00     0.167 HD
ATOM     70  C   UNL A   1      42.206  33.081  33.903  1.00  0.00     0.074 A 
ATOM     71  C   UNL A   1      41.899  34.495  33.786  1.00  0.00     0.031 C 
ATOM     72  C   UNL A   1      42.066  32.364  35.045  1.00  0.00     0.031 A 
BRANCH  59  73
ATOM     73  C   UNL A   1      43.516  26.364  34.567  1.00  0.00    -0.014 A 
ATOM     74  C   UNL A   1      42.390  25.530  34.641  1.00  0.00     0.009 A 
ATOM     75  C   UNL A   1      44.739  25.893  35.074  1.00  0.00     0.009 A 
ATOM     76  C   UNL A   1      42.481  24.267  35.234  1.00  0.00     0.001 A 
ATOM     77  C   UNL A   1      44.833  24.620  35.642  1.00  0.00     0.001 A 
ATOM     78  C   UNL A   1      43.703  23.812  35.729  1.00  0.00     0.000 A 
ENDBRANCH  59  73
BRANCH  60  79
ATOM     79  C   UNL A   1      42.797  35.124  29.691  1.00  0.00    -0.014 A 
ATOM     80  C   UNL A   1      43.768  36.133  29.689  1.00  0.00     0.009 A 
ATOM     81  C   UNL A   1      41.651  35.274  28.894  1.00  0.00     0.009 A 
ATOM     82  C   UNL A   1      43.593  37.277  28.908  1.00  0.00     0.001 A 
ATOM     83  C   UNL A   1      41.490  36.408  28.095  1.00  0.00     0.001 A 
ATOM     84  C   UNL A   1      42.459  37.409  28.106  1.00  0.00     0.000 A 
ENDBRANCH  60  79
BRANCH  72  85
ATOM     85  C   UNL A   1      41.630  33.116  36.267  1.00  0.00    -0.014 A 
ATOM     86  C   UNL A   1      40.276  33.223  36.615  1.00  0.00     0.009 A 
ATOM     87  C   UNL A   1      42.603  33.679  37.108  1.00  0.00     0.009 A 
ATOM     88  C   UNL A   1      39.904  33.903  37.775  1.00  0.00     0.001 A 
ATOM     89  C   UNL A   1      42.229  34.336  38.279  1.00  0.00     0.001 A 
ATOM     90  C   UNL A   1      40.879  34.453  38.607  1.00  0.00     0.000 A 
ENDBRANCH  72  85
ENDBRANCH  46  47
ENDBRANCH  39  41
ENDBRANCH  38  39
ENDBRANCH  37  38
ENDBRANCH  36  37
ENDBRANCH  35  36
ENDBRANCH  34  35
ENDBRANCH  33  34
ENDBRANCH  32  33
ENDBRANCH   1  32
TORSDOF 23
ENDMDL
