MODEL 1
REMARK VINA RESULT:      -9.7      0.000      0.000
REMARK SMILES Cc1ccc(F)cc1NC(=O)c1nn(C)cc1C(=O)OCCOCCOCCOCCOC(=O)c1ccc(-c2c3nc(c(-c4ccccc4)c4ccc([nH]4)c(-c4ccccc4)c4nc(c(-c5ccccc5)c5ccc2[nH]5)C=C4)C=C3)cc1
REMARK SMILES IDX 26 1 25 2 24 3 23 4 22 5 21 6 20 7 18 8 19 9 17 10 12 11
REMARK SMILES IDX 13 12 14 13 16 14 15 15 10 16 9 17 11 19 8 20 1 21 2 22 3 23
REMARK SMILES IDX 4 24 7 25 5 26 6 27 27 28 28 29 29 30 30 31 31 32 32 33
REMARK SMILES IDX 33 34 34 35 35 36 36 37 82 38 37 39 81 40 38 41 39 42 40 43
REMARK SMILES IDX 75 44 41 45 80 46 74 47 76 48 42 49 79 50 73 51 72 52 43 54
REMARK SMILES IDX 65 55 50 56 64 57 51 58 54 59 63 60 77 61 52 62 53 63 62 65
REMARK SMILES IDX 78 66 55 67 44 68 45 69 49 70 46 71 48 72 47 73 66 74 67 75
REMARK SMILES IDX 71 76 68 77 70 78 69 79 56 80 57 81 61 82 58 83 60 84 59 85
REMARK H PARENT 9 18 76 53 54 64
REMARK Flexibility Score: inf
ROOT
ATOM      1  O   UNL A   1      37.006  22.561  25.978  1.00  0.00    -0.377 OA
ENDROOT
BRANCH   1   2
ATOM      2  C   UNL A   1      37.044  23.609  25.027  1.00  0.00     0.188 C 
BRANCH   2   3
ATOM      3  C   UNL A   1      35.738  23.771  24.236  1.00  0.00     0.188 C 
BRANCH   3   4
ATOM      4  O   UNL A   1      35.662  23.237  22.924  1.00  0.00    -0.376 OA
BRANCH   4   5
ATOM      5  C   UNL A   1      34.374  22.971  22.380  1.00  0.00     0.202 C 
BRANCH   5   6
ATOM      6  C   UNL A   1      33.133  23.404  23.178  1.00  0.00     0.261 C 
BRANCH   6   7
ATOM      7  O   UNL A   1      32.494  24.634  22.769  1.00  0.00    -0.460 OA
BRANCH   7   8
ATOM      8  C   UNL A   1      31.188  24.782  23.157  1.00  0.00     0.342 C 
ATOM      9  O   UNL A   1      30.417  23.849  23.343  1.00  0.00    -0.246 OA
BRANCH   8  10
ATOM     10  C   UNL A   1      30.782  26.158  23.356  1.00  0.00     0.111 A 
ATOM     11  C   UNL A   1      30.248  26.756  24.540  1.00  0.00     0.165 A 
ATOM     12  N   UNL A   1      29.772  27.990  24.277  1.00  0.00    -0.167 NA
ATOM     13  N   UNL A   1      30.178  28.243  23.023  1.00  0.00    -0.274 N 
ATOM     14  C   UNL A   1      30.792  27.184  22.426  1.00  0.00     0.125 A 
ATOM     15  C   UNL A   1      29.965  29.565  22.482  1.00  0.00     0.173 C 
BRANCH  11  16
ATOM     16  C   UNL A   1      30.213  26.209  25.907  1.00  0.00     0.277 C 
ATOM     17  N   UNL A   1      31.066  26.721  26.886  1.00  0.00    -0.320 N 
ATOM     18  H   UNL A   1      31.001  26.277  27.763  1.00  0.00     0.170 HD
ATOM     19  O   UNL A   1      29.504  25.247  26.207  1.00  0.00    -0.267 OA
BRANCH  17  20
ATOM     20  C   UNL A   1      32.008  27.771  26.826  1.00  0.00     0.047 A 
ATOM     21  C   UNL A   1      33.801  26.218  25.801  1.00  0.00     0.046 C 
ATOM     22  C   UNL A   1      33.273  27.553  26.251  1.00  0.00    -0.027 A 
ATOM     23  C   UNL A   1      34.050  28.674  25.913  1.00  0.00     0.008 A 
ATOM     24  C   UNL A   1      33.579  29.965  26.137  1.00  0.00     0.039 A 
ATOM     25  C   UNL A   1      31.685  29.060  27.256  1.00  0.00     0.065 A 
ATOM     26  C   UNL A   1      32.420  30.153  26.848  1.00  0.00     0.125 A 
ATOM     27  F   UNL A   1      31.975  31.392  27.094  1.00  0.00    -0.207 F 
ENDBRANCH  17  20
ENDBRANCH  11  16
ENDBRANCH   8  10
ENDBRANCH   7   8
ENDBRANCH   6   7
ENDBRANCH   5   6
ENDBRANCH   4   5
ENDBRANCH   3   4
ENDBRANCH   2   3
ENDBRANCH   1   2
BRANCH   1  28
ATOM     28  C   UNL A   1      35.920  21.648  25.867  1.00  0.00     0.188 C 
BRANCH  28  29
ATOM     29  C   UNL A   1      36.238  20.437  24.982  1.00  0.00     0.188 C 
BRANCH  29  30
ATOM     30  O   UNL A   1      37.655  20.335  24.815  1.00  0.00    -0.376 OA
BRANCH  30  31
ATOM     31  C   UNL A   1      38.253  19.114  25.248  1.00  0.00     0.202 C 
BRANCH  31  32
ATOM     32  C   UNL A   1      39.701  19.281  25.736  1.00  0.00     0.261 C 
BRANCH  32  33
ATOM     33  O   UNL A   1      40.022  20.627  26.092  1.00  0.00    -0.460 OA
BRANCH  33  34
ATOM     34  C   UNL A   1      41.016  20.720  26.994  1.00  0.00     0.338 C 
ATOM     35  O   UNL A   1      41.857  19.876  27.270  1.00  0.00    -0.246 OA
BRANCH  34  36
ATOM     36  C   UNL A   1      41.050  22.089  27.498  1.00  0.00     0.060 A 
ATOM     37  C   UNL A   1      40.199  23.029  26.908  1.00  0.00     0.016 A 
ATOM     38  C   UNL A   1      41.982  22.442  28.475  1.00  0.00     0.016 A 
ATOM     39  C   UNL A   1      40.329  24.364  27.244  1.00  0.00     0.010 A 
ATOM     40  C   UNL A   1      42.129  23.783  28.793  1.00  0.00     0.010 A 
ATOM     41  C   UNL A   1      41.341  24.741  28.132  1.00  0.00    -0.014 A 
BRANCH  41  42
ATOM     42  C   UNL A   1      41.738  26.152  28.190  1.00  0.00     0.031 A 
ATOM     43  C   UNL A   1      43.026  26.542  27.530  1.00  0.00     0.074 A 
ATOM     44  C   UNL A   1      40.950  27.040  28.809  1.00  0.00     0.049 A 
ATOM     45  N   UNL A   1      43.631  27.698  27.521  1.00  0.00    -0.248 NA
ATOM     46  C   UNL A   1      43.730  25.481  26.787  1.00  0.00     0.031 C 
ATOM     47  C   UNL A   1      39.659  26.737  29.425  1.00  0.00     0.029 A 
ATOM     48  N   UNL A   1      41.137  28.374  29.034  1.00  0.00    -0.354 N 
ATOM     49  C   UNL A   1      44.791  27.501  26.783  1.00  0.00     0.074 A 
ATOM     50  C   UNL A   1      44.824  26.112  26.390  1.00  0.00     0.031 C 
ATOM     51  C   UNL A   1      39.176  27.858  29.985  1.00  0.00     0.029 A 
ATOM     52  C   UNL A   1      40.148  28.932  29.800  1.00  0.00     0.049 A 
ATOM     53  H   UNL A   1      41.903  28.881  28.682  1.00  0.00     0.167 HD
ATOM     54  C   UNL A   1      45.740  28.409  26.461  1.00  0.00     0.031 A 
ATOM     55  C   UNL A   1      40.070  30.168  30.323  1.00  0.00     0.031 A 
ATOM     56  C   UNL A   1      45.696  29.778  26.900  1.00  0.00     0.049 A 
ATOM     57  C   UNL A   1      41.181  31.137  30.032  1.00  0.00     0.074 A 
ATOM     58  C   UNL A   1      46.594  30.798  26.651  1.00  0.00     0.029 A 
ATOM     59  N   UNL A   1      44.690  30.310  27.697  1.00  0.00    -0.354 N 
ATOM     60  N   UNL A   1      42.270  30.957  29.320  1.00  0.00    -0.248 NA
ATOM     61  C   UNL A   1      41.049  32.480  30.606  1.00  0.00     0.031 C 
ATOM     62  C   UNL A   1      46.165  31.930  27.352  1.00  0.00     0.029 A 
ATOM     63  C   UNL A   1      44.961  31.636  27.977  1.00  0.00     0.049 A 
ATOM     64  H   UNL A   1      43.901  29.816  28.016  1.00  0.00     0.167 HD
ATOM     65  C   UNL A   1      42.945  32.170  29.342  1.00  0.00     0.074 A 
ATOM     66  C   UNL A   1      42.127  33.081  30.122  1.00  0.00     0.031 C 
ATOM     67  C   UNL A   1      44.128  32.507  28.770  1.00  0.00     0.031 A 
BRANCH  54  68
ATOM     68  C   UNL A   1      46.911  27.927  25.651  1.00  0.00    -0.014 A 
ATOM     69  C   UNL A   1      46.872  27.899  24.246  1.00  0.00     0.009 A 
ATOM     70  C   UNL A   1      48.070  27.477  26.302  1.00  0.00     0.009 A 
ATOM     71  C   UNL A   1      47.948  27.390  23.515  1.00  0.00     0.001 A 
ATOM     72  C   UNL A   1      49.159  26.999  25.567  1.00  0.00     0.001 A 
ATOM     73  C   UNL A   1      49.092  26.944  24.176  1.00  0.00     0.000 A 
ENDBRANCH  54  68
BRANCH  55  74
ATOM     74  C   UNL A   1      38.920  30.525  31.191  1.00  0.00    -0.014 A 
ATOM     75  C   UNL A   1      37.754  31.080  30.646  1.00  0.00     0.009 A 
ATOM     76  C   UNL A   1      38.974  30.276  32.573  1.00  0.00     0.009 A 
ATOM     77  C   UNL A   1      36.673  31.398  31.473  1.00  0.00     0.001 A 
ATOM     78  C   UNL A   1      37.880  30.566  33.390  1.00  0.00     0.001 A 
ATOM     79  C   UNL A   1      36.733  31.135  32.840  1.00  0.00     0.000 A 
ENDBRANCH  55  74
BRANCH  67  80
ATOM     80  C   UNL A   1      44.588  33.926  28.950  1.00  0.00    -0.014 A 
ATOM     81  C   UNL A   1      44.176  34.943  28.074  1.00  0.00     0.009 A 
ATOM     82  C   UNL A   1      45.407  34.255  30.041  1.00  0.00     0.009 A 
ATOM     83  C   UNL A   1      44.608  36.255  28.269  1.00  0.00     0.001 A 
ATOM     84  C   UNL A   1      45.808  35.573  30.253  1.00  0.00     0.001 A 
ATOM     85  C   UNL A   1      45.417  36.571  29.360  1.00  0.00     0.000 A 
ENDBRANCH  67  80
ENDBRANCH  41  42
ENDBRANCH  34  36
ENDBRANCH  33  34
ENDBRANCH  32  33
ENDBRANCH  31  32
ENDBRANCH  30  31
ENDBRANCH  29  30
ENDBRANCH  28  29
ENDBRANCH   1  28
TORSDOF 22
ENDMDL
MODEL 2
REMARK VINA RESULT:      -9.4      2.432      4.045
REMARK SMILES Cc1ccc(F)cc1NC(=O)c1nn(C)cc1C(=O)OCCOCCOCCOCCOC(=O)c1ccc(-c2c3nc(c(-c4ccccc4)c4ccc([nH]4)c(-c4ccccc4)c4nc(c(-c5ccccc5)c5ccc2[nH]5)C=C4)C=C3)cc1
REMARK SMILES IDX 26 1 25 2 24 3 23 4 22 5 21 6 20 7 18 8 19 9 17 10 12 11
REMARK SMILES IDX 13 12 14 13 16 14 15 15 10 16 9 17 11 19 8 20 1 21 2 22 3 23
REMARK SMILES IDX 4 24 7 25 5 26 6 27 27 28 28 29 29 30 30 31 31 32 32 33
REMARK SMILES IDX 33 34 34 35 35 36 36 37 82 38 37 39 81 40 38 41 39 42 40 43
REMARK SMILES IDX 75 44 41 45 80 46 74 47 76 48 42 49 79 50 73 51 72 52 43 54
REMARK SMILES IDX 65 55 50 56 64 57 51 58 54 59 63 60 77 61 52 62 53 63 62 65
REMARK SMILES IDX 78 66 55 67 44 68 45 69 49 70 46 71 48 72 47 73 66 74 67 75
REMARK SMILES IDX 71 76 68 77 70 78 69 79 56 80 57 81 61 82 58 83 60 84 59 85
REMARK H PARENT 9 18 76 53 54 64
REMARK Flexibility Score: inf
ROOT
ATOM      1  O   UNL A   1      40.112  21.690  25.977  1.00  0.00    -0.377 OA
ENDROOT
BRANCH   1   2
ATOM      2  C   UNL A   1      38.785  22.177  26.053  1.00  0.00     0.188 C 
BRANCH   2   3
ATOM      3  C   UNL A   1      37.749  21.249  25.401  1.00  0.00     0.188 C 
BRANCH   3   4
ATOM      4  O   UNL A   1      36.382  21.398  25.750  1.00  0.00    -0.376 OA
BRANCH   4   5
ATOM      5  C   UNL A   1      35.412  21.321  24.711  1.00  0.00     0.202 C 
BRANCH   5   6
ATOM      6  C   UNL A   1      34.984  22.617  24.004  1.00  0.00     0.261 C 
BRANCH   6   7
ATOM      7  O   UNL A   1      35.418  23.858  24.603  1.00  0.00    -0.460 OA
BRANCH   7   8
ATOM      8  C   UNL A   1      34.440  24.797  24.799  1.00  0.00     0.342 C 
ATOM      9  O   UNL A   1      34.326  25.468  25.817  1.00  0.00    -0.246 OA
BRANCH   8  10
ATOM     10  C   UNL A   1      33.538  24.955  23.676  1.00  0.00     0.111 A 
ATOM     11  C   UNL A   1      32.138  24.665  23.625  1.00  0.00     0.165 A 
ATOM     12  N   UNL A   1      31.688  24.717  22.354  1.00  0.00    -0.167 NA
ATOM     13  N   UNL A   1      32.717  25.224  21.657  1.00  0.00    -0.274 N 
ATOM     14  C   UNL A   1      33.847  25.391  22.399  1.00  0.00     0.125 A 
ATOM     15  C   UNL A   1      32.511  25.559  20.268  1.00  0.00     0.173 C 
BRANCH  11  16
ATOM     16  C   UNL A   1      31.219  24.381  24.740  1.00  0.00     0.277 C 
ATOM     17  N   UNL A   1      30.465  25.413  25.303  1.00  0.00    -0.320 N 
ATOM     18  H   UNL A   1      29.902  25.144  26.064  1.00  0.00     0.170 HD
ATOM     19  O   UNL A   1      31.146  23.266  25.258  1.00  0.00    -0.267 OA
BRANCH  17  20
ATOM     20  C   UNL A   1      30.378  26.779  24.960  1.00  0.00     0.047 A 
ATOM     21  C   UNL A   1      31.979  27.449  26.875  1.00  0.00     0.046 C 
ATOM     22  C   UNL A   1      31.145  27.733  25.655  1.00  0.00    -0.027 A 
ATOM     23  C   UNL A   1      31.286  29.011  25.089  1.00  0.00     0.008 A 
ATOM     24  C   UNL A   1      30.687  29.325  23.873  1.00  0.00     0.039 A 
ATOM     25  C   UNL A   1      29.600  27.209  23.883  1.00  0.00     0.065 A 
ATOM     26  C   UNL A   1      29.810  28.440  23.298  1.00  0.00     0.125 A 
ATOM     27  F   UNL A   1      29.207  28.745  22.142  1.00  0.00    -0.207 F 
ENDBRANCH  17  20
ENDBRANCH  11  16
ENDBRANCH   8  10
ENDBRANCH   7   8
ENDBRANCH   6   7
ENDBRANCH   5   6
ENDBRANCH   4   5
ENDBRANCH   3   4
ENDBRANCH   2   3
ENDBRANCH   1   2
BRANCH   1  28
ATOM     28  C   UNL A   1      41.067  22.331  26.816  1.00  0.00     0.188 C 
BRANCH  28  29
ATOM     29  C   UNL A   1      41.673  21.391  27.865  1.00  0.00     0.188 C 
BRANCH  29  30
ATOM     30  O   UNL A   1      41.330  20.041  27.543  1.00  0.00    -0.376 OA
BRANCH  30  31
ATOM     31  C   UNL A   1      42.422  19.158  27.292  1.00  0.00     0.202 C 
BRANCH  31  32
ATOM     32  C   UNL A   1      42.615  18.831  25.802  1.00  0.00     0.261 C 
BRANCH  32  33
ATOM     33  O   UNL A   1      42.995  19.967  25.022  1.00  0.00    -0.460 OA
BRANCH  33  34
ATOM     34  C   UNL A   1      44.280  19.940  24.626  1.00  0.00     0.338 C 
ATOM     35  O   UNL A   1      44.854  19.051  24.012  1.00  0.00    -0.246 OA
BRANCH  34  36
ATOM     36  C   UNL A   1      44.872  21.245  24.899  1.00  0.00     0.060 A 
ATOM     37  C   UNL A   1      45.290  21.517  26.206  1.00  0.00     0.016 A 
ATOM     38  C   UNL A   1      44.920  22.207  23.889  1.00  0.00     0.016 A 
ATOM     39  C   UNL A   1      45.695  22.798  26.534  1.00  0.00     0.010 A 
ATOM     40  C   UNL A   1      45.302  23.497  24.224  1.00  0.00     0.010 A 
ATOM     41  C   UNL A   1      45.631  23.796  25.557  1.00  0.00    -0.014 A 
BRANCH  41  42
ATOM     42  C   UNL A   1      45.675  25.200  25.981  1.00  0.00     0.031 A 
ATOM     43  C   UNL A   1      47.001  25.898  25.952  1.00  0.00     0.074 A 
ATOM     44  C   UNL A   1      44.548  25.814  26.364  1.00  0.00     0.049 A 
ATOM     45  N   UNL A   1      47.312  27.098  26.359  1.00  0.00    -0.248 NA
ATOM     46  C   UNL A   1      48.133  25.132  25.397  1.00  0.00     0.031 C 
ATOM     47  C   UNL A   1      43.217  25.211  26.364  1.00  0.00     0.029 A 
ATOM     48  N   UNL A   1      44.357  27.078  26.844  1.00  0.00    -0.354 N 
ATOM     49  C   UNL A   1      48.674  27.228  26.120  1.00  0.00     0.074 A 
ATOM     50  C   UNL A   1      49.138  25.977  25.566  1.00  0.00     0.031 C 
ATOM     51  C   UNL A   1      42.341  26.104  26.850  1.00  0.00     0.029 A 
ATOM     52  C   UNL A   1      43.064  27.314  27.231  1.00  0.00     0.049 A 
ATOM     53  H   UNL A   1      45.074  27.750  26.906  1.00  0.00     0.167 HD
ATOM     54  C   UNL A   1      49.461  28.304  26.342  1.00  0.00     0.031 A 
ATOM     55  C   UNL A   1      42.544  28.382  27.861  1.00  0.00     0.031 A 
ATOM     56  C   UNL A   1      48.974  29.523  26.929  1.00  0.00     0.049 A 
ATOM     57  C   UNL A   1      43.455  29.533  28.184  1.00  0.00     0.074 A 
ATOM     58  C   UNL A   1      49.667  30.685  27.215  1.00  0.00     0.029 A 
ATOM     59  N   UNL A   1      47.661  29.725  27.334  1.00  0.00    -0.354 N 
ATOM     60  N   UNL A   1      44.740  29.663  27.944  1.00  0.00    -0.248 NA
ATOM     61  C   UNL A   1      42.845  30.685  28.855  1.00  0.00     0.031 C 
ATOM     62  C   UNL A   1      48.785  31.565  27.851  1.00  0.00     0.029 A 
ATOM     63  C   UNL A   1      47.527  30.981  27.896  1.00  0.00     0.049 A 
ATOM     64  H   UNL A   1      46.933  29.070  27.236  1.00  0.00     0.167 HD
ATOM     65  C   UNL A   1      45.089  30.922  28.414  1.00  0.00     0.074 A 
ATOM     66  C   UNL A   1      43.873  31.518  28.935  1.00  0.00     0.031 C 
ATOM     67  C   UNL A   1      46.300  31.534  28.417  1.00  0.00     0.031 A 
BRANCH  54  68
ATOM     68  C   UNL A   1      50.919  28.176  25.999  1.00  0.00    -0.014 A 
ATOM     69  C   UNL A   1      51.853  27.688  26.930  1.00  0.00     0.009 A 
ATOM     70  C   UNL A   1      51.373  28.562  24.729  1.00  0.00     0.009 A 
ATOM     71  C   UNL A   1      53.213  27.633  26.610  1.00  0.00     0.001 A 
ATOM     72  C   UNL A   1      52.728  28.476  24.400  1.00  0.00     0.001 A 
ATOM     73  C   UNL A   1      53.648  28.024  25.345  1.00  0.00     0.000 A 
ENDBRANCH  54  68
BRANCH  55  74
ATOM     74  C   UNL A   1      41.111  28.379  28.246  1.00  0.00    -0.014 A 
ATOM     75  C   UNL A   1      40.698  27.847  29.475  1.00  0.00     0.009 A 
ATOM     76  C   UNL A   1      40.149  28.944  27.391  1.00  0.00     0.009 A 
ATOM     77  C   UNL A   1      39.346  27.863  29.831  1.00  0.00     0.001 A 
ATOM     78  C   UNL A   1      38.804  28.986  27.764  1.00  0.00     0.001 A 
ATOM     79  C   UNL A   1      38.403  28.438  28.981  1.00  0.00     0.000 A 
ENDBRANCH  55  74
BRANCH  67  80
ATOM     80  C   UNL A   1      46.354  32.927  28.977  1.00  0.00    -0.014 A 
ATOM     81  C   UNL A   1      46.653  33.159  30.329  1.00  0.00     0.009 A 
ATOM     82  C   UNL A   1      46.149  34.023  28.125  1.00  0.00     0.009 A 
ATOM     83  C   UNL A   1      46.708  34.462  30.822  1.00  0.00     0.001 A 
ATOM     84  C   UNL A   1      46.239  35.326  28.614  1.00  0.00     0.001 A 
ATOM     85  C   UNL A   1      46.508  35.544  29.965  1.00  0.00     0.000 A 
ENDBRANCH  67  80
ENDBRANCH  41  42
ENDBRANCH  34  36
ENDBRANCH  33  34
ENDBRANCH  32  33
ENDBRANCH  31  32
ENDBRANCH  30  31
ENDBRANCH  29  30
ENDBRANCH  28  29
ENDBRANCH   1  28
TORSDOF 22
ENDMDL
MODEL 3
REMARK VINA RESULT:      -9.4      4.637      9.546
REMARK SMILES Cc1ccc(F)cc1NC(=O)c1nn(C)cc1C(=O)OCCOCCOCCOCCOC(=O)c1ccc(-c2c3nc(c(-c4ccccc4)c4ccc([nH]4)c(-c4ccccc4)c4nc(c(-c5ccccc5)c5ccc2[nH]5)C=C4)C=C3)cc1
REMARK SMILES IDX 26 1 25 2 24 3 23 4 22 5 21 6 20 7 18 8 19 9 17 10 12 11
REMARK SMILES IDX 13 12 14 13 16 14 15 15 10 16 9 17 11 19 8 20 1 21 2 22 3 23
REMARK SMILES IDX 4 24 7 25 5 26 6 27 27 28 28 29 29 30 30 31 31 32 32 33
REMARK SMILES IDX 33 34 34 35 35 36 36 37 82 38 37 39 81 40 38 41 39 42 40 43
REMARK SMILES IDX 75 44 41 45 80 46 74 47 76 48 42 49 79 50 73 51 72 52 43 54
REMARK SMILES IDX 65 55 50 56 64 57 51 58 54 59 63 60 77 61 52 62 53 63 62 65
REMARK SMILES IDX 78 66 55 67 44 68 45 69 49 70 46 71 48 72 47 73 66 74 67 75
REMARK SMILES IDX 71 76 68 77 70 78 69 79 56 80 57 81 61 82 58 83 60 84 59 85
REMARK H PARENT 9 18 76 53 54 64
REMARK Flexibility Score: inf
ROOT
ATOM      1  O   UNL A   1      35.411  31.609  27.680  1.00  0.00    -0.377 OA
ENDROOT
BRANCH   1   2
ATOM      2  C   UNL A   1      35.551  30.228  27.399  1.00  0.00     0.188 C 
BRANCH   2   3
ATOM      3  C   UNL A   1      34.240  29.548  26.977  1.00  0.00     0.188 C 
BRANCH   3   4
ATOM      4  O   UNL A   1      33.528  30.065  25.865  1.00  0.00    -0.376 OA
BRANCH   4   5
ATOM      5  C   UNL A   1      32.108  29.967  25.872  1.00  0.00     0.202 C 
BRANCH   5   6
ATOM      6  C   UNL A   1      31.464  28.595  26.134  1.00  0.00     0.261 C 
BRANCH   6   7
ATOM      7  O   UNL A   1      31.466  27.658  25.035  1.00  0.00    -0.460 OA
BRANCH   7   8
ATOM      8  C   UNL A   1      32.375  26.637  25.127  1.00  0.00     0.342 C 
ATOM      9  O   UNL A   1      33.588  26.790  25.061  1.00  0.00    -0.246 OA
BRANCH   8  10
ATOM     10  C   UNL A   1      31.782  25.331  25.333  1.00  0.00     0.111 A 
ATOM     11  C   UNL A   1      31.669  24.258  24.394  1.00  0.00     0.165 A 
ATOM     12  N   UNL A   1      30.855  23.294  24.870  1.00  0.00    -0.167 NA
ATOM     13  N   UNL A   1      30.628  23.648  26.144  1.00  0.00    -0.274 N 
ATOM     14  C   UNL A   1      31.163  24.856  26.477  1.00  0.00     0.125 A 
ATOM     15  C   UNL A   1      29.908  22.732  26.997  1.00  0.00     0.173 C 
BRANCH  11  16
ATOM     16  C   UNL A   1      32.338  24.107  23.090  1.00  0.00     0.277 C 
ATOM     17  N   UNL A   1      33.550  23.418  23.003  1.00  0.00    -0.320 N 
ATOM     18  H   UNL A   1      33.945  23.393  22.101  1.00  0.00     0.170 HD
ATOM     19  O   UNL A   1      31.904  24.640  22.068  1.00  0.00    -0.267 OA
BRANCH  17  20
ATOM     20  C   UNL A   1      34.303  22.755  23.994  1.00  0.00     0.047 A 
ATOM     21  C   UNL A   1      32.860  20.621  23.782  1.00  0.00     0.046 C 
ATOM     22  C   UNL A   1      34.024  21.413  24.314  1.00  0.00    -0.027 A 
ATOM     23  C   UNL A   1      34.981  20.694  25.050  1.00  0.00     0.008 A 
ATOM     24  C   UNL A   1      36.173  21.291  25.450  1.00  0.00     0.039 A 
ATOM     25  C   UNL A   1      35.385  23.376  24.622  1.00  0.00     0.065 A 
ATOM     26  C   UNL A   1      36.351  22.640  25.274  1.00  0.00     0.125 A 
ATOM     27  F   UNL A   1      37.483  23.229  25.682  1.00  0.00    -0.207 F 
ENDBRANCH  17  20
ENDBRANCH  11  16
ENDBRANCH   8  10
ENDBRANCH   7   8
ENDBRANCH   6   7
ENDBRANCH   5   6
ENDBRANCH   4   5
ENDBRANCH   3   4
ENDBRANCH   2   3
ENDBRANCH   1   2
BRANCH   1  28
ATOM     28  C   UNL A   1      34.447  31.956  28.668  1.00  0.00     0.188 C 
BRANCH  28  29
ATOM     29  C   UNL A   1      33.510  33.086  28.223  1.00  0.00     0.188 C 
BRANCH  29  30
ATOM     30  O   UNL A   1      34.131  34.346  28.492  1.00  0.00    -0.376 OA
BRANCH  30  31
ATOM     31  C   UNL A   1      33.249  35.443  28.728  1.00  0.00     0.202 C 
BRANCH  31  32
ATOM     32  C   UNL A   1      33.219  35.899  30.196  1.00  0.00     0.261 C 
BRANCH  32  33
ATOM     33  O   UNL A   1      33.104  34.815  31.119  1.00  0.00    -0.460 OA
BRANCH  33  34
ATOM     34  C   UNL A   1      33.997  34.869  32.123  1.00  0.00     0.338 C 
ATOM     35  O   UNL A   1      33.921  35.515  33.159  1.00  0.00    -0.246 OA
BRANCH  34  36
ATOM     36  C   UNL A   1      35.037  33.878  31.865  1.00  0.00     0.060 A 
ATOM     37  C   UNL A   1      34.938  32.638  32.506  1.00  0.00     0.016 A 
ATOM     38  C   UNL A   1      36.135  34.218  31.074  1.00  0.00     0.016 A 
ATOM     39  C   UNL A   1      35.989  31.745  32.418  1.00  0.00     0.010 A 
ATOM     40  C   UNL A   1      37.200  33.334  31.007  1.00  0.00     0.010 A 
ATOM     41  C   UNL A   1      37.143  32.128  31.727  1.00  0.00    -0.014 A 
BRANCH  41  42
ATOM     42  C   UNL A   1      38.383  31.376  31.955  1.00  0.00     0.031 A 
ATOM     43  C   UNL A   1      39.270  31.817  33.080  1.00  0.00     0.074 A 
ATOM     44  C   UNL A   1      38.678  30.329  31.174  1.00  0.00     0.049 A 
ATOM     45  N   UNL A   1      40.449  31.376  33.423  1.00  0.00    -0.248 NA
ATOM     46  C   UNL A   1      38.760  32.911  33.927  1.00  0.00     0.031 C 
ATOM     47  C   UNL A   1      37.834  29.814  30.098  1.00  0.00     0.029 A 
ATOM     48  N   UNL A   1      39.783  29.527  31.162  1.00  0.00    -0.354 N 
ATOM     49  C   UNL A   1      40.827  32.144  34.516  1.00  0.00     0.074 A 
ATOM     50  C   UNL A   1      39.772  33.100  34.760  1.00  0.00     0.031 C 
ATOM     51  C   UNL A   1      38.468  28.789  29.508  1.00  0.00     0.029 A 
ATOM     52  C   UNL A   1      39.773  28.615  30.141  1.00  0.00     0.049 A 
ATOM     53  H   UNL A   1      40.513  29.598  31.820  1.00  0.00     0.167 HD
ATOM     54  C   UNL A   1      41.958  32.050  35.252  1.00  0.00     0.031 A 
ATOM     55  C   UNL A   1      40.737  27.766  29.745  1.00  0.00     0.031 A 
ATOM     56  C   UNL A   1      43.006  31.110  34.960  1.00  0.00     0.049 A 
ATOM     57  C   UNL A   1      42.025  27.739  30.519  1.00  0.00     0.074 A 
ATOM     58  C   UNL A   1      44.204  30.915  35.620  1.00  0.00     0.029 A 
ATOM     59  N   UNL A   1      42.977  30.212  33.901  1.00  0.00    -0.354 N 
ATOM     60  N   UNL A   1      42.377  28.454  31.564  1.00  0.00    -0.248 NA
ATOM     61  C   UNL A   1      43.044  26.787  30.067  1.00  0.00     0.031 C 
ATOM     62  C   UNL A   1      44.927  29.943  34.920  1.00  0.00     0.029 A 
ATOM     63  C   UNL A   1      44.150  29.481  33.867  1.00  0.00     0.049 A 
ATOM     64  H   UNL A   1      42.231  30.111  33.266  1.00  0.00     0.167 HD
ATOM     65  C   UNL A   1      43.650  28.022  31.909  1.00  0.00     0.074 A 
ATOM     66  C   UNL A   1      43.996  26.970  30.971  1.00  0.00     0.031 C 
ATOM     67  C   UNL A   1      44.463  28.450  32.908  1.00  0.00     0.031 A 
BRANCH  54  68
ATOM     68  C   UNL A   1      42.124  33.019  36.389  1.00  0.00    -0.014 A 
ATOM     69  C   UNL A   1      41.613  32.744  37.670  1.00  0.00     0.009 A 
ATOM     70  C   UNL A   1      42.790  34.235  36.176  1.00  0.00     0.009 A 
ATOM     71  C   UNL A   1      41.727  33.685  38.696  1.00  0.00     0.001 A 
ATOM     72  C   UNL A   1      42.931  35.161  37.213  1.00  0.00     0.001 A 
ATOM     73  C   UNL A   1      42.389  34.891  38.468  1.00  0.00     0.000 A 
ENDBRANCH  54  68
BRANCH  55  74
ATOM     74  C   UNL A   1      40.517  26.913  28.551  1.00  0.00    -0.014 A 
ATOM     75  C   UNL A   1      41.051  27.270  27.305  1.00  0.00     0.009 A 
ATOM     76  C   UNL A   1      39.796  25.712  28.662  1.00  0.00     0.009 A 
ATOM     77  C   UNL A   1      40.849  26.452  26.191  1.00  0.00     0.001 A 
ATOM     78  C   UNL A   1      39.623  24.882  27.554  1.00  0.00     0.001 A 
ATOM     79  C   UNL A   1      40.143  25.256  26.317  1.00  0.00     0.000 A 
ENDBRANCH  55  74
BRANCH  67  80
ATOM     80  C   UNL A   1      45.788  27.757  33.047  1.00  0.00    -0.014 A 
ATOM     81  C   UNL A   1      45.922  26.581  33.801  1.00  0.00     0.009 A 
ATOM     82  C   UNL A   1      46.909  28.267  32.373  1.00  0.00     0.009 A 
ATOM     83  C   UNL A   1      47.162  25.950  33.906  1.00  0.00     0.001 A 
ATOM     84  C   UNL A   1      48.139  27.615  32.452  1.00  0.00     0.001 A 
ATOM     85  C   UNL A   1      48.267  26.463  33.227  1.00  0.00     0.000 A 
ENDBRANCH  67  80
ENDBRANCH  41  42
ENDBRANCH  34  36
ENDBRANCH  33  34
ENDBRANCH  32  33
ENDBRANCH  31  32
ENDBRANCH  30  31
ENDBRANCH  29  30
ENDBRANCH  28  29
ENDBRANCH   1  28
TORSDOF 22
ENDMDL
