MODEL 1
REMARK VINA RESULT:      -9.3      0.000      0.000
REMARK SMILES Cc1n[nH]c(C)c1CC(=O)N1CC[C@H](C(=O)OCCOCCOCCOCCOC(=O)c2ccc(-c3c4nc(c(-c5ccccc5)c5ccc([nH]5)c(-c5ccccc5)c5nc(c(-c6ccccc6)c6ccc3[nH]6)C=C5)C=C4)cc2)[C@H]1C
REMARK SMILES IDX 22 1 21 2 20 3 19 4 18 5 17 6 15 7 16 8 14 9 11 10 12 11
REMARK SMILES IDX 80 12 13 13 81 14 9 15 10 16 8 17 7 18 1 19 2 20 3 21 4 22
REMARK SMILES IDX 5 23 6 25 23 26 24 27 25 28 26 29 27 30 28 31 29 32 30 33
REMARK SMILES IDX 31 34 32 35 33 36 79 37 34 38 78 39 35 40 36 41 37 42 72 43
REMARK SMILES IDX 38 44 77 45 71 46 73 47 39 48 76 49 70 50 69 51 40 53 62 54
REMARK SMILES IDX 47 55 61 56 48 57 51 58 60 59 74 60 49 61 50 62 59 64 75 65
REMARK SMILES IDX 52 66 41 67 42 68 46 69 43 70 45 71 44 72 63 73 64 74 68 75
REMARK SMILES IDX 65 76 67 77 66 78 53 79 54 80 58 81 55 82 57 83 56 84
REMARK H PARENT 4 24 73 52 51 63
REMARK Flexibility Score: inf
ROOT
ATOM      1  C   UNL A   1      37.628  22.056  24.820  1.00  0.00     0.188 C 
ENDROOT
BRANCH   1   2
ATOM      2  C   UNL A   1      36.151  22.513  24.837  1.00  0.00     0.188 C 
BRANCH   2   3
ATOM      3  O   UNL A   1      35.449  22.702  26.059  1.00  0.00    -0.376 OA
BRANCH   3   4
ATOM      4  C   UNL A   1      34.795  21.607  26.675  1.00  0.00     0.202 C 
BRANCH   4   5
ATOM      5  C   UNL A   1      33.710  20.837  25.894  1.00  0.00     0.261 C 
BRANCH   5   6
ATOM      6  O   UNL A   1      32.533  21.570  25.482  1.00  0.00    -0.463 OA
BRANCH   6   7
ATOM      7  C   UNL A   1      32.395  21.756  24.150  1.00  0.00     0.311 C 
ATOM      8  O   UNL A   1      32.230  20.838  23.350  1.00  0.00    -0.252 OA
BRANCH   7   9
ATOM      9  C   UNL A   1      32.462  23.201  23.662  1.00  0.00     0.123 C 
ATOM     10  N   UNL A   1      31.632  25.156  24.828  1.00  0.00    -0.339 N 
ATOM     11  C   UNL A   1      30.528  24.636  24.044  1.00  0.00     0.121 C 
ATOM     12  C   UNL A   1      32.878  24.407  24.546  1.00  0.00     0.096 C 
ATOM     13  C   UNL A   1      31.118  23.639  23.064  1.00  0.00     0.039 C 
ATOM     14  C   UNL A   1      33.835  25.263  23.717  1.00  0.00     0.032 C 
BRANCH  10  15
ATOM     15  C   UNL A   1      31.334  26.062  25.837  1.00  0.00     0.227 C 
ATOM     16  O   UNL A   1      31.051  25.628  26.966  1.00  0.00    -0.275 OA
BRANCH  15  17
ATOM     17  C   UNL A   1      31.102  27.549  25.591  1.00  0.00     0.139 C 
BRANCH  17  18
ATOM     18  C   UNL A   1      31.929  28.291  24.604  1.00  0.00     0.005 A 
ATOM     19  C   UNL A   1      30.729  27.719  22.351  1.00  0.00     0.069 C 
ATOM     20  C   UNL A   1      31.746  28.391  23.196  1.00  0.00     0.063 A 
ATOM     21  N   UNL A   1      32.700  29.132  22.622  1.00  0.00    -0.181 NA
ATOM     22  N   UNL A   1      33.538  29.420  23.623  1.00  0.00    -0.282 N 
ATOM     23  C   UNL A   1      33.179  28.855  24.813  1.00  0.00     0.036 A 
ATOM     24  H   UNL A   1      34.337  29.986  23.513  1.00  0.00     0.190 HD
ATOM     25  C   UNL A   1      34.082  28.882  25.993  1.00  0.00     0.066 C 
ENDBRANCH  17  18
ENDBRANCH  15  17
ENDBRANCH  10  15
ENDBRANCH   7   9
ENDBRANCH   6   7
ENDBRANCH   5   6
ENDBRANCH   4   5
ENDBRANCH   3   4
ENDBRANCH   2   3
ENDBRANCH   1   2
BRANCH   1  26
ATOM     26  O   UNL A   1      37.827  20.688  25.121  1.00  0.00    -0.377 OA
BRANCH  26  27
ATOM     27  C   UNL A   1      39.124  20.344  25.573  1.00  0.00     0.188 C 
BRANCH  27  28
ATOM     28  C   UNL A   1      39.928  21.457  26.266  1.00  0.00     0.188 C 
BRANCH  28  29
ATOM     29  O   UNL A   1      41.089  20.977  26.915  1.00  0.00    -0.376 OA
BRANCH  29  30
ATOM     30  C   UNL A   1      42.278  20.646  26.228  1.00  0.00     0.202 C 
BRANCH  30  31
ATOM     31  C   UNL A   1      43.248  21.693  25.652  1.00  0.00     0.261 C 
BRANCH  31  32
ATOM     32  O   UNL A   1      42.705  22.929  25.183  1.00  0.00    -0.460 OA
BRANCH  32  33
ATOM     33  C   UNL A   1      43.496  24.017  25.249  1.00  0.00     0.338 C 
ATOM     34  O   UNL A   1      44.490  24.248  24.580  1.00  0.00    -0.246 OA
BRANCH  33  35
ATOM     35  C   UNL A   1      42.839  24.997  26.139  1.00  0.00     0.060 A 
ATOM     36  C   UNL A   1      43.348  26.301  26.186  1.00  0.00     0.016 A 
ATOM     37  C   UNL A   1      41.718  24.648  26.898  1.00  0.00     0.016 A 
ATOM     38  C   UNL A   1      42.758  27.254  27.013  1.00  0.00     0.010 A 
ATOM     39  C   UNL A   1      41.146  25.596  27.752  1.00  0.00     0.010 A 
ATOM     40  C   UNL A   1      41.688  26.891  27.839  1.00  0.00    -0.014 A 
BRANCH  40  41
ATOM     41  C   UNL A   1      41.303  27.791  28.952  1.00  0.00     0.031 A 
ATOM     42  C   UNL A   1      42.105  27.718  30.223  1.00  0.00     0.074 A 
ATOM     43  C   UNL A   1      40.312  28.690  28.824  1.00  0.00     0.049 A 
ATOM     44  N   UNL A   1      41.948  28.374  31.344  1.00  0.00    -0.248 NA
ATOM     45  C   UNL A   1      43.240  26.779  30.228  1.00  0.00     0.031 C 
ATOM     46  C   UNL A   1      39.505  28.899  27.624  1.00  0.00     0.029 A 
ATOM     47  N   UNL A   1      39.816  29.596  29.728  1.00  0.00    -0.354 N 
ATOM     48  C   UNL A   1      42.961  27.926  32.183  1.00  0.00     0.074 A 
ATOM     49  C   UNL A   1      43.701  26.917  31.460  1.00  0.00     0.031 C 
ATOM     50  C   UNL A   1      38.600  29.863  27.872  1.00  0.00     0.029 A 
ATOM     51  C   UNL A   1      38.743  30.310  29.258  1.00  0.00     0.049 A 
ATOM     52  H   UNL A   1      40.195  29.722  30.629  1.00  0.00     0.167 HD
ATOM     53  C   UNL A   1      43.256  28.325  33.442  1.00  0.00     0.031 A 
ATOM     54  C   UNL A   1      37.948  31.199  29.887  1.00  0.00     0.031 A 
ATOM     55  C   UNL A   1      42.503  29.309  34.171  1.00  0.00     0.049 A 
ATOM     56  C   UNL A   1      38.231  31.549  31.326  1.00  0.00     0.074 A 
ATOM     57  C   UNL A   1      42.708  29.772  35.458  1.00  0.00     0.029 A 
ATOM     58  N   UNL A   1      41.395  29.978  33.674  1.00  0.00    -0.354 N 
ATOM     59  N   UNL A   1      39.196  31.127  32.109  1.00  0.00    -0.248 NA
ATOM     60  C   UNL A   1      37.319  32.509  31.966  1.00  0.00     0.031 C 
ATOM     61  C   UNL A   1      41.687  30.678  35.761  1.00  0.00     0.029 A 
ATOM     62  C   UNL A   1      40.891  30.833  34.637  1.00  0.00     0.049 A 
ATOM     63  H   UNL A   1      41.022  29.860  32.770  1.00  0.00     0.167 HD
ATOM     64  C   UNL A   1      39.025  31.792  33.318  1.00  0.00     0.074 A 
ATOM     65  C   UNL A   1      37.877  32.661  33.158  1.00  0.00     0.031 C 
ATOM     66  C   UNL A   1      39.751  31.695  34.458  1.00  0.00     0.031 A 
BRANCH  53  67
ATOM     67  C   UNL A   1      44.426  27.669  34.119  1.00  0.00    -0.014 A 
ATOM     68  C   UNL A   1      45.717  28.219  34.037  1.00  0.00     0.009 A 
ATOM     69  C   UNL A   1      44.233  26.501  34.873  1.00  0.00     0.009 A 
ATOM     70  C   UNL A   1      46.793  27.594  34.672  1.00  0.00     0.001 A 
ATOM     71  C   UNL A   1      45.304  25.897  35.531  1.00  0.00     0.001 A 
ATOM     72  C   UNL A   1      46.584  26.438  35.423  1.00  0.00     0.000 A 
ENDBRANCH  53  67
BRANCH  54  73
ATOM     73  C   UNL A   1      36.774  31.788  29.184  1.00  0.00    -0.014 A 
ATOM     74  C   UNL A   1      36.886  32.991  28.470  1.00  0.00     0.009 A 
ATOM     75  C   UNL A   1      35.517  31.167  29.267  1.00  0.00     0.009 A 
ATOM     76  C   UNL A   1      35.758  33.578  27.890  1.00  0.00     0.001 A 
ATOM     77  C   UNL A   1      34.400  31.736  28.656  1.00  0.00     0.001 A 
ATOM     78  C   UNL A   1      34.517  32.949  27.980  1.00  0.00     0.000 A 
ENDBRANCH  54  73
BRANCH  66  79
ATOM     79  C   UNL A   1      39.361  32.584  35.608  1.00  0.00    -0.014 A 
ATOM     80  C   UNL A   1      38.437  32.167  36.579  1.00  0.00     0.009 A 
ATOM     81  C   UNL A   1      39.966  33.844  35.744  1.00  0.00     0.009 A 
ATOM     82  C   UNL A   1      38.101  33.010  37.641  1.00  0.00     0.001 A 
ATOM     83  C   UNL A   1      39.655  34.670  36.825  1.00  0.00     0.001 A 
ATOM     84  C   UNL A   1      38.714  34.256  37.766  1.00  0.00     0.000 A 
ENDBRANCH  66  79
ENDBRANCH  40  41
ENDBRANCH  33  35
ENDBRANCH  32  33
ENDBRANCH  31  32
ENDBRANCH  30  31
ENDBRANCH  29  30
ENDBRANCH  28  29
ENDBRANCH  27  28
ENDBRANCH  26  27
ENDBRANCH   1  26
TORSDOF 23
ENDMDL
MODEL 2
REMARK VINA RESULT:      -8.8      4.507      7.928
REMARK SMILES Cc1n[nH]c(C)c1CC(=O)N1CC[C@H](C(=O)OCCOCCOCCOCCOC(=O)c2ccc(-c3c4nc(c(-c5ccccc5)c5ccc([nH]5)c(-c5ccccc5)c5nc(c(-c6ccccc6)c6ccc3[nH]6)C=C5)C=C4)cc2)[C@H]1C
REMARK SMILES IDX 22 1 21 2 20 3 19 4 18 5 17 6 15 7 16 8 14 9 11 10 12 11
REMARK SMILES IDX 80 12 13 13 81 14 9 15 10 16 8 17 7 18 1 19 2 20 3 21 4 22
REMARK SMILES IDX 5 23 6 25 23 26 24 27 25 28 26 29 27 30 28 31 29 32 30 33
REMARK SMILES IDX 31 34 32 35 33 36 79 37 34 38 78 39 35 40 36 41 37 42 72 43
REMARK SMILES IDX 38 44 77 45 71 46 73 47 39 48 76 49 70 50 69 51 40 53 62 54
REMARK SMILES IDX 47 55 61 56 48 57 51 58 60 59 74 60 49 61 50 62 59 64 75 65
REMARK SMILES IDX 52 66 41 67 42 68 46 69 43 70 45 71 44 72 63 73 64 74 68 75
REMARK SMILES IDX 65 76 67 77 66 78 53 79 54 80 58 81 55 82 57 83 56 84
REMARK H PARENT 4 24 73 52 51 63
REMARK Flexibility Score: inf
ROOT
ATOM      1  C   UNL A   1      38.648  21.780  25.995  1.00  0.00     0.188 C 
ENDROOT
BRANCH   1   2
ATOM      2  C   UNL A   1      37.695  22.554  25.055  1.00  0.00     0.188 C 
BRANCH   2   3
ATOM      3  O   UNL A   1      36.473  23.106  25.530  1.00  0.00    -0.376 OA
BRANCH   3   4
ATOM      4  C   UNL A   1      35.531  22.278  26.186  1.00  0.00     0.202 C 
BRANCH   4   5
ATOM      5  C   UNL A   1      34.444  22.921  27.072  1.00  0.00     0.261 C 
BRANCH   5   6
ATOM      6  O   UNL A   1      33.158  23.188  26.467  1.00  0.00    -0.463 OA
BRANCH   6   7
ATOM      7  C   UNL A   1      33.026  24.397  25.876  1.00  0.00     0.311 C 
ATOM      8  O   UNL A   1      33.680  25.385  26.201  1.00  0.00    -0.252 OA
BRANCH   7   9
ATOM      9  C   UNL A   1      31.993  24.490  24.757  1.00  0.00     0.123 C 
ATOM     10  N   UNL A   1      30.708  26.449  24.138  1.00  0.00    -0.339 N 
ATOM     11  C   UNL A   1      29.956  25.765  25.173  1.00  0.00     0.121 C 
ATOM     12  C   UNL A   1      31.899  25.662  23.743  1.00  0.00     0.096 C 
ATOM     13  C   UNL A   1      30.568  24.384  25.319  1.00  0.00     0.039 C 
ATOM     14  C   UNL A   1      31.691  25.044  22.361  1.00  0.00     0.032 C 
BRANCH  10  15
ATOM     15  C   UNL A   1      30.363  27.763  23.855  1.00  0.00     0.227 C 
ATOM     16  O   UNL A   1      29.648  27.995  22.865  1.00  0.00    -0.275 OA
BRANCH  15  17
ATOM     17  C   UNL A   1      30.997  28.967  24.544  1.00  0.00     0.139 C 
BRANCH  17  18
ATOM     18  C   UNL A   1      32.264  28.821  25.308  1.00  0.00     0.005 A 
ATOM     19  C   UNL A   1      34.041  28.689  23.393  1.00  0.00     0.069 C 
ATOM     20  C   UNL A   1      33.593  28.734  24.806  1.00  0.00     0.063 A 
ATOM     21  N   UNL A   1      34.487  28.589  25.790  1.00  0.00    -0.181 NA
ATOM     22  N   UNL A   1      33.743  28.484  26.896  1.00  0.00    -0.282 N 
ATOM     23  C   UNL A   1      32.400  28.513  26.654  1.00  0.00     0.036 A 
ATOM     24  H   UNL A   1      34.127  28.396  27.799  1.00  0.00     0.190 HD
ATOM     25  C   UNL A   1      31.409  28.205  27.717  1.00  0.00     0.066 C 
ENDBRANCH  17  18
ENDBRANCH  15  17
ENDBRANCH  10  15
ENDBRANCH   7   9
ENDBRANCH   6   7
ENDBRANCH   5   6
ENDBRANCH   4   5
ENDBRANCH   3   4
ENDBRANCH   2   3
ENDBRANCH   1   2
BRANCH   1  26
ATOM     26  O   UNL A   1      39.527  22.594  26.747  1.00  0.00    -0.377 OA
BRANCH  26  27
ATOM     27  C   UNL A   1      40.643  21.930  27.311  1.00  0.00     0.188 C 
BRANCH  27  28
ATOM     28  C   UNL A   1      41.765  21.525  26.341  1.00  0.00     0.188 C 
BRANCH  28  29
ATOM     29  O   UNL A   1      41.556  20.257  25.751  1.00  0.00    -0.376 OA
BRANCH  29  30
ATOM     30  C   UNL A   1      42.305  19.111  26.098  1.00  0.00     0.202 C 
BRANCH  30  31
ATOM     31  C   UNL A   1      43.586  18.678  25.364  1.00  0.00     0.261 C 
BRANCH  31  32
ATOM     32  O   UNL A   1      43.979  19.413  24.203  1.00  0.00    -0.460 OA
BRANCH  32  33
ATOM     33  C   UNL A   1      45.232  19.907  24.178  1.00  0.00     0.338 C 
ATOM     34  O   UNL A   1      46.205  19.424  23.621  1.00  0.00    -0.246 OA
BRANCH  33  35
ATOM     35  C   UNL A   1      45.195  21.257  24.777  1.00  0.00     0.060 A 
ATOM     36  C   UNL A   1      44.881  22.344  23.951  1.00  0.00     0.016 A 
ATOM     37  C   UNL A   1      45.439  21.452  26.140  1.00  0.00     0.016 A 
ATOM     38  C   UNL A   1      44.837  23.634  24.477  1.00  0.00     0.010 A 
ATOM     39  C   UNL A   1      45.426  22.750  26.661  1.00  0.00     0.010 A 
ATOM     40  C   UNL A   1      45.161  23.847  25.822  1.00  0.00    -0.014 A 
BRANCH  40  41
ATOM     41  C   UNL A   1      45.454  25.227  26.279  1.00  0.00     0.031 A 
ATOM     42  C   UNL A   1      44.319  26.032  26.853  1.00  0.00     0.074 A 
ATOM     43  C   UNL A   1      46.697  25.735  26.242  1.00  0.00     0.049 A 
ATOM     44  N   UNL A   1      44.312  27.265  27.290  1.00  0.00    -0.248 NA
ATOM     45  C   UNL A   1      43.017  25.349  26.952  1.00  0.00     0.031 C 
ATOM     46  C   UNL A   1      47.888  25.034  25.766  1.00  0.00     0.029 A 
ATOM     47  N   UNL A   1      47.159  26.974  26.613  1.00  0.00    -0.354 N 
ATOM     48  C   UNL A   1      43.009  27.503  27.711  1.00  0.00     0.074 A 
ATOM     49  C   UNL A   1      42.247  26.305  27.444  1.00  0.00     0.031 C 
ATOM     50  C   UNL A   1      48.944  25.861  25.858  1.00  0.00     0.029 A 
ATOM     51  C   UNL A   1      48.497  27.158  26.365  1.00  0.00     0.049 A 
ATOM     52  H   UNL A   1      46.586  27.663  27.019  1.00  0.00     0.167 HD
ATOM     53  C   UNL A   1      42.495  28.618  28.280  1.00  0.00     0.031 A 
ATOM     54  C   UNL A   1      49.261  28.260  26.501  1.00  0.00     0.031 A 
ATOM     55  C   UNL A   1      43.247  29.819  28.520  1.00  0.00     0.049 A 
ATOM     56  C   UNL A   1      48.639  29.524  27.037  1.00  0.00     0.074 A 
ATOM     57  C   UNL A   1      42.815  31.010  29.074  1.00  0.00     0.029 A 
ATOM     58  N   UNL A   1      44.589  29.980  28.213  1.00  0.00    -0.354 N 
ATOM     59  N   UNL A   1      47.409  29.739  27.442  1.00  0.00    -0.248 NA
ATOM     60  C   UNL A   1      49.517  30.699  27.146  1.00  0.00     0.031 C 
ATOM     61  C   UNL A   1      43.883  31.913  29.049  1.00  0.00     0.029 A 
ATOM     62  C   UNL A   1      44.997  31.260  28.546  1.00  0.00     0.049 A 
ATOM     63  H   UNL A   1      45.166  29.288  27.817  1.00  0.00     0.167 HD
ATOM     64  C   UNL A   1      47.376  31.058  27.880  1.00  0.00     0.074 A 
ATOM     65  C   UNL A   1      48.712  31.589  27.711  1.00  0.00     0.031 C 
ATOM     66  C   UNL A   1      46.334  31.768  28.377  1.00  0.00     0.031 A 
BRANCH  53  67
ATOM     67  C   UNL A   1      41.038  28.596  28.649  1.00  0.00    -0.014 A 
ATOM     68  C   UNL A   1      40.055  29.064  27.761  1.00  0.00     0.009 A 
ATOM     69  C   UNL A   1      40.639  28.075  29.889  1.00  0.00     0.009 A 
ATOM     70  C   UNL A   1      38.706  29.038  28.122  1.00  0.00     0.001 A 
ATOM     71  C   UNL A   1      39.288  28.021  30.234  1.00  0.00     0.001 A 
ATOM     72  C   UNL A   1      38.324  28.511  29.354  1.00  0.00     0.000 A 
ENDBRANCH  53  67
BRANCH  54  73
ATOM     73  C   UNL A   1      50.689  28.241  26.080  1.00  0.00    -0.014 A 
ATOM     74  C   UNL A   1      51.713  27.973  27.002  1.00  0.00     0.009 A 
ATOM     75  C   UNL A   1      51.038  28.542  24.753  1.00  0.00     0.009 A 
ATOM     76  C   UNL A   1      53.054  28.046  26.612  1.00  0.00     0.001 A 
ATOM     77  C   UNL A   1      52.375  28.579  24.358  1.00  0.00     0.001 A 
ATOM     78  C   UNL A   1      53.383  28.344  25.291  1.00  0.00     0.000 A 
ENDBRANCH  54  73
BRANCH  66  79
ATOM     79  C   UNL A   1      46.606  33.180  28.824  1.00  0.00    -0.014 A 
ATOM     80  C   UNL A   1      47.287  33.454  30.020  1.00  0.00     0.009 A 
ATOM     81  C   UNL A   1      46.212  34.250  28.006  1.00  0.00     0.009 A 
ATOM     82  C   UNL A   1      47.534  34.774  30.404  1.00  0.00     0.001 A 
ATOM     83  C   UNL A   1      46.491  35.567  28.374  1.00  0.00     0.001 A 
ATOM     84  C   UNL A   1      47.142  35.828  29.579  1.00  0.00     0.000 A 
ENDBRANCH  66  79
ENDBRANCH  40  41
ENDBRANCH  33  35
ENDBRANCH  32  33
ENDBRANCH  31  32
ENDBRANCH  30  31
ENDBRANCH  29  30
ENDBRANCH  28  29
ENDBRANCH  27  28
ENDBRANCH  26  27
ENDBRANCH   1  26
TORSDOF 23
ENDMDL
MODEL 3
REMARK VINA RESULT:      -8.8      1.742      6.131
REMARK SMILES Cc1n[nH]c(C)c1CC(=O)N1CC[C@H](C(=O)OCCOCCOCCOCCOC(=O)c2ccc(-c3c4nc(c(-c5ccccc5)c5ccc([nH]5)c(-c5ccccc5)c5nc(c(-c6ccccc6)c6ccc3[nH]6)C=C5)C=C4)cc2)[C@H]1C
REMARK SMILES IDX 22 1 21 2 20 3 19 4 18 5 17 6 15 7 16 8 14 9 11 10 12 11
REMARK SMILES IDX 80 12 13 13 81 14 9 15 10 16 8 17 7 18 1 19 2 20 3 21 4 22
REMARK SMILES IDX 5 23 6 25 23 26 24 27 25 28 26 29 27 30 28 31 29 32 30 33
REMARK SMILES IDX 31 34 32 35 33 36 79 37 34 38 78 39 35 40 36 41 37 42 72 43
REMARK SMILES IDX 38 44 77 45 71 46 73 47 39 48 76 49 70 50 69 51 40 53 62 54
REMARK SMILES IDX 47 55 61 56 48 57 51 58 60 59 74 60 49 61 50 62 59 64 75 65
REMARK SMILES IDX 52 66 41 67 42 68 46 69 43 70 45 71 44 72 63 73 64 74 68 75
REMARK SMILES IDX 65 76 67 77 66 78 53 79 54 80 58 81 55 82 57 83 56 84
REMARK H PARENT 4 24 73 52 51 63
REMARK Flexibility Score: inf
ROOT
ATOM      1  C   UNL A   1      40.358  20.738  26.571  1.00  0.00     0.188 C 
ENDROOT
BRANCH   1   2
ATOM      2  C   UNL A   1      39.014  21.096  25.897  1.00  0.00     0.188 C 
BRANCH   2   3
ATOM      3  O   UNL A   1      38.525  22.432  25.884  1.00  0.00    -0.376 OA
BRANCH   3   4
ATOM      4  C   UNL A   1      37.144  22.677  25.691  1.00  0.00     0.202 C 
BRANCH   4   5
ATOM      5  C   UNL A   1      36.576  22.721  24.256  1.00  0.00     0.261 C 
BRANCH   5   6
ATOM      6  O   UNL A   1      35.203  22.308  24.067  1.00  0.00    -0.463 OA
BRANCH   6   7
ATOM      7  C   UNL A   1      34.429  23.155  23.351  1.00  0.00     0.311 C 
ATOM      8  O   UNL A   1      34.553  23.328  22.141  1.00  0.00    -0.252 OA
BRANCH   7   9
ATOM      9  C   UNL A   1      33.365  23.919  24.134  1.00  0.00     0.123 C 
ATOM     10  N   UNL A   1      32.141  25.870  23.380  1.00  0.00    -0.339 N 
ATOM     11  C   UNL A   1      33.361  26.354  23.998  1.00  0.00     0.121 C 
ATOM     12  C   UNL A   1      32.015  24.403  23.540  1.00  0.00     0.096 C 
ATOM     13  C   UNL A   1      33.956  25.188  24.765  1.00  0.00     0.039 C 
ATOM     14  C   UNL A   1      30.930  24.072  24.563  1.00  0.00     0.032 C 
BRANCH  10  15
ATOM     15  C   UNL A   1      31.434  26.752  22.575  1.00  0.00     0.227 C 
ATOM     16  O   UNL A   1      31.358  26.522  21.357  1.00  0.00    -0.275 OA
BRANCH  15  17
ATOM     17  C   UNL A   1      30.939  28.114  23.052  1.00  0.00     0.139 C 
BRANCH  17  18
ATOM     18  C   UNL A   1      29.492  28.448  23.015  1.00  0.00     0.005 A 
ATOM     19  C   UNL A   1      28.410  26.286  24.015  1.00  0.00     0.069 C 
ATOM     20  C   UNL A   1      28.392  27.664  23.466  1.00  0.00     0.063 A 
ATOM     21  N   UNL A   1      27.224  28.280  23.257  1.00  0.00    -0.181 NA
ATOM     22  N   UNL A   1      27.554  29.393  22.593  1.00  0.00    -0.282 N 
ATOM     23  C   UNL A   1      28.890  29.494  22.331  1.00  0.00     0.036 A 
ATOM     24  H   UNL A   1      26.897  30.074  22.321  1.00  0.00     0.190 HD
ATOM     25  C   UNL A   1      29.430  30.545  21.430  1.00  0.00     0.066 C 
ENDBRANCH  17  18
ENDBRANCH  15  17
ENDBRANCH  10  15
ENDBRANCH   7   9
ENDBRANCH   6   7
ENDBRANCH   5   6
ENDBRANCH   4   5
ENDBRANCH   3   4
ENDBRANCH   2   3
ENDBRANCH   1   2
BRANCH   1  26
ATOM     26  O   UNL A   1      41.175  21.849  26.890  1.00  0.00    -0.377 OA
BRANCH  26  27
ATOM     27  C   UNL A   1      42.165  22.174  25.932  1.00  0.00     0.188 C 
BRANCH  27  28
ATOM     28  C   UNL A   1      43.283  21.140  25.719  1.00  0.00     0.188 C 
BRANCH  28  29
ATOM     29  O   UNL A   1      44.540  21.580  26.196  1.00  0.00    -0.376 OA
BRANCH  29  30
ATOM     30  C   UNL A   1      45.557  22.073  25.350  1.00  0.00     0.202 C 
BRANCH  30  31
ATOM     31  C   UNL A   1      45.313  23.115  24.243  1.00  0.00     0.261 C 
BRANCH  31  32
ATOM     32  O   UNL A   1      44.528  24.266  24.563  1.00  0.00    -0.460 OA
BRANCH  32  33
ATOM     33  C   UNL A   1      45.178  25.346  25.037  1.00  0.00     0.338 C 
ATOM     34  O   UNL A   1      46.207  25.839  24.602  1.00  0.00    -0.246 OA
BRANCH  33  35
ATOM     35  C   UNL A   1      44.321  25.971  26.066  1.00  0.00     0.060 A 
ATOM     36  C   UNL A   1      44.383  27.361  26.231  1.00  0.00     0.016 A 
ATOM     37  C   UNL A   1      43.445  25.205  26.841  1.00  0.00     0.016 A 
ATOM     38  C   UNL A   1      43.593  27.988  27.191  1.00  0.00     0.010 A 
ATOM     39  C   UNL A   1      42.675  25.831  27.827  1.00  0.00     0.010 A 
ATOM     40  C   UNL A   1      42.775  27.219  28.029  1.00  0.00    -0.014 A 
BRANCH  40  41
ATOM     41  C   UNL A   1      42.220  27.840  29.255  1.00  0.00     0.031 A 
ATOM     42  C   UNL A   1      40.872  28.503  29.158  1.00  0.00     0.074 A 
ATOM     43  C   UNL A   1      42.859  27.770  30.435  1.00  0.00     0.049 A 
ATOM     44  N   UNL A   1      40.190  29.140  30.075  1.00  0.00    -0.248 NA
ATOM     45  C   UNL A   1      40.201  28.432  27.848  1.00  0.00     0.031 C 
ATOM     46  C   UNL A   1      44.138  27.104  30.670  1.00  0.00     0.029 A 
ATOM     47  N   UNL A   1      42.510  28.277  31.662  1.00  0.00    -0.354 N 
ATOM     48  C   UNL A   1      39.016  29.546  29.452  1.00  0.00     0.074 A 
ATOM     49  C   UNL A   1      39.092  29.118  28.074  1.00  0.00     0.031 C 
ATOM     50  C   UNL A   1      44.476  27.257  31.962  1.00  0.00     0.029 A 
ATOM     51  C   UNL A   1      43.456  28.062  32.634  1.00  0.00     0.049 A 
ATOM     52  H   UNL A   1      41.662  28.748  31.830  1.00  0.00     0.167 HD
ATOM     53  C   UNL A   1      37.962  30.207  29.982  1.00  0.00     0.031 A 
ATOM     54  C   UNL A   1      43.505  28.496  33.909  1.00  0.00     0.031 A 
ATOM     55  C   UNL A   1      37.898  30.656  31.347  1.00  0.00     0.049 A 
ATOM     56  C   UNL A   1      42.366  29.324  34.448  1.00  0.00     0.074 A 
ATOM     57  C   UNL A   1      36.883  31.351  31.978  1.00  0.00     0.029 A 
ATOM     58  N   UNL A   1      38.897  30.457  32.287  1.00  0.00    -0.354 N 
ATOM     59  N   UNL A   1      41.256  29.696  33.855  1.00  0.00    -0.248 NA
ATOM     60  C   UNL A   1      42.483  29.785  35.839  1.00  0.00     0.031 C 
ATOM     61  C   UNL A   1      37.293  31.624  33.287  1.00  0.00     0.029 A 
ATOM     62  C   UNL A   1      38.531  31.036  33.490  1.00  0.00     0.049 A 
ATOM     63  H   UNL A   1      39.740  29.977  32.123  1.00  0.00     0.167 HD
ATOM     64  C   UNL A   1      40.533  30.404  34.809  1.00  0.00     0.074 A 
ATOM     65  C   UNL A   1      41.319  30.393  36.024  1.00  0.00     0.031 C 
ATOM     66  C   UNL A   1      39.325  31.009  34.691  1.00  0.00     0.031 A 
BRANCH  53  67
ATOM     67  C   UNL A   1      36.807  30.512  29.070  1.00  0.00    -0.014 A 
ATOM     68  C   UNL A   1      36.562  31.820  28.619  1.00  0.00     0.009 A 
ATOM     69  C   UNL A   1      35.969  29.475  28.632  1.00  0.00     0.009 A 
ATOM     70  C   UNL A   1      35.482  32.085  27.773  1.00  0.00     0.001 A 
ATOM     71  C   UNL A   1      34.911  29.738  27.763  1.00  0.00     0.001 A 
ATOM     72  C   UNL A   1      34.663  31.043  27.341  1.00  0.00     0.000 A 
ENDBRANCH  53  67
BRANCH  54  73
ATOM     73  C   UNL A   1      44.693  28.203  34.758  1.00  0.00    -0.014 A 
ATOM     74  C   UNL A   1      45.776  29.093  34.820  1.00  0.00     0.009 A 
ATOM     75  C   UNL A   1      44.766  26.999  35.478  1.00  0.00     0.009 A 
ATOM     76  C   UNL A   1      46.922  28.765  35.552  1.00  0.00     0.001 A 
ATOM     77  C   UNL A   1      45.895  26.690  36.236  1.00  0.00     0.001 A 
ATOM     78  C   UNL A   1      46.979  27.566  36.262  1.00  0.00     0.000 A 
ENDBRANCH  54  73
BRANCH  66  79
ATOM     79  C   UNL A   1      38.756  31.666  35.919  1.00  0.00    -0.014 A 
ATOM     80  C   UNL A   1      37.989  30.947  36.849  1.00  0.00     0.009 A 
ATOM     81  C   UNL A   1      39.033  33.020  36.169  1.00  0.00     0.009 A 
ATOM     82  C   UNL A   1      37.482  31.581  37.986  1.00  0.00     0.001 A 
ATOM     83  C   UNL A   1      38.554  33.642  37.323  1.00  0.00     0.001 A 
ATOM     84  C   UNL A   1      37.769  32.925  38.225  1.00  0.00     0.000 A 
ENDBRANCH  66  79
ENDBRANCH  40  41
ENDBRANCH  33  35
ENDBRANCH  32  33
ENDBRANCH  31  32
ENDBRANCH  30  31
ENDBRANCH  29  30
ENDBRANCH  28  29
ENDBRANCH  27  28
ENDBRANCH  26  27
ENDBRANCH   1  26
TORSDOF 23
ENDMDL
