MODEL 1
REMARK VINA RESULT:     -10.0      0.000      0.000
REMARK SMILES CS(=O)(=O)c1ccc(/C=C(/C(=O)OCCOCCOCCOCCOC(=O)c2ccc(-c3c4nc(c(-c5ccccc5)c5ccc([nH]5)c(-c5ccccc5)c5nc(c(-c6ccccc6)c6ccc3[nH]6)C=C5)C=C4)cc2)c2ccccc2)cc1
REMARK SMILES IDX 19 1 18 2 17 3 16 4 15 5 14 6 13 7 11 8 12 9 10 10 9 11 8 12
REMARK SMILES IDX 5 13 6 14 83 15 7 16 82 17 2 18 1 19 3 20 4 21 76 22 77 23
REMARK SMILES IDX 81 24 78 25 80 26 79 27 20 28 21 29 22 30 23 31 24 32 25 33
REMARK SMILES IDX 26 34 27 35 28 36 29 37 75 38 30 39 74 40 31 41 32 42 33 43
REMARK SMILES IDX 68 44 34 45 73 46 67 47 69 48 35 49 72 50 66 51 65 52 36 54
REMARK SMILES IDX 58 55 43 56 57 57 44 58 47 59 56 60 70 61 45 62 46 63 55 65
REMARK SMILES IDX 71 66 48 67 37 68 38 69 42 70 39 71 41 72 40 73 59 74 60 75
REMARK SMILES IDX 64 76 61 77 63 78 62 79 49 80 50 81 54 82 51 83 53 84 52 85
REMARK H PARENT 69 53 47 64
REMARK Flexibility Score: inf
ROOT
ATOM      1  O   UNL A   1      41.387  19.687  26.227  1.00  0.00    -0.377 OA
ENDROOT
BRANCH   1   2
ATOM      2  C   UNL A   1      41.690  21.011  26.632  1.00  0.00     0.188 C 
BRANCH   2   3
ATOM      3  C   UNL A   1      40.644  21.816  27.437  1.00  0.00     0.188 C 
BRANCH   3   4
ATOM      4  O   UNL A   1      39.628  22.400  26.639  1.00  0.00    -0.376 OA
BRANCH   4   5
ATOM      5  C   UNL A   1      39.060  23.611  27.104  1.00  0.00     0.202 C 
BRANCH   5   6
ATOM      6  C   UNL A   1      37.787  24.105  26.400  1.00  0.00     0.261 C 
BRANCH   6   7
ATOM      7  O   UNL A   1      36.907  23.083  25.901  1.00  0.00    -0.460 OA
BRANCH   7   8
ATOM      8  C   UNL A   1      36.527  23.168  24.602  1.00  0.00     0.338 C 
ATOM      9  O   UNL A   1      37.136  22.687  23.660  1.00  0.00    -0.246 OA
BRANCH   8  10
ATOM     10  C   UNL A   1      35.171  23.812  24.490  1.00  0.00     0.067 C 
ATOM     11  C   UNL A   1      35.014  25.095  24.901  1.00  0.00     0.024 C 
BRANCH  11  12
ATOM     12  C   UNL A   1      33.847  25.996  24.724  1.00  0.00    -0.025 A 
ATOM     13  C   UNL A   1      31.588  27.465  23.929  1.00  0.00     0.067 A 
ATOM     14  C   UNL A   1      31.482  26.543  24.966  1.00  0.00     0.021 A 
ATOM     15  C   UNL A   1      32.834  27.759  23.377  1.00  0.00     0.021 A 
ATOM     16  C   UNL A   1      32.618  25.842  25.378  1.00  0.00     0.009 A 
ATOM     17  C   UNL A   1      33.958  27.029  23.779  1.00  0.00     0.009 A 
BRANCH  13  18
ATOM     18  S   UNL A   1      30.125  28.208  23.253  1.00  0.00     0.175 S 
ATOM     19  C   UNL A   1      28.789  27.151  23.761  1.00  0.00     0.163 C 
ATOM     20  O   UNL A   1      30.217  28.103  21.808  1.00  0.00    -0.224 OA
ATOM     21  O   UNL A   1      29.966  29.493  23.905  1.00  0.00    -0.224 OA
ENDBRANCH  13  18
ENDBRANCH  11  12
BRANCH  10  22
ATOM     22  C   UNL A   1      34.074  23.010  23.904  1.00  0.00    -0.011 A 
ATOM     23  C   UNL A   1      33.453  23.426  22.713  1.00  0.00     0.009 A 
ATOM     24  C   UNL A   1      33.718  21.775  24.452  1.00  0.00     0.009 A 
ATOM     25  C   UNL A   1      32.508  22.624  22.074  1.00  0.00     0.001 A 
ATOM     26  C   UNL A   1      32.780  20.966  23.806  1.00  0.00     0.001 A 
ATOM     27  C   UNL A   1      32.178  21.389  22.619  1.00  0.00     0.000 A 
ENDBRANCH  10  22
ENDBRANCH   8  10
ENDBRANCH   7   8
ENDBRANCH   6   7
ENDBRANCH   5   6
ENDBRANCH   4   5
ENDBRANCH   3   4
ENDBRANCH   2   3
ENDBRANCH   1   2
BRANCH   1  28
ATOM     28  C   UNL A   1      42.420  18.871  25.688  1.00  0.00     0.188 C 
BRANCH  28  29
ATOM     29  C   UNL A   1      43.853  19.428  25.517  1.00  0.00     0.188 C 
BRANCH  29  30
ATOM     30  O   UNL A   1      44.069  20.155  24.319  1.00  0.00    -0.376 OA
BRANCH  30  31
ATOM     31  C   UNL A   1      44.914  21.291  24.379  1.00  0.00     0.202 C 
BRANCH  31  32
ATOM     32  C   UNL A   1      44.341  22.611  23.844  1.00  0.00     0.261 C 
BRANCH  32  33
ATOM     33  O   UNL A   1      43.779  23.498  24.822  1.00  0.00    -0.460 OA
BRANCH  33  34
ATOM     34  C   UNL A   1      44.504  24.579  25.176  1.00  0.00     0.338 C 
ATOM     35  O   UNL A   1      45.533  24.982  24.660  1.00  0.00    -0.246 OA
BRANCH  34  36
ATOM     36  C   UNL A   1      43.725  25.319  26.189  1.00  0.00     0.060 A 
ATOM     37  C   UNL A   1      43.923  26.699  26.334  1.00  0.00     0.016 A 
ATOM     38  C   UNL A   1      42.779  24.652  26.970  1.00  0.00     0.016 A 
ATOM     39  C   UNL A   1      43.190  27.413  27.282  1.00  0.00     0.010 A 
ATOM     40  C   UNL A   1      42.067  25.362  27.938  1.00  0.00     0.010 A 
ATOM     41  C   UNL A   1      42.293  26.738  28.120  1.00  0.00    -0.014 A 
BRANCH  41  42
ATOM     42  C   UNL A   1      41.756  27.419  29.321  1.00  0.00     0.031 A 
ATOM     43  C   UNL A   1      40.434  28.126  29.199  1.00  0.00     0.074 A 
ATOM     44  C   UNL A   1      42.409  27.402  30.495  1.00  0.00     0.049 A 
ATOM     45  N   UNL A   1      39.783  28.833  30.087  1.00  0.00    -0.248 NA
ATOM     46  C   UNL A   1      39.757  28.024  27.895  1.00  0.00     0.031 C 
ATOM     47  C   UNL A   1      43.670  26.709  30.756  1.00  0.00     0.029 A 
ATOM     48  N   UNL A   1      42.095  27.997  31.690  1.00  0.00    -0.354 N 
ATOM     49  C   UNL A   1      38.629  29.267  29.446  1.00  0.00     0.074 A 
ATOM     50  C   UNL A   1      38.682  28.771  28.089  1.00  0.00     0.031 C 
ATOM     51  C   UNL A   1      44.027  26.928  32.034  1.00  0.00     0.029 A 
ATOM     52  C   UNL A   1      43.042  27.804  32.667  1.00  0.00     0.049 A 
ATOM     53  H   UNL A   1      41.269  28.514  31.836  1.00  0.00     0.167 HD
ATOM     54  C   UNL A   1      37.612  30.007  29.944  1.00  0.00     0.031 A 
ATOM     55  C   UNL A   1      43.114  28.299  33.917  1.00  0.00     0.031 A 
ATOM     56  C   UNL A   1      37.570  30.518  31.288  1.00  0.00     0.049 A 
ATOM     57  C   UNL A   1      42.015  29.200  34.420  1.00  0.00     0.074 A 
ATOM     58  C   UNL A   1      36.579  31.271  31.892  1.00  0.00     0.029 A 
ATOM     59  N   UNL A   1      38.569  30.337  32.231  1.00  0.00    -0.354 N 
ATOM     60  N   UNL A   1      40.915  29.582  33.817  1.00  0.00    -0.248 NA
ATOM     61  C   UNL A   1      42.167  29.733  35.783  1.00  0.00     0.031 C 
ATOM     62  C   UNL A   1      37.010  31.601  33.181  1.00  0.00     0.029 A 
ATOM     63  C   UNL A   1      38.234  30.991  33.404  1.00  0.00     0.049 A 
ATOM     64  H   UNL A   1      39.395  29.820  32.088  1.00  0.00     0.167 HD
ATOM     65  C   UNL A   1      40.229  30.370  34.736  1.00  0.00     0.074 A 
ATOM     66  C   UNL A   1      41.031  30.397  35.942  1.00  0.00     0.031 C 
ATOM     67  C   UNL A   1      39.042  31.009  34.597  1.00  0.00     0.031 A 
BRANCH  54  68
ATOM     68  C   UNL A   1      36.483  30.347  29.011  1.00  0.00    -0.014 A 
ATOM     69  C   UNL A   1      36.067  31.674  28.815  1.00  0.00     0.009 A 
ATOM     70  C   UNL A   1      35.840  29.322  28.300  1.00  0.00     0.009 A 
ATOM     71  C   UNL A   1      35.006  31.962  27.953  1.00  0.00     0.001 A 
ATOM     72  C   UNL A   1      34.802  29.616  27.414  1.00  0.00     0.001 A 
ATOM     73  C   UNL A   1      34.380  30.934  27.249  1.00  0.00     0.000 A 
ENDBRANCH  54  68
BRANCH  55  74
ATOM     74  C   UNL A   1      44.281  27.980  34.784  1.00  0.00    -0.014 A 
ATOM     75  C   UNL A   1      44.256  26.871  35.643  1.00  0.00     0.009 A 
ATOM     76  C   UNL A   1      45.416  28.806  34.780  1.00  0.00     0.009 A 
ATOM     77  C   UNL A   1      45.330  26.611  36.499  1.00  0.00     0.001 A 
ATOM     78  C   UNL A   1      46.502  28.526  35.614  1.00  0.00     0.001 A 
ATOM     79  C   UNL A   1      46.454  27.436  36.479  1.00  0.00     0.000 A 
ENDBRANCH  55  74
BRANCH  67  80
ATOM     80  C   UNL A   1      38.510  31.755  35.791  1.00  0.00    -0.014 A 
ATOM     81  C   UNL A   1      37.879  31.089  36.853  1.00  0.00     0.009 A 
ATOM     82  C   UNL A   1      38.688  33.146  35.873  1.00  0.00     0.009 A 
ATOM     83  C   UNL A   1      37.406  31.806  37.955  1.00  0.00     0.001 A 
ATOM     84  C   UNL A   1      38.246  33.855  36.990  1.00  0.00     0.001 A 
ATOM     85  C   UNL A   1      37.595  33.186  38.025  1.00  0.00     0.000 A 
ENDBRANCH  67  80
ENDBRANCH  41  42
ENDBRANCH  34  36
ENDBRANCH  33  34
ENDBRANCH  32  33
ENDBRANCH  31  32
ENDBRANCH  30  31
ENDBRANCH  29  30
ENDBRANCH  28  29
ENDBRANCH   1  28
TORSDOF 23
ENDMDL
MODEL 2
REMARK VINA RESULT:      -9.8      3.772      9.883
REMARK SMILES CS(=O)(=O)c1ccc(/C=C(/C(=O)OCCOCCOCCOCCOC(=O)c2ccc(-c3c4nc(c(-c5ccccc5)c5ccc([nH]5)c(-c5ccccc5)c5nc(c(-c6ccccc6)c6ccc3[nH]6)C=C5)C=C4)cc2)c2ccccc2)cc1
REMARK SMILES IDX 19 1 18 2 17 3 16 4 15 5 14 6 13 7 11 8 12 9 10 10 9 11 8 12
REMARK SMILES IDX 5 13 6 14 83 15 7 16 82 17 2 18 1 19 3 20 4 21 76 22 77 23
REMARK SMILES IDX 81 24 78 25 80 26 79 27 20 28 21 29 22 30 23 31 24 32 25 33
REMARK SMILES IDX 26 34 27 35 28 36 29 37 75 38 30 39 74 40 31 41 32 42 33 43
REMARK SMILES IDX 68 44 34 45 73 46 67 47 69 48 35 49 72 50 66 51 65 52 36 54
REMARK SMILES IDX 58 55 43 56 57 57 44 58 47 59 56 60 70 61 45 62 46 63 55 65
REMARK SMILES IDX 71 66 48 67 37 68 38 69 42 70 39 71 41 72 40 73 59 74 60 75
REMARK SMILES IDX 64 76 61 77 63 78 62 79 49 80 50 81 54 82 51 83 53 84 52 85
REMARK H PARENT 69 53 47 64
REMARK Flexibility Score: inf
ROOT
ATOM      1  O   UNL A   1      33.600  31.199  27.291  1.00  0.00    -0.377 OA
ENDROOT
BRANCH   1   2
ATOM      2  C   UNL A   1      33.909  30.042  26.531  1.00  0.00     0.188 C 
BRANCH   2   3
ATOM      3  C   UNL A   1      32.844  29.453  25.578  1.00  0.00     0.188 C 
BRANCH   3   4
ATOM      4  O   UNL A   1      33.203  28.200  25.019  1.00  0.00    -0.376 OA
BRANCH   4   5
ATOM      5  C   UNL A   1      33.764  28.211  23.720  1.00  0.00     0.202 C 
BRANCH   5   6
ATOM      6  C   UNL A   1      33.381  27.058  22.779  1.00  0.00     0.261 C 
BRANCH   6   7
ATOM      7  O   UNL A   1      33.628  25.732  23.277  1.00  0.00    -0.460 OA
BRANCH   7   8
ATOM      8  C   UNL A   1      32.559  25.018  23.707  1.00  0.00     0.338 C 
ATOM      9  O   UNL A   1      31.407  25.425  23.729  1.00  0.00    -0.246 OA
BRANCH   8  10
ATOM     10  C   UNL A   1      32.959  23.601  24.019  1.00  0.00     0.067 C 
ATOM     11  C   UNL A   1      32.011  22.630  24.000  1.00  0.00     0.024 C 
BRANCH  11  12
ATOM     12  C   UNL A   1      32.184  21.158  24.086  1.00  0.00    -0.025 A 
ATOM     13  C   UNL A   1      32.963  18.459  24.015  1.00  0.00     0.067 A 
ATOM     14  C   UNL A   1      32.905  19.128  25.233  1.00  0.00     0.021 A 
ATOM     15  C   UNL A   1      32.507  19.079  22.852  1.00  0.00     0.021 A 
ATOM     16  C   UNL A   1      32.483  20.461  25.264  1.00  0.00     0.009 A 
ATOM     17  C   UNL A   1      32.115  20.422  22.892  1.00  0.00     0.009 A 
BRANCH  13  18
ATOM     18  S   UNL A   1      33.691  16.843  23.927  1.00  0.00     0.175 S 
ATOM     19  C   UNL A   1      35.209  16.968  24.843  1.00  0.00     0.163 C 
ATOM     20  O   UNL A   1      34.056  16.611  22.541  1.00  0.00    -0.224 OA
ATOM     21  O   UNL A   1      32.803  15.942  24.632  1.00  0.00    -0.224 OA
ENDBRANCH  13  18
ENDBRANCH  11  12
BRANCH  10  22
ATOM     22  C   UNL A   1      34.385  23.335  24.308  1.00  0.00    -0.011 A 
ATOM     23  C   UNL A   1      35.248  22.918  23.278  1.00  0.00     0.009 A 
ATOM     24  C   UNL A   1      34.924  23.605  25.568  1.00  0.00     0.009 A 
ATOM     25  C   UNL A   1      36.619  22.786  23.496  1.00  0.00     0.001 A 
ATOM     26  C   UNL A   1      36.299  23.484  25.783  1.00  0.00     0.001 A 
ATOM     27  C   UNL A   1      37.144  23.077  24.749  1.00  0.00     0.000 A 
ENDBRANCH  10  22
ENDBRANCH   8  10
ENDBRANCH   7   8
ENDBRANCH   6   7
ENDBRANCH   5   6
ENDBRANCH   4   5
ENDBRANCH   3   4
ENDBRANCH   2   3
ENDBRANCH   1   2
BRANCH   1  28
ATOM     28  C   UNL A   1      34.512  31.640  28.289  1.00  0.00     0.188 C 
BRANCH  28  29
ATOM     29  C   UNL A   1      35.086  33.075  28.251  1.00  0.00     0.188 C 
BRANCH  29  30
ATOM     30  O   UNL A   1      34.124  34.096  28.047  1.00  0.00    -0.376 OA
BRANCH  30  31
ATOM     31  C   UNL A   1      34.071  35.152  28.991  1.00  0.00     0.202 C 
BRANCH  31  32
ATOM     32  C   UNL A   1      32.985  35.060  30.074  1.00  0.00     0.261 C 
BRANCH  32  33
ATOM     33  O   UNL A   1      33.397  34.513  31.334  1.00  0.00    -0.460 OA
BRANCH  33  34
ATOM     34  C   UNL A   1      34.483  35.053  31.926  1.00  0.00     0.338 C 
ATOM     35  O   UNL A   1      34.537  36.086  32.572  1.00  0.00    -0.246 OA
BRANCH  34  36
ATOM     36  C   UNL A   1      35.577  34.066  31.824  1.00  0.00     0.060 A 
ATOM     37  C   UNL A   1      35.395  32.782  32.356  1.00  0.00     0.016 A 
ATOM     38  C   UNL A   1      36.766  34.402  31.173  1.00  0.00     0.016 A 
ATOM     39  C   UNL A   1      36.416  31.836  32.262  1.00  0.00     0.010 A 
ATOM     40  C   UNL A   1      37.797  33.464  31.105  1.00  0.00     0.010 A 
ATOM     41  C   UNL A   1      37.639  32.190  31.677  1.00  0.00    -0.014 A 
BRANCH  41  42
ATOM     42  C   UNL A   1      38.818  31.312  31.854  1.00  0.00     0.031 A 
ATOM     43  C   UNL A   1      39.746  31.599  33.003  1.00  0.00     0.074 A 
ATOM     44  C   UNL A   1      39.059  30.277  31.031  1.00  0.00     0.049 A 
ATOM     45  N   UNL A   1      40.865  31.010  33.336  1.00  0.00    -0.248 NA
ATOM     46  C   UNL A   1      39.356  32.704  33.895  1.00  0.00     0.031 C 
ATOM     47  C   UNL A   1      38.212  29.864  29.915  1.00  0.00     0.029 A 
ATOM     48  N   UNL A   1      40.104  29.388  31.011  1.00  0.00    -0.354 N 
ATOM     49  C   UNL A   1      41.317  31.679  34.467  1.00  0.00     0.074 A 
ATOM     50  C   UNL A   1      40.370  32.735  34.745  1.00  0.00     0.031 C 
ATOM     51  C   UNL A   1      38.777  28.803  29.311  1.00  0.00     0.029 A 
ATOM     52  C   UNL A   1      40.042  28.489  29.974  1.00  0.00     0.049 A 
ATOM     53  H   UNL A   1      40.830  29.393  31.677  1.00  0.00     0.167 HD
ATOM     54  C   UNL A   1      42.420  31.432  35.212  1.00  0.00     0.031 A 
ATOM     55  C   UNL A   1      40.918  27.540  29.593  1.00  0.00     0.031 A 
ATOM     56  C   UNL A   1      43.372  30.395  34.922  1.00  0.00     0.049 A 
ATOM     57  C   UNL A   1      42.188  27.345  30.384  1.00  0.00     0.074 A 
ATOM     58  C   UNL A   1      44.518  30.059  35.622  1.00  0.00     0.029 A 
ATOM     59  N   UNL A   1      43.295  29.535  33.839  1.00  0.00    -0.354 N 
ATOM     60  N   UNL A   1      42.593  27.964  31.467  1.00  0.00    -0.248 NA
ATOM     61  C   UNL A   1      43.117  26.314  29.900  1.00  0.00     0.031 C 
ATOM     62  C   UNL A   1      45.168  29.037  34.923  1.00  0.00     0.029 A 
ATOM     63  C   UNL A   1      44.390  28.688  33.831  1.00  0.00     0.049 A 
ATOM     64  H   UNL A   1      42.570  29.527  33.172  1.00  0.00     0.167 HD
ATOM     65  C   UNL A   1      43.805  27.375  31.812  1.00  0.00     0.074 A 
ATOM     66  C   UNL A   1      44.060  26.340  30.832  1.00  0.00     0.031 C 
ATOM     67  C   UNL A   1      44.630  27.661  32.849  1.00  0.00     0.031 A 
BRANCH  54  68
ATOM     68  C   UNL A   1      42.676  32.335  36.387  1.00  0.00    -0.014 A 
ATOM     69  C   UNL A   1      42.231  32.004  37.677  1.00  0.00     0.009 A 
ATOM     70  C   UNL A   1      43.393  33.527  36.201  1.00  0.00     0.009 A 
ATOM     71  C   UNL A   1      42.470  32.866  38.750  1.00  0.00     0.001 A 
ATOM     72  C   UNL A   1      43.658  34.371  37.281  1.00  0.00     0.001 A 
ATOM     73  C   UNL A   1      43.188  34.045  38.552  1.00  0.00     0.000 A 
ENDBRANCH  54  68
BRANCH  55  74
ATOM     74  C   UNL A   1      40.647  26.708  28.389  1.00  0.00    -0.014 A 
ATOM     75  C   UNL A   1      41.215  27.034  27.149  1.00  0.00     0.009 A 
ATOM     76  C   UNL A   1      39.790  25.600  28.469  1.00  0.00     0.009 A 
ATOM     77  C   UNL A   1      40.908  26.285  26.009  1.00  0.00     0.001 A 
ATOM     78  C   UNL A   1      39.509  24.834  27.335  1.00  0.00     0.001 A 
ATOM     79  C   UNL A   1      40.060  25.183  26.105  1.00  0.00     0.000 A 
ENDBRANCH  55  74
BRANCH  67  80
ATOM     80  C   UNL A   1      45.865  26.816  33.008  1.00  0.00    -0.014 A 
ATOM     81  C   UNL A   1      45.851  25.627  33.753  1.00  0.00     0.009 A 
ATOM     82  C   UNL A   1      47.051  27.194  32.358  1.00  0.00     0.009 A 
ATOM     83  C   UNL A   1      47.009  24.855  33.874  1.00  0.00     0.001 A 
ATOM     84  C   UNL A   1      48.197  26.404  32.451  1.00  0.00     0.001 A 
ATOM     85  C   UNL A   1      48.178  25.241  33.219  1.00  0.00     0.000 A 
ENDBRANCH  67  80
ENDBRANCH  41  42
ENDBRANCH  34  36
ENDBRANCH  33  34
ENDBRANCH  32  33
ENDBRANCH  31  32
ENDBRANCH  30  31
ENDBRANCH  29  30
ENDBRANCH  28  29
ENDBRANCH   1  28
TORSDOF 23
ENDMDL
MODEL 3
REMARK VINA RESULT:      -9.8      1.280      5.850
REMARK SMILES CS(=O)(=O)c1ccc(/C=C(/C(=O)OCCOCCOCCOCCOC(=O)c2ccc(-c3c4nc(c(-c5ccccc5)c5ccc([nH]5)c(-c5ccccc5)c5nc(c(-c6ccccc6)c6ccc3[nH]6)C=C5)C=C4)cc2)c2ccccc2)cc1
REMARK SMILES IDX 19 1 18 2 17 3 16 4 15 5 14 6 13 7 11 8 12 9 10 10 9 11 8 12
REMARK SMILES IDX 5 13 6 14 83 15 7 16 82 17 2 18 1 19 3 20 4 21 76 22 77 23
REMARK SMILES IDX 81 24 78 25 80 26 79 27 20 28 21 29 22 30 23 31 24 32 25 33
REMARK SMILES IDX 26 34 27 35 28 36 29 37 75 38 30 39 74 40 31 41 32 42 33 43
REMARK SMILES IDX 68 44 34 45 73 46 67 47 69 48 35 49 72 50 66 51 65 52 36 54
REMARK SMILES IDX 58 55 43 56 57 57 44 58 47 59 56 60 70 61 45 62 46 63 55 65
REMARK SMILES IDX 71 66 48 67 37 68 38 69 42 70 39 71 41 72 40 73 59 74 60 75
REMARK SMILES IDX 64 76 61 77 63 78 62 79 49 80 50 81 54 82 51 83 53 84 52 85
REMARK H PARENT 69 53 47 64
REMARK Flexibility Score: inf
ROOT
ATOM      1  O   UNL A   1      41.838  18.824  25.949  1.00  0.00    -0.377 OA
ENDROOT
BRANCH   1   2
ATOM      2  C   UNL A   1      41.461  20.190  25.985  1.00  0.00     0.188 C 
BRANCH   2   3
ATOM      3  C   UNL A   1      39.992  20.565  26.284  1.00  0.00     0.188 C 
BRANCH   3   4
ATOM      4  O   UNL A   1      39.610  21.836  25.787  1.00  0.00    -0.376 OA
BRANCH   4   5
ATOM      5  C   UNL A   1      38.276  22.248  26.027  1.00  0.00     0.202 C 
BRANCH   5   6
ATOM      6  C   UNL A   1      37.279  22.110  24.867  1.00  0.00     0.261 C 
BRANCH   6   7
ATOM      7  O   UNL A   1      36.064  22.870  24.987  1.00  0.00    -0.460 OA
BRANCH   7   8
ATOM      8  C   UNL A   1      35.589  23.465  23.865  1.00  0.00     0.338 C 
ATOM      9  O   UNL A   1      36.048  23.318  22.744  1.00  0.00    -0.246 OA
BRANCH   8  10
ATOM     10  C   UNL A   1      34.322  24.222  24.165  1.00  0.00     0.067 C 
ATOM     11  C   UNL A   1      34.146  25.453  23.624  1.00  0.00     0.024 C 
BRANCH  11  12
ATOM     12  C   UNL A   1      32.929  26.303  23.615  1.00  0.00    -0.025 A 
ATOM     13  C   UNL A   1      30.817  28.099  23.157  1.00  0.00     0.067 A 
ATOM     14  C   UNL A   1      30.594  26.730  23.049  1.00  0.00     0.021 A 
ATOM     15  C   UNL A   1      32.043  28.576  23.622  1.00  0.00     0.021 A 
ATOM     16  C   UNL A   1      31.641  25.842  23.313  1.00  0.00     0.009 A 
ATOM     17  C   UNL A   1      33.090  27.678  23.854  1.00  0.00     0.009 A 
BRANCH  13  18
ATOM     18  S   UNL A   1      29.569  29.243  22.626  1.00  0.00     0.175 S 
ATOM     19  C   UNL A   1      29.598  30.552  23.829  1.00  0.00     0.163 C 
ATOM     20  O   UNL A   1      28.287  28.577  22.763  1.00  0.00    -0.224 OA
ATOM     21  O   UNL A   1      30.004  29.781  21.353  1.00  0.00    -0.224 OA
ENDBRANCH  13  18
ENDBRANCH  11  12
BRANCH  10  22
ATOM     22  C   UNL A   1      33.312  23.563  25.021  1.00  0.00    -0.011 A 
ATOM     23  C   UNL A   1      32.880  24.182  26.208  1.00  0.00     0.009 A 
ATOM     24  C   UNL A   1      32.687  22.382  24.613  1.00  0.00     0.009 A 
ATOM     25  C   UNL A   1      31.839  23.644  26.964  1.00  0.00     0.001 A 
ATOM     26  C   UNL A   1      31.636  21.849  25.365  1.00  0.00     0.001 A 
ATOM     27  C   UNL A   1      31.212  22.480  26.536  1.00  0.00     0.000 A 
ENDBRANCH  10  22
ENDBRANCH   8  10
ENDBRANCH   7   8
ENDBRANCH   6   7
ENDBRANCH   5   6
ENDBRANCH   4   5
ENDBRANCH   3   4
ENDBRANCH   2   3
ENDBRANCH   1   2
BRANCH   1  28
ATOM     28  C   UNL A   1      43.094  18.434  26.491  1.00  0.00     0.188 C 
BRANCH  28  29
ATOM     29  C   UNL A   1      44.371  18.466  25.619  1.00  0.00     0.188 C 
BRANCH  29  30
ATOM     30  O   UNL A   1      44.464  19.576  24.741  1.00  0.00    -0.376 OA
BRANCH  30  31
ATOM     31  C   UNL A   1      45.668  20.323  24.746  1.00  0.00     0.202 C 
BRANCH  31  32
ATOM     32  C   UNL A   1      45.536  21.851  24.834  1.00  0.00     0.261 C 
BRANCH  32  33
ATOM     33  O   UNL A   1      44.667  22.350  25.861  1.00  0.00    -0.460 OA
BRANCH  33  34
ATOM     34  C   UNL A   1      43.664  23.172  25.487  1.00  0.00     0.338 C 
ATOM     35  O   UNL A   1      42.991  23.102  24.472  1.00  0.00    -0.246 OA
BRANCH  34  36
ATOM     36  C   UNL A   1      43.384  24.070  26.624  1.00  0.00     0.060 A 
ATOM     37  C   UNL A   1      42.559  23.622  27.666  1.00  0.00     0.016 A 
ATOM     38  C   UNL A   1      43.962  25.340  26.674  1.00  0.00     0.016 A 
ATOM     39  C   UNL A   1      42.289  24.456  28.750  1.00  0.00     0.010 A 
ATOM     40  C   UNL A   1      43.668  26.184  27.745  1.00  0.00     0.010 A 
ATOM     41  C   UNL A   1      42.805  25.758  28.771  1.00  0.00    -0.014 A 
BRANCH  41  42
ATOM     42  C   UNL A   1      42.275  26.743  29.742  1.00  0.00     0.031 A 
ATOM     43  C   UNL A   1      42.985  26.888  31.060  1.00  0.00     0.074 A 
ATOM     44  C   UNL A   1      41.202  27.503  29.463  1.00  0.00     0.049 A 
ATOM     45  N   UNL A   1      42.687  27.639  32.088  1.00  0.00    -0.248 NA
ATOM     46  C   UNL A   1      44.195  26.068  31.241  1.00  0.00     0.031 C 
ATOM     47  C   UNL A   1      40.458  27.495  28.205  1.00  0.00     0.029 A 
ATOM     48  N   UNL A   1      40.550  28.430  30.238  1.00  0.00    -0.354 N 
ATOM     49  C   UNL A   1      43.664  27.375  33.039  1.00  0.00     0.074 A 
ATOM     50  C   UNL A   1      44.546  26.374  32.480  1.00  0.00     0.031 C 
ATOM     51  C   UNL A   1      39.442  28.372  28.297  1.00  0.00     0.029 A 
ATOM     52  C   UNL A   1      39.443  28.972  29.631  1.00  0.00     0.049 A 
ATOM     53  H   UNL A   1      40.846  28.682  31.143  1.00  0.00     0.167 HD
ATOM     54  C   UNL A   1      43.819  27.921  34.268  1.00  0.00     0.031 A 
ATOM     55  C   UNL A   1      38.525  29.834  30.109  1.00  0.00     0.031 A 
ATOM     56  C   UNL A   1      42.930  28.901  34.832  1.00  0.00     0.049 A 
ATOM     57  C   UNL A   1      38.665  30.358  31.516  1.00  0.00     0.074 A 
ATOM     58  C   UNL A   1      43.005  29.523  36.065  1.00  0.00     0.029 A 
ATOM     59  N   UNL A   1      41.797  29.391  34.202  1.00  0.00    -0.354 N 
ATOM     60  N   UNL A   1      39.607  30.125  32.398  1.00  0.00    -0.248 NA
ATOM     61  C   UNL A   1      37.615  31.273  31.990  1.00  0.00     0.031 C 
ATOM     62  C   UNL A   1      41.880  30.341  36.208  1.00  0.00     0.029 A 
ATOM     63  C   UNL A   1      41.146  30.285  35.035  1.00  0.00     0.049 A 
ATOM     64  H   UNL A   1      41.499  29.141  33.297  1.00  0.00     0.167 HD
ATOM     65  C   UNL A   1      39.282  30.887  33.515  1.00  0.00     0.074 A 
ATOM     66  C   UNL A   1      38.065  31.602  33.192  1.00  0.00     0.031 C 
ATOM     67  C   UNL A   1      39.934  30.990  34.700  1.00  0.00     0.031 A 
BRANCH  54  68
ATOM     68  C   UNL A   1      44.971  27.432  35.102  1.00  0.00    -0.014 A 
ATOM     69  C   UNL A   1      46.214  28.084  35.090  1.00  0.00     0.009 A 
ATOM     70  C   UNL A   1      44.800  26.312  35.929  1.00  0.00     0.009 A 
ATOM     71  C   UNL A   1      47.273  27.602  35.863  1.00  0.00     0.001 A 
ATOM     72  C   UNL A   1      45.850  25.851  36.726  1.00  0.00     0.001 A 
ATOM     73  C   UNL A   1      47.087  26.490  36.684  1.00  0.00     0.000 A 
ENDBRANCH  54  68
BRANCH  55  74
ATOM     74  C   UNL A   1      37.371  30.246  29.265  1.00  0.00    -0.014 A 
ATOM     75  C   UNL A   1      36.375  29.324  28.911  1.00  0.00     0.009 A 
ATOM     76  C   UNL A   1      37.278  31.560  28.780  1.00  0.00     0.009 A 
ATOM     77  C   UNL A   1      35.326  29.701  28.068  1.00  0.00     0.001 A 
ATOM     78  C   UNL A   1      36.211  31.943  27.963  1.00  0.00     0.001 A 
ATOM     79  C   UNL A   1      35.243  31.011  27.599  1.00  0.00     0.000 A 
ENDBRANCH  55  74
BRANCH  67  80
ATOM     80  C   UNL A   1      39.374  31.943  35.720  1.00  0.00    -0.014 A 
ATOM     81  C   UNL A   1      39.808  33.275  35.799  1.00  0.00     0.009 A 
ATOM     82  C   UNL A   1      38.358  31.510  36.587  1.00  0.00     0.009 A 
ATOM     83  C   UNL A   1      39.262  34.142  36.748  1.00  0.00     0.001 A 
ATOM     84  C   UNL A   1      37.789  32.386  37.511  1.00  0.00     0.001 A 
ATOM     85  C   UNL A   1      38.250  33.699  37.599  1.00  0.00     0.000 A 
ENDBRANCH  67  80
ENDBRANCH  41  42
ENDBRANCH  34  36
ENDBRANCH  33  34
ENDBRANCH  32  33
ENDBRANCH  31  32
ENDBRANCH  30  31
ENDBRANCH  29  30
ENDBRANCH  28  29
ENDBRANCH   1  28
TORSDOF 23
ENDMDL
