MODEL 1
REMARK VINA RESULT:      -7.2      0.000      0.000
REMARK SMILES O=C(Cc1cccc(-c2ccn(C(F)F)c(=O)c2)c1)OCCOCCOCCOCCOC(=O)c1ccc(-c2c3nc(c(-c4ccccc4)c4ccc([nH]4)c(-c4ccccc4)c4nc(c(-c5ccccc5)c5ccc2[nH]5)C=C4)C=C3)cc1
REMARK SMILES IDX 25 1 24 2 23 3 22 4 21 5 20 6 2 7 1 8 3 9 4 10 5 11 19 12
REMARK SMILES IDX 6 13 8 14 7 15 9 16 10 17 18 18 11 19 16 20 12 21 17 22
REMARK SMILES IDX 13 23 14 24 15 25 26 26 27 27 28 28 29 29 30 30 31 31 32 32
REMARK SMILES IDX 33 33 34 34 35 35 36 36 82 37 37 38 81 39 38 40 39 41 40 42
REMARK SMILES IDX 75 43 41 44 80 45 74 46 76 47 42 48 79 49 73 50 72 51 43 53
REMARK SMILES IDX 65 54 50 55 64 56 51 57 54 58 63 59 77 60 52 61 53 62 62 64
REMARK SMILES IDX 78 65 55 66 44 67 45 68 49 69 46 70 48 71 47 72 66 73 67 74
REMARK SMILES IDX 71 75 68 76 70 77 69 78 56 79 57 80 61 81 58 82 60 83 59 84
REMARK H PARENT 76 52 54 63
REMARK Flexibility Score: inf
ROOT
ATOM      1  C   UNL A   1      37.743  32.669  35.910  1.00  0.00     0.188 C 
ENDROOT
BRANCH   1   2
ATOM      2  C   UNL A   1      37.048  33.444  37.029  1.00  0.00     0.188 C 
BRANCH   2   3
ATOM      3  O   UNL A   1      37.456  33.186  38.368  1.00  0.00    -0.376 OA
BRANCH   3   4
ATOM      4  C   UNL A   1      38.541  33.810  39.031  1.00  0.00     0.202 C 
BRANCH   4   5
ATOM      5  C   UNL A   1      39.929  33.192  39.026  1.00  0.00     0.261 C 
BRANCH   5   6
ATOM      6  O   UNL A   1      40.535  32.825  37.772  1.00  0.00    -0.463 OA
BRANCH   6   7
ATOM      7  C   UNL A   1      41.824  32.695  37.414  1.00  0.00     0.310 C 
ATOM      8  O   UNL A   1      42.492  33.710  37.211  1.00  0.00    -0.252 OA
BRANCH   7   9
ATOM      9  C   UNL A   1      42.421  31.339  37.183  1.00  0.00     0.158 C 
BRANCH   9  10
ATOM     10  C   UNL A   1      41.913  30.592  35.989  1.00  0.00    -0.036 A 
ATOM     11  C   UNL A   1      40.963  31.074  35.087  1.00  0.00     0.004 A 
ATOM     12  C   UNL A   1      42.486  29.349  35.744  1.00  0.00     0.013 A 
ATOM     13  C   UNL A   1      40.572  30.306  33.986  1.00  0.00     0.001 A 
ATOM     14  C   UNL A   1      42.073  28.550  34.678  1.00  0.00    -0.018 A 
ATOM     15  C   UNL A   1      41.115  29.037  33.789  1.00  0.00     0.009 A 
BRANCH  14  16
ATOM     16  C   UNL A   1      42.679  27.216  34.600  1.00  0.00    -0.011 A 
ATOM     17  C   UNL A   1      43.858  26.978  33.784  1.00  0.00     0.027 A 
ATOM     18  C   UNL A   1      42.050  26.177  35.171  1.00  0.00     0.080 A 
ATOM     19  C   UNL A   1      44.274  25.734  33.542  1.00  0.00     0.095 A 
ATOM     20  C   UNL A   1      42.538  24.788  34.953  1.00  0.00     0.255 A 
ATOM     21  N   UNL A   1      43.627  24.653  34.105  1.00  0.00    -0.258 N 
ATOM     22  O   UNL A   1      41.943  23.868  35.504  1.00  0.00    -0.269 OA
BRANCH  21  23
ATOM     23  C   UNL A   1      44.083  23.318  33.832  1.00  0.00     0.451 C 
ATOM     24  F   UNL A   1      44.208  22.604  34.975  1.00  0.00    -0.185 F 
ATOM     25  F   UNL A   1      43.219  22.666  33.016  1.00  0.00    -0.185 F 
ENDBRANCH  21  23
ENDBRANCH  14  16
ENDBRANCH   9  10
ENDBRANCH   7   9
ENDBRANCH   6   7
ENDBRANCH   5   6
ENDBRANCH   4   5
ENDBRANCH   3   4
ENDBRANCH   2   3
ENDBRANCH   1   2
BRANCH   1  26
ATOM     26  O   UNL A   1      36.947  32.358  34.774  1.00  0.00    -0.377 OA
BRANCH  26  27
ATOM     27  C   UNL A   1      36.207  33.446  34.235  1.00  0.00     0.188 C 
BRANCH  27  28
ATOM     28  C   UNL A   1      36.976  34.264  33.176  1.00  0.00     0.188 C 
BRANCH  28  29
ATOM     29  O   UNL A   1      36.349  34.270  31.898  1.00  0.00    -0.376 OA
BRANCH  29  30
ATOM     30  C   UNL A   1      34.960  33.955  31.885  1.00  0.00     0.202 C 
BRANCH  30  31
ATOM     31  C   UNL A   1      34.370  33.584  30.515  1.00  0.00     0.261 C 
BRANCH  31  32
ATOM     32  O   UNL A   1      35.298  33.023  29.566  1.00  0.00    -0.460 OA
BRANCH  32  33
ATOM     33  C   UNL A   1      35.000  31.831  29.007  1.00  0.00     0.338 C 
ATOM     34  O   UNL A   1      33.977  31.529  28.417  1.00  0.00    -0.246 OA
BRANCH  33  35
ATOM     35  C   UNL A   1      36.236  31.012  29.001  1.00  0.00     0.060 A 
ATOM     36  C   UNL A   1      36.656  30.438  30.210  1.00  0.00     0.016 A 
ATOM     37  C   UNL A   1      36.927  30.734  27.816  1.00  0.00     0.016 A 
ATOM     38  C   UNL A   1      37.791  29.629  30.244  1.00  0.00     0.010 A 
ATOM     39  C   UNL A   1      38.078  29.941  27.854  1.00  0.00     0.010 A 
ATOM     40  C   UNL A   1      38.537  29.419  29.076  1.00  0.00    -0.014 A 
BRANCH  40  41
ATOM     41  C   UNL A   1      39.917  28.888  29.204  1.00  0.00     0.031 A 
ATOM     42  C   UNL A   1      40.939  29.765  29.879  1.00  0.00     0.074 A 
ATOM     43  C   UNL A   1      40.247  27.645  28.812  1.00  0.00     0.049 A 
ATOM     44  N   UNL A   1      42.181  29.502  30.195  1.00  0.00    -0.248 NA
ATOM     45  C   UNL A   1      40.493  31.116  30.259  1.00  0.00     0.031 C 
ATOM     46  C   UNL A   1      39.351  26.685  28.173  1.00  0.00     0.029 A 
ATOM     47  N   UNL A   1      41.443  26.977  28.910  1.00  0.00    -0.354 N 
ATOM     48  C   UNL A   1      42.654  30.645  30.826  1.00  0.00     0.074 A 
ATOM     49  C   UNL A   1      41.587  31.620  30.808  1.00  0.00     0.031 C 
ATOM     50  C   UNL A   1      40.030  25.548  27.935  1.00  0.00     0.029 A 
ATOM     51  C   UNL A   1      41.411  25.705  28.393  1.00  0.00     0.049 A 
ATOM     52  H   UNL A   1      42.249  27.373  29.315  1.00  0.00     0.167 HD
ATOM     53  C   UNL A   1      43.865  30.865  31.390  1.00  0.00     0.031 A 
ATOM     54  C   UNL A   1      42.385  24.780  28.297  1.00  0.00     0.031 A 
ATOM     55  C   UNL A   1      44.946  29.920  31.381  1.00  0.00     0.049 A 
ATOM     56  C   UNL A   1      43.753  25.079  28.859  1.00  0.00     0.074 A 
ATOM     57  C   UNL A   1      46.217  30.058  31.911  1.00  0.00     0.029 A 
ATOM     58  N   UNL A   1      44.886  28.664  30.802  1.00  0.00    -0.354 N 
ATOM     59  N   UNL A   1      44.176  26.151  29.485  1.00  0.00    -0.248 NA
ATOM     60  C   UNL A   1      44.772  24.028  28.716  1.00  0.00     0.031 C 
ATOM     61  C   UNL A   1      46.943  28.902  31.608  1.00  0.00     0.029 A 
ATOM     62  C   UNL A   1      46.103  28.021  30.943  1.00  0.00     0.049 A 
ATOM     63  H   UNL A   1      44.094  28.283  30.356  1.00  0.00     0.167 HD
ATOM     64  C   UNL A   1      45.498  25.894  29.830  1.00  0.00     0.074 A 
ATOM     65  C   UNL A   1      45.798  24.555  29.367  1.00  0.00     0.031 C 
ATOM     66  C   UNL A   1      46.388  26.693  30.468  1.00  0.00     0.031 A 
BRANCH  53  67
ATOM     67  C   UNL A   1      44.081  32.200  32.044  1.00  0.00    -0.014 A 
ATOM     68  C   UNL A   1      44.593  33.288  31.318  1.00  0.00     0.009 A 
ATOM     69  C   UNL A   1      43.752  32.378  33.396  1.00  0.00     0.009 A 
ATOM     70  C   UNL A   1      44.795  34.521  31.940  1.00  0.00     0.001 A 
ATOM     71  C   UNL A   1      43.931  33.620  34.009  1.00  0.00     0.001 A 
ATOM     72  C   UNL A   1      44.459  34.687  33.282  1.00  0.00     0.000 A 
ENDBRANCH  53  67
BRANCH  54  73
ATOM     73  C   UNL A   1      42.124  23.477  27.624  1.00  0.00    -0.014 A 
ATOM     74  C   UNL A   1      41.506  22.420  28.307  1.00  0.00     0.009 A 
ATOM     75  C   UNL A   1      42.547  23.272  26.300  1.00  0.00     0.009 A 
ATOM     76  C   UNL A   1      41.349  21.174  27.693  1.00  0.00     0.001 A 
ATOM     77  C   UNL A   1      42.360  22.036  25.678  1.00  0.00     0.001 A 
ATOM     78  C   UNL A   1      41.772  20.984  26.378  1.00  0.00     0.000 A 
ENDBRANCH  54  73
BRANCH  66  79
ATOM     79  C   UNL A   1      47.759  26.129  30.725  1.00  0.00    -0.014 A 
ATOM     80  C   UNL A   1      48.748  26.130  29.728  1.00  0.00     0.009 A 
ATOM     81  C   UNL A   1      48.072  25.607  31.990  1.00  0.00     0.009 A 
ATOM     82  C   UNL A   1      50.005  25.578  29.979  1.00  0.00     0.001 A 
ATOM     83  C   UNL A   1      49.340  25.085  32.248  1.00  0.00     0.001 A 
ATOM     84  C   UNL A   1      50.301  25.058  31.238  1.00  0.00     0.000 A 
ENDBRANCH  66  79
ENDBRANCH  40  41
ENDBRANCH  33  35
ENDBRANCH  32  33
ENDBRANCH  31  32
ENDBRANCH  30  31
ENDBRANCH  29  30
ENDBRANCH  28  29
ENDBRANCH  27  28
ENDBRANCH  26  27
ENDBRANCH   1  26
TORSDOF 23
ENDMDL
MODEL 2
REMARK VINA RESULT:      -7.1      4.361     11.693
REMARK SMILES O=C(Cc1cccc(-c2ccn(C(F)F)c(=O)c2)c1)OCCOCCOCCOCCOC(=O)c1ccc(-c2c3nc(c(-c4ccccc4)c4ccc([nH]4)c(-c4ccccc4)c4nc(c(-c5ccccc5)c5ccc2[nH]5)C=C4)C=C3)cc1
REMARK SMILES IDX 25 1 24 2 23 3 22 4 21 5 20 6 2 7 1 8 3 9 4 10 5 11 19 12
REMARK SMILES IDX 6 13 8 14 7 15 9 16 10 17 18 18 11 19 16 20 12 21 17 22
REMARK SMILES IDX 13 23 14 24 15 25 26 26 27 27 28 28 29 29 30 30 31 31 32 32
REMARK SMILES IDX 33 33 34 34 35 35 36 36 82 37 37 38 81 39 38 40 39 41 40 42
REMARK SMILES IDX 75 43 41 44 80 45 74 46 76 47 42 48 79 49 73 50 72 51 43 53
REMARK SMILES IDX 65 54 50 55 64 56 51 57 54 58 63 59 77 60 52 61 53 62 62 64
REMARK SMILES IDX 78 65 55 66 44 67 45 68 49 69 46 70 48 71 47 72 66 73 67 74
REMARK SMILES IDX 71 75 68 76 70 77 69 78 56 79 57 80 61 81 58 82 60 83 59 84
REMARK H PARENT 76 52 54 63
REMARK Flexibility Score: inf
ROOT
ATOM      1  C   UNL A   1      48.402  29.914  31.793  1.00  0.00     0.188 C 
ENDROOT
BRANCH   1   2
ATOM      2  C   UNL A   1      47.281  29.233  31.007  1.00  0.00     0.188 C 
BRANCH   2   3
ATOM      3  O   UNL A   1      47.382  29.215  29.587  1.00  0.00    -0.376 OA
BRANCH   3   4
ATOM      4  C   UNL A   1      48.584  29.082  28.851  1.00  0.00     0.202 C 
BRANCH   4   5
ATOM      5  C   UNL A   1      48.580  28.571  27.420  1.00  0.00     0.261 C 
BRANCH   5   6
ATOM      6  O   UNL A   1      47.857  29.301  26.410  1.00  0.00    -0.463 OA
BRANCH   6   7
ATOM      7  C   UNL A   1      46.733  29.006  25.735  1.00  0.00     0.310 C 
ATOM      8  O   UNL A   1      45.872  29.877  25.600  1.00  0.00    -0.252 OA
BRANCH   7   9
ATOM      9  C   UNL A   1      46.488  27.617  25.226  1.00  0.00     0.158 C 
BRANCH   9  10
ATOM     10  C   UNL A   1      45.766  26.694  26.157  1.00  0.00    -0.036 A 
ATOM     11  C   UNL A   1      45.272  27.048  27.414  1.00  0.00     0.004 A 
ATOM     12  C   UNL A   1      45.526  25.406  25.692  1.00  0.00     0.013 A 
ATOM     13  C   UNL A   1      44.587  26.116  28.199  1.00  0.00     0.001 A 
ATOM     14  C   UNL A   1      44.888  24.450  26.482  1.00  0.00    -0.018 A 
ATOM     15  C   UNL A   1      44.408  24.811  27.740  1.00  0.00     0.009 A 
BRANCH  14  16
ATOM     16  C   UNL A   1      44.799  23.099  25.913  1.00  0.00    -0.011 A 
ATOM     17  C   UNL A   1      43.584  22.313  26.042  1.00  0.00     0.027 A 
ATOM     18  C   UNL A   1      45.903  22.532  25.401  1.00  0.00     0.080 A 
ATOM     19  C   UNL A   1      43.578  21.018  25.721  1.00  0.00     0.095 A 
ATOM     20  C   UNL A   1      45.892  21.102  24.989  1.00  0.00     0.255 A 
ATOM     21  N   UNL A   1      44.709  20.414  25.212  1.00  0.00    -0.258 N 
ATOM     22  O   UNL A   1      46.917  20.626  24.512  1.00  0.00    -0.269 OA
BRANCH  21  23
ATOM     23  C   UNL A   1      44.690  19.018  24.875  1.00  0.00     0.451 C 
ATOM     24  F   UNL A   1      44.948  18.252  25.962  1.00  0.00    -0.185 F 
ATOM     25  F   UNL A   1      43.484  18.653  24.376  1.00  0.00    -0.185 F 
ENDBRANCH  21  23
ENDBRANCH  14  16
ENDBRANCH   9  10
ENDBRANCH   7   9
ENDBRANCH   6   7
ENDBRANCH   5   6
ENDBRANCH   4   5
ENDBRANCH   3   4
ENDBRANCH   2   3
ENDBRANCH   1   2
BRANCH   1  26
ATOM     26  O   UNL A   1      48.982  29.152  32.844  1.00  0.00    -0.377 OA
BRANCH  26  27
ATOM     27  C   UNL A   1      50.358  28.837  32.677  1.00  0.00     0.188 C 
BRANCH  27  28
ATOM     28  C   UNL A   1      50.704  27.362  32.964  1.00  0.00     0.188 C 
BRANCH  28  29
ATOM     29  O   UNL A   1      49.906  26.439  32.230  1.00  0.00    -0.376 OA
BRANCH  29  30
ATOM     30  C   UNL A   1      49.304  25.396  32.990  1.00  0.00     0.202 C 
BRANCH  30  31
ATOM     31  C   UNL A   1      47.793  25.201  32.782  1.00  0.00     0.261 C 
BRANCH  31  32
ATOM     32  O   UNL A   1      47.093  24.549  33.860  1.00  0.00    -0.460 OA
BRANCH  32  33
ATOM     33  C   UNL A   1      46.827  25.261  34.974  1.00  0.00     0.338 C 
ATOM     34  O   UNL A   1      47.475  25.286  36.006  1.00  0.00    -0.246 OA
BRANCH  33  35
ATOM     35  C   UNL A   1      45.743  26.220  34.650  1.00  0.00     0.060 A 
ATOM     36  C   UNL A   1      44.418  25.762  34.693  1.00  0.00     0.016 A 
ATOM     37  C   UNL A   1      46.010  27.570  34.393  1.00  0.00     0.016 A 
ATOM     38  C   UNL A   1      43.364  26.637  34.433  1.00  0.00     0.010 A 
ATOM     39  C   UNL A   1      44.954  28.444  34.110  1.00  0.00     0.010 A 
ATOM     40  C   UNL A   1      43.631  27.970  34.088  1.00  0.00    -0.014 A 
BRANCH  40  41
ATOM     41  C   UNL A   1      42.551  28.767  33.455  1.00  0.00     0.031 A 
ATOM     42  C   UNL A   1      42.231  28.479  32.011  1.00  0.00     0.074 A 
ATOM     43  C   UNL A   1      41.818  29.659  34.144  1.00  0.00     0.049 A 
ATOM     44  N   UNL A   1      41.279  28.967  31.258  1.00  0.00    -0.248 NA
ATOM     45  C   UNL A   1      43.096  27.500  31.332  1.00  0.00     0.031 C 
ATOM     46  C   UNL A   1      42.003  30.011  35.549  1.00  0.00     0.029 A 
ATOM     47  N   UNL A   1      40.755  30.428  33.740  1.00  0.00    -0.354 N 
ATOM     48  C   UNL A   1      41.421  28.339  30.027  1.00  0.00     0.074 A 
ATOM     49  C   UNL A   1      42.574  27.473  30.116  1.00  0.00     0.031 C 
ATOM     50  C   UNL A   1      41.081  30.931  35.892  1.00  0.00     0.029 A 
ATOM     51  C   UNL A   1      40.251  31.240  34.727  1.00  0.00     0.049 A 
ATOM     52  H   UNL A   1      40.386  30.400  32.827  1.00  0.00     0.167 HD
ATOM     53  C   UNL A   1      40.650  28.455  28.920  1.00  0.00     0.031 A 
ATOM     54  C   UNL A   1      39.242  32.131  34.691  1.00  0.00     0.031 A 
ATOM     55  C   UNL A   1      39.526  29.340  28.806  1.00  0.00     0.049 A 
ATOM     56  C   UNL A   1      38.448  32.305  33.419  1.00  0.00     0.074 A 
ATOM     57  C   UNL A   1      38.693  29.542  27.719  1.00  0.00     0.029 A 
ATOM     58  N   UNL A   1      39.082  30.180  29.813  1.00  0.00    -0.354 N 
ATOM     59  N   UNL A   1      38.571  31.678  32.273  1.00  0.00    -0.248 NA
ATOM     60  C   UNL A   1      37.364  33.298  33.445  1.00  0.00     0.031 C 
ATOM     61  C   UNL A   1      37.775  30.543  28.053  1.00  0.00     0.029 A 
ATOM     62  C   UNL A   1      37.999  30.919  29.368  1.00  0.00     0.049 A 
ATOM     63  H   UNL A   1      39.477  30.244  30.713  1.00  0.00     0.167 HD
ATOM     64  C   UNL A   1      37.568  32.183  31.454  1.00  0.00     0.074 A 
ATOM     65  C   UNL A   1      36.830  33.147  32.242  1.00  0.00     0.031 C 
ATOM     66  C   UNL A   1      37.283  31.881  30.163  1.00  0.00     0.031 A 
BRANCH  53  67
ATOM     67  C   UNL A   1      41.025  27.611  27.736  1.00  0.00    -0.014 A 
ATOM     68  C   UNL A   1      40.590  26.279  27.630  1.00  0.00     0.009 A 
ATOM     69  C   UNL A   1      41.805  28.157  26.705  1.00  0.00     0.009 A 
ATOM     70  C   UNL A   1      40.951  25.504  26.527  1.00  0.00     0.001 A 
ATOM     71  C   UNL A   1      42.142  27.386  25.591  1.00  0.00     0.001 A 
ATOM     72  C   UNL A   1      41.722  26.059  25.507  1.00  0.00     0.000 A 
ENDBRANCH  53  67
BRANCH  54  73
ATOM     73  C   UNL A   1      38.920  32.956  35.888  1.00  0.00    -0.014 A 
ATOM     74  C   UNL A   1      39.514  34.212  36.083  1.00  0.00     0.009 A 
ATOM     75  C   UNL A   1      38.052  32.459  36.873  1.00  0.00     0.009 A 
ATOM     76  C   UNL A   1      39.273  34.936  37.254  1.00  0.00     0.001 A 
ATOM     77  C   UNL A   1      37.789  33.198  38.028  1.00  0.00     0.001 A 
ATOM     78  C   UNL A   1      38.408  34.431  38.223  1.00  0.00     0.000 A 
ENDBRANCH  54  73
BRANCH  66  79
ATOM     79  C   UNL A   1      36.109  32.583  29.535  1.00  0.00    -0.014 A 
ATOM     80  C   UNL A   1      34.853  31.962  29.441  1.00  0.00     0.009 A 
ATOM     81  C   UNL A   1      36.257  33.891  29.050  1.00  0.00     0.009 A 
ATOM     82  C   UNL A   1      33.783  32.620  28.832  1.00  0.00     0.001 A 
ATOM     83  C   UNL A   1      35.177  34.559  28.470  1.00  0.00     0.001 A 
ATOM     84  C   UNL A   1      33.945  33.919  28.349  1.00  0.00     0.000 A 
ENDBRANCH  66  79
ENDBRANCH  40  41
ENDBRANCH  33  35
ENDBRANCH  32  33
ENDBRANCH  31  32
ENDBRANCH  30  31
ENDBRANCH  29  30
ENDBRANCH  28  29
ENDBRANCH  27  28
ENDBRANCH  26  27
ENDBRANCH   1  26
TORSDOF 23
ENDMDL
MODEL 3
REMARK VINA RESULT:      -7.0      5.394     11.123
REMARK SMILES O=C(Cc1cccc(-c2ccn(C(F)F)c(=O)c2)c1)OCCOCCOCCOCCOC(=O)c1ccc(-c2c3nc(c(-c4ccccc4)c4ccc([nH]4)c(-c4ccccc4)c4nc(c(-c5ccccc5)c5ccc2[nH]5)C=C4)C=C3)cc1
REMARK SMILES IDX 25 1 24 2 23 3 22 4 21 5 20 6 2 7 1 8 3 9 4 10 5 11 19 12
REMARK SMILES IDX 6 13 8 14 7 15 9 16 10 17 18 18 11 19 16 20 12 21 17 22
REMARK SMILES IDX 13 23 14 24 15 25 26 26 27 27 28 28 29 29 30 30 31 31 32 32
REMARK SMILES IDX 33 33 34 34 35 35 36 36 82 37 37 38 81 39 38 40 39 41 40 42
REMARK SMILES IDX 75 43 41 44 80 45 74 46 76 47 42 48 79 49 73 50 72 51 43 53
REMARK SMILES IDX 65 54 50 55 64 56 51 57 54 58 63 59 77 60 52 61 53 62 62 64
REMARK SMILES IDX 78 65 55 66 44 67 45 68 49 69 46 70 48 71 47 72 66 73 67 74
REMARK SMILES IDX 71 75 68 76 70 77 69 78 56 79 57 80 61 81 58 82 60 83 59 84
REMARK H PARENT 76 52 54 63
REMARK Flexibility Score: inf
ROOT
ATOM      1  C   UNL A   1      38.999  22.924  26.155  1.00  0.00     0.188 C 
ENDROOT
BRANCH   1   2
ATOM      2  C   UNL A   1      39.134  24.086  27.139  1.00  0.00     0.188 C 
BRANCH   2   3
ATOM      3  O   UNL A   1      40.403  24.295  27.750  1.00  0.00    -0.376 OA
BRANCH   3   4
ATOM      4  C   UNL A   1      41.476  25.026  27.186  1.00  0.00     0.202 C 
BRANCH   4   5
ATOM      5  C   UNL A   1      41.245  26.036  26.074  1.00  0.00     0.261 C 
BRANCH   5   6
ATOM      6  O   UNL A   1      40.864  27.384  26.412  1.00  0.00    -0.463 OA
BRANCH   6   7
ATOM      7  C   UNL A   1      40.145  27.872  27.437  1.00  0.00     0.310 C 
ATOM      8  O   UNL A   1      39.067  27.345  27.713  1.00  0.00    -0.252 OA
BRANCH   7   9
ATOM      9  C   UNL A   1      40.604  29.090  28.181  1.00  0.00     0.158 C 
BRANCH   9  10
ATOM     10  C   UNL A   1      39.915  29.362  29.483  1.00  0.00    -0.036 A 
ATOM     11  C   UNL A   1      40.278  28.811  30.713  1.00  0.00     0.004 A 
ATOM     12  C   UNL A   1      38.874  30.284  29.453  1.00  0.00     0.013 A 
ATOM     13  C   UNL A   1      39.585  29.150  31.877  1.00  0.00     0.001 A 
ATOM     14  C   UNL A   1      38.141  30.597  30.598  1.00  0.00    -0.018 A 
ATOM     15  C   UNL A   1      38.505  30.032  31.819  1.00  0.00     0.009 A 
BRANCH  14  16
ATOM     16  C   UNL A   1      36.999  31.498  30.405  1.00  0.00    -0.011 A 
ATOM     17  C   UNL A   1      36.988  32.468  29.323  1.00  0.00     0.027 A 
ATOM     18  C   UNL A   1      36.024  31.524  31.327  1.00  0.00     0.080 A 
ATOM     19  C   UNL A   1      36.059  33.425  29.281  1.00  0.00     0.095 A 
ATOM     20  C   UNL A   1      34.952  32.554  31.259  1.00  0.00     0.255 A 
ATOM     21  N   UNL A   1      35.061  33.479  30.232  1.00  0.00    -0.258 N 
ATOM     22  O   UNL A   1      34.071  32.535  32.113  1.00  0.00    -0.269 OA
BRANCH  21  23
ATOM     23  C   UNL A   1      34.070  34.518  30.178  1.00  0.00     0.451 C 
ATOM     24  F   UNL A   1      34.285  35.445  31.140  1.00  0.00    -0.185 F 
ATOM     25  F   UNL A   1      34.084  35.142  28.975  1.00  0.00    -0.185 F 
ENDBRANCH  21  23
ENDBRANCH  14  16
ENDBRANCH   9  10
ENDBRANCH   7   9
ENDBRANCH   6   7
ENDBRANCH   5   6
ENDBRANCH   4   5
ENDBRANCH   3   4
ENDBRANCH   2   3
ENDBRANCH   1   2
BRANCH   1  26
ATOM     26  O   UNL A   1      39.380  21.644  26.642  1.00  0.00    -0.377 OA
BRANCH  26  27
ATOM     27  C   UNL A   1      40.671  21.202  26.242  1.00  0.00     0.188 C 
BRANCH  27  28
ATOM     28  C   UNL A   1      40.842  19.669  26.256  1.00  0.00     0.188 C 
BRANCH  28  29
ATOM     29  O   UNL A   1      42.097  19.242  26.777  1.00  0.00    -0.376 OA
BRANCH  29  30
ATOM     30  C   UNL A   1      42.927  18.513  25.879  1.00  0.00     0.202 C 
BRANCH  30  31
ATOM     31  C   UNL A   1      44.101  19.294  25.267  1.00  0.00     0.261 C 
BRANCH  31  32
ATOM     32  O   UNL A   1      44.141  20.702  25.572  1.00  0.00    -0.460 OA
BRANCH  32  33
ATOM     33  C   UNL A   1      44.557  21.554  24.612  1.00  0.00     0.338 C 
ATOM     34  O   UNL A   1      44.445  21.418  23.406  1.00  0.00    -0.246 OA
BRANCH  33  35
ATOM     35  C   UNL A   1      44.954  22.822  25.272  1.00  0.00     0.060 A 
ATOM     36  C   UNL A   1      44.577  24.030  24.668  1.00  0.00     0.016 A 
ATOM     37  C   UNL A   1      45.610  22.830  26.508  1.00  0.00     0.016 A 
ATOM     38  C   UNL A   1      44.895  25.245  25.273  1.00  0.00     0.010 A 
ATOM     39  C   UNL A   1      45.949  24.050  27.104  1.00  0.00     0.010 A 
ATOM     40  C   UNL A   1      45.629  25.262  26.467  1.00  0.00    -0.014 A 
BRANCH  40  41
ATOM     41  C   UNL A   1      46.275  26.531  26.883  1.00  0.00     0.031 A 
ATOM     42  C   UNL A   1      47.682  26.782  26.408  1.00  0.00     0.074 A 
ATOM     43  C   UNL A   1      45.623  27.471  27.588  1.00  0.00     0.049 A 
ATOM     44  N   UNL A   1      48.432  27.844  26.555  1.00  0.00    -0.248 NA
ATOM     45  C   UNL A   1      48.324  25.690  25.657  1.00  0.00     0.031 C 
ATOM     46  C   UNL A   1      44.253  27.369  28.085  1.00  0.00     0.029 A 
ATOM     47  N   UNL A   1      46.040  28.714  28.001  1.00  0.00    -0.354 N 
ATOM     48  C   UNL A   1      49.621  27.554  25.898  1.00  0.00     0.074 A 
ATOM     49  C   UNL A   1      49.515  26.204  25.394  1.00  0.00     0.031 C 
ATOM     50  C   UNL A   1      43.940  28.505  28.737  1.00  0.00     0.029 A 
ATOM     51  C   UNL A   1      45.093  29.407  28.715  1.00  0.00     0.049 A 
ATOM     52  H   UNL A   1      46.934  29.075  27.802  1.00  0.00     0.167 HD
ATOM     53  C   UNL A   1      50.704  28.344  25.711  1.00  0.00     0.031 A 
ATOM     54  C   UNL A   1      45.153  30.625  29.287  1.00  0.00     0.031 A 
ATOM     55  C   UNL A   1      50.837  29.672  26.240  1.00  0.00     0.049 A 
ATOM     56  C   UNL A   1      46.404  31.456  29.136  1.00  0.00     0.074 A 
ATOM     57  C   UNL A   1      51.903  30.546  26.119  1.00  0.00     0.029 A 
ATOM     58  N   UNL A   1      49.874  30.316  26.999  1.00  0.00    -0.354 N 
ATOM     59  N   UNL A   1      47.507  31.183  28.481  1.00  0.00    -0.248 NA
ATOM     60  C   UNL A   1      46.406  32.773  29.790  1.00  0.00     0.031 C 
ATOM     61  C   UNL A   1      51.606  31.701  26.850  1.00  0.00     0.029 A 
ATOM     62  C   UNL A   1      50.329  31.568  27.373  1.00  0.00     0.049 A 
ATOM     63  H   UNL A   1      48.997  29.939  27.238  1.00  0.00     0.167 HD
ATOM     64  C   UNL A   1      48.321  32.300  28.625  1.00  0.00     0.074 A 
ATOM     65  C   UNL A   1      47.575  33.264  29.405  1.00  0.00     0.031 C 
ATOM     66  C   UNL A   1      49.577  32.511  28.158  1.00  0.00     0.031 A 
BRANCH  53  67
ATOM     67  C   UNL A   1      51.840  27.769  24.915  1.00  0.00    -0.014 A 
ATOM     68  C   UNL A   1      52.869  27.045  25.542  1.00  0.00     0.009 A 
ATOM     69  C   UNL A   1      51.874  27.934  23.523  1.00  0.00     0.009 A 
ATOM     70  C   UNL A   1      53.923  26.522  24.791  1.00  0.00     0.001 A 
ATOM     71  C   UNL A   1      52.916  27.387  22.772  1.00  0.00     0.001 A 
ATOM     72  C   UNL A   1      53.942  26.688  23.407  1.00  0.00     0.000 A 
ENDBRANCH  53  67
BRANCH  54  73
ATOM     73  C   UNL A   1      44.005  31.143  30.080  1.00  0.00    -0.014 A 
ATOM     74  C   UNL A   1      43.864  30.829  31.440  1.00  0.00     0.009 A 
ATOM     75  C   UNL A   1      43.011  31.916  29.458  1.00  0.00     0.009 A 
ATOM     76  C   UNL A   1      42.734  31.248  32.151  1.00  0.00     0.001 A 
ATOM     77  C   UNL A   1      41.899  32.359  30.177  1.00  0.00     0.001 A 
ATOM     78  C   UNL A   1      41.756  32.015  31.520  1.00  0.00     0.000 A 
ENDBRANCH  54  73
BRANCH  66  79
ATOM     79  C   UNL A   1      50.207  33.844  28.458  1.00  0.00    -0.014 A 
ATOM     80  C   UNL A   1      50.960  34.051  29.625  1.00  0.00     0.009 A 
ATOM     81  C   UNL A   1      50.062  34.903  27.548  1.00  0.00     0.009 A 
ATOM     82  C   UNL A   1      51.515  35.303  29.896  1.00  0.00     0.001 A 
ATOM     83  C   UNL A   1      50.645  36.145  27.806  1.00  0.00     0.001 A 
ATOM     84  C   UNL A   1      51.359  36.347  28.986  1.00  0.00     0.000 A 
ENDBRANCH  66  79
ENDBRANCH  40  41
ENDBRANCH  33  35
ENDBRANCH  32  33
ENDBRANCH  31  32
ENDBRANCH  30  31
ENDBRANCH  29  30
ENDBRANCH  28  29
ENDBRANCH  27  28
ENDBRANCH  26  27
ENDBRANCH   1  26
TORSDOF 23
ENDMDL
