MODEL 1
REMARK VINA RESULT:     -10.1      0.000      0.000
REMARK SMILES CC1=C(CC(=O)OCCOCCOCCOCCOC(=O)c2ccc(-c3c4nc(c(-c5ccccc5)c5ccc([nH]5)c(-c5ccccc5)c5nc(c(-c6ccccc6)c6ccc3[nH]6)C=C5)C=C4)cc2)c2cc(F)ccc2/C1=C\c1cccc(OCc2ccccc2)c1
REMARK SMILES IDX 11 1 10 2 9 3 8 4 7 5 5 6 6 7 4 8 3 9 1 10 2 11 77 12 70 13
REMARK SMILES IDX 76 14 78 15 71 16 75 17 72 18 74 19 73 20 79 21 80 22 92 23
REMARK SMILES IDX 81 24 83 25 82 26 84 27 85 28 86 29 87 30 91 31 88 32 90 33
REMARK SMILES IDX 89 34 12 35 13 36 14 37 15 38 16 39 17 40 18 41 19 42 20 43
REMARK SMILES IDX 21 44 22 45 23 46 69 47 24 48 68 49 25 50 26 51 27 52 62 53
REMARK SMILES IDX 28 54 67 55 61 56 63 57 29 58 66 59 60 60 59 61 30 63 52 64
REMARK SMILES IDX 37 65 51 66 38 67 41 68 50 69 64 70 39 71 40 72 49 74 65 75
REMARK SMILES IDX 42 76 31 77 32 78 36 79 33 80 35 81 34 82 53 83 54 84 58 85
REMARK SMILES IDX 55 86 57 87 56 88 43 89 44 90 48 91 45 92 47 93 46 94
REMARK H PARENT 63 62 41 73
REMARK Flexibility Score: inf
ROOT
ATOM      1  C   UNL A   1      37.574  22.215  25.761  1.00  0.00     0.188 C 
ENDROOT
BRANCH   1   2
ATOM      2  O   UNL A   1      37.361  21.461  24.586  1.00  0.00    -0.376 OA
BRANCH   2   3
ATOM      3  C   UNL A   1      37.151  20.069  24.703  1.00  0.00     0.202 C 
BRANCH   3   4
ATOM      4  C   UNL A   1      35.778  19.509  25.124  1.00  0.00     0.261 C 
BRANCH   4   5
ATOM      5  O   UNL A   1      34.915  18.996  24.088  1.00  0.00    -0.463 OA
BRANCH   5   6
ATOM      6  C   UNL A   1      33.812  18.301  24.449  1.00  0.00     0.310 C 
ATOM      7  O   UNL A   1      33.821  17.095  24.680  1.00  0.00    -0.252 OA
BRANCH   6   8
ATOM      8  C   UNL A   1      32.525  19.145  24.557  1.00  0.00     0.159 C 
BRANCH   8   9
ATOM      9  C   UNL A   1      32.522  20.625  24.276  1.00  0.00    -0.025 C 
ATOM     10  C   UNL A   1      31.748  20.651  21.854  1.00  0.00     0.045 C 
ATOM     11  C   UNL A   1      32.208  21.277  23.128  1.00  0.00    -0.039 C 
ATOM     12  C   UNL A   1      32.346  22.736  23.316  1.00  0.00    -0.014 C 
ATOM     13  C   UNL A   1      32.789  21.662  25.302  1.00  0.00    -0.011 A 
ATOM     14  C   UNL A   1      32.735  22.945  24.722  1.00  0.00    -0.010 A 
ATOM     15  C   UNL A   1      32.143  23.673  22.371  1.00  0.00     0.017 C 
ATOM     16  C   UNL A   1      33.110  21.523  26.648  1.00  0.00     0.048 A 
ATOM     17  C   UNL A   1      33.038  24.083  25.465  1.00  0.00     0.012 A 
ATOM     18  C   UNL A   1      33.408  22.671  27.384  1.00  0.00     0.123 A 
ATOM     19  C   UNL A   1      33.380  23.941  26.807  1.00  0.00     0.040 A 
ATOM     20  F   UNL A   1      33.768  22.553  28.668  1.00  0.00    -0.207 F 
BRANCH  15  21
ATOM     21  C   UNL A   1      32.271  25.124  22.561  1.00  0.00    -0.021 A 
ATOM     22  C   UNL A   1      33.504  25.750  22.339  1.00  0.00     0.008 A 
ATOM     23  C   UNL A   1      31.181  25.876  23.028  1.00  0.00     0.054 A 
ATOM     24  C   UNL A   1      33.659  27.106  22.621  1.00  0.00     0.004 A 
ATOM     25  C   UNL A   1      31.330  27.240  23.287  1.00  0.00     0.120 A 
ATOM     26  C   UNL A   1      32.579  27.843  23.105  1.00  0.00     0.046 A 
BRANCH  25  27
ATOM     27  O   UNL A   1      30.341  28.107  23.666  1.00  0.00    -0.489 OA
BRANCH  27  28
ATOM     28  C   UNL A   1      29.296  28.417  22.737  1.00  0.00     0.265 C 
BRANCH  28  29
ATOM     29  C   UNL A   1      29.014  29.893  22.517  1.00  0.00    -0.011 A 
ATOM     30  C   UNL A   1      28.582  30.413  21.289  1.00  0.00     0.007 A 
ATOM     31  C   UNL A   1      29.175  30.778  23.595  1.00  0.00     0.007 A 
ATOM     32  C   UNL A   1      28.252  31.763  21.157  1.00  0.00     0.000 A 
ATOM     33  C   UNL A   1      28.868  32.133  23.456  1.00  0.00     0.000 A 
ATOM     34  C   UNL A   1      28.391  32.622  22.241  1.00  0.00     0.000 A 
ENDBRANCH  28  29
ENDBRANCH  27  28
ENDBRANCH  25  27
ENDBRANCH  15  21
ENDBRANCH   8   9
ENDBRANCH   6   8
ENDBRANCH   5   6
ENDBRANCH   4   5
ENDBRANCH   3   4
ENDBRANCH   2   3
ENDBRANCH   1   2
BRANCH   1  35
ATOM     35  C   UNL A   1      39.062  22.355  26.139  1.00  0.00     0.188 C 
BRANCH  35  36
ATOM     36  O   UNL A   1      39.782  21.386  26.890  1.00  0.00    -0.377 OA
BRANCH  36  37
ATOM     37  C   UNL A   1      40.607  20.468  26.207  1.00  0.00     0.188 C 
BRANCH  37  38
ATOM     38  C   UNL A   1      41.944  20.118  26.874  1.00  0.00     0.188 C 
BRANCH  38  39
ATOM     39  O   UNL A   1      43.058  20.841  26.362  1.00  0.00    -0.376 OA
BRANCH  39  40
ATOM     40  C   UNL A   1      42.787  22.132  25.827  1.00  0.00     0.202 C 
BRANCH  40  41
ATOM     41  C   UNL A   1      42.805  23.298  26.825  1.00  0.00     0.261 C 
BRANCH  41  42
ATOM     42  O   UNL A   1      43.222  24.565  26.303  1.00  0.00    -0.460 OA
BRANCH  42  43
ATOM     43  C   UNL A   1      42.274  25.456  25.955  1.00  0.00     0.338 C 
ATOM     44  O   UNL A   1      41.595  25.466  24.942  1.00  0.00    -0.246 OA
BRANCH  43  45
ATOM     45  C   UNL A   1      42.063  26.319  27.132  1.00  0.00     0.060 A 
ATOM     46  C   UNL A   1      42.950  27.365  27.407  1.00  0.00     0.016 A 
ATOM     47  C   UNL A   1      41.010  26.028  28.008  1.00  0.00     0.016 A 
ATOM     48  C   UNL A   1      42.774  28.133  28.555  1.00  0.00     0.010 A 
ATOM     49  C   UNL A   1      40.850  26.780  29.172  1.00  0.00     0.010 A 
ATOM     50  C   UNL A   1      41.714  27.855  29.435  1.00  0.00    -0.014 A 
BRANCH  50  51
ATOM     51  C   UNL A   1      41.350  28.842  30.474  1.00  0.00     0.031 A 
ATOM     52  C   UNL A   1      40.193  29.777  30.339  1.00  0.00     0.074 A 
ATOM     53  C   UNL A   1      42.146  28.887  31.559  1.00  0.00     0.049 A 
ATOM     54  N   UNL A   1      39.735  30.635  31.215  1.00  0.00    -0.248 NA
ATOM     55  C   UNL A   1      39.461  29.763  29.065  1.00  0.00     0.031 C 
ATOM     56  C   UNL A   1      43.319  28.033  31.763  1.00  0.00     0.029 A 
ATOM     57  N   UNL A   1      42.095  29.664  32.684  1.00  0.00    -0.354 N 
ATOM     58  C   UNL A   1      38.653  31.257  30.611  1.00  0.00     0.074 A 
ATOM     59  C   UNL A   1      38.545  30.703  29.276  1.00  0.00     0.031 C 
ATOM     60  C   UNL A   1      43.867  28.321  32.951  1.00  0.00     0.029 A 
ATOM     61  C   UNL A   1      43.101  29.393  33.577  1.00  0.00     0.049 A 
ATOM     62  H   UNL A   1      41.406  30.351  32.837  1.00  0.00     0.167 HD
ATOM     63  C   UNL A   1      37.829  32.196  31.136  1.00  0.00     0.031 A 
ATOM     64  C   UNL A   1      43.379  29.936  34.775  1.00  0.00     0.031 A 
ATOM     65  C   UNL A   1      37.977  32.750  32.460  1.00  0.00     0.049 A 
ATOM     66  C   UNL A   1      42.466  30.990  35.323  1.00  0.00     0.074 A 
ATOM     67  C   UNL A   1      37.152  33.655  33.108  1.00  0.00     0.029 A 
ATOM     68  N   UNL A   1      39.023  32.475  33.329  1.00  0.00    -0.354 N 
ATOM     69  N   UNL A   1      41.382  31.495  34.783  1.00  0.00    -0.248 NA
ATOM     70  C   UNL A   1      42.795  31.534  36.644  1.00  0.00     0.031 C 
ATOM     71  C   UNL A   1      37.741  33.988  34.330  1.00  0.00     0.029 A 
ATOM     72  C   UNL A   1      38.890  33.229  34.486  1.00  0.00     0.049 A 
ATOM     73  H   UNL A   1      39.753  31.838  33.151  1.00  0.00     0.167 HD
ATOM     74  C   UNL A   1      40.891  32.409  35.704  1.00  0.00     0.074 A 
ATOM     75  C   UNL A   1      41.784  32.370  36.846  1.00  0.00     0.031 C 
ATOM     76  C   UNL A   1      39.799  33.206  35.607  1.00  0.00     0.031 A 
BRANCH  63  77
ATOM     77  C   UNL A   1      36.688  32.700  30.293  1.00  0.00    -0.014 A 
ATOM     78  C   UNL A   1      36.821  33.906  29.583  1.00  0.00     0.009 A 
ATOM     79  C   UNL A   1      35.440  32.056  30.297  1.00  0.00     0.009 A 
ATOM     80  C   UNL A   1      35.730  34.462  28.910  1.00  0.00     0.001 A 
ATOM     81  C   UNL A   1      34.358  32.600  29.599  1.00  0.00     0.001 A 
ATOM     82  C   UNL A   1      34.501  33.806  28.915  1.00  0.00     0.000 A 
ENDBRANCH  63  77
BRANCH  64  83
ATOM     83  C   UNL A   1      44.551  29.428  35.531  1.00  0.00    -0.014 A 
ATOM     84  C   UNL A   1      44.402  28.381  36.457  1.00  0.00     0.009 A 
ATOM     85  C   UNL A   1      45.794  30.066  35.422  1.00  0.00     0.009 A 
ATOM     86  C   UNL A   1      45.462  28.011  37.285  1.00  0.00     0.001 A 
ATOM     87  C   UNL A   1      46.863  29.671  36.231  1.00  0.00     0.001 A 
ATOM     88  C   UNL A   1      46.692  28.656  37.171  1.00  0.00     0.000 A 
ENDBRANCH  64  83
BRANCH  76  89
ATOM     89  C   UNL A   1      39.503  34.125  36.760  1.00  0.00    -0.014 A 
ATOM     90  C   UNL A   1      39.979  35.447  36.743  1.00  0.00     0.009 A 
ATOM     91  C   UNL A   1      38.840  33.659  37.906  1.00  0.00     0.009 A 
ATOM     92  C   UNL A   1      39.813  36.276  37.853  1.00  0.00     0.001 A 
ATOM     93  C   UNL A   1      38.647  34.500  39.003  1.00  0.00     0.001 A 
ATOM     94  C   UNL A   1      39.144  35.802  38.981  1.00  0.00     0.000 A 
ENDBRANCH  76  89
ENDBRANCH  50  51
ENDBRANCH  43  45
ENDBRANCH  42  43
ENDBRANCH  41  42
ENDBRANCH  40  41
ENDBRANCH  39  40
ENDBRANCH  38  39
ENDBRANCH  37  38
ENDBRANCH  36  37
ENDBRANCH  35  36
ENDBRANCH   1  35
TORSDOF 25
ENDMDL
MODEL 2
REMARK VINA RESULT:      -9.9      6.534     10.212
REMARK SMILES CC1=C(CC(=O)OCCOCCOCCOCCOC(=O)c2ccc(-c3c4nc(c(-c5ccccc5)c5ccc([nH]5)c(-c5ccccc5)c5nc(c(-c6ccccc6)c6ccc3[nH]6)C=C5)C=C4)cc2)c2cc(F)ccc2/C1=C\c1cccc(OCc2ccccc2)c1
REMARK SMILES IDX 11 1 10 2 9 3 8 4 7 5 5 6 6 7 4 8 3 9 1 10 2 11 77 12 70 13
REMARK SMILES IDX 76 14 78 15 71 16 75 17 72 18 74 19 73 20 79 21 80 22 92 23
REMARK SMILES IDX 81 24 83 25 82 26 84 27 85 28 86 29 87 30 91 31 88 32 90 33
REMARK SMILES IDX 89 34 12 35 13 36 14 37 15 38 16 39 17 40 18 41 19 42 20 43
REMARK SMILES IDX 21 44 22 45 23 46 69 47 24 48 68 49 25 50 26 51 27 52 62 53
REMARK SMILES IDX 28 54 67 55 61 56 63 57 29 58 66 59 60 60 59 61 30 63 52 64
REMARK SMILES IDX 37 65 51 66 38 67 41 68 50 69 64 70 39 71 40 72 49 74 65 75
REMARK SMILES IDX 42 76 31 77 32 78 36 79 33 80 35 81 34 82 53 83 54 84 58 85
REMARK SMILES IDX 55 86 57 87 56 88 43 89 44 90 48 91 45 92 47 93 46 94
REMARK H PARENT 63 62 41 73
REMARK Flexibility Score: inf
ROOT
ATOM      1  C   UNL A   1      38.030  20.543  25.120  1.00  0.00     0.188 C 
ENDROOT
BRANCH   1   2
ATOM      2  O   UNL A   1      37.227  21.704  25.145  1.00  0.00    -0.376 OA
BRANCH   2   3
ATOM      3  C   UNL A   1      35.882  21.588  25.563  1.00  0.00     0.202 C 
BRANCH   3   4
ATOM      4  C   UNL A   1      34.993  20.434  25.060  1.00  0.00     0.261 C 
BRANCH   4   5
ATOM      5  O   UNL A   1      33.661  20.325  25.602  1.00  0.00    -0.463 OA
BRANCH   5   6
ATOM      6  C   UNL A   1      32.675  19.847  24.809  1.00  0.00     0.310 C 
ATOM      7  O   UNL A   1      32.158  18.745  24.966  1.00  0.00    -0.252 OA
BRANCH   6   8
ATOM      8  C   UNL A   1      32.235  20.803  23.679  1.00  0.00     0.159 C 
BRANCH   8   9
ATOM      9  C   UNL A   1      32.116  22.288  23.901  1.00  0.00    -0.025 C 
ATOM     10  C   UNL A   1      33.456  23.176  21.931  1.00  0.00     0.045 C 
ATOM     11  C   UNL A   1      32.641  23.307  23.174  1.00  0.00    -0.039 C 
ATOM     12  C   UNL A   1      32.260  24.606  23.766  1.00  0.00    -0.014 C 
ATOM     13  C   UNL A   1      31.277  22.902  24.959  1.00  0.00    -0.011 A 
ATOM     14  C   UNL A   1      31.395  24.306  24.920  1.00  0.00    -0.010 A 
ATOM     15  C   UNL A   1      32.637  25.817  23.314  1.00  0.00     0.017 C 
ATOM     16  C   UNL A   1      30.492  22.299  25.936  1.00  0.00     0.048 A 
ATOM     17  C   UNL A   1      30.768  25.106  25.872  1.00  0.00     0.012 A 
ATOM     18  C   UNL A   1      29.866  23.112  26.883  1.00  0.00     0.123 A 
ATOM     19  C   UNL A   1      30.000  24.500  26.863  1.00  0.00     0.040 A 
ATOM     20  F   UNL A   1      29.147  22.546  27.861  1.00  0.00    -0.207 F 
BRANCH  15  21
ATOM     21  C   UNL A   1      32.250  27.108  23.896  1.00  0.00    -0.021 A 
ATOM     22  C   UNL A   1      31.038  27.705  23.527  1.00  0.00     0.008 A 
ATOM     23  C   UNL A   1      33.118  27.779  24.772  1.00  0.00     0.054 A 
ATOM     24  C   UNL A   1      30.715  28.979  23.992  1.00  0.00     0.004 A 
ATOM     25  C   UNL A   1      32.783  29.045  25.259  1.00  0.00     0.120 A 
ATOM     26  C   UNL A   1      31.592  29.649  24.845  1.00  0.00     0.046 A 
BRANCH  25  27
ATOM     27  O   UNL A   1      33.491  29.775  26.175  1.00  0.00    -0.489 OA
BRANCH  27  28
ATOM     28  C   UNL A   1      34.382  29.095  27.066  1.00  0.00     0.265 C 
BRANCH  28  29
ATOM     29  C   UNL A   1      35.471  29.944  27.697  1.00  0.00    -0.011 A 
ATOM     30  C   UNL A   1      35.219  31.182  28.305  1.00  0.00     0.007 A 
ATOM     31  C   UNL A   1      36.791  29.464  27.688  1.00  0.00     0.007 A 
ATOM     32  C   UNL A   1      36.238  31.887  28.948  1.00  0.00     0.000 A 
ATOM     33  C   UNL A   1      37.815  30.182  28.310  1.00  0.00     0.000 A 
ATOM     34  C   UNL A   1      37.534  31.385  28.953  1.00  0.00     0.000 A 
ENDBRANCH  28  29
ENDBRANCH  27  28
ENDBRANCH  25  27
ENDBRANCH  15  21
ENDBRANCH   8   9
ENDBRANCH   6   8
ENDBRANCH   5   6
ENDBRANCH   4   5
ENDBRANCH   3   4
ENDBRANCH   2   3
ENDBRANCH   1   2
BRANCH   1  35
ATOM     35  C   UNL A   1      39.303  20.660  25.982  1.00  0.00     0.188 C 
BRANCH  35  36
ATOM     36  O   UNL A   1      40.623  20.545  25.466  1.00  0.00    -0.377 OA
BRANCH  36  37
ATOM     37  C   UNL A   1      41.690  20.338  26.363  1.00  0.00     0.188 C 
BRANCH  37  38
ATOM     38  C   UNL A   1      42.779  19.351  25.919  1.00  0.00     0.188 C 
BRANCH  38  39
ATOM     39  O   UNL A   1      43.727  19.900  25.010  1.00  0.00    -0.376 OA
BRANCH  39  40
ATOM     40  C   UNL A   1      43.874  21.316  25.022  1.00  0.00     0.202 C 
BRANCH  40  41
ATOM     41  C   UNL A   1      45.144  21.862  25.689  1.00  0.00     0.261 C 
BRANCH  41  42
ATOM     42  O   UNL A   1      44.962  22.511  26.952  1.00  0.00    -0.460 OA
BRANCH  42  43
ATOM     43  C   UNL A   1      44.011  23.459  27.052  1.00  0.00     0.338 C 
ATOM     44  O   UNL A   1      42.835  23.310  27.336  1.00  0.00    -0.246 OA
BRANCH  43  45
ATOM     45  C   UNL A   1      44.705  24.756  26.948  1.00  0.00     0.060 A 
ATOM     46  C   UNL A   1      45.231  25.367  28.091  1.00  0.00     0.016 A 
ATOM     47  C   UNL A   1      44.760  25.400  25.706  1.00  0.00     0.016 A 
ATOM     48  C   UNL A   1      45.830  26.620  27.987  1.00  0.00     0.010 A 
ATOM     49  C   UNL A   1      45.336  26.666  25.607  1.00  0.00     0.010 A 
ATOM     50  C   UNL A   1      45.900  27.269  26.743  1.00  0.00    -0.014 A 
BRANCH  50  51
ATOM     51  C   UNL A   1      46.789  28.439  26.579  1.00  0.00     0.031 A 
ATOM     52  C   UNL A   1      48.265  28.318  26.382  1.00  0.00     0.074 A 
ATOM     53  C   UNL A   1      46.203  29.649  26.650  1.00  0.00     0.049 A 
ATOM     54  N   UNL A   1      49.135  29.269  26.155  1.00  0.00    -0.248 NA
ATOM     55  C   UNL A   1      48.846  26.971  26.458  1.00  0.00     0.031 C 
ATOM     56  C   UNL A   1      44.771  29.865  26.873  1.00  0.00     0.029 A 
ATOM     57  N   UNL A   1      46.721  30.911  26.542  1.00  0.00    -0.354 N 
ATOM     58  C   UNL A   1      50.367  28.642  26.047  1.00  0.00     0.074 A 
ATOM     59  C   UNL A   1      50.137  27.228  26.270  1.00  0.00     0.031 C 
ATOM     60  C   UNL A   1      44.522  31.181  26.866  1.00  0.00     0.029 A 
ATOM     61  C   UNL A   1      45.776  31.898  26.665  1.00  0.00     0.049 A 
ATOM     62  H   UNL A   1      47.677  31.092  26.391  1.00  0.00     0.167 HD
ATOM     63  C   UNL A   1      51.570  29.205  25.777  1.00  0.00     0.031 A 
ATOM     64  C   UNL A   1      45.896  33.236  26.614  1.00  0.00     0.031 A 
ATOM     65  C   UNL A   1      51.774  30.620  25.585  1.00  0.00     0.049 A 
ATOM     66  C   UNL A   1      47.241  33.834  26.338  1.00  0.00     0.074 A 
ATOM     67  C   UNL A   1      52.943  31.279  25.239  1.00  0.00     0.029 A 
ATOM     68  N   UNL A   1      50.801  31.597  25.745  1.00  0.00    -0.354 N 
ATOM     69  N   UNL A   1      48.383  33.221  26.132  1.00  0.00    -0.248 NA
ATOM     70  C   UNL A   1      47.317  35.297  26.266  1.00  0.00     0.031 C 
ATOM     71  C   UNL A   1      52.697  32.654  25.270  1.00  0.00     0.029 A 
ATOM     72  C   UNL A   1      51.355  32.854  25.552  1.00  0.00     0.049 A 
ATOM     73  H   UNL A   1      49.857  31.423  25.963  1.00  0.00     0.167 HD
ATOM     74  C   UNL A   1      49.313  34.222  25.894  1.00  0.00     0.074 A 
ATOM     75  C   UNL A   1      48.595  35.481  25.958  1.00  0.00     0.031 C 
ATOM     76  C   UNL A   1      50.640  34.104  25.645  1.00  0.00     0.031 A 
BRANCH  63  77
ATOM     77  C   UNL A   1      52.774  28.306  25.670  1.00  0.00    -0.014 A 
ATOM     78  C   UNL A   1      53.005  27.583  24.487  1.00  0.00     0.009 A 
ATOM     79  C   UNL A   1      53.607  28.072  26.776  1.00  0.00     0.009 A 
ATOM     80  C   UNL A   1      54.033  26.640  24.418  1.00  0.00     0.001 A 
ATOM     81  C   UNL A   1      54.652  27.148  26.694  1.00  0.00     0.001 A 
ATOM     82  C   UNL A   1      54.858  26.426  25.520  1.00  0.00     0.000 A 
ENDBRANCH  63  77
BRANCH  64  83
ATOM     83  C   UNL A   1      44.675  34.065  26.779  1.00  0.00    -0.014 A 
ATOM     84  C   UNL A   1      43.895  34.414  25.663  1.00  0.00     0.009 A 
ATOM     85  C   UNL A   1      44.355  34.612  28.029  1.00  0.00     0.009 A 
ATOM     86  C   UNL A   1      42.844  35.324  25.789  1.00  0.00     0.001 A 
ATOM     87  C   UNL A   1      43.283  35.499  28.157  1.00  0.00     0.001 A 
ATOM     88  C   UNL A   1      42.538  35.864  27.036  1.00  0.00     0.000 A 
ENDBRANCH  64  83
BRANCH  76  89
ATOM     89  C   UNL A   1      51.424  35.370  25.437  1.00  0.00    -0.014 A 
ATOM     90  C   UNL A   1      51.654  35.847  24.136  1.00  0.00     0.009 A 
ATOM     91  C   UNL A   1      52.019  36.039  26.518  1.00  0.00     0.009 A 
ATOM     92  C   UNL A   1      52.476  36.954  23.919  1.00  0.00     0.001 A 
ATOM     93  C   UNL A   1      52.815  37.166  26.302  1.00  0.00     0.001 A 
ATOM     94  C   UNL A   1      53.052  37.614  25.003  1.00  0.00     0.000 A 
ENDBRANCH  76  89
ENDBRANCH  50  51
ENDBRANCH  43  45
ENDBRANCH  42  43
ENDBRANCH  41  42
ENDBRANCH  40  41
ENDBRANCH  39  40
ENDBRANCH  38  39
ENDBRANCH  37  38
ENDBRANCH  36  37
ENDBRANCH  35  36
ENDBRANCH   1  35
TORSDOF 25
ENDMDL
MODEL 3
REMARK VINA RESULT:      -9.6      2.020      6.438
REMARK SMILES CC1=C(CC(=O)OCCOCCOCCOCCOC(=O)c2ccc(-c3c4nc(c(-c5ccccc5)c5ccc([nH]5)c(-c5ccccc5)c5nc(c(-c6ccccc6)c6ccc3[nH]6)C=C5)C=C4)cc2)c2cc(F)ccc2/C1=C\c1cccc(OCc2ccccc2)c1
REMARK SMILES IDX 11 1 10 2 9 3 8 4 7 5 5 6 6 7 4 8 3 9 1 10 2 11 77 12 70 13
REMARK SMILES IDX 76 14 78 15 71 16 75 17 72 18 74 19 73 20 79 21 80 22 92 23
REMARK SMILES IDX 81 24 83 25 82 26 84 27 85 28 86 29 87 30 91 31 88 32 90 33
REMARK SMILES IDX 89 34 12 35 13 36 14 37 15 38 16 39 17 40 18 41 19 42 20 43
REMARK SMILES IDX 21 44 22 45 23 46 69 47 24 48 68 49 25 50 26 51 27 52 62 53
REMARK SMILES IDX 28 54 67 55 61 56 63 57 29 58 66 59 60 60 59 61 30 63 52 64
REMARK SMILES IDX 37 65 51 66 38 67 41 68 50 69 64 70 39 71 40 72 49 74 65 75
REMARK SMILES IDX 42 76 31 77 32 78 36 79 33 80 35 81 34 82 53 83 54 84 58 85
REMARK SMILES IDX 55 86 57 87 56 88 43 89 44 90 48 91 45 92 47 93 46 94
REMARK H PARENT 63 62 41 73
REMARK Flexibility Score: inf
ROOT
ATOM      1  C   UNL A   1      39.783  19.625  26.050  1.00  0.00     0.188 C 
ENDROOT
BRANCH   1   2
ATOM      2  O   UNL A   1      38.898  19.702  24.953  1.00  0.00    -0.376 OA
BRANCH   2   3
ATOM      3  C   UNL A   1      37.740  20.503  25.070  1.00  0.00     0.202 C 
BRANCH   3   4
ATOM      4  C   UNL A   1      36.334  19.878  24.980  1.00  0.00     0.261 C 
BRANCH   4   5
ATOM      5  O   UNL A   1      35.204  20.772  24.900  1.00  0.00    -0.463 OA
BRANCH   5   6
ATOM      6  C   UNL A   1      33.964  20.243  24.795  1.00  0.00     0.310 C 
ATOM      7  O   UNL A   1      33.626  19.202  25.351  1.00  0.00    -0.252 OA
BRANCH   6   8
ATOM      8  C   UNL A   1      32.988  21.055  23.918  1.00  0.00     0.159 C 
BRANCH   8   9
ATOM      9  C   UNL A   1      32.712  22.512  24.182  1.00  0.00    -0.025 C 
ATOM     10  C   UNL A   1      34.321  23.609  22.547  1.00  0.00     0.045 C 
ATOM     11  C   UNL A   1      33.281  23.607  23.618  1.00  0.00    -0.039 C 
ATOM     12  C   UNL A   1      32.695  24.838  24.186  1.00  0.00    -0.014 C 
ATOM     13  C   UNL A   1      31.644  23.001  25.088  1.00  0.00    -0.011 A 
ATOM     14  C   UNL A   1      31.656  24.409  25.139  1.00  0.00    -0.010 A 
ATOM     15  C   UNL A   1      33.053  26.098  23.871  1.00  0.00     0.017 C 
ATOM     16  C   UNL A   1      30.741  22.287  25.868  1.00  0.00     0.048 A 
ATOM     17  C   UNL A   1      30.801  25.104  25.990  1.00  0.00     0.012 A 
ATOM     18  C   UNL A   1      29.888  22.995  26.716  1.00  0.00     0.123 A 
ATOM     19  C   UNL A   1      29.912  24.387  26.787  1.00  0.00     0.040 A 
ATOM     20  F   UNL A   1      29.046  22.322  27.511  1.00  0.00    -0.207 F 
BRANCH  15  21
ATOM     21  C   UNL A   1      32.462  27.321  24.430  1.00  0.00    -0.021 A 
ATOM     22  C   UNL A   1      31.444  27.985  23.734  1.00  0.00     0.008 A 
ATOM     23  C   UNL A   1      32.959  27.866  25.625  1.00  0.00     0.054 A 
ATOM     24  C   UNL A   1      30.956  29.203  24.204  1.00  0.00     0.004 A 
ATOM     25  C   UNL A   1      32.452  29.074  26.109  1.00  0.00     0.120 A 
ATOM     26  C   UNL A   1      31.468  29.749  25.380  1.00  0.00     0.046 A 
BRANCH  25  27
ATOM     27  O   UNL A   1      32.782  29.676  27.293  1.00  0.00    -0.489 OA
BRANCH  27  28
ATOM     28  C   UNL A   1      33.323  31.001  27.270  1.00  0.00     0.265 C 
BRANCH  28  29
ATOM     29  C   UNL A   1      34.760  31.144  27.741  1.00  0.00    -0.011 A 
ATOM     30  C   UNL A   1      35.386  32.387  27.915  1.00  0.00     0.007 A 
ATOM     31  C   UNL A   1      35.493  29.983  28.034  1.00  0.00     0.007 A 
ATOM     32  C   UNL A   1      36.680  32.472  28.433  1.00  0.00     0.000 A 
ATOM     33  C   UNL A   1      36.796  30.068  28.528  1.00  0.00     0.000 A 
ATOM     34  C   UNL A   1      37.383  31.314  28.742  1.00  0.00     0.000 A 
ENDBRANCH  28  29
ENDBRANCH  27  28
ENDBRANCH  25  27
ENDBRANCH  15  21
ENDBRANCH   8   9
ENDBRANCH   6   8
ENDBRANCH   5   6
ENDBRANCH   4   5
ENDBRANCH   3   4
ENDBRANCH   2   3
ENDBRANCH   1   2
BRANCH   1  35
ATOM     35  C   UNL A   1      40.525  20.946  26.332  1.00  0.00     0.188 C 
BRANCH  35  36
ATOM     36  O   UNL A   1      41.935  21.098  26.241  1.00  0.00    -0.377 OA
BRANCH  36  37
ATOM     37  C   UNL A   1      42.461  22.317  25.765  1.00  0.00     0.188 C 
BRANCH  37  38
ATOM     38  C   UNL A   1      43.477  23.026  26.670  1.00  0.00     0.188 C 
BRANCH  38  39
ATOM     39  O   UNL A   1      44.768  23.178  26.089  1.00  0.00    -0.376 OA
BRANCH  39  40
ATOM     40  C   UNL A   1      45.757  23.812  26.893  1.00  0.00     0.202 C 
BRANCH  40  41
ATOM     41  C   UNL A   1      45.279  24.382  28.236  1.00  0.00     0.261 C 
BRANCH  41  42
ATOM     42  O   UNL A   1      45.453  25.792  28.417  1.00  0.00    -0.460 OA
BRANCH  42  43
ATOM     43  C   UNL A   1      44.553  26.624  27.857  1.00  0.00     0.338 C 
ATOM     44  O   UNL A   1      44.181  26.648  26.697  1.00  0.00    -0.246 OA
BRANCH  43  45
ATOM     45  C   UNL A   1      43.944  27.383  28.965  1.00  0.00     0.060 A 
ATOM     46  C   UNL A   1      43.032  26.763  29.825  1.00  0.00     0.016 A 
ATOM     47  C   UNL A   1      44.231  28.748  29.092  1.00  0.00     0.016 A 
ATOM     48  C   UNL A   1      42.418  27.508  30.829  1.00  0.00     0.010 A 
ATOM     49  C   UNL A   1      43.596  29.499  30.080  1.00  0.00     0.010 A 
ATOM     50  C   UNL A   1      42.709  28.876  30.971  1.00  0.00    -0.014 A 
BRANCH  50  51
ATOM     51  C   UNL A   1      42.298  29.585  32.204  1.00  0.00     0.031 A 
ATOM     52  C   UNL A   1      43.106  29.565  33.460  1.00  0.00     0.074 A 
ATOM     53  C   UNL A   1      41.121  30.235  32.154  1.00  0.00     0.049 A 
ATOM     54  N   UNL A   1      42.883  30.208  34.578  1.00  0.00    -0.248 NA
ATOM     55  C   UNL A   1      44.305  28.717  33.477  1.00  0.00     0.031 C 
ATOM     56  C   UNL A   1      40.248  30.281  30.978  1.00  0.00     0.029 A 
ATOM     57  N   UNL A   1      40.460  30.977  33.094  1.00  0.00    -0.354 N 
ATOM     58  C   UNL A   1      43.917  29.856  35.433  1.00  0.00     0.074 A 
ATOM     59  C   UNL A   1      44.750  28.913  34.714  1.00  0.00     0.031 C 
ATOM     60  C   UNL A   1      39.174  31.029  31.262  1.00  0.00     0.029 A 
ATOM     61  C   UNL A   1      39.270  31.491  32.641  1.00  0.00     0.049 A 
ATOM     62  H   UNL A   1      40.802  31.126  34.005  1.00  0.00     0.167 HD
ATOM     63  C   UNL A   1      44.143  30.295  36.695  1.00  0.00     0.031 A 
ATOM     64  C   UNL A   1      38.356  32.258  33.260  1.00  0.00     0.031 A 
ATOM     65  C   UNL A   1      43.281  31.215  37.397  1.00  0.00     0.049 A 
ATOM     66  C   UNL A   1      38.618  32.710  34.664  1.00  0.00     0.074 A 
ATOM     67  C   UNL A   1      43.462  31.773  38.652  1.00  0.00     0.029 A 
ATOM     68  N   UNL A   1      42.069  31.695  36.921  1.00  0.00    -0.354 N 
ATOM     69  N   UNL A   1      39.655  32.455  35.426  1.00  0.00    -0.248 NA
ATOM     70  C   UNL A   1      37.605  33.566  35.288  1.00  0.00     0.031 C 
ATOM     71  C   UNL A   1      42.325  32.521  38.968  1.00  0.00     0.029 A 
ATOM     72  C   UNL A   1      41.470  32.501  37.877  1.00  0.00     0.049 A 
ATOM     73  H   UNL A   1      41.690  31.492  36.035  1.00  0.00     0.167 HD
ATOM     74  C   UNL A   1      39.427  33.129  36.616  1.00  0.00     0.074 A 
ATOM     75  C   UNL A   1      38.162  33.823  36.465  1.00  0.00     0.031 C 
ATOM     76  C   UNL A   1      40.197  33.166  37.731  1.00  0.00     0.031 A 
BRANCH  63  77
ATOM     77  C   UNL A   1      45.366  29.795  37.419  1.00  0.00    -0.014 A 
ATOM     78  C   UNL A   1      46.601  30.439  37.234  1.00  0.00     0.009 A 
ATOM     79  C   UNL A   1      45.329  28.617  38.182  1.00  0.00     0.009 A 
ATOM     80  C   UNL A   1      47.771  29.909  37.782  1.00  0.00     0.001 A 
ATOM     81  C   UNL A   1      46.496  28.104  38.754  1.00  0.00     0.001 A 
ATOM     82  C   UNL A   1      47.717  28.744  38.546  1.00  0.00     0.000 A 
ENDBRANCH  63  77
BRANCH  64  83
ATOM     83  C   UNL A   1      37.147  32.672  32.504  1.00  0.00    -0.014 A 
ATOM     84  C   UNL A   1      37.064  33.957  31.943  1.00  0.00     0.009 A 
ATOM     85  C   UNL A   1      36.026  31.832  32.447  1.00  0.00     0.009 A 
ATOM     86  C   UNL A   1      35.871  34.407  31.374  1.00  0.00     0.001 A 
ATOM     87  C   UNL A   1      34.843  32.274  31.849  1.00  0.00     0.001 A 
ATOM     88  C   UNL A   1      34.762  33.565  31.327  1.00  0.00     0.000 A 
ENDBRANCH  64  83
BRANCH  76  89
ATOM     89  C   UNL A   1      39.696  33.972  38.897  1.00  0.00    -0.014 A 
ATOM     90  C   UNL A   1      38.886  33.366  39.872  1.00  0.00     0.009 A 
ATOM     91  C   UNL A   1      39.940  35.352  38.982  1.00  0.00     0.009 A 
ATOM     92  C   UNL A   1      38.318  34.126  40.896  1.00  0.00     0.001 A 
ATOM     93  C   UNL A   1      39.398  36.103  40.025  1.00  0.00     0.001 A 
ATOM     94  C   UNL A   1      38.578  35.493  40.974  1.00  0.00     0.000 A 
ENDBRANCH  76  89
ENDBRANCH  50  51
ENDBRANCH  43  45
ENDBRANCH  42  43
ENDBRANCH  41  42
ENDBRANCH  40  41
ENDBRANCH  39  40
ENDBRANCH  38  39
ENDBRANCH  37  38
ENDBRANCH  36  37
ENDBRANCH  35  36
ENDBRANCH   1  35
TORSDOF 25
ENDMDL
