MODEL 1
REMARK VINA RESULT:     -10.1      0.000      0.000
REMARK SMILES CC1=C(C(=O)OCCOCCOCCOCCOC(=O)c2ccc(-c3c4nc(c(-c5ccccc5)c5ccc([nH]5)c(-c5ccccc5)c5nc(c(-c6ccccc6)c6ccc3[nH]6)C=C5)C=C4)cc2)N2C(=O)[C@H](NC(=O)c3cc(C(F)(F)F)nn3C)[C@@H]2SC1
REMARK SMILES IDX 11 1 10 2 9 3 8 4 7 5 6 6 4 7 5 8 3 9 1 10 2 11 88 12 69 13
REMARK SMILES IDX 87 14 70 15 86 16 71 17 72 18 73 19 74 20 75 22 76 23 77 24
REMARK SMILES IDX 84 25 78 26 83 27 85 28 79 29 80 30 81 31 82 32 12 33 13 34
REMARK SMILES IDX 14 35 15 36 16 37 17 38 18 39 19 40 20 41 21 42 22 43 68 44
REMARK SMILES IDX 23 45 67 46 24 47 25 48 26 49 61 50 27 51 66 52 60 53 62 54
REMARK SMILES IDX 28 55 65 56 59 57 58 58 29 60 51 61 36 62 50 63 37 64 40 65
REMARK SMILES IDX 49 66 63 67 38 68 39 69 48 71 64 72 41 73 30 74 31 75 35 76
REMARK SMILES IDX 32 77 34 78 33 79 52 80 53 81 57 82 54 83 56 84 55 85 42 86
REMARK SMILES IDX 43 87 47 88 44 89 46 90 45 91
REMARK H PARENT 73 21 62 59 40 70
REMARK Flexibility Score: inf
ROOT
ATOM      1  C   UNL A   1      39.272  23.218  26.980  1.00  0.00     0.188 C 
ENDROOT
BRANCH   1   2
ATOM      2  C   UNL A   1      38.166  23.877  26.130  1.00  0.00     0.188 C 
BRANCH   2   3
ATOM      3  O   UNL A   1      36.977  23.098  26.045  1.00  0.00    -0.376 OA
BRANCH   3   4
ATOM      4  C   UNL A   1      37.142  21.749  25.632  1.00  0.00     0.202 C 
BRANCH   4   5
ATOM      5  C   UNL A   1      35.897  21.104  25.016  1.00  0.00     0.261 C 
BRANCH   5   6
ATOM      6  O   UNL A   1      35.100  22.028  24.263  1.00  0.00    -0.459 OA
BRANCH   6   7
ATOM      7  C   UNL A   1      33.765  21.833  24.209  1.00  0.00     0.355 C 
ATOM      8  O   UNL A   1      33.197  20.816  23.851  1.00  0.00    -0.244 OA
BRANCH   7   9
ATOM      9  C   UNL A   1      33.080  23.050  24.768  1.00  0.00     0.131 C 
ATOM     10  C   UNL A   1      32.967  22.064  27.089  1.00  0.00     0.043 C 
ATOM     11  C   UNL A   1      32.783  23.178  26.086  1.00  0.00    -0.032 C 
ATOM     12  C   UNL A   1      32.241  24.450  26.713  1.00  0.00     0.105 C 
ATOM     13  N   UNL A   1      32.778  24.052  23.897  1.00  0.00    -0.289 N 
ATOM     14  S   UNL A   1      32.515  25.947  25.711  1.00  0.00    -0.129 SA
ATOM     15  C   UNL A   1      32.886  24.311  22.577  1.00  0.00     0.253 C 
ATOM     16  C   UNL A   1      31.904  25.163  24.208  1.00  0.00     0.181 C 
ATOM     17  O   UNL A   1      33.273  23.672  21.633  1.00  0.00    -0.272 OA
ATOM     18  C   UNL A   1      32.314  25.759  22.829  1.00  0.00     0.206 C 
BRANCH  18  19
ATOM     19  N   UNL A   1      33.349  26.825  22.816  1.00  0.00    -0.336 N 
ATOM     20  C   UNL A   1      33.192  28.186  22.819  1.00  0.00     0.270 C 
ATOM     21  H   UNL A   1      34.282  26.508  22.805  1.00  0.00     0.164 HD
ATOM     22  O   UNL A   1      34.171  28.888  22.578  1.00  0.00    -0.268 OA
BRANCH  20  23
ATOM     23  C   UNL A   1      31.888  28.731  23.088  1.00  0.00     0.126 A 
ATOM     24  C   UNL A   1      30.731  28.695  22.328  1.00  0.00     0.069 A 
ATOM     25  N   UNL A   1      31.520  29.351  24.256  1.00  0.00    -0.262 N 
ATOM     26  C   UNL A   1      29.740  29.381  23.076  1.00  0.00     0.167 A 
ATOM     27  N   UNL A   1      30.244  29.793  24.254  1.00  0.00    -0.168 NA
ATOM     28  C   UNL A   1      32.333  29.637  25.417  1.00  0.00     0.174 C 
BRANCH  26  29
ATOM     29  C   UNL A   1      28.319  29.648  22.654  1.00  0.00     0.435 C 
ATOM     30  F   UNL A   1      27.455  28.685  23.067  1.00  0.00    -0.164 F 
ATOM     31  F   UNL A   1      27.852  30.837  23.120  1.00  0.00    -0.164 F 
ATOM     32  F   UNL A   1      28.209  29.706  21.295  1.00  0.00    -0.164 F 
ENDBRANCH  26  29
ENDBRANCH  20  23
ENDBRANCH  18  19
ENDBRANCH   7   9
ENDBRANCH   6   7
ENDBRANCH   5   6
ENDBRANCH   4   5
ENDBRANCH   3   4
ENDBRANCH   2   3
ENDBRANCH   1   2
BRANCH   1  33
ATOM     33  O   UNL A   1      40.466  22.806  26.334  1.00  0.00    -0.377 OA
BRANCH  33  34
ATOM     34  C   UNL A   1      40.708  21.412  26.142  1.00  0.00     0.188 C 
BRANCH  34  35
ATOM     35  C   UNL A   1      40.990  20.462  27.330  1.00  0.00     0.188 C 
BRANCH  35  36
ATOM     36  O   UNL A   1      42.166  19.673  27.207  1.00  0.00    -0.376 OA
BRANCH  36  37
ATOM     37  C   UNL A   1      42.276  18.870  26.043  1.00  0.00     0.202 C 
BRANCH  37  38
ATOM     38  C   UNL A   1      43.608  19.025  25.298  1.00  0.00     0.261 C 
BRANCH  38  39
ATOM     39  O   UNL A   1      44.387  20.165  25.695  1.00  0.00    -0.460 OA
BRANCH  39  40
ATOM     40  C   UNL A   1      44.439  21.189  24.817  1.00  0.00     0.338 C 
ATOM     41  O   UNL A   1      44.655  21.130  23.621  1.00  0.00    -0.246 OA
BRANCH  40  42
ATOM     42  C   UNL A   1      44.010  22.414  25.514  1.00  0.00     0.060 A 
ATOM     43  C   UNL A   1      43.634  23.524  24.751  1.00  0.00     0.016 A 
ATOM     44  C   UNL A   1      44.015  22.473  26.910  1.00  0.00     0.016 A 
ATOM     45  C   UNL A   1      43.320  24.725  25.383  1.00  0.00     0.010 A 
ATOM     46  C   UNL A   1      43.714  23.680  27.544  1.00  0.00     0.010 A 
ATOM     47  C   UNL A   1      43.413  24.821  26.779  1.00  0.00    -0.014 A 
BRANCH  47  48
ATOM     48  C   UNL A   1      43.414  26.162  27.407  1.00  0.00     0.031 A 
ATOM     49  C   UNL A   1      44.738  26.838  27.640  1.00  0.00     0.074 A 
ATOM     50  C   UNL A   1      42.268  26.792  27.716  1.00  0.00     0.049 A 
ATOM     51  N   UNL A   1      44.990  28.023  28.131  1.00  0.00    -0.248 NA
ATOM     52  C   UNL A   1      45.941  26.073  27.264  1.00  0.00     0.031 C 
ATOM     53  C   UNL A   1      40.924  26.258  27.504  1.00  0.00     0.029 A 
ATOM     54  N   UNL A   1      42.059  28.028  28.269  1.00  0.00    -0.354 N 
ATOM     55  C   UNL A   1      46.375  28.147  28.122  1.00  0.00     0.074 A 
ATOM     56  C   UNL A   1      46.910  26.903  27.613  1.00  0.00     0.031 C 
ATOM     57  C   UNL A   1      40.026  27.169  27.920  1.00  0.00     0.029 A 
ATOM     58  C   UNL A   1      40.734  28.335  28.447  1.00  0.00     0.049 A 
ATOM     59  H   UNL A   1      42.792  28.639  28.516  1.00  0.00     0.167 HD
ATOM     60  C   UNL A   1      47.135  29.203  28.492  1.00  0.00     0.031 A 
ATOM     61  C   UNL A   1      40.160  29.431  28.980  1.00  0.00     0.031 A 
ATOM     62  C   UNL A   1      46.607  30.433  29.015  1.00  0.00     0.049 A 
ATOM     63  C   UNL A   1      41.031  30.567  29.449  1.00  0.00     0.074 A 
ATOM     64  C   UNL A   1      47.294  31.566  29.416  1.00  0.00     0.029 A 
ATOM     65  N   UNL A   1      45.259  30.688  29.219  1.00  0.00    -0.354 N 
ATOM     66  N   UNL A   1      42.336  30.684  29.406  1.00  0.00    -0.248 NA
ATOM     67  C   UNL A   1      40.342  31.732  30.026  1.00  0.00     0.031 C 
ATOM     68  C   UNL A   1      46.365  32.486  29.913  1.00  0.00     0.029 A 
ATOM     69  C   UNL A   1      45.096  31.951  29.761  1.00  0.00     0.049 A 
ATOM     70  H   UNL A   1      44.528  30.062  29.010  1.00  0.00     0.167 HD
ATOM     71  C   UNL A   1      42.622  31.947  29.915  1.00  0.00     0.074 A 
ATOM     72  C   UNL A   1      41.353  32.559  30.249  1.00  0.00     0.031 C 
ATOM     73  C   UNL A   1      43.826  32.547  30.085  1.00  0.00     0.031 A 
BRANCH  60  74
ATOM     74  C   UNL A   1      48.626  29.054  28.372  1.00  0.00    -0.014 A 
ATOM     75  C   UNL A   1      49.392  28.510  29.416  1.00  0.00     0.009 A 
ATOM     76  C   UNL A   1      49.271  29.449  27.190  1.00  0.00     0.009 A 
ATOM     77  C   UNL A   1      50.777  28.395  29.290  1.00  0.00     0.001 A 
ATOM     78  C   UNL A   1      50.653  29.306  27.057  1.00  0.00     0.001 A 
ATOM     79  C   UNL A   1      51.406  28.789  28.110  1.00  0.00     0.000 A 
ENDBRANCH  60  74
BRANCH  61  80
ATOM     80  C   UNL A   1      38.681  29.515  29.101  1.00  0.00    -0.014 A 
ATOM     81  C   UNL A   1      37.892  29.910  28.010  1.00  0.00     0.009 A 
ATOM     82  C   UNL A   1      38.052  29.226  30.323  1.00  0.00     0.009 A 
ATOM     83  C   UNL A   1      36.508  30.042  28.149  1.00  0.00     0.001 A 
ATOM     84  C   UNL A   1      36.665  29.329  30.450  1.00  0.00     0.001 A 
ATOM     85  C   UNL A   1      35.896  29.747  29.366  1.00  0.00     0.000 A 
ENDBRANCH  61  80
BRANCH  73  86
ATOM     86  C   UNL A   1      43.826  33.958  30.607  1.00  0.00    -0.014 A 
ATOM     87  C   UNL A   1      43.767  35.062  29.742  1.00  0.00     0.009 A 
ATOM     88  C   UNL A   1      43.852  34.181  31.992  1.00  0.00     0.009 A 
ATOM     89  C   UNL A   1      43.775  36.361  30.255  1.00  0.00     0.001 A 
ATOM     90  C   UNL A   1      43.827  35.479  32.503  1.00  0.00     0.001 A 
ATOM     91  C   UNL A   1      43.801  36.569  31.633  1.00  0.00     0.000 A 
ENDBRANCH  73  86
ENDBRANCH  47  48
ENDBRANCH  40  42
ENDBRANCH  39  40
ENDBRANCH  38  39
ENDBRANCH  37  38
ENDBRANCH  36  37
ENDBRANCH  35  36
ENDBRANCH  34  35
ENDBRANCH  33  34
ENDBRANCH   1  33
TORSDOF 23
ENDMDL
MODEL 2
REMARK VINA RESULT:      -9.9      0.549      5.472
REMARK SMILES CC1=C(C(=O)OCCOCCOCCOCCOC(=O)c2ccc(-c3c4nc(c(-c5ccccc5)c5ccc([nH]5)c(-c5ccccc5)c5nc(c(-c6ccccc6)c6ccc3[nH]6)C=C5)C=C4)cc2)N2C(=O)[C@H](NC(=O)c3cc(C(F)(F)F)nn3C)[C@@H]2SC1
REMARK SMILES IDX 11 1 10 2 9 3 8 4 7 5 6 6 4 7 5 8 3 9 1 10 2 11 88 12 69 13
REMARK SMILES IDX 87 14 70 15 86 16 71 17 72 18 73 19 74 20 75 22 76 23 77 24
REMARK SMILES IDX 84 25 78 26 83 27 85 28 79 29 80 30 81 31 82 32 12 33 13 34
REMARK SMILES IDX 14 35 15 36 16 37 17 38 18 39 19 40 20 41 21 42 22 43 68 44
REMARK SMILES IDX 23 45 67 46 24 47 25 48 26 49 61 50 27 51 66 52 60 53 62 54
REMARK SMILES IDX 28 55 65 56 59 57 58 58 29 60 51 61 36 62 50 63 37 64 40 65
REMARK SMILES IDX 49 66 63 67 38 68 39 69 48 71 64 72 41 73 30 74 31 75 35 76
REMARK SMILES IDX 32 77 34 78 33 79 52 80 53 81 57 82 54 83 56 84 55 85 42 86
REMARK SMILES IDX 43 87 47 88 44 89 46 90 45 91
REMARK H PARENT 73 21 62 59 40 70
REMARK Flexibility Score: inf
ROOT
ATOM      1  C   UNL A   1      39.303  23.333  26.999  1.00  0.00     0.188 C 
ENDROOT
BRANCH   1   2
ATOM      2  C   UNL A   1      38.169  23.946  26.153  1.00  0.00     0.188 C 
BRANCH   2   3
ATOM      3  O   UNL A   1      37.050  23.081  25.989  1.00  0.00    -0.376 OA
BRANCH   3   4
ATOM      4  C   UNL A   1      37.339  21.766  25.535  1.00  0.00     0.202 C 
BRANCH   4   5
ATOM      5  C   UNL A   1      36.151  21.018  24.924  1.00  0.00     0.261 C 
BRANCH   5   6
ATOM      6  O   UNL A   1      35.283  21.868  24.162  1.00  0.00    -0.459 OA
BRANCH   6   7
ATOM      7  C   UNL A   1      33.950  21.669  24.246  1.00  0.00     0.355 C 
ATOM      8  O   UNL A   1      33.358  20.632  24.002  1.00  0.00    -0.244 OA
BRANCH   7   9
ATOM      9  C   UNL A   1      33.312  22.915  24.796  1.00  0.00     0.131 C 
ATOM     10  C   UNL A   1      33.379  22.044  27.165  1.00  0.00     0.043 C 
ATOM     11  C   UNL A   1      33.119  23.109  26.125  1.00  0.00    -0.032 C 
ATOM     12  C   UNL A   1      32.629  24.413  26.729  1.00  0.00     0.105 C 
ATOM     13  N   UNL A   1      32.944  23.875  23.903  1.00  0.00    -0.289 N 
ATOM     14  S   UNL A   1      32.826  25.858  25.636  1.00  0.00    -0.129 SA
ATOM     15  C   UNL A   1      32.949  24.068  22.568  1.00  0.00     0.253 C 
ATOM     16  C   UNL A   1      32.099  25.005  24.226  1.00  0.00     0.181 C 
ATOM     17  O   UNL A   1      33.261  23.382  21.629  1.00  0.00    -0.272 OA
ATOM     18  C   UNL A   1      32.401  25.530  22.792  1.00  0.00     0.206 C 
BRANCH  18  19
ATOM     19  N   UNL A   1      33.433  26.588  22.646  1.00  0.00    -0.336 N 
ATOM     20  C   UNL A   1      33.279  27.950  22.608  1.00  0.00     0.270 C 
ATOM     21  H   UNL A   1      34.360  26.267  22.565  1.00  0.00     0.164 HD
ATOM     22  O   UNL A   1      34.236  28.636  22.255  1.00  0.00    -0.268 OA
BRANCH  20  23
ATOM     23  C   UNL A   1      32.005  28.513  22.968  1.00  0.00     0.126 A 
ATOM     24  C   UNL A   1      30.779  28.426  22.331  1.00  0.00     0.069 A 
ATOM     25  N   UNL A   1      31.751  29.210  24.122  1.00  0.00    -0.262 N 
ATOM     26  C   UNL A   1      29.863  29.161  23.126  1.00  0.00     0.167 A 
ATOM     27  N   UNL A   1      30.478  29.651  24.217  1.00  0.00    -0.168 NA
ATOM     28  C   UNL A   1      32.673  29.572  25.175  1.00  0.00     0.174 C 
BRANCH  26  29
ATOM     29  C   UNL A   1      28.405  29.400  22.830  1.00  0.00     0.435 C 
ATOM     30  F   UNL A   1      27.620  28.340  23.151  1.00  0.00    -0.164 F 
ATOM     31  F   UNL A   1      27.911  30.482  23.488  1.00  0.00    -0.164 F 
ATOM     32  F   UNL A   1      28.203  29.641  21.502  1.00  0.00    -0.164 F 
ENDBRANCH  26  29
ENDBRANCH  20  23
ENDBRANCH  18  19
ENDBRANCH   7   9
ENDBRANCH   6   7
ENDBRANCH   5   6
ENDBRANCH   4   5
ENDBRANCH   3   4
ENDBRANCH   2   3
ENDBRANCH   1   2
BRANCH   1  33
ATOM     33  O   UNL A   1      40.539  23.045  26.367  1.00  0.00    -0.377 OA
BRANCH  33  34
ATOM     34  C   UNL A   1      40.899  21.685  26.127  1.00  0.00     0.188 C 
BRANCH  34  35
ATOM     35  C   UNL A   1      41.061  20.669  27.283  1.00  0.00     0.188 C 
BRANCH  35  36
ATOM     36  O   UNL A   1      42.205  19.831  27.195  1.00  0.00    -0.376 OA
BRANCH  36  37
ATOM     37  C   UNL A   1      42.326  19.036  26.027  1.00  0.00     0.202 C 
BRANCH  37  38
ATOM     38  C   UNL A   1      43.658  19.210  25.286  1.00  0.00     0.261 C 
BRANCH  38  39
ATOM     39  O   UNL A   1      44.400  20.383  25.656  1.00  0.00    -0.460 OA
BRANCH  39  40
ATOM     40  C   UNL A   1      44.454  21.372  24.738  1.00  0.00     0.338 C 
ATOM     41  O   UNL A   1      44.562  21.258  23.531  1.00  0.00    -0.246 OA
BRANCH  40  42
ATOM     42  C   UNL A   1      44.180  22.648  25.421  1.00  0.00     0.060 A 
ATOM     43  C   UNL A   1      43.881  23.774  24.645  1.00  0.00     0.016 A 
ATOM     44  C   UNL A   1      44.255  22.737  26.813  1.00  0.00     0.016 A 
ATOM     45  C   UNL A   1      43.717  25.013  25.259  1.00  0.00     0.010 A 
ATOM     46  C   UNL A   1      44.103  23.982  27.427  1.00  0.00     0.010 A 
ATOM     47  C   UNL A   1      43.882  25.129  26.646  1.00  0.00    -0.014 A 
BRANCH  47  48
ATOM     48  C   UNL A   1      44.044  26.478  27.239  1.00  0.00     0.031 A 
ATOM     49  C   UNL A   1      42.810  27.206  27.695  1.00  0.00     0.074 A 
ATOM     50  C   UNL A   1      45.260  27.022  27.419  1.00  0.00     0.049 A 
ATOM     51  N   UNL A   1      42.702  28.371  28.281  1.00  0.00    -0.248 NA
ATOM     52  C   UNL A   1      41.523  26.528  27.462  1.00  0.00     0.031 C 
ATOM     53  C   UNL A   1      46.530  26.399  27.054  1.00  0.00     0.029 A 
ATOM     54  N   UNL A   1      45.616  28.227  27.967  1.00  0.00    -0.354 N 
ATOM     55  C   UNL A   1      41.342  28.563  28.487  1.00  0.00     0.074 A 
ATOM     56  C   UNL A   1      40.660  27.415  27.930  1.00  0.00     0.031 C 
ATOM     57  C   UNL A   1      47.533  27.230  27.394  1.00  0.00     0.029 A 
ATOM     58  C   UNL A   1      46.970  28.447  27.977  1.00  0.00     0.049 A 
ATOM     59  H   UNL A   1      44.962  28.874  28.319  1.00  0.00     0.167 HD
ATOM     60  C   UNL A   1      40.713  29.596  29.095  1.00  0.00     0.031 A 
ATOM     61  C   UNL A   1      47.673  29.514  28.404  1.00  0.00     0.031 A 
ATOM     62  C   UNL A   1      41.385  30.746  29.632  1.00  0.00     0.049 A 
ATOM     63  C   UNL A   1      46.946  30.683  29.015  1.00  0.00     0.074 A 
ATOM     64  C   UNL A   1      40.839  31.846  30.271  1.00  0.00     0.029 A 
ATOM     65  N   UNL A   1      42.756  30.950  29.585  1.00  0.00    -0.354 N 
ATOM     66  N   UNL A   1      45.662  30.839  29.232  1.00  0.00    -0.248 NA
ATOM     67  C   UNL A   1      47.772  31.817  29.455  1.00  0.00     0.031 C 
ATOM     68  C   UNL A   1      41.874  32.740  30.562  1.00  0.00     0.029 A 
ATOM     69  C   UNL A   1      43.071  32.168  30.163  1.00  0.00     0.049 A 
ATOM     70  H   UNL A   1      43.407  30.322  29.197  1.00  0.00     0.167 HD
ATOM     71  C   UNL A   1      45.530  32.069  29.867  1.00  0.00     0.074 A 
ATOM     72  C   UNL A   1      46.866  32.611  30.008  1.00  0.00     0.031 C 
ATOM     73  C   UNL A   1      44.405  32.691  30.299  1.00  0.00     0.031 A 
BRANCH  60  74
ATOM     74  C   UNL A   1      39.213  29.536  29.178  1.00  0.00    -0.014 A 
ATOM     75  C   UNL A   1      38.563  29.119  30.351  1.00  0.00     0.009 A 
ATOM     76  C   UNL A   1      38.440  29.919  28.071  1.00  0.00     0.009 A 
ATOM     77  C   UNL A   1      37.169  29.056  30.401  1.00  0.00     0.001 A 
ATOM     78  C   UNL A   1      37.046  29.882  28.135  1.00  0.00     0.001 A 
ATOM     79  C   UNL A   1      36.412  29.441  29.295  1.00  0.00     0.000 A 
ENDBRANCH  60  74
BRANCH  61  80
ATOM     80  C   UNL A   1      49.154  29.533  28.272  1.00  0.00    -0.014 A 
ATOM     81  C   UNL A   1      49.767  30.046  27.120  1.00  0.00     0.009 A 
ATOM     82  C   UNL A   1      49.963  29.008  29.294  1.00  0.00     0.009 A 
ATOM     83  C   UNL A   1      51.157  30.007  26.980  1.00  0.00     0.001 A 
ATOM     84  C   UNL A   1      51.353  28.998  29.164  1.00  0.00     0.001 A 
ATOM     85  C   UNL A   1      51.948  29.487  28.003  1.00  0.00     0.000 A 
ENDBRANCH  61  80
BRANCH  73  86
ATOM     86  C   UNL A   1      44.575  34.004  31.014  1.00  0.00    -0.014 A 
ATOM     87  C   UNL A   1      44.712  34.069  32.409  1.00  0.00     0.009 A 
ATOM     88  C   UNL A   1      44.631  35.193  30.269  1.00  0.00     0.009 A 
ATOM     89  C   UNL A   1      44.861  35.304  33.046  1.00  0.00     0.001 A 
ATOM     90  C   UNL A   1      44.812  36.422  30.906  1.00  0.00     0.001 A 
ATOM     91  C   UNL A   1      44.915  36.477  32.295  1.00  0.00     0.000 A 
ENDBRANCH  73  86
ENDBRANCH  47  48
ENDBRANCH  40  42
ENDBRANCH  39  40
ENDBRANCH  38  39
ENDBRANCH  37  38
ENDBRANCH  36  37
ENDBRANCH  35  36
ENDBRANCH  34  35
ENDBRANCH  33  34
ENDBRANCH   1  33
TORSDOF 23
ENDMDL
MODEL 3
REMARK VINA RESULT:      -9.9      1.425      2.314
REMARK SMILES CC1=C(C(=O)OCCOCCOCCOCCOC(=O)c2ccc(-c3c4nc(c(-c5ccccc5)c5ccc([nH]5)c(-c5ccccc5)c5nc(c(-c6ccccc6)c6ccc3[nH]6)C=C5)C=C4)cc2)N2C(=O)[C@H](NC(=O)c3cc(C(F)(F)F)nn3C)[C@@H]2SC1
REMARK SMILES IDX 11 1 10 2 9 3 8 4 7 5 6 6 4 7 5 8 3 9 1 10 2 11 88 12 69 13
REMARK SMILES IDX 87 14 70 15 86 16 71 17 72 18 73 19 74 20 75 22 76 23 77 24
REMARK SMILES IDX 84 25 78 26 83 27 85 28 79 29 80 30 81 31 82 32 12 33 13 34
REMARK SMILES IDX 14 35 15 36 16 37 17 38 18 39 19 40 20 41 21 42 22 43 68 44
REMARK SMILES IDX 23 45 67 46 24 47 25 48 26 49 61 50 27 51 66 52 60 53 62 54
REMARK SMILES IDX 28 55 65 56 59 57 58 58 29 60 51 61 36 62 50 63 37 64 40 65
REMARK SMILES IDX 49 66 63 67 38 68 39 69 48 71 64 72 41 73 30 74 31 75 35 76
REMARK SMILES IDX 32 77 34 78 33 79 52 80 53 81 57 82 54 83 56 84 55 85 42 86
REMARK SMILES IDX 43 87 47 88 44 89 46 90 45 91
REMARK H PARENT 73 21 62 59 40 70
REMARK Flexibility Score: inf
ROOT
ATOM      1  C   UNL A   1      39.586  23.292  26.988  1.00  0.00     0.188 C 
ENDROOT
BRANCH   1   2
ATOM      2  C   UNL A   1      38.391  24.052  26.378  1.00  0.00     0.188 C 
BRANCH   2   3
ATOM      3  O   UNL A   1      37.885  23.455  25.188  1.00  0.00    -0.376 OA
BRANCH   3   4
ATOM      4  C   UNL A   1      37.559  22.075  25.273  1.00  0.00     0.202 C 
BRANCH   4   5
ATOM      5  C   UNL A   1      36.074  21.774  25.498  1.00  0.00     0.261 C 
BRANCH   5   6
ATOM      6  O   UNL A   1      35.234  22.284  24.453  1.00  0.00    -0.459 OA
BRANCH   6   7
ATOM      7  C   UNL A   1      33.920  21.975  24.474  1.00  0.00     0.355 C 
ATOM      8  O   UNL A   1      33.431  20.880  24.253  1.00  0.00    -0.244 OA
BRANCH   7   9
ATOM      9  C   UNL A   1      33.149  23.186  24.924  1.00  0.00     0.131 C 
ATOM     10  C   UNL A   1      32.923  22.311  27.282  1.00  0.00     0.043 C 
ATOM     11  C   UNL A   1      32.760  23.365  26.211  1.00  0.00    -0.032 C 
ATOM     12  C   UNL A   1      32.125  24.642  26.735  1.00  0.00     0.105 C 
ATOM     13  N   UNL A   1      32.864  24.129  23.984  1.00  0.00    -0.289 N 
ATOM     14  S   UNL A   1      32.403  26.097  25.676  1.00  0.00    -0.129 SA
ATOM     15  C   UNL A   1      33.049  24.327  22.663  1.00  0.00     0.253 C 
ATOM     16  C   UNL A   1      31.927  25.214  24.181  1.00  0.00     0.181 C 
ATOM     17  O   UNL A   1      33.524  23.660  21.780  1.00  0.00    -0.272 OA
ATOM     18  C   UNL A   1      32.402  25.759  22.801  1.00  0.00     0.206 C 
BRANCH  18  19
ATOM     19  N   UNL A   1      33.391  26.868  22.799  1.00  0.00    -0.336 N 
ATOM     20  C   UNL A   1      33.175  28.221  22.810  1.00  0.00     0.270 C 
ATOM     21  H   UNL A   1      34.336  26.591  22.789  1.00  0.00     0.164 HD
ATOM     22  O   UNL A   1      34.125  28.966  22.578  1.00  0.00    -0.268 OA
BRANCH  20  23
ATOM     23  C   UNL A   1      31.848  28.708  23.078  1.00  0.00     0.126 A 
ATOM     24  C   UNL A   1      30.679  28.555  22.354  1.00  0.00     0.069 A 
ATOM     25  N   UNL A   1      31.472  29.383  24.212  1.00  0.00    -0.262 N 
ATOM     26  C   UNL A   1      29.667  29.232  23.082  1.00  0.00     0.167 A 
ATOM     27  N   UNL A   1      30.173  29.751  24.216  1.00  0.00    -0.168 NA
ATOM     28  C   UNL A   1      32.294  29.792  25.330  1.00  0.00     0.174 C 
BRANCH  26  29
ATOM     29  C   UNL A   1      28.223  29.390  22.682  1.00  0.00     0.435 C 
ATOM     30  F   UNL A   1      27.587  30.370  23.374  1.00  0.00    -0.164 F 
ATOM     31  F   UNL A   1      28.075  29.667  21.360  1.00  0.00    -0.164 F 
ATOM     32  F   UNL A   1      27.519  28.243  22.908  1.00  0.00    -0.164 F 
ENDBRANCH  26  29
ENDBRANCH  20  23
ENDBRANCH  18  19
ENDBRANCH   7   9
ENDBRANCH   6   7
ENDBRANCH   5   6
ENDBRANCH   4   5
ENDBRANCH   3   4
ENDBRANCH   2   3
ENDBRANCH   1   2
BRANCH   1  33
ATOM     33  O   UNL A   1      40.779  23.185  26.229  1.00  0.00    -0.377 OA
BRANCH  33  34
ATOM     34  C   UNL A   1      41.485  21.945  26.213  1.00  0.00     0.188 C 
BRANCH  34  35
ATOM     35  C   UNL A   1      41.739  21.134  27.505  1.00  0.00     0.188 C 
BRANCH  35  36
ATOM     36  O   UNL A   1      42.354  19.867  27.314  1.00  0.00    -0.376 OA
BRANCH  36  37
ATOM     37  C   UNL A   1      42.131  19.232  26.065  1.00  0.00     0.202 C 
BRANCH  37  38
ATOM     38  C   UNL A   1      43.371  18.545  25.480  1.00  0.00     0.261 C 
BRANCH  38  39
ATOM     39  O   UNL A   1      44.545  19.371  25.431  1.00  0.00    -0.460 OA
BRANCH  39  40
ATOM     40  C   UNL A   1      44.696  20.132  24.325  1.00  0.00     0.338 C 
ATOM     41  O   UNL A   1      44.406  19.841  23.180  1.00  0.00    -0.246 OA
BRANCH  40  42
ATOM     42  C   UNL A   1      45.119  21.478  24.748  1.00  0.00     0.060 A 
ATOM     43  C   UNL A   1      45.605  21.651  26.049  1.00  0.00     0.016 A 
ATOM     44  C   UNL A   1      45.000  22.564  23.877  1.00  0.00     0.016 A 
ATOM     45  C   UNL A   1      45.917  22.929  26.506  1.00  0.00     0.010 A 
ATOM     46  C   UNL A   1      45.299  23.846  24.340  1.00  0.00     0.010 A 
ATOM     47  C   UNL A   1      45.712  24.036  25.671  1.00  0.00    -0.014 A 
BRANCH  47  48
ATOM     48  C   UNL A   1      45.717  25.394  26.264  1.00  0.00     0.031 A 
ATOM     49  C   UNL A   1      47.018  26.148  26.302  1.00  0.00     0.074 A 
ATOM     50  C   UNL A   1      44.586  25.968  26.708  1.00  0.00     0.049 A 
ATOM     51  N   UNL A   1      47.263  27.360  26.729  1.00  0.00    -0.248 NA
ATOM     52  C   UNL A   1      48.203  25.440  25.787  1.00  0.00     0.031 C 
ATOM     53  C   UNL A   1      43.260  25.355  26.690  1.00  0.00     0.029 A 
ATOM     54  N   UNL A   1      44.380  27.207  27.257  1.00  0.00    -0.354 N 
ATOM     55  C   UNL A   1      48.624  27.559  26.533  1.00  0.00     0.074 A 
ATOM     56  C   UNL A   1      49.160  26.332  25.985  1.00  0.00     0.031 C 
ATOM     57  C   UNL A   1      42.372  26.227  27.202  1.00  0.00     0.029 A 
ATOM     58  C   UNL A   1      43.075  27.445  27.603  1.00  0.00     0.049 A 
ATOM     59  H   UNL A   1      45.103  27.864  27.390  1.00  0.00     0.167 HD
ATOM     60  C   UNL A   1      49.363  28.666  26.774  1.00  0.00     0.031 A 
ATOM     61  C   UNL A   1      42.513  28.524  28.184  1.00  0.00     0.031 A 
ATOM     62  C   UNL A   1      48.838  29.880  27.336  1.00  0.00     0.049 A 
ATOM     63  C   UNL A   1      43.369  29.719  28.507  1.00  0.00     0.074 A 
ATOM     64  C   UNL A   1      49.504  31.061  27.616  1.00  0.00     0.029 A 
ATOM     65  N   UNL A   1      47.516  30.066  27.712  1.00  0.00    -0.354 N 
ATOM     66  N   UNL A   1      44.648  29.907  28.288  1.00  0.00    -0.248 NA
ATOM     67  C   UNL A   1      42.695  30.861  29.145  1.00  0.00     0.031 C 
ATOM     68  C   UNL A   1      48.597  31.942  28.213  1.00  0.00     0.029 A 
ATOM     69  C   UNL A   1      47.352  31.334  28.242  1.00  0.00     0.049 A 
ATOM     70  H   UNL A   1      46.802  29.396  27.616  1.00  0.00     0.167 HD
ATOM     71  C   UNL A   1      44.924  31.198  28.725  1.00  0.00     0.074 A 
ATOM     72  C   UNL A   1      43.676  31.749  29.212  1.00  0.00     0.031 C 
ATOM     73  C   UNL A   1      46.103  31.869  28.719  1.00  0.00     0.031 A 
BRANCH  60  74
ATOM     74  C   UNL A   1      50.831  28.597  26.460  1.00  0.00    -0.014 A 
ATOM     75  C   UNL A   1      51.331  29.000  25.210  1.00  0.00     0.009 A 
ATOM     76  C   UNL A   1      51.730  28.136  27.434  1.00  0.00     0.009 A 
ATOM     77  C   UNL A   1      52.696  28.912  24.933  1.00  0.00     0.001 A 
ATOM     78  C   UNL A   1      53.098  28.077  27.163  1.00  0.00     0.001 A 
ATOM     79  C   UNL A   1      53.578  28.455  25.911  1.00  0.00     0.000 A 
ENDBRANCH  60  74
BRANCH  61  80
ATOM     80  C   UNL A   1      41.060  28.529  28.499  1.00  0.00    -0.014 A 
ATOM     81  C   UNL A   1      40.580  27.959  29.687  1.00  0.00     0.009 A 
ATOM     82  C   UNL A   1      40.141  29.082  27.593  1.00  0.00     0.009 A 
ATOM     83  C   UNL A   1      39.208  27.917  29.949  1.00  0.00     0.001 A 
ATOM     84  C   UNL A   1      38.772  29.066  27.871  1.00  0.00     0.001 A 
ATOM     85  C   UNL A   1      38.307  28.473  29.043  1.00  0.00     0.000 A 
ENDBRANCH  61  80
BRANCH  73  86
ATOM     86  C   UNL A   1      46.089  33.292  29.205  1.00  0.00    -0.014 A 
ATOM     87  C   UNL A   1      46.382  33.617  30.539  1.00  0.00     0.009 A 
ATOM     88  C   UNL A   1      45.810  34.328  28.299  1.00  0.00     0.009 A 
ATOM     89  C   UNL A   1      46.354  34.948  30.964  1.00  0.00     0.001 A 
ATOM     90  C   UNL A   1      45.814  35.659  28.719  1.00  0.00     0.001 A 
ATOM     91  C   UNL A   1      46.075  35.966  30.054  1.00  0.00     0.000 A 
ENDBRANCH  73  86
ENDBRANCH  47  48
ENDBRANCH  40  42
ENDBRANCH  39  40
ENDBRANCH  38  39
ENDBRANCH  37  38
ENDBRANCH  36  37
ENDBRANCH  35  36
ENDBRANCH  34  35
ENDBRANCH  33  34
ENDBRANCH   1  33
TORSDOF 23
ENDMDL
