MODEL 1
REMARK VINA RESULT:      -7.0      0.000      0.000
REMARK SMILES CS(=O)(=O)c1ccc(C2=NN(c3ccc(C(=O)OCCOCCOCCOCCOC(=O)c4ccc(-c5c6nc(c(-c7ccccc7)c7ccc([nH]7)c(-c7ccccc7)c7nc(c(-c8ccccc8)c8ccc5[nH]8)C=C7)C=C6)cc4)cc3)[C@H](c3ccc(F)cc3)C2)cc1
REMARK SMILES IDX 23 1 22 2 21 3 20 4 19 5 18 6 16 7 17 8 15 9 12 10 13 11
REMARK SMILES IDX 82 12 14 13 81 14 11 15 9 16 10 17 91 18 83 19 8 20 5 21
REMARK SMILES IDX 6 22 93 23 7 24 92 25 2 26 1 27 3 28 4 29 84 30 85 31 90 32
REMARK SMILES IDX 86 33 89 34 87 35 88 36 24 37 25 38 26 39 27 40 28 41 29 42
REMARK SMILES IDX 30 43 31 44 32 45 33 46 34 47 80 48 35 49 79 50 36 51 37 52
REMARK SMILES IDX 38 53 73 54 39 55 78 56 72 57 74 58 40 59 77 60 71 61 70 62
REMARK SMILES IDX 41 64 63 65 48 66 62 67 49 68 52 69 61 70 75 71 50 72 51 73
REMARK SMILES IDX 60 75 76 76 53 77 42 78 43 79 47 80 44 81 46 82 45 83 64 84
REMARK SMILES IDX 65 85 69 86 66 87 68 88 67 89 54 90 55 91 59 92 56 93 58 94
REMARK SMILES IDX 57 95
REMARK H PARENT 74 63 52 74
REMARK Flexibility Score: inf
ROOT
ATOM      1  C   UNL A   1      38.454  34.409  36.147  1.00  0.00     0.188 C 
ENDROOT
BRANCH   1   2
ATOM      2  C   UNL A   1      39.171  34.088  34.820  1.00  0.00     0.188 C 
BRANCH   2   3
ATOM      3  O   UNL A   1      38.283  33.885  33.737  1.00  0.00    -0.376 OA
BRANCH   3   4
ATOM      4  C   UNL A   1      36.940  33.494  33.954  1.00  0.00     0.202 C 
BRANCH   4   5
ATOM      5  C   UNL A   1      35.814  33.757  32.942  1.00  0.00     0.261 C 
BRANCH   5   6
ATOM      6  O   UNL A   1      36.153  33.677  31.560  1.00  0.00    -0.460 OA
BRANCH   6   7
ATOM      7  C   UNL A   1      35.384  32.899  30.773  1.00  0.00     0.338 C 
ATOM      8  O   UNL A   1      34.245  33.133  30.408  1.00  0.00    -0.246 OA
BRANCH   7   9
ATOM      9  C   UNL A   1      36.214  31.770  30.281  1.00  0.00     0.060 A 
ATOM     10  C   UNL A   1      37.909  29.674  29.525  1.00  0.00     0.060 A 
ATOM     11  C   UNL A   1      37.036  29.516  30.607  1.00  0.00     0.029 A 
ATOM     12  C   UNL A   1      37.802  30.822  28.729  1.00  0.00     0.029 A 
ATOM     13  C   UNL A   1      36.194  30.563  30.990  1.00  0.00     0.018 A 
ATOM     14  C   UNL A   1      36.980  31.879  29.115  1.00  0.00     0.018 A 
BRANCH  10  15
ATOM     15  N   UNL A   1      39.018  28.843  29.357  1.00  0.00    -0.257 N 
ATOM     16  C   UNL A   1      39.891  26.932  29.039  1.00  0.00     0.071 C 
ATOM     17  N   UNL A   1      38.926  27.699  28.636  1.00  0.00    -0.176 NA
ATOM     18  C   UNL A   1      40.670  27.427  30.229  1.00  0.00     0.091 C 
ATOM     19  C   UNL A   1      40.058  28.824  30.402  1.00  0.00     0.144 C 
BRANCH  16  20
ATOM     20  C   UNL A   1      40.245  25.669  28.364  1.00  0.00    -0.002 A 
ATOM     21  C   UNL A   1      40.981  23.222  27.242  1.00  0.00     0.067 A 
ATOM     22  C   UNL A   1      41.925  23.977  27.948  1.00  0.00     0.021 A 
ATOM     23  C   UNL A   1      39.673  23.692  27.081  1.00  0.00     0.021 A 
ATOM     24  C   UNL A   1      41.556  25.203  28.501  1.00  0.00     0.011 A 
ATOM     25  C   UNL A   1      39.302  24.917  27.651  1.00  0.00     0.011 A 
BRANCH  21  26
ATOM     26  S   UNL A   1      41.514  21.660  26.578  1.00  0.00     0.175 S 
ATOM     27  C   UNL A   1      40.059  20.706  26.255  1.00  0.00     0.163 C 
ATOM     28  O   UNL A   1      42.256  21.001  27.635  1.00  0.00    -0.224 OA
ATOM     29  O   UNL A   1      42.124  21.942  25.292  1.00  0.00    -0.224 OA
ENDBRANCH  21  26
ENDBRANCH  16  20
BRANCH  19  30
ATOM     30  C   UNL A   1      40.971  30.044  30.282  1.00  0.00    -0.023 A 
ATOM     31  C   UNL A   1      41.922  30.217  29.265  1.00  0.00     0.009 A 
ATOM     32  C   UNL A   1      40.801  31.101  31.204  1.00  0.00     0.009 A 
ATOM     33  C   UNL A   1      42.650  31.410  29.162  1.00  0.00     0.039 A 
ATOM     34  C   UNL A   1      41.482  32.311  31.066  1.00  0.00     0.039 A 
ATOM     35  C   UNL A   1      42.405  32.453  30.045  1.00  0.00     0.123 A 
ATOM     36  F   UNL A   1      43.063  33.612  29.904  1.00  0.00    -0.207 F 
ENDBRANCH  19  30
ENDBRANCH  10  15
ENDBRANCH   7   9
ENDBRANCH   6   7
ENDBRANCH   5   6
ENDBRANCH   4   5
ENDBRANCH   3   4
ENDBRANCH   2   3
ENDBRANCH   1   2
BRANCH   1  37
ATOM     37  O   UNL A   1      39.251  35.030  37.144  1.00  0.00    -0.377 OA
BRANCH  37  38
ATOM     38  C   UNL A   1      39.997  34.215  38.049  1.00  0.00     0.188 C 
BRANCH  38  39
ATOM     39  C   UNL A   1      41.538  34.060  37.985  1.00  0.00     0.188 C 
BRANCH  39  40
ATOM     40  O   UNL A   1      42.248  34.600  39.086  1.00  0.00    -0.376 OA
BRANCH  40  41
ATOM     41  C   UNL A   1      42.969  33.725  39.930  1.00  0.00     0.202 C 
BRANCH  41  42
ATOM     42  C   UNL A   1      44.501  33.805  39.871  1.00  0.00     0.261 C 
BRANCH  42  43
ATOM     43  O   UNL A   1      45.105  33.344  38.654  1.00  0.00    -0.460 OA
BRANCH  43  44
ATOM     44  C   UNL A   1      45.281  34.252  37.674  1.00  0.00     0.338 C 
ATOM     45  O   UNL A   1      45.455  35.455  37.800  1.00  0.00    -0.246 OA
BRANCH  44  46
ATOM     46  C   UNL A   1      45.406  33.520  36.400  1.00  0.00     0.060 A 
ATOM     47  C   UNL A   1      44.269  33.343  35.600  1.00  0.00     0.016 A 
ATOM     48  C   UNL A   1      46.644  33.010  36.001  1.00  0.00     0.016 A 
ATOM     49  C   UNL A   1      44.360  32.610  34.417  1.00  0.00     0.010 A 
ATOM     50  C   UNL A   1      46.728  32.262  34.826  1.00  0.00     0.010 A 
ATOM     51  C   UNL A   1      45.578  32.023  34.052  1.00  0.00    -0.014 A 
BRANCH  51  52
ATOM     52  C   UNL A   1      45.609  30.995  32.986  1.00  0.00     0.031 A 
ATOM     53  C   UNL A   1      45.850  31.445  31.571  1.00  0.00     0.074 A 
ATOM     54  C   UNL A   1      45.446  29.689  33.262  1.00  0.00     0.049 A 
ATOM     55  N   UNL A   1      45.877  30.743  30.467  1.00  0.00    -0.248 NA
ATOM     56  C   UNL A   1      46.091  32.885  31.374  1.00  0.00     0.031 C 
ATOM     57  C   UNL A   1      45.255  29.121  34.596  1.00  0.00     0.029 A 
ATOM     58  N   UNL A   1      45.413  28.604  32.423  1.00  0.00    -0.354 N 
ATOM     59  C   UNL A   1      46.124  31.655  29.449  1.00  0.00     0.074 A 
ATOM     60  C   UNL A   1      46.206  32.963  30.059  1.00  0.00     0.031 C 
ATOM     61  C   UNL A   1      45.118  27.788  34.483  1.00  0.00     0.029 A 
ATOM     62  C   UNL A   1      45.172  27.416  33.070  1.00  0.00     0.049 A 
ATOM     63  H   UNL A   1      45.549  28.670  31.451  1.00  0.00     0.167 HD
ATOM     64  C   UNL A   1      46.275  31.424  28.124  1.00  0.00     0.031 A 
ATOM     65  C   UNL A   1      44.993  26.177  32.574  1.00  0.00     0.031 A 
ATOM     66  C   UNL A   1      46.174  30.126  27.516  1.00  0.00     0.049 A 
ATOM     67  C   UNL A   1      45.077  25.959  31.084  1.00  0.00     0.074 A 
ATOM     68  C   UNL A   1      46.323  29.785  26.183  1.00  0.00     0.029 A 
ATOM     69  N   UNL A   1      45.887  28.954  28.200  1.00  0.00    -0.354 N 
ATOM     70  N   UNL A   1      45.339  26.823  30.133  1.00  0.00    -0.248 NA
ATOM     71  C   UNL A   1      44.848  24.588  30.603  1.00  0.00     0.031 C 
ATOM     72  C   UNL A   1      46.060  28.418  26.052  1.00  0.00     0.029 A 
ATOM     73  C   UNL A   1      45.824  27.894  27.312  1.00  0.00     0.049 A 
ATOM     74  H   UNL A   1      45.750  28.887  29.172  1.00  0.00     0.167 HD
ATOM     75  C   UNL A   1      45.342  26.095  28.948  1.00  0.00     0.074 A 
ATOM     76  C   UNL A   1      45.070  24.718  29.302  1.00  0.00     0.031 C 
ATOM     77  C   UNL A   1      45.555  26.527  27.680  1.00  0.00     0.031 A 
BRANCH  64  78
ATOM     78  C   UNL A   1      46.521  32.615  27.237  1.00  0.00    -0.014 A 
ATOM     79  C   UNL A   1      47.819  32.989  26.853  1.00  0.00     0.009 A 
ATOM     80  C   UNL A   1      45.432  33.360  26.758  1.00  0.00     0.009 A 
ATOM     81  C   UNL A   1      48.022  34.105  26.038  1.00  0.00     0.001 A 
ATOM     82  C   UNL A   1      45.635  34.454  25.917  1.00  0.00     0.001 A 
ATOM     83  C   UNL A   1      46.930  34.832  25.566  1.00  0.00     0.000 A 
ENDBRANCH  64  78
BRANCH  65  84
ATOM     84  C   UNL A   1      44.695  25.040  33.487  1.00  0.00    -0.014 A 
ATOM     85  C   UNL A   1      45.707  24.153  33.884  1.00  0.00     0.009 A 
ATOM     86  C   UNL A   1      43.386  24.821  33.945  1.00  0.00     0.009 A 
ATOM     87  C   UNL A   1      45.409  23.054  34.694  1.00  0.00     0.001 A 
ATOM     88  C   UNL A   1      43.097  23.741  34.783  1.00  0.00     0.001 A 
ATOM     89  C   UNL A   1      44.106  22.852  35.147  1.00  0.00     0.000 A 
ENDBRANCH  65  84
BRANCH  77  90
ATOM     90  C   UNL A   1      45.556  25.495  26.585  1.00  0.00    -0.014 A 
ATOM     91  C   UNL A   1      44.418  25.252  25.800  1.00  0.00     0.009 A 
ATOM     92  C   UNL A   1      46.737  24.788  26.304  1.00  0.00     0.009 A 
ATOM     93  C   UNL A   1      44.453  24.295  24.782  1.00  0.00     0.001 A 
ATOM     94  C   UNL A   1      46.779  23.858  25.264  1.00  0.00     0.001 A 
ATOM     95  C   UNL A   1      45.633  23.605  24.512  1.00  0.00     0.000 A 
ENDBRANCH  77  90
ENDBRANCH  51  52
ENDBRANCH  44  46
ENDBRANCH  43  44
ENDBRANCH  42  43
ENDBRANCH  41  42
ENDBRANCH  40  41
ENDBRANCH  39  40
ENDBRANCH  38  39
ENDBRANCH  37  38
ENDBRANCH   1  37
TORSDOF 24
ENDMDL
MODEL 2
REMARK VINA RESULT:      -6.8      4.604     12.403
REMARK SMILES CS(=O)(=O)c1ccc(C2=NN(c3ccc(C(=O)OCCOCCOCCOCCOC(=O)c4ccc(-c5c6nc(c(-c7ccccc7)c7ccc([nH]7)c(-c7ccccc7)c7nc(c(-c8ccccc8)c8ccc5[nH]8)C=C7)C=C6)cc4)cc3)[C@H](c3ccc(F)cc3)C2)cc1
REMARK SMILES IDX 23 1 22 2 21 3 20 4 19 5 18 6 16 7 17 8 15 9 12 10 13 11
REMARK SMILES IDX 82 12 14 13 81 14 11 15 9 16 10 17 91 18 83 19 8 20 5 21
REMARK SMILES IDX 6 22 93 23 7 24 92 25 2 26 1 27 3 28 4 29 84 30 85 31 90 32
REMARK SMILES IDX 86 33 89 34 87 35 88 36 24 37 25 38 26 39 27 40 28 41 29 42
REMARK SMILES IDX 30 43 31 44 32 45 33 46 34 47 80 48 35 49 79 50 36 51 37 52
REMARK SMILES IDX 38 53 73 54 39 55 78 56 72 57 74 58 40 59 77 60 71 61 70 62
REMARK SMILES IDX 41 64 63 65 48 66 62 67 49 68 52 69 61 70 75 71 50 72 51 73
REMARK SMILES IDX 60 75 76 76 53 77 42 78 43 79 47 80 44 81 46 82 45 83 64 84
REMARK SMILES IDX 65 85 69 86 66 87 68 88 67 89 54 90 55 91 59 92 56 93 58 94
REMARK SMILES IDX 57 95
REMARK H PARENT 74 63 52 74
REMARK Flexibility Score: inf
ROOT
ATOM      1  C   UNL A   1      44.767  23.892  24.987  1.00  0.00     0.188 C 
ENDROOT
BRANCH   1   2
ATOM      2  C   UNL A   1      43.572  24.382  25.830  1.00  0.00     0.188 C 
BRANCH   2   3
ATOM      3  O   UNL A   1      43.677  25.741  26.213  1.00  0.00    -0.376 OA
BRANCH   3   4
ATOM      4  C   UNL A   1      44.832  26.501  25.910  1.00  0.00     0.202 C 
BRANCH   4   5
ATOM      5  C   UNL A   1      45.412  27.562  26.859  1.00  0.00     0.261 C 
BRANCH   5   6
ATOM      6  O   UNL A   1      45.392  28.914  26.410  1.00  0.00    -0.460 OA
BRANCH   6   7
ATOM      7  C   UNL A   1      44.325  29.666  26.744  1.00  0.00     0.338 C 
ATOM      8  O   UNL A   1      43.192  29.271  26.953  1.00  0.00    -0.246 OA
BRANCH   7   9
ATOM      9  C   UNL A   1      44.792  31.056  26.978  1.00  0.00     0.060 A 
ATOM     10  C   UNL A   1      45.818  33.645  27.263  1.00  0.00     0.060 A 
ATOM     11  C   UNL A   1      45.023  33.323  26.158  1.00  0.00     0.029 A 
ATOM     12  C   UNL A   1      45.951  32.712  28.299  1.00  0.00     0.029 A 
ATOM     13  C   UNL A   1      44.515  32.030  26.011  1.00  0.00     0.018 A 
ATOM     14  C   UNL A   1      45.466  31.414  28.151  1.00  0.00     0.018 A 
BRANCH  10  15
ATOM     15  N   UNL A   1      46.657  34.762  27.255  1.00  0.00    -0.257 N 
ATOM     16  C   UNL A   1      48.585  35.652  27.201  1.00  0.00     0.071 C 
ATOM     17  N   UNL A   1      47.872  34.714  26.658  1.00  0.00    -0.176 NA
ATOM     18  C   UNL A   1      47.959  36.356  28.376  1.00  0.00     0.091 C 
ATOM     19  C   UNL A   1      46.556  35.735  28.358  1.00  0.00     0.144 C 
BRANCH  16  20
ATOM     20  C   UNL A   1      49.912  36.045  26.689  1.00  0.00    -0.002 A 
ATOM     21  C   UNL A   1      52.337  36.877  25.587  1.00  0.00     0.067 A 
ATOM     22  C   UNL A   1      51.389  36.237  24.782  1.00  0.00     0.021 A 
ATOM     23  C   UNL A   1      52.085  37.090  26.947  1.00  0.00     0.021 A 
ATOM     24  C   UNL A   1      50.181  35.816  25.336  1.00  0.00     0.011 A 
ATOM     25  C   UNL A   1      50.863  36.679  27.497  1.00  0.00     0.011 A 
BRANCH  21  26
ATOM     26  S   UNL A   1      53.849  37.404  24.812  1.00  0.00     0.175 S 
ATOM     27  C   UNL A   1      53.943  39.162  24.990  1.00  0.00     0.163 C 
ATOM     28  O   UNL A   1      53.708  37.104  23.401  1.00  0.00    -0.224 OA
ATOM     29  O   UNL A   1      54.935  36.844  25.596  1.00  0.00    -0.224 OA
ENDBRANCH  21  26
ENDBRANCH  16  20
BRANCH  19  30
ATOM     30  C   UNL A   1      45.351  36.655  28.164  1.00  0.00    -0.023 A 
ATOM     31  C   UNL A   1      45.312  37.716  27.247  1.00  0.00     0.009 A 
ATOM     32  C   UNL A   1      44.173  36.380  28.894  1.00  0.00     0.009 A 
ATOM     33  C   UNL A   1      44.134  38.450  27.051  1.00  0.00     0.039 A 
ATOM     34  C   UNL A   1      42.984  37.071  28.657  1.00  0.00     0.039 A 
ATOM     35  C   UNL A   1      42.978  38.105  27.737  1.00  0.00     0.123 A 
ATOM     36  F   UNL A   1      41.841  38.774  27.502  1.00  0.00    -0.207 F 
ENDBRANCH  19  30
ENDBRANCH  10  15
ENDBRANCH   7   9
ENDBRANCH   6   7
ENDBRANCH   5   6
ENDBRANCH   4   5
ENDBRANCH   3   4
ENDBRANCH   2   3
ENDBRANCH   1   2
BRANCH   1  37
ATOM     37  O   UNL A   1      45.124  22.528  25.160  1.00  0.00    -0.377 OA
BRANCH  37  38
ATOM     38  C   UNL A   1      44.109  21.527  25.091  1.00  0.00     0.188 C 
BRANCH  38  39
ATOM     39  C   UNL A   1      43.257  21.092  26.311  1.00  0.00     0.188 C 
BRANCH  39  40
ATOM     40  O   UNL A   1      42.235  20.150  26.031  1.00  0.00    -0.376 OA
BRANCH  40  41
ATOM     41  C   UNL A   1      40.899  20.473  26.361  1.00  0.00     0.202 C 
BRANCH  41  42
ATOM     42  C   UNL A   1      40.511  21.957  26.323  1.00  0.00     0.261 C 
BRANCH  42  43
ATOM     43  O   UNL A   1      39.132  22.250  26.587  1.00  0.00    -0.460 OA
BRANCH  43  44
ATOM     44  C   UNL A   1      38.641  23.400  26.081  1.00  0.00     0.338 C 
ATOM     45  O   UNL A   1      37.755  23.525  25.250  1.00  0.00    -0.246 OA
BRANCH  44  46
ATOM     46  C   UNL A   1      39.240  24.515  26.837  1.00  0.00     0.060 A 
ATOM     47  C   UNL A   1      38.950  24.649  28.201  1.00  0.00     0.016 A 
ATOM     48  C   UNL A   1      40.086  25.424  26.197  1.00  0.00     0.016 A 
ATOM     49  C   UNL A   1      39.468  25.726  28.919  1.00  0.00     0.010 A 
ATOM     50  C   UNL A   1      40.589  26.511  26.913  1.00  0.00     0.010 A 
ATOM     51  C   UNL A   1      40.247  26.689  28.266  1.00  0.00    -0.014 A 
BRANCH  51  52
ATOM     52  C   UNL A   1      40.530  27.982  28.932  1.00  0.00     0.031 A 
ATOM     53  C   UNL A   1      41.878  28.171  29.573  1.00  0.00     0.074 A 
ATOM     54  C   UNL A   1      39.624  28.975  28.955  1.00  0.00     0.049 A 
ATOM     55  N   UNL A   1      42.342  29.190  30.250  1.00  0.00    -0.248 NA
ATOM     56  C   UNL A   1      42.831  27.057  29.433  1.00  0.00     0.031 C 
ATOM     57  C   UNL A   1      38.303  28.934  28.330  1.00  0.00     0.029 A 
ATOM     58  N   UNL A   1      39.685  30.216  29.538  1.00  0.00    -0.354 N 
ATOM     59  C   UNL A   1      43.631  28.835  30.625  1.00  0.00     0.074 A 
ATOM     60  C   UNL A   1      43.866  27.497  30.131  1.00  0.00     0.031 C 
ATOM     61  C   UNL A   1      37.675  30.099  28.569  1.00  0.00     0.029 A 
ATOM     62  C   UNL A   1      38.531  30.948  29.395  1.00  0.00     0.049 A 
ATOM     63  H   UNL A   1      40.480  30.550  30.013  1.00  0.00     0.167 HD
ATOM     64  C   UNL A   1      44.543  29.559  31.316  1.00  0.00     0.031 A 
ATOM     65  C   UNL A   1      38.200  32.154  29.894  1.00  0.00     0.031 A 
ATOM     66  C   UNL A   1      44.303  30.883  31.822  1.00  0.00     0.049 A 
ATOM     67  C   UNL A   1      39.200  32.905  30.736  1.00  0.00     0.074 A 
ATOM     68  C   UNL A   1      45.165  31.707  32.524  1.00  0.00     0.029 A 
ATOM     69  N   UNL A   1      43.106  31.573  31.693  1.00  0.00    -0.354 N 
ATOM     70  N   UNL A   1      40.426  32.572  31.062  1.00  0.00    -0.248 NA
ATOM     71  C   UNL A   1      38.769  34.205  31.272  1.00  0.00     0.031 C 
ATOM     72  C   UNL A   1      44.469  32.867  32.876  1.00  0.00     0.029 A 
ATOM     73  C   UNL A   1      43.198  32.799  32.327  1.00  0.00     0.049 A 
ATOM     74  H   UNL A   1      42.311  31.239  31.218  1.00  0.00     0.167 HD
ATOM     75  C   UNL A   1      40.924  33.636  31.807  1.00  0.00     0.074 A 
ATOM     76  C   UNL A   1      39.872  34.628  31.874  1.00  0.00     0.031 C 
ATOM     77  C   UNL A   1      42.144  33.779  32.382  1.00  0.00     0.031 A 
BRANCH  64  78
ATOM     78  C   UNL A   1      45.871  28.912  31.599  1.00  0.00    -0.014 A 
ATOM     79  C   UNL A   1      46.988  29.138  30.778  1.00  0.00     0.009 A 
ATOM     80  C   UNL A   1      46.013  28.083  32.722  1.00  0.00     0.009 A 
ATOM     81  C   UNL A   1      48.208  28.516  31.056  1.00  0.00     0.001 A 
ATOM     82  C   UNL A   1      47.241  27.490  33.018  1.00  0.00     0.001 A 
ATOM     83  C   UNL A   1      48.335  27.699  32.179  1.00  0.00     0.000 A 
ENDBRANCH  64  78
BRANCH  65  84
ATOM     84  C   UNL A   1      36.852  32.727  29.634  1.00  0.00    -0.014 A 
ATOM     85  C   UNL A   1      35.823  32.602  30.580  1.00  0.00     0.009 A 
ATOM     86  C   UNL A   1      36.579  33.380  28.421  1.00  0.00     0.009 A 
ATOM     87  C   UNL A   1      34.543  33.092  30.305  1.00  0.00     0.001 A 
ATOM     88  C   UNL A   1      35.308  33.899  28.163  1.00  0.00     0.001 A 
ATOM     89  C   UNL A   1      34.288  33.744  29.100  1.00  0.00     0.000 A 
ENDBRANCH  65  84
BRANCH  77  90
ATOM     90  C   UNL A   1      42.430  35.075  33.091  1.00  0.00    -0.014 A 
ATOM     91  C   UNL A   1      41.997  35.310  34.405  1.00  0.00     0.009 A 
ATOM     92  C   UNL A   1      43.192  36.062  32.442  1.00  0.00     0.009 A 
ATOM     93  C   UNL A   1      42.288  36.519  35.040  1.00  0.00     0.001 A 
ATOM     94  C   UNL A   1      43.512  37.255  33.092  1.00  0.00     0.001 A 
ATOM     95  C   UNL A   1      43.050  37.487  34.386  1.00  0.00     0.000 A 
ENDBRANCH  77  90
ENDBRANCH  51  52
ENDBRANCH  44  46
ENDBRANCH  43  44
ENDBRANCH  42  43
ENDBRANCH  41  42
ENDBRANCH  40  41
ENDBRANCH  39  40
ENDBRANCH  38  39
ENDBRANCH  37  38
ENDBRANCH   1  37
TORSDOF 24
ENDMDL
MODEL 3
REMARK VINA RESULT:      -6.8      4.776     12.198
REMARK SMILES CS(=O)(=O)c1ccc(C2=NN(c3ccc(C(=O)OCCOCCOCCOCCOC(=O)c4ccc(-c5c6nc(c(-c7ccccc7)c7ccc([nH]7)c(-c7ccccc7)c7nc(c(-c8ccccc8)c8ccc5[nH]8)C=C7)C=C6)cc4)cc3)[C@H](c3ccc(F)cc3)C2)cc1
REMARK SMILES IDX 23 1 22 2 21 3 20 4 19 5 18 6 16 7 17 8 15 9 12 10 13 11
REMARK SMILES IDX 82 12 14 13 81 14 11 15 9 16 10 17 91 18 83 19 8 20 5 21
REMARK SMILES IDX 6 22 93 23 7 24 92 25 2 26 1 27 3 28 4 29 84 30 85 31 90 32
REMARK SMILES IDX 86 33 89 34 87 35 88 36 24 37 25 38 26 39 27 40 28 41 29 42
REMARK SMILES IDX 30 43 31 44 32 45 33 46 34 47 80 48 35 49 79 50 36 51 37 52
REMARK SMILES IDX 38 53 73 54 39 55 78 56 72 57 74 58 40 59 77 60 71 61 70 62
REMARK SMILES IDX 41 64 63 65 48 66 62 67 49 68 52 69 61 70 75 71 50 72 51 73
REMARK SMILES IDX 60 75 76 76 53 77 42 78 43 79 47 80 44 81 46 82 45 83 64 84
REMARK SMILES IDX 65 85 69 86 66 87 68 88 67 89 54 90 55 91 59 92 56 93 58 94
REMARK SMILES IDX 57 95
REMARK H PARENT 74 63 52 74
REMARK Flexibility Score: inf
ROOT
ATOM      1  C   UNL A   1      45.973  22.843  24.677  1.00  0.00     0.188 C 
ENDROOT
BRANCH   1   2
ATOM      2  C   UNL A   1      44.934  23.390  25.677  1.00  0.00     0.188 C 
BRANCH   2   3
ATOM      3  O   UNL A   1      45.079  24.774  25.936  1.00  0.00    -0.376 OA
BRANCH   3   4
ATOM      4  C   UNL A   1      44.253  25.729  25.297  1.00  0.00     0.202 C 
BRANCH   4   5
ATOM      5  C   UNL A   1      44.582  27.231  25.255  1.00  0.00     0.261 C 
BRANCH   5   6
ATOM      6  O   UNL A   1      44.272  27.994  26.416  1.00  0.00    -0.460 OA
BRANCH   6   7
ATOM      7  C   UNL A   1      45.273  28.244  27.284  1.00  0.00     0.338 C 
ATOM      8  O   UNL A   1      45.994  27.421  27.821  1.00  0.00    -0.246 OA
BRANCH   7   9
ATOM      9  C   UNL A   1      45.466  29.714  27.361  1.00  0.00     0.060 A 
ATOM     10  C   UNL A   1      46.044  32.450  27.497  1.00  0.00     0.060 A 
ATOM     11  C   UNL A   1      46.194  31.761  26.289  1.00  0.00     0.029 A 
ATOM     12  C   UNL A   1      45.445  31.797  28.582  1.00  0.00     0.029 A 
ATOM     13  C   UNL A   1      45.912  30.394  26.220  1.00  0.00     0.018 A 
ATOM     14  C   UNL A   1      45.180  30.430  28.529  1.00  0.00     0.018 A 
BRANCH  10  15
ATOM     15  N   UNL A   1      46.674  33.677  27.718  1.00  0.00    -0.257 N 
ATOM     16  C   UNL A   1      48.405  34.847  28.099  1.00  0.00     0.071 C 
ATOM     17  N   UNL A   1      47.971  33.863  27.374  1.00  0.00    -0.176 NA
ATOM     18  C   UNL A   1      47.462  35.347  29.161  1.00  0.00     0.091 C 
ATOM     19  C   UNL A   1      46.208  34.526  28.830  1.00  0.00     0.144 C 
BRANCH  16  20
ATOM     20  C   UNL A   1      49.722  35.478  27.885  1.00  0.00    -0.002 A 
ATOM     21  C   UNL A   1      52.127  36.828  27.460  1.00  0.00     0.067 A 
ATOM     22  C   UNL A   1      51.076  36.974  26.549  1.00  0.00     0.021 A 
ATOM     23  C   UNL A   1      51.988  35.996  28.577  1.00  0.00     0.021 A 
ATOM     24  C   UNL A   1      49.877  36.293  26.760  1.00  0.00     0.011 A 
ATOM     25  C   UNL A   1      50.776  35.325  28.793  1.00  0.00     0.011 A 
BRANCH  21  26
ATOM     26  S   UNL A   1      53.621  37.739  27.141  1.00  0.00     0.175 S 
ATOM     27  C   UNL A   1      53.413  38.555  25.584  1.00  0.00     0.163 C 
ATOM     28  O   UNL A   1      54.674  36.753  26.992  1.00  0.00    -0.224 OA
ATOM     29  O   UNL A   1      53.699  38.777  28.152  1.00  0.00    -0.224 OA
ENDBRANCH  21  26
ENDBRANCH  16  20
BRANCH  19  30
ATOM     30  C   UNL A   1      44.927  35.268  28.448  1.00  0.00    -0.023 A 
ATOM     31  C   UNL A   1      43.669  35.004  29.010  1.00  0.00     0.009 A 
ATOM     32  C   UNL A   1      45.020  36.337  27.529  1.00  0.00     0.009 A 
ATOM     33  C   UNL A   1      42.560  35.796  28.686  1.00  0.00     0.039 A 
ATOM     34  C   UNL A   1      43.930  37.163  27.252  1.00  0.00     0.039 A 
ATOM     35  C   UNL A   1      42.706  36.881  27.833  1.00  0.00     0.123 A 
ATOM     36  F   UNL A   1      41.654  37.669  27.573  1.00  0.00    -0.207 F 
ENDBRANCH  19  30
ENDBRANCH  10  15
ENDBRANCH   7   9
ENDBRANCH   6   7
ENDBRANCH   5   6
ENDBRANCH   4   5
ENDBRANCH   3   4
ENDBRANCH   2   3
ENDBRANCH   1   2
BRANCH   1  37
ATOM     37  O   UNL A   1      46.097  21.430  24.629  1.00  0.00    -0.377 OA
BRANCH  37  38
ATOM     38  C   UNL A   1      44.945  20.638  24.339  1.00  0.00     0.188 C 
BRANCH  38  39
ATOM     39  C   UNL A   1      44.221  19.767  25.397  1.00  0.00     0.188 C 
BRANCH  39  40
ATOM     40  O   UNL A   1      42.840  19.548  25.160  1.00  0.00    -0.376 OA
BRANCH  40  41
ATOM     41  C   UNL A   1      41.900  20.031  26.099  1.00  0.00     0.202 C 
BRANCH  41  42
ATOM     42  C   UNL A   1      41.732  21.553  26.197  1.00  0.00     0.261 C 
BRANCH  42  43
ATOM     43  O   UNL A   1      40.672  22.012  27.048  1.00  0.00    -0.460 OA
BRANCH  43  44
ATOM     44  C   UNL A   1      39.719  22.778  26.481  1.00  0.00     0.338 C 
ATOM     45  O   UNL A   1      38.836  22.420  25.716  1.00  0.00    -0.246 OA
BRANCH  44  46
ATOM     46  C   UNL A   1      39.807  24.122  27.083  1.00  0.00     0.060 A 
ATOM     47  C   UNL A   1      40.619  25.090  26.476  1.00  0.00     0.016 A 
ATOM     48  C   UNL A   1      39.089  24.421  28.243  1.00  0.00     0.016 A 
ATOM     49  C   UNL A   1      40.753  26.349  27.060  1.00  0.00     0.010 A 
ATOM     50  C   UNL A   1      39.239  25.676  28.835  1.00  0.00     0.010 A 
ATOM     51  C   UNL A   1      40.104  26.630  28.269  1.00  0.00    -0.014 A 
BRANCH  51  52
ATOM     52  C   UNL A   1      40.488  27.829  29.049  1.00  0.00     0.031 A 
ATOM     53  C   UNL A   1      39.514  28.974  29.117  1.00  0.00     0.074 A 
ATOM     54  C   UNL A   1      41.663  27.901  29.698  1.00  0.00     0.049 A 
ATOM     55  N   UNL A   1      39.640  30.141  29.696  1.00  0.00    -0.248 NA
ATOM     56  C   UNL A   1      38.223  28.776  28.437  1.00  0.00     0.031 C 
ATOM     57  C   UNL A   1      42.670  26.841  29.750  1.00  0.00     0.029 A 
ATOM     58  N   UNL A   1      42.206  28.921  30.437  1.00  0.00    -0.354 N 
ATOM     59  C   UNL A   1      38.454  30.817  29.439  1.00  0.00     0.074 A 
ATOM     60  C   UNL A   1      37.635  29.946  28.626  1.00  0.00     0.031 C 
ATOM     61  C   UNL A   1      43.714  27.273  30.480  1.00  0.00     0.029 A 
ATOM     62  C   UNL A   1      43.466  28.647  30.911  1.00  0.00     0.049 A 
ATOM     63  H   UNL A   1      41.737  29.769  30.612  1.00  0.00     0.167 HD
ATOM     64  C   UNL A   1      38.077  32.050  29.848  1.00  0.00     0.031 A 
ATOM     65  C   UNL A   1      44.326  29.427  31.594  1.00  0.00     0.031 A 
ATOM     66  C   UNL A   1      38.899  32.923  30.641  1.00  0.00     0.049 A 
ATOM     67  C   UNL A   1      43.918  30.831  31.962  1.00  0.00     0.074 A 
ATOM     68  C   UNL A   1      38.604  34.188  31.118  1.00  0.00     0.029 A 
ATOM     69  N   UNL A   1      40.186  32.624  31.065  1.00  0.00    -0.354 N 
ATOM     70  N   UNL A   1      42.783  31.451  31.738  1.00  0.00    -0.248 NA
ATOM     71  C   UNL A   1      44.911  31.639  32.685  1.00  0.00     0.031 C 
ATOM     72  C   UNL A   1      39.737  34.681  31.773  1.00  0.00     0.029 A 
ATOM     73  C   UNL A   1      40.709  33.694  31.771  1.00  0.00     0.049 A 
ATOM     74  H   UNL A   1      40.656  31.777  30.890  1.00  0.00     0.167 HD
ATOM     75  C   UNL A   1      42.913  32.705  32.325  1.00  0.00     0.074 A 
ATOM     76  C   UNL A   1      44.230  32.753  32.924  1.00  0.00     0.031 C 
ATOM     77  C   UNL A   1      42.021  33.725  32.366  1.00  0.00     0.031 A 
BRANCH  64  78
ATOM     78  C   UNL A   1      36.727  32.545  29.404  1.00  0.00    -0.014 A 
ATOM     79  C   UNL A   1      36.528  33.084  28.122  1.00  0.00     0.009 A 
ATOM     80  C   UNL A   1      35.631  32.445  30.275  1.00  0.00     0.009 A 
ATOM     81  C   UNL A   1      35.267  33.546  27.738  1.00  0.00     0.001 A 
ATOM     82  C   UNL A   1      34.365  32.876  29.876  1.00  0.00     0.001 A 
ATOM     83  C   UNL A   1      34.186  33.436  28.612  1.00  0.00     0.000 A 
ENDBRANCH  64  78
BRANCH  65  84
ATOM     84  C   UNL A   1      45.673  28.912  31.962  1.00  0.00    -0.014 A 
ATOM     85  C   UNL A   1      45.884  28.263  33.188  1.00  0.00     0.009 A 
ATOM     86  C   UNL A   1      46.763  29.093  31.097  1.00  0.00     0.009 A 
ATOM     87  C   UNL A   1      47.163  27.834  33.553  1.00  0.00     0.001 A 
ATOM     88  C   UNL A   1      48.035  28.633  31.448  1.00  0.00     0.001 A 
ATOM     89  C   UNL A   1      48.235  28.014  32.681  1.00  0.00     0.000 A 
ENDBRANCH  65  84
BRANCH  77  90
ATOM     90  C   UNL A   1      42.414  34.962  33.127  1.00  0.00    -0.014 A 
ATOM     91  C   UNL A   1      41.949  35.206  34.429  1.00  0.00     0.009 A 
ATOM     92  C   UNL A   1      43.307  35.876  32.545  1.00  0.00     0.009 A 
ATOM     93  C   UNL A   1      42.341  36.358  35.115  1.00  0.00     0.001 A 
ATOM     94  C   UNL A   1      43.725  37.008  33.247  1.00  0.00     0.001 A 
ATOM     95  C   UNL A   1      43.232  37.254  34.526  1.00  0.00     0.000 A 
ENDBRANCH  77  90
ENDBRANCH  51  52
ENDBRANCH  44  46
ENDBRANCH  43  44
ENDBRANCH  42  43
ENDBRANCH  41  42
ENDBRANCH  40  41
ENDBRANCH  39  40
ENDBRANCH  38  39
ENDBRANCH  37  38
ENDBRANCH   1  37
TORSDOF 24
ENDMDL
