MODEL 1
REMARK VINA RESULT:     -11.3      0.000      0.000
REMARK SMILES COc1cc2ccccc2cc1C(=O)Nc1cc(C(=O)OCCOCCOCCOCCOC(=O)c2ccc(-c3c4nc(c(-c5ccccc5)c5ccc([nH]5)c(-c5ccccc5)c5nc(c(-c6ccccc6)c6ccc3[nH]6)C=C5)C=C4)cc2)ccc1C
REMARK SMILES IDX 26 1 25 2 24 3 23 4 22 5 21 6 19 7 20 8 18 9 16 10 17 11
REMARK SMILES IDX 86 12 85 13 87 14 84 15 15 16 13 17 14 18 12 20 3 21 4 22
REMARK SMILES IDX 5 23 11 24 6 25 10 26 7 27 9 28 8 29 2 30 1 31 27 32 28 33
REMARK SMILES IDX 29 34 30 35 31 36 32 37 33 38 34 39 35 40 36 41 37 42 83 43
REMARK SMILES IDX 38 44 82 45 39 46 40 47 41 48 76 49 42 50 81 51 75 52 77 53
REMARK SMILES IDX 43 54 80 55 74 56 73 57 44 59 66 60 51 61 65 62 52 63 55 64
REMARK SMILES IDX 64 65 78 66 53 67 54 68 63 70 79 71 56 72 45 73 46 74 50 75
REMARK SMILES IDX 47 76 49 77 48 78 67 79 68 80 72 81 69 82 71 83 70 84 57 85
REMARK SMILES IDX 58 86 62 87 59 88 61 89 60 90
REMARK H PARENT 15 19 77 58 55 69
REMARK Flexibility Score: inf
ROOT
ATOM      1  C   UNL A   1      40.242  22.224  26.575  1.00  0.00     0.188 C 
ENDROOT
BRANCH   1   2
ATOM      2  C   UNL A   1      38.774  22.268  26.094  1.00  0.00     0.188 C 
BRANCH   2   3
ATOM      3  O   UNL A   1      38.102  23.484  25.812  1.00  0.00    -0.376 OA
BRANCH   3   4
ATOM      4  C   UNL A   1      36.811  23.419  25.207  1.00  0.00     0.202 C 
BRANCH   4   5
ATOM      5  C   UNL A   1      35.723  22.559  25.833  1.00  0.00     0.261 C 
BRANCH   5   6
ATOM      6  O   UNL A   1      34.540  23.348  25.934  1.00  0.00    -0.460 OA
BRANCH   6   7
ATOM      7  C   UNL A   1      33.422  22.651  25.658  1.00  0.00     0.338 C 
ATOM      8  O   UNL A   1      32.810  21.904  26.387  1.00  0.00    -0.246 OA
BRANCH   7   9
ATOM      9  C   UNL A   1      32.864  23.264  24.445  1.00  0.00     0.062 A 
ATOM     10  C   UNL A   1      31.076  24.381  23.345  1.00  0.00     0.045 A 
ATOM     11  C   UNL A   1      31.495  23.452  24.287  1.00  0.00     0.042 A 
ATOM     12  C   UNL A   1      31.983  24.837  22.356  1.00  0.00    -0.027 A 
ATOM     13  C   UNL A   1      33.325  24.424  22.402  1.00  0.00     0.006 A 
ATOM     14  C   UNL A   1      31.697  25.961  21.397  1.00  0.00     0.046 C 
ATOM     15  C   UNL A   1      33.780  23.712  23.494  1.00  0.00     0.016 A 
BRANCH  10  16
ATOM     16  N   UNL A   1      29.811  24.975  23.442  1.00  0.00    -0.322 N 
ATOM     17  C   UNL A   1      29.370  26.196  23.912  1.00  0.00     0.259 C 
ATOM     18  O   UNL A   1      28.141  26.345  23.915  1.00  0.00    -0.269 OA
ATOM     19  H   UNL A   1      29.085  24.402  23.105  1.00  0.00     0.170 HD
BRANCH  17  20
ATOM     20  C   UNL A   1      30.206  27.367  24.355  1.00  0.00     0.082 A 
ATOM     21  C   UNL A   1      30.260  28.663  23.827  1.00  0.00     0.132 A 
ATOM     22  C   UNL A   1      31.233  29.571  24.272  1.00  0.00     0.056 A 
ATOM     23  C   UNL A   1      32.061  29.292  25.365  1.00  0.00    -0.015 A 
ATOM     24  C   UNL A   1      31.011  27.113  25.493  1.00  0.00     0.026 A 
ATOM     25  C   UNL A   1      33.008  30.221  25.832  1.00  0.00     0.009 A 
ATOM     26  C   UNL A   1      31.916  28.060  26.021  1.00  0.00    -0.017 A 
ATOM     27  C   UNL A   1      33.796  29.945  26.945  1.00  0.00     0.001 A 
ATOM     28  C   UNL A   1      32.680  27.817  27.176  1.00  0.00     0.009 A 
ATOM     29  C   UNL A   1      33.612  28.755  27.635  1.00  0.00     0.001 A 
BRANCH  21  30
ATOM     30  O   UNL A   1      29.517  29.180  22.810  1.00  0.00    -0.496 OA
ATOM     31  C   UNL A   1      28.851  30.400  23.092  1.00  0.00     0.278 C 
ENDBRANCH  21  30
ENDBRANCH  17  20
ENDBRANCH  10  16
ENDBRANCH   7   9
ENDBRANCH   6   7
ENDBRANCH   5   6
ENDBRANCH   4   5
ENDBRANCH   3   4
ENDBRANCH   2   3
ENDBRANCH   1   2
BRANCH   1  32
ATOM     32  O   UNL A   1      40.615  21.668  27.824  1.00  0.00    -0.377 OA
BRANCH  32  33
ATOM     33  C   UNL A   1      41.324  20.436  27.832  1.00  0.00     0.188 C 
BRANCH  33  34
ATOM     34  C   UNL A   1      41.511  19.701  26.500  1.00  0.00     0.188 C 
BRANCH  34  35
ATOM     35  O   UNL A   1      42.562  18.743  26.577  1.00  0.00    -0.376 OA
BRANCH  35  36
ATOM     36  C   UNL A   1      43.246  18.418  25.367  1.00  0.00     0.202 C 
BRANCH  36  37
ATOM     37  C   UNL A   1      44.719  18.838  25.313  1.00  0.00     0.261 C 
BRANCH  37  38
ATOM     38  O   UNL A   1      44.890  19.891  24.349  1.00  0.00    -0.460 OA
BRANCH  38  39
ATOM     39  C   UNL A   1      45.458  21.022  24.841  1.00  0.00     0.338 C 
ATOM     40  O   UNL A   1      46.644  21.171  25.084  1.00  0.00    -0.246 OA
BRANCH  39  41
ATOM     41  C   UNL A   1      44.395  21.945  25.330  1.00  0.00     0.060 A 
ATOM     42  C   UNL A   1      43.854  22.892  24.448  1.00  0.00     0.016 A 
ATOM     43  C   UNL A   1      44.252  22.124  26.699  1.00  0.00     0.016 A 
ATOM     44  C   UNL A   1      43.398  24.123  24.936  1.00  0.00     0.010 A 
ATOM     45  C   UNL A   1      43.912  23.377  27.158  1.00  0.00     0.010 A 
ATOM     46  C   UNL A   1      43.558  24.416  26.287  1.00  0.00    -0.014 A 
BRANCH  46  47
ATOM     47  C   UNL A   1      43.553  25.774  26.865  1.00  0.00     0.031 A 
ATOM     48  C   UNL A   1      42.255  26.528  26.913  1.00  0.00     0.074 A 
ATOM     49  C   UNL A   1      44.604  26.161  27.645  1.00  0.00     0.049 A 
ATOM     50  N   UNL A   1      42.107  27.678  27.464  1.00  0.00    -0.248 NA
ATOM     51  C   UNL A   1      40.977  26.025  26.401  1.00  0.00     0.031 C 
ATOM     52  C   UNL A   1      44.636  27.228  28.653  1.00  0.00     0.029 A 
ATOM     53  N   UNL A   1      45.907  25.678  27.728  1.00  0.00    -0.354 N 
ATOM     54  C   UNL A   1      40.765  27.923  27.667  1.00  0.00     0.074 A 
ATOM     55  C   UNL A   1      40.094  26.872  26.950  1.00  0.00     0.031 C 
ATOM     56  C   UNL A   1      45.888  27.449  29.086  1.00  0.00     0.029 A 
ATOM     57  C   UNL A   1      46.740  26.708  28.193  1.00  0.00     0.049 A 
ATOM     58  H   UNL A   1      46.196  24.766  27.499  1.00  0.00     0.167 HD
ATOM     59  C   UNL A   1      40.418  28.941  28.508  1.00  0.00     0.031 A 
ATOM     60  C   UNL A   1      47.648  27.320  27.373  1.00  0.00     0.031 A 
ATOM     61  C   UNL A   1      41.601  29.734  28.858  1.00  0.00     0.049 A 
ATOM     62  C   UNL A   1      47.159  28.730  27.024  1.00  0.00     0.074 A 
ATOM     63  C   UNL A   1      42.278  29.964  30.038  1.00  0.00     0.029 A 
ATOM     64  N   UNL A   1      42.427  30.195  27.828  1.00  0.00    -0.354 N 
ATOM     65  N   UNL A   1      45.895  29.091  27.074  1.00  0.00    -0.248 NA
ATOM     66  C   UNL A   1      48.032  29.873  26.771  1.00  0.00     0.031 C 
ATOM     67  C   UNL A   1      43.577  30.415  29.683  1.00  0.00     0.029 A 
ATOM     68  C   UNL A   1      43.673  30.543  28.306  1.00  0.00     0.049 A 
ATOM     69  H   UNL A   1      42.154  30.264  26.885  1.00  0.00     0.167 HD
ATOM     70  C   UNL A   1      45.796  30.457  27.086  1.00  0.00     0.074 A 
ATOM     71  C   UNL A   1      47.155  30.896  26.800  1.00  0.00     0.031 C 
ATOM     72  C   UNL A   1      44.666  31.159  27.423  1.00  0.00     0.031 A 
BRANCH  59  73
ATOM     73  C   UNL A   1      39.071  29.165  29.174  1.00  0.00    -0.014 A 
ATOM     74  C   UNL A   1      38.864  28.695  30.491  1.00  0.00     0.009 A 
ATOM     75  C   UNL A   1      37.951  29.755  28.566  1.00  0.00     0.009 A 
ATOM     76  C   UNL A   1      37.628  28.793  31.151  1.00  0.00     0.001 A 
ATOM     77  C   UNL A   1      36.714  29.876  29.229  1.00  0.00     0.001 A 
ATOM     78  C   UNL A   1      36.550  29.392  30.519  1.00  0.00     0.000 A 
ENDBRANCH  59  73
BRANCH  60  79
ATOM     79  C   UNL A   1      48.433  26.299  26.608  1.00  0.00    -0.014 A 
ATOM     80  C   UNL A   1      48.617  26.633  25.241  1.00  0.00     0.009 A 
ATOM     81  C   UNL A   1      49.447  25.563  27.240  1.00  0.00     0.009 A 
ATOM     82  C   UNL A   1      49.877  26.527  24.640  1.00  0.00     0.001 A 
ATOM     83  C   UNL A   1      50.697  25.415  26.607  1.00  0.00     0.001 A 
ATOM     84  C   UNL A   1      50.935  25.971  25.349  1.00  0.00     0.000 A 
ENDBRANCH  60  79
BRANCH  72  85
ATOM     85  C   UNL A   1      44.380  32.588  27.007  1.00  0.00    -0.014 A 
ATOM     86  C   UNL A   1      44.219  32.999  25.682  1.00  0.00     0.009 A 
ATOM     87  C   UNL A   1      44.060  33.546  28.004  1.00  0.00     0.009 A 
ATOM     88  C   UNL A   1      43.801  34.298  25.367  1.00  0.00     0.001 A 
ATOM     89  C   UNL A   1      43.579  34.818  27.697  1.00  0.00     0.001 A 
ATOM     90  C   UNL A   1      43.463  35.200  26.372  1.00  0.00     0.000 A 
ENDBRANCH  72  85
ENDBRANCH  46  47
ENDBRANCH  39  41
ENDBRANCH  38  39
ENDBRANCH  37  38
ENDBRANCH  36  37
ENDBRANCH  35  36
ENDBRANCH  34  35
ENDBRANCH  33  34
ENDBRANCH  32  33
ENDBRANCH   1  32
TORSDOF 23
ENDMDL
MODEL 2
REMARK VINA RESULT:     -11.2      1.370      2.514
REMARK SMILES COc1cc2ccccc2cc1C(=O)Nc1cc(C(=O)OCCOCCOCCOCCOC(=O)c2ccc(-c3c4nc(c(-c5ccccc5)c5ccc([nH]5)c(-c5ccccc5)c5nc(c(-c6ccccc6)c6ccc3[nH]6)C=C5)C=C4)cc2)ccc1C
REMARK SMILES IDX 26 1 25 2 24 3 23 4 22 5 21 6 19 7 20 8 18 9 16 10 17 11
REMARK SMILES IDX 86 12 85 13 87 14 84 15 15 16 13 17 14 18 12 20 3 21 4 22
REMARK SMILES IDX 5 23 11 24 6 25 10 26 7 27 9 28 8 29 2 30 1 31 27 32 28 33
REMARK SMILES IDX 29 34 30 35 31 36 32 37 33 38 34 39 35 40 36 41 37 42 83 43
REMARK SMILES IDX 38 44 82 45 39 46 40 47 41 48 76 49 42 50 81 51 75 52 77 53
REMARK SMILES IDX 43 54 80 55 74 56 73 57 44 59 66 60 51 61 65 62 52 63 55 64
REMARK SMILES IDX 64 65 78 66 53 67 54 68 63 70 79 71 56 72 45 73 46 74 50 75
REMARK SMILES IDX 47 76 49 77 48 78 67 79 68 80 72 81 69 82 71 83 70 84 57 85
REMARK SMILES IDX 58 86 62 87 59 88 61 89 60 90
REMARK H PARENT 15 19 77 58 55 69
REMARK Flexibility Score: inf
ROOT
ATOM      1  C   UNL A   1      40.075  22.163  27.187  1.00  0.00     0.188 C 
ENDROOT
BRANCH   1   2
ATOM      2  C   UNL A   1      39.031  22.438  26.081  1.00  0.00     0.188 C 
BRANCH   2   3
ATOM      3  O   UNL A   1      38.120  21.450  25.632  1.00  0.00    -0.376 OA
BRANCH   3   4
ATOM      4  C   UNL A   1      36.723  21.720  25.737  1.00  0.00     0.202 C 
BRANCH   4   5
ATOM      5  C   UNL A   1      35.898  21.950  24.480  1.00  0.00     0.261 C 
BRANCH   5   6
ATOM      6  O   UNL A   1      35.901  23.348  24.200  1.00  0.00    -0.460 OA
BRANCH   6   7
ATOM      7  C   UNL A   1      34.792  23.755  23.555  1.00  0.00     0.338 C 
ATOM      8  O   UNL A   1      34.392  23.407  22.467  1.00  0.00    -0.246 OA
BRANCH   7   9
ATOM      9  C   UNL A   1      33.955  24.401  24.577  1.00  0.00     0.062 A 
ATOM     10  C   UNL A   1      33.362  26.339  25.820  1.00  0.00     0.045 A 
ATOM     11  C   UNL A   1      34.346  25.582  25.197  1.00  0.00     0.042 A 
ATOM     12  C   UNL A   1      32.106  25.752  26.114  1.00  0.00    -0.027 A 
ATOM     13  C   UNL A   1      31.831  24.445  25.680  1.00  0.00     0.006 A 
ATOM     14  C   UNL A   1      30.914  26.515  26.626  1.00  0.00     0.046 C 
ATOM     15  C   UNL A   1      32.721  23.807  24.838  1.00  0.00     0.016 A 
BRANCH  10  16
ATOM     16  N   UNL A   1      33.548  27.710  26.037  1.00  0.00    -0.322 N 
ATOM     17  C   UNL A   1      33.018  28.843  25.452  1.00  0.00     0.259 C 
ATOM     18  O   UNL A   1      33.489  29.914  25.860  1.00  0.00    -0.269 OA
ATOM     19  H   UNL A   1      34.190  27.906  26.757  1.00  0.00     0.170 HD
BRANCH  17  20
ATOM     20  C   UNL A   1      31.910  28.922  24.437  1.00  0.00     0.082 A 
ATOM     21  C   UNL A   1      31.651  28.084  23.346  1.00  0.00     0.132 A 
ATOM     22  C   UNL A   1      30.662  28.422  22.409  1.00  0.00     0.056 A 
ATOM     23  C   UNL A   1      29.786  29.493  22.612  1.00  0.00    -0.015 A 
ATOM     24  C   UNL A   1      30.985  29.972  24.662  1.00  0.00     0.026 A 
ATOM     25  C   UNL A   1      28.772  29.804  21.690  1.00  0.00     0.009 A 
ATOM     26  C   UNL A   1      29.916  30.255  23.783  1.00  0.00    -0.017 A 
ATOM     27  C   UNL A   1      27.883  30.848  21.925  1.00  0.00     0.001 A 
ATOM     28  C   UNL A   1      28.977  31.271  24.034  1.00  0.00     0.009 A 
ATOM     29  C   UNL A   1      27.967  31.564  23.111  1.00  0.00     0.001 A 
BRANCH  21  30
ATOM     30  O   UNL A   1      32.326  26.957  22.982  1.00  0.00    -0.496 OA
ATOM     31  C   UNL A   1      31.954  26.393  21.736  1.00  0.00     0.278 C 
ENDBRANCH  21  30
ENDBRANCH  17  20
ENDBRANCH  10  16
ENDBRANCH   7   9
ENDBRANCH   6   7
ENDBRANCH   5   6
ENDBRANCH   4   5
ENDBRANCH   3   4
ENDBRANCH   2   3
ENDBRANCH   1   2
BRANCH   1  32
ATOM     32  O   UNL A   1      40.673  20.890  27.368  1.00  0.00    -0.377 OA
BRANCH  32  33
ATOM     33  C   UNL A   1      41.263  20.254  26.243  1.00  0.00     0.188 C 
BRANCH  33  34
ATOM     34  C   UNL A   1      41.753  18.810  26.403  1.00  0.00     0.188 C 
BRANCH  34  35
ATOM     35  O   UNL A   1      42.637  18.441  25.349  1.00  0.00    -0.376 OA
BRANCH  35  36
ATOM     36  C   UNL A   1      44.038  18.565  25.593  1.00  0.00     0.202 C 
BRANCH  36  37
ATOM     37  C   UNL A   1      44.878  18.996  24.385  1.00  0.00     0.261 C 
BRANCH  37  38
ATOM     38  O   UNL A   1      44.590  20.366  24.058  1.00  0.00    -0.460 OA
BRANCH  38  39
ATOM     39  C   UNL A   1      45.150  21.278  24.894  1.00  0.00     0.338 C 
ATOM     40  O   UNL A   1      46.263  21.197  25.387  1.00  0.00    -0.246 OA
BRANCH  39  41
ATOM     41  C   UNL A   1      44.107  22.230  25.367  1.00  0.00     0.060 A 
ATOM     42  C   UNL A   1      43.636  23.219  24.491  1.00  0.00     0.016 A 
ATOM     43  C   UNL A   1      43.921  22.382  26.735  1.00  0.00     0.016 A 
ATOM     44  C   UNL A   1      43.211  24.455  24.994  1.00  0.00     0.010 A 
ATOM     45  C   UNL A   1      43.613  23.637  27.213  1.00  0.00     0.010 A 
ATOM     46  C   UNL A   1      43.333  24.709  26.356  1.00  0.00    -0.014 A 
BRANCH  46  47
ATOM     47  C   UNL A   1      43.359  26.052  26.968  1.00  0.00     0.031 A 
ATOM     48  C   UNL A   1      42.065  26.798  27.115  1.00  0.00     0.074 A 
ATOM     49  C   UNL A   1      44.456  26.425  27.690  1.00  0.00     0.049 A 
ATOM     50  N   UNL A   1      41.948  27.934  27.704  1.00  0.00    -0.248 NA
ATOM     51  C   UNL A   1      40.758  26.302  26.673  1.00  0.00     0.031 C 
ATOM     52  C   UNL A   1      44.548  27.466  28.721  1.00  0.00     0.029 A 
ATOM     53  N   UNL A   1      45.763  25.947  27.679  1.00  0.00    -0.354 N 
ATOM     54  C   UNL A   1      40.621  28.168  27.996  1.00  0.00     0.074 A 
ATOM     55  C   UNL A   1      39.909  27.131  27.297  1.00  0.00     0.031 C 
ATOM     56  C   UNL A   1      45.824  27.682  29.079  1.00  0.00     0.029 A 
ATOM     57  C   UNL A   1      46.621  26.968  28.117  1.00  0.00     0.049 A 
ATOM     58  H   UNL A   1      46.041  25.041  27.409  1.00  0.00     0.167 HD
ATOM     59  C   UNL A   1      40.324  29.163  28.884  1.00  0.00     0.031 A 
ATOM     60  C   UNL A   1      47.473  27.605  27.257  1.00  0.00     0.031 A 
ATOM     61  C   UNL A   1      41.524  29.951  29.178  1.00  0.00     0.049 A 
ATOM     62  C   UNL A   1      46.959  29.021  26.975  1.00  0.00     0.074 A 
ATOM     63  C   UNL A   1      42.273  30.155  30.319  1.00  0.00     0.029 A 
ATOM     64  N   UNL A   1      42.282  30.443  28.111  1.00  0.00    -0.354 N 
ATOM     65  N   UNL A   1      45.699  29.375  27.113  1.00  0.00    -0.248 NA
ATOM     66  C   UNL A   1      47.811  30.174  26.698  1.00  0.00     0.031 C 
ATOM     67  C   UNL A   1      43.545  30.622  29.896  1.00  0.00     0.029 A 
ATOM     68  C   UNL A   1      43.555  30.784  28.519  1.00  0.00     0.049 A 
ATOM     69  H   UNL A   1      41.950  30.534  27.189  1.00  0.00     0.167 HD
ATOM     70  C   UNL A   1      45.597  30.740  27.166  1.00  0.00     0.074 A 
ATOM     71  C   UNL A   1      46.934  31.192  26.807  1.00  0.00     0.031 C 
ATOM     72  C   UNL A   1      44.488  31.427  27.591  1.00  0.00     0.031 A 
BRANCH  59  73
ATOM     73  C   UNL A   1      39.020  29.363  29.638  1.00  0.00    -0.014 A 
ATOM     74  C   UNL A   1      38.059  30.268  29.130  1.00  0.00     0.009 A 
ATOM     75  C   UNL A   1      38.691  28.768  30.867  1.00  0.00     0.009 A 
ATOM     76  C   UNL A   1      36.864  30.567  29.802  1.00  0.00     0.001 A 
ATOM     77  C   UNL A   1      37.484  29.048  31.537  1.00  0.00     0.001 A 
ATOM     78  C   UNL A   1      36.572  29.950  31.008  1.00  0.00     0.000 A 
ENDBRANCH  59  73
BRANCH  60  79
ATOM     79  C   UNL A   1      48.212  26.607  26.419  1.00  0.00    -0.014 A 
ATOM     80  C   UNL A   1      48.254  26.945  25.041  1.00  0.00     0.009 A 
ATOM     81  C   UNL A   1      49.304  25.903  26.949  1.00  0.00     0.009 A 
ATOM     82  C   UNL A   1      49.453  26.876  24.321  1.00  0.00     0.001 A 
ATOM     83  C   UNL A   1      50.492  25.793  26.199  1.00  0.00     0.001 A 
ATOM     84  C   UNL A   1      50.590  26.354  24.924  1.00  0.00     0.000 A 
ENDBRANCH  60  79
BRANCH  72  85
ATOM     85  C   UNL A   1      44.172  32.865  27.230  1.00  0.00    -0.014 A 
ATOM     86  C   UNL A   1      43.930  33.309  25.928  1.00  0.00     0.009 A 
ATOM     87  C   UNL A   1      43.908  33.795  28.269  1.00  0.00     0.009 A 
ATOM     88  C   UNL A   1      43.489  34.613  25.673  1.00  0.00     0.001 A 
ATOM     89  C   UNL A   1      43.405  35.072  28.025  1.00  0.00     0.001 A 
ATOM     90  C   UNL A   1      43.208  35.487  26.720  1.00  0.00     0.000 A 
ENDBRANCH  72  85
ENDBRANCH  46  47
ENDBRANCH  39  41
ENDBRANCH  38  39
ENDBRANCH  37  38
ENDBRANCH  36  37
ENDBRANCH  35  36
ENDBRANCH  34  35
ENDBRANCH  33  34
ENDBRANCH  32  33
ENDBRANCH   1  32
TORSDOF 23
ENDMDL
MODEL 3
REMARK VINA RESULT:     -10.5      2.081      3.741
REMARK SMILES COc1cc2ccccc2cc1C(=O)Nc1cc(C(=O)OCCOCCOCCOCCOC(=O)c2ccc(-c3c4nc(c(-c5ccccc5)c5ccc([nH]5)c(-c5ccccc5)c5nc(c(-c6ccccc6)c6ccc3[nH]6)C=C5)C=C4)cc2)ccc1C
REMARK SMILES IDX 26 1 25 2 24 3 23 4 22 5 21 6 19 7 20 8 18 9 16 10 17 11
REMARK SMILES IDX 86 12 85 13 87 14 84 15 15 16 13 17 14 18 12 20 3 21 4 22
REMARK SMILES IDX 5 23 11 24 6 25 10 26 7 27 9 28 8 29 2 30 1 31 27 32 28 33
REMARK SMILES IDX 29 34 30 35 31 36 32 37 33 38 34 39 35 40 36 41 37 42 83 43
REMARK SMILES IDX 38 44 82 45 39 46 40 47 41 48 76 49 42 50 81 51 75 52 77 53
REMARK SMILES IDX 43 54 80 55 74 56 73 57 44 59 66 60 51 61 65 62 52 63 55 64
REMARK SMILES IDX 64 65 78 66 53 67 54 68 63 70 79 71 56 72 45 73 46 74 50 75
REMARK SMILES IDX 47 76 49 77 48 78 67 79 68 80 72 81 69 82 71 83 70 84 57 85
REMARK SMILES IDX 58 86 62 87 59 88 61 89 60 90
REMARK H PARENT 15 19 77 58 55 69
REMARK Flexibility Score: inf
ROOT
ATOM      1  C   UNL A   1      42.076  18.656  25.953  1.00  0.00     0.188 C 
ENDROOT
BRANCH   1   2
ATOM      2  C   UNL A   1      42.149  19.609  27.167  1.00  0.00     0.188 C 
BRANCH   2   3
ATOM      3  O   UNL A   1      41.131  20.552  27.457  1.00  0.00    -0.376 OA
BRANCH   3   4
ATOM      4  C   UNL A   1      40.142  20.809  26.460  1.00  0.00     0.202 C 
BRANCH   4   5
ATOM      5  C   UNL A   1      39.318  22.087  26.522  1.00  0.00     0.261 C 
BRANCH   5   6
ATOM      6  O   UNL A   1      38.303  22.005  25.524  1.00  0.00    -0.460 OA
BRANCH   6   7
ATOM      7  C   UNL A   1      37.251  22.804  25.782  1.00  0.00     0.338 C 
ATOM      8  O   UNL A   1      37.186  24.008  25.676  1.00  0.00    -0.246 OA
BRANCH   7   9
ATOM      9  C   UNL A   1      36.084  21.914  25.839  1.00  0.00     0.062 A 
ATOM     10  C   UNL A   1      33.810  21.545  26.430  1.00  0.00     0.045 A 
ATOM     11  C   UNL A   1      35.025  22.157  26.707  1.00  0.00     0.042 A 
ATOM     12  C   UNL A   1      33.763  20.456  25.523  1.00  0.00    -0.027 A 
ATOM     13  C   UNL A   1      34.927  20.074  24.837  1.00  0.00     0.006 A 
ATOM     14  C   UNL A   1      32.491  19.831  25.016  1.00  0.00     0.046 C 
ATOM     15  C   UNL A   1      36.060  20.857  24.929  1.00  0.00     0.016 A 
BRANCH  10  16
ATOM     16  N   UNL A   1      32.613  22.077  26.927  1.00  0.00    -0.322 N 
ATOM     17  C   UNL A   1      31.943  23.265  26.714  1.00  0.00     0.259 C 
ATOM     18  O   UNL A   1      30.929  23.427  27.406  1.00  0.00    -0.269 OA
ATOM     19  H   UNL A   1      32.156  21.479  27.561  1.00  0.00     0.170 HD
BRANCH  17  20
ATOM     20  C   UNL A   1      32.267  24.337  25.708  1.00  0.00     0.082 A 
ATOM     21  C   UNL A   1      32.484  24.217  24.330  1.00  0.00     0.132 A 
ATOM     22  C   UNL A   1      32.946  25.314  23.585  1.00  0.00     0.056 A 
ATOM     23  C   UNL A   1      33.038  26.596  24.137  1.00  0.00    -0.015 A 
ATOM     24  C   UNL A   1      32.313  25.647  26.245  1.00  0.00     0.026 A 
ATOM     25  C   UNL A   1      33.464  27.699  23.377  1.00  0.00     0.009 A 
ATOM     26  C   UNL A   1      32.669  26.779  25.478  1.00  0.00    -0.017 A 
ATOM     27  C   UNL A   1      33.512  28.976  23.928  1.00  0.00     0.001 A 
ATOM     28  C   UNL A   1      32.670  28.082  26.006  1.00  0.00     0.009 A 
ATOM     29  C   UNL A   1      33.088  29.173  25.235  1.00  0.00     0.001 A 
BRANCH  21  30
ATOM     30  O   UNL A   1      32.395  23.092  23.566  1.00  0.00    -0.496 OA
ATOM     31  C   UNL A   1      33.089  23.131  22.330  1.00  0.00     0.278 C 
ENDBRANCH  21  30
ENDBRANCH  17  20
ENDBRANCH  10  16
ENDBRANCH   7   9
ENDBRANCH   6   7
ENDBRANCH   5   6
ENDBRANCH   4   5
ENDBRANCH   3   4
ENDBRANCH   2   3
ENDBRANCH   1   2
BRANCH   1  32
ATOM     32  O   UNL A   1      43.235  18.132  25.327  1.00  0.00    -0.377 OA
BRANCH  32  33
ATOM     33  C   UNL A   1      44.507  18.562  25.792  1.00  0.00     0.188 C 
BRANCH  33  34
ATOM     34  C   UNL A   1      45.468  19.198  24.781  1.00  0.00     0.188 C 
BRANCH  34  35
ATOM     35  O   UNL A   1      46.196  20.276  25.362  1.00  0.00    -0.376 OA
BRANCH  35  36
ATOM     36  C   UNL A   1      46.121  21.545  24.712  1.00  0.00     0.202 C 
BRANCH  36  37
ATOM     37  C   UNL A   1      45.804  22.733  25.628  1.00  0.00     0.261 C 
BRANCH  37  38
ATOM     38  O   UNL A   1      44.786  23.551  25.028  1.00  0.00    -0.460 OA
BRANCH  38  39
ATOM     39  C   UNL A   1      43.514  23.182  25.326  1.00  0.00     0.338 C 
ATOM     40  O   UNL A   1      43.030  22.080  25.121  1.00  0.00    -0.246 OA
BRANCH  39  41
ATOM     41  C   UNL A   1      42.705  24.389  25.652  1.00  0.00     0.060 A 
ATOM     42  C   UNL A   1      42.830  25.533  24.850  1.00  0.00     0.016 A 
ATOM     43  C   UNL A   1      42.170  24.502  26.929  1.00  0.00     0.016 A 
ATOM     44  C   UNL A   1      42.656  26.804  25.413  1.00  0.00     0.010 A 
ATOM     45  C   UNL A   1      42.116  25.754  27.501  1.00  0.00     0.010 A 
ATOM     46  C   UNL A   1      42.433  26.914  26.782  1.00  0.00    -0.014 A 
BRANCH  46  47
ATOM     47  C   UNL A   1      42.667  28.131  27.583  1.00  0.00     0.031 A 
ATOM     48  C   UNL A   1      41.480  28.875  28.120  1.00  0.00     0.074 A 
ATOM     49  C   UNL A   1      43.909  28.344  28.107  1.00  0.00     0.049 A 
ATOM     50  N   UNL A   1      41.556  29.896  28.896  1.00  0.00    -0.248 NA
ATOM     51  C   UNL A   1      40.082  28.498  27.890  1.00  0.00     0.031 C 
ATOM     52  C   UNL A   1      44.275  29.190  29.250  1.00  0.00     0.029 A 
ATOM     53  N   UNL A   1      45.155  27.839  27.742  1.00  0.00    -0.354 N 
ATOM     54  C   UNL A   1      40.334  30.112  29.497  1.00  0.00     0.074 A 
ATOM     55  C   UNL A   1      39.431  29.231  28.806  1.00  0.00     0.031 C 
ATOM     56  C   UNL A   1      45.608  29.307  29.361  1.00  0.00     0.029 A 
ATOM     57  C   UNL A   1      46.146  28.747  28.148  1.00  0.00     0.049 A 
ATOM     58  H   UNL A   1      45.314  26.986  27.277  1.00  0.00     0.167 HD
ATOM     59  C   UNL A   1      40.287  30.948  30.576  1.00  0.00     0.031 A 
ATOM     60  C   UNL A   1      46.843  29.498  27.243  1.00  0.00     0.031 A 
ATOM     61  C   UNL A   1      41.569  31.642  30.734  1.00  0.00     0.049 A 
ATOM     62  C   UNL A   1      46.371  30.955  27.308  1.00  0.00     0.074 A 
ATOM     63  C   UNL A   1      42.546  31.626  31.708  1.00  0.00     0.029 A 
ATOM     64  N   UNL A   1      42.123  32.288  29.624  1.00  0.00    -0.354 N 
ATOM     65  N   UNL A   1      45.191  31.314  27.766  1.00  0.00    -0.248 NA
ATOM     66  C   UNL A   1      47.219  32.115  27.048  1.00  0.00     0.031 C 
ATOM     67  C   UNL A   1      43.732  32.124  31.106  1.00  0.00     0.029 A 
ATOM     68  C   UNL A   1      43.471  32.519  29.803  1.00  0.00     0.049 A 
ATOM     69  H   UNL A   1      41.616  32.545  28.820  1.00  0.00     0.167 HD
ATOM     70  C   UNL A   1      45.187  32.652  28.059  1.00  0.00     0.074 A 
ATOM     71  C   UNL A   1      46.448  33.123  27.504  1.00  0.00     0.031 C 
ATOM     72  C   UNL A   1      44.233  33.287  28.815  1.00  0.00     0.031 A 
BRANCH  59  73
ATOM     73  C   UNL A   1      39.180  31.051  31.612  1.00  0.00    -0.014 A 
ATOM     74  C   UNL A   1      37.883  31.438  31.201  1.00  0.00     0.009 A 
ATOM     75  C   UNL A   1      39.338  30.858  32.993  1.00  0.00     0.009 A 
ATOM     76  C   UNL A   1      36.824  31.630  32.102  1.00  0.00     0.001 A 
ATOM     77  C   UNL A   1      38.275  31.029  33.902  1.00  0.00     0.001 A 
ATOM     78  C   UNL A   1      37.019  31.419  33.458  1.00  0.00     0.000 A 
ENDBRANCH  59  73
BRANCH  60  79
ATOM     79  C   UNL A   1      47.331  28.639  26.117  1.00  0.00    -0.014 A 
ATOM     80  C   UNL A   1      48.405  27.785  26.479  1.00  0.00     0.009 A 
ATOM     81  C   UNL A   1      46.439  28.181  25.135  1.00  0.00     0.009 A 
ATOM     82  C   UNL A   1      48.396  26.431  26.125  1.00  0.00     0.001 A 
ATOM     83  C   UNL A   1      46.468  26.827  24.744  1.00  0.00     0.001 A 
ATOM     84  C   UNL A   1      47.389  25.939  25.304  1.00  0.00     0.000 A 
ENDBRANCH  60  79
BRANCH  72  85
ATOM     85  C   UNL A   1      43.941  34.773  28.767  1.00  0.00    -0.014 A 
ATOM     86  C   UNL A   1      42.892  35.340  28.040  1.00  0.00     0.009 A 
ATOM     87  C   UNL A   1      44.631  35.641  29.653  1.00  0.00     0.009 A 
ATOM     88  C   UNL A   1      42.574  36.698  28.158  1.00  0.00     0.001 A 
ATOM     89  C   UNL A   1      44.274  36.978  29.824  1.00  0.00     0.001 A 
ATOM     90  C   UNL A   1      43.250  37.511  29.063  1.00  0.00     0.000 A 
ENDBRANCH  72  85
ENDBRANCH  46  47
ENDBRANCH  39  41
ENDBRANCH  38  39
ENDBRANCH  37  38
ENDBRANCH  36  37
ENDBRANCH  35  36
ENDBRANCH  34  35
ENDBRANCH  33  34
ENDBRANCH  32  33
ENDBRANCH   1  32
TORSDOF 23
ENDMDL
