MODEL 1
REMARK VINA RESULT:      -9.7      0.000      0.000
REMARK SMILES Cc1cc(C(=O)N[C@H]2C=C[C@H](C(=O)OCCOCCOCCOCCOC(=O)c3ccc(-c4c5nc(c(-c6ccccc6)c6ccc([nH]6)c(-c6ccccc6)c6nc(c(-c7ccccc7)c7ccc4[nH]7)C=C6)C=C5)cc3)C2)ccc1F
REMARK SMILES IDX 20 1 19 2 18 3 17 4 16 5 15 6 14 7 12 8 13 9 11 10 8 11 9 12
REMARK SMILES IDX 77 13 10 14 7 15 5 16 6 17 4 19 1 20 2 21 3 22 80 23 79 24
REMARK SMILES IDX 81 25 78 26 21 27 22 28 23 29 24 30 25 31 26 32 27 33 28 34
REMARK SMILES IDX 29 35 30 36 76 37 31 38 75 39 32 40 33 41 34 42 69 43 35 44
REMARK SMILES IDX 74 45 68 46 70 47 36 48 73 49 67 50 66 51 37 53 59 54 44 55
REMARK SMILES IDX 58 56 45 57 48 58 57 59 71 60 46 61 47 62 56 64 72 65 49 66
REMARK SMILES IDX 38 67 39 68 43 69 40 70 42 71 41 72 60 73 61 74 65 75 62 76
REMARK SMILES IDX 64 77 63 78 50 79 51 80 55 81 52 82 54 83 53 84
REMARK H PARENT 7 18 70 52 48 63
REMARK Flexibility Score: inf
ROOT
ATOM      1  O   UNL A   1      42.209  19.401  25.421  1.00  0.00    -0.377 OA
ENDROOT
BRANCH   1   2
ATOM      2  C   UNL A   1      41.870  20.394  26.373  1.00  0.00     0.188 C 
BRANCH   2   3
ATOM      3  C   UNL A   1      40.366  20.593  26.616  1.00  0.00     0.188 C 
BRANCH   3   4
ATOM      4  O   UNL A   1      39.784  21.574  25.766  1.00  0.00    -0.376 OA
BRANCH   4   5
ATOM      5  C   UNL A   1      39.217  22.709  26.412  1.00  0.00     0.202 C 
BRANCH   5   6
ATOM      6  C   UNL A   1      37.781  23.079  26.012  1.00  0.00     0.261 C 
BRANCH   6   7
ATOM      7  O   UNL A   1      37.028  21.970  25.494  1.00  0.00    -0.463 OA
BRANCH   7   8
ATOM      8  C   UNL A   1      36.170  22.187  24.471  1.00  0.00     0.312 C 
ATOM      9  O   UNL A   1      36.449  22.800  23.448  1.00  0.00    -0.252 OA
BRANCH   8  10
ATOM     10  C   UNL A   1      34.863  21.422  24.720  1.00  0.00     0.124 C 
ATOM     11  C   UNL A   1      33.635  22.961  26.089  1.00  0.00     0.106 C 
ATOM     12  C   UNL A   1      33.946  21.719  26.864  1.00  0.00    -0.006 C 
ATOM     13  C   UNL A   1      33.699  22.418  24.658  1.00  0.00     0.048 C 
ATOM     14  C   UNL A   1      34.697  20.894  26.118  1.00  0.00    -0.014 C 
BRANCH  11  15
ATOM     15  N   UNL A   1      32.379  23.549  26.442  1.00  0.00    -0.346 N 
ATOM     16  C   UNL A   1      31.912  24.830  26.260  1.00  0.00     0.251 C 
ATOM     17  O   UNL A   1      30.818  25.097  26.763  1.00  0.00    -0.269 OA
ATOM     18  H   UNL A   1      31.747  22.939  26.888  1.00  0.00     0.164 HD
BRANCH  16  19
ATOM     19  C   UNL A   1      32.603  25.891  25.446  1.00  0.00     0.040 A 
ATOM     20  C   UNL A   1      33.308  27.094  21.888  1.00  0.00     0.047 C 
ATOM     21  C   UNL A   1      33.316  27.015  23.385  1.00  0.00    -0.015 A 
ATOM     22  C   UNL A   1      32.735  25.919  24.051  1.00  0.00     0.020 A 
ATOM     23  C   UNL A   1      33.825  28.069  24.138  1.00  0.00     0.126 A 
ATOM     24  C   UNL A   1      33.774  28.039  25.524  1.00  0.00     0.040 A 
ATOM     25  F   UNL A   1      34.370  29.128  23.525  1.00  0.00    -0.207 F 
ATOM     26  C   UNL A   1      33.161  26.961  26.170  1.00  0.00     0.017 A 
ENDBRANCH  16  19
ENDBRANCH  11  15
ENDBRANCH   8  10
ENDBRANCH   7   8
ENDBRANCH   6   7
ENDBRANCH   5   6
ENDBRANCH   4   5
ENDBRANCH   3   4
ENDBRANCH   2   3
ENDBRANCH   1   2
BRANCH   1  27
ATOM     27  C   UNL A   1      43.423  18.667  25.580  1.00  0.00     0.188 C 
BRANCH  27  28
ATOM     28  C   UNL A   1      44.737  19.042  24.856  1.00  0.00     0.188 C 
BRANCH  28  29
ATOM     29  O   UNL A   1      44.733  20.312  24.217  1.00  0.00    -0.376 OA
BRANCH  29  30
ATOM     30  C   UNL A   1      45.812  21.182  24.539  1.00  0.00     0.202 C 
BRANCH  30  31
ATOM     31  C   UNL A   1      45.584  21.992  25.819  1.00  0.00     0.261 C 
BRANCH  31  32
ATOM     32  O   UNL A   1      44.217  22.369  26.055  1.00  0.00    -0.460 OA
BRANCH  32  33
ATOM     33  C   UNL A   1      43.830  23.583  25.611  1.00  0.00     0.338 C 
ATOM     34  O   UNL A   1      43.573  23.907  24.464  1.00  0.00    -0.246 OA
BRANCH  33  35
ATOM     35  C   UNL A   1      43.583  24.440  26.786  1.00  0.00     0.060 A 
ATOM     36  C   UNL A   1      42.782  23.943  27.822  1.00  0.00     0.016 A 
ATOM     37  C   UNL A   1      44.130  25.722  26.860  1.00  0.00     0.016 A 
ATOM     38  C   UNL A   1      42.482  24.753  28.915  1.00  0.00     0.010 A 
ATOM     39  C   UNL A   1      43.816  26.539  27.947  1.00  0.00     0.010 A 
ATOM     40  C   UNL A   1      42.958  26.071  28.958  1.00  0.00    -0.014 A 
BRANCH  40  41
ATOM     41  C   UNL A   1      42.383  27.029  29.929  1.00  0.00     0.031 A 
ATOM     42  C   UNL A   1      43.068  27.181  31.260  1.00  0.00     0.074 A 
ATOM     43  C   UNL A   1      41.287  27.751  29.645  1.00  0.00     0.049 A 
ATOM     44  N   UNL A   1      42.751  27.943  32.275  1.00  0.00    -0.248 NA
ATOM     45  C   UNL A   1      44.274  26.363  31.473  1.00  0.00     0.031 C 
ATOM     46  C   UNL A   1      40.555  27.724  28.381  1.00  0.00     0.029 A 
ATOM     47  N   UNL A   1      40.599  28.652  30.417  1.00  0.00    -0.354 N 
ATOM     48  C   UNL A   1      43.712  27.692  33.245  1.00  0.00     0.074 A 
ATOM     49  C   UNL A   1      44.609  26.692  32.710  1.00  0.00     0.031 C 
ATOM     50  C   UNL A   1      39.515  28.573  28.465  1.00  0.00     0.029 A 
ATOM     51  C   UNL A   1      39.495  29.179  29.795  1.00  0.00     0.049 A 
ATOM     52  H   UNL A   1      40.872  28.898  31.331  1.00  0.00     0.167 HD
ATOM     53  C   UNL A   1      43.844  28.246  34.472  1.00  0.00     0.031 A 
ATOM     54  C   UNL A   1      38.569  30.041  30.257  1.00  0.00     0.031 A 
ATOM     55  C   UNL A   1      42.944  29.222  35.019  1.00  0.00     0.049 A 
ATOM     56  C   UNL A   1      38.685  30.574  31.661  1.00  0.00     0.074 A 
ATOM     57  C   UNL A   1      43.005  29.861  36.245  1.00  0.00     0.029 A 
ATOM     58  N   UNL A   1      41.808  29.690  34.377  1.00  0.00    -0.354 N 
ATOM     59  N   UNL A   1      39.623  30.365  32.553  1.00  0.00    -0.248 NA
ATOM     60  C   UNL A   1      37.609  31.468  32.120  1.00  0.00     0.031 C 
ATOM     61  C   UNL A   1      41.874  30.676  36.367  1.00  0.00     0.029 A 
ATOM     62  C   UNL A   1      41.139  30.583  35.195  1.00  0.00     0.049 A 
ATOM     63  H   UNL A   1      41.520  29.424  33.474  1.00  0.00     0.167 HD
ATOM     64  C   UNL A   1      39.268  31.123  33.663  1.00  0.00     0.074 A 
ATOM     65  C   UNL A   1      38.034  31.802  33.331  1.00  0.00     0.031 C 
ATOM     66  C   UNL A   1      39.912  31.250  34.849  1.00  0.00     0.031 A 
BRANCH  53  67
ATOM     67  C   UNL A   1      44.986  27.766  35.319  1.00  0.00    -0.014 A 
ATOM     68  C   UNL A   1      44.876  26.606  36.103  1.00  0.00     0.009 A 
ATOM     69  C   UNL A   1      46.192  28.485  35.330  1.00  0.00     0.009 A 
ATOM     70  C   UNL A   1      45.939  26.197  36.909  1.00  0.00     0.001 A 
ATOM     71  C   UNL A   1      47.261  28.059  36.118  1.00  0.00     0.001 A 
ATOM     72  C   UNL A   1      47.131  26.921  36.914  1.00  0.00     0.000 A 
ENDBRANCH  53  67
BRANCH  54  73
ATOM     73  C   UNL A   1      37.436  30.458  29.390  1.00  0.00    -0.014 A 
ATOM     74  C   UNL A   1      36.423  29.547  29.056  1.00  0.00     0.009 A 
ATOM     75  C   UNL A   1      37.380  31.759  28.867  1.00  0.00     0.009 A 
ATOM     76  C   UNL A   1      35.388  29.923  28.197  1.00  0.00     0.001 A 
ATOM     77  C   UNL A   1      36.330  32.139  28.027  1.00  0.00     0.001 A 
ATOM     78  C   UNL A   1      35.341  31.219  27.686  1.00  0.00     0.000 A 
ENDBRANCH  54  73
BRANCH  66  79
ATOM     79  C   UNL A   1      39.314  32.185  35.862  1.00  0.00    -0.014 A 
ATOM     80  C   UNL A   1      39.666  33.542  35.897  1.00  0.00     0.009 A 
ATOM     81  C   UNL A   1      38.348  31.708  36.763  1.00  0.00     0.009 A 
ATOM     82  C   UNL A   1      39.081  34.399  36.833  1.00  0.00     0.001 A 
ATOM     83  C   UNL A   1      37.746  32.570  37.679  1.00  0.00     0.001 A 
ATOM     84  C   UNL A   1      38.118  33.913  37.719  1.00  0.00     0.000 A 
ENDBRANCH  66  79
ENDBRANCH  40  41
ENDBRANCH  33  35
ENDBRANCH  32  33
ENDBRANCH  31  32
ENDBRANCH  30  31
ENDBRANCH  29  30
ENDBRANCH  28  29
ENDBRANCH  27  28
ENDBRANCH   1  27
TORSDOF 22
ENDMDL
MODEL 2
REMARK VINA RESULT:      -9.5      4.137      6.227
REMARK SMILES Cc1cc(C(=O)N[C@H]2C=C[C@H](C(=O)OCCOCCOCCOCCOC(=O)c3ccc(-c4c5nc(c(-c6ccccc6)c6ccc([nH]6)c(-c6ccccc6)c6nc(c(-c7ccccc7)c7ccc4[nH]7)C=C6)C=C5)cc3)C2)ccc1F
REMARK SMILES IDX 20 1 19 2 18 3 17 4 16 5 15 6 14 7 12 8 13 9 11 10 8 11 9 12
REMARK SMILES IDX 77 13 10 14 7 15 5 16 6 17 4 19 1 20 2 21 3 22 80 23 79 24
REMARK SMILES IDX 81 25 78 26 21 27 22 28 23 29 24 30 25 31 26 32 27 33 28 34
REMARK SMILES IDX 29 35 30 36 76 37 31 38 75 39 32 40 33 41 34 42 69 43 35 44
REMARK SMILES IDX 74 45 68 46 70 47 36 48 73 49 67 50 66 51 37 53 59 54 44 55
REMARK SMILES IDX 58 56 45 57 48 58 57 59 71 60 46 61 47 62 56 64 72 65 49 66
REMARK SMILES IDX 38 67 39 68 43 69 40 70 42 71 41 72 60 73 61 74 65 75 62 76
REMARK SMILES IDX 64 77 63 78 50 79 51 80 55 81 52 82 54 83 53 84
REMARK H PARENT 7 18 70 52 48 63
REMARK Flexibility Score: inf
ROOT
ATOM      1  O   UNL A   1      35.016  23.285  26.045  1.00  0.00    -0.377 OA
ENDROOT
BRANCH   1   2
ATOM      2  C   UNL A   1      34.154  22.939  27.114  1.00  0.00     0.188 C 
BRANCH   2   3
ATOM      3  C   UNL A   1      33.289  21.689  26.891  1.00  0.00     0.188 C 
BRANCH   3   4
ATOM      4  O   UNL A   1      32.354  21.835  25.828  1.00  0.00    -0.376 OA
BRANCH   4   5
ATOM      5  C   UNL A   1      32.259  20.743  24.920  1.00  0.00     0.202 C 
BRANCH   5   6
ATOM      6  C   UNL A   1      32.930  20.930  23.551  1.00  0.00     0.261 C 
BRANCH   6   7
ATOM      7  O   UNL A   1      32.304  21.939  22.742  1.00  0.00    -0.463 OA
BRANCH   7   8
ATOM      8  C   UNL A   1      33.039  23.001  22.343  1.00  0.00     0.312 C 
ATOM      9  O   UNL A   1      33.655  23.062  21.286  1.00  0.00    -0.252 OA
BRANCH   8  10
ATOM     10  C   UNL A   1      32.854  24.161  23.331  1.00  0.00     0.124 C 
ATOM     11  C   UNL A   1      32.090  25.924  21.896  1.00  0.00     0.106 C 
ATOM     12  C   UNL A   1      33.424  26.276  22.478  1.00  0.00    -0.006 C 
ATOM     13  C   UNL A   1      31.585  24.929  22.945  1.00  0.00     0.048 C 
ATOM     14  C   UNL A   1      33.879  25.255  23.220  1.00  0.00    -0.014 C 
BRANCH  11  15
ATOM     15  N   UNL A   1      31.241  27.060  21.700  1.00  0.00    -0.346 N 
ATOM     16  C   UNL A   1      30.739  27.964  22.608  1.00  0.00     0.251 C 
ATOM     17  O   UNL A   1      29.935  28.793  22.175  1.00  0.00    -0.269 OA
ATOM     18  H   UNL A   1      30.972  27.219  20.767  1.00  0.00     0.164 HD
BRANCH  16  19
ATOM     19  C   UNL A   1      31.147  28.049  24.054  1.00  0.00     0.040 A 
ATOM     20  C   UNL A   1      33.065  30.143  26.611  1.00  0.00     0.047 C 
ATOM     21  C   UNL A   1      32.253  29.037  26.009  1.00  0.00    -0.015 A 
ATOM     22  C   UNL A   1      32.019  28.988  24.622  1.00  0.00     0.020 A 
ATOM     23  C   UNL A   1      31.646  28.089  26.828  1.00  0.00     0.126 A 
ATOM     24  C   UNL A   1      30.835  27.102  26.290  1.00  0.00     0.040 A 
ATOM     25  F   UNL A   1      31.844  28.125  28.153  1.00  0.00    -0.207 F 
ATOM     26  C   UNL A   1      30.582  27.088  24.915  1.00  0.00     0.017 A 
ENDBRANCH  16  19
ENDBRANCH  11  15
ENDBRANCH   8  10
ENDBRANCH   7   8
ENDBRANCH   6   7
ENDBRANCH   5   6
ENDBRANCH   4   5
ENDBRANCH   3   4
ENDBRANCH   2   3
ENDBRANCH   1   2
BRANCH   1  27
ATOM     27  C   UNL A   1      36.279  22.631  25.925  1.00  0.00     0.188 C 
BRANCH  27  28
ATOM     28  C   UNL A   1      36.490  21.350  25.085  1.00  0.00     0.188 C 
BRANCH  28  29
ATOM     29  O   UNL A   1      37.847  21.003  24.845  1.00  0.00    -0.376 OA
BRANCH  29  30
ATOM     30  C   UNL A   1      38.163  19.617  24.915  1.00  0.00     0.202 C 
BRANCH  30  31
ATOM     31  C   UNL A   1      39.365  19.308  25.815  1.00  0.00     0.261 C 
BRANCH  31  32
ATOM     32  O   UNL A   1      40.643  19.608  25.231  1.00  0.00    -0.460 OA
BRANCH  32  33
ATOM     33  C   UNL A   1      41.737  19.327  25.971  1.00  0.00     0.338 C 
ATOM     34  O   UNL A   1      42.270  18.242  26.124  1.00  0.00    -0.246 OA
BRANCH  33  35
ATOM     35  C   UNL A   1      42.313  20.603  26.436  1.00  0.00     0.060 A 
ATOM     36  C   UNL A   1      42.046  21.021  27.746  1.00  0.00     0.016 A 
ATOM     37  C   UNL A   1      43.100  21.382  25.585  1.00  0.00     0.016 A 
ATOM     38  C   UNL A   1      42.525  22.252  28.192  1.00  0.00     0.010 A 
ATOM     39  C   UNL A   1      43.566  22.621  26.027  1.00  0.00     0.010 A 
ATOM     40  C   UNL A   1      43.245  23.077  27.317  1.00  0.00    -0.014 A 
BRANCH  40  41
ATOM     41  C   UNL A   1      43.469  24.499  27.665  1.00  0.00     0.031 A 
ATOM     42  C   UNL A   1      44.887  24.996  27.728  1.00  0.00     0.074 A 
ATOM     43  C   UNL A   1      42.446  25.333  27.916  1.00  0.00     0.049 A 
ATOM     44  N   UNL A   1      45.337  26.189  28.021  1.00  0.00    -0.248 NA
ATOM     45  C   UNL A   1      45.939  24.013  27.418  1.00  0.00     0.031 C 
ATOM     46  C   UNL A   1      41.029  24.985  27.851  1.00  0.00     0.029 A 
ATOM     47  N   UNL A   1      42.455  26.656  28.281  1.00  0.00    -0.354 N 
ATOM     48  C   UNL A   1      46.719  26.099  27.935  1.00  0.00     0.074 A 
ATOM     49  C   UNL A   1      47.038  24.731  27.588  1.00  0.00     0.031 C 
ATOM     50  C   UNL A   1      40.302  26.072  28.168  1.00  0.00     0.029 A 
ATOM     51  C   UNL A   1      41.203  27.179  28.483  1.00  0.00     0.049 A 
ATOM     52  H   UNL A   1      43.282  27.180  28.387  1.00  0.00     0.167 HD
ATOM     53  C   UNL A   1      47.646  27.066  28.123  1.00  0.00     0.031 A 
ATOM     54  C   UNL A   1      40.833  28.408  28.890  1.00  0.00     0.031 A 
ATOM     55  C   UNL A   1      47.338  28.419  28.491  1.00  0.00     0.049 A 
ATOM     56  C   UNL A   1      41.887  29.443  29.183  1.00  0.00     0.074 A 
ATOM     57  C   UNL A   1      48.206  29.480  28.682  1.00  0.00     0.029 A 
ATOM     58  N   UNL A   1      46.060  28.895  28.737  1.00  0.00    -0.354 N 
ATOM     59  N   UNL A   1      43.190  29.359  29.055  1.00  0.00    -0.248 NA
ATOM     60  C   UNL A   1      41.415  30.746  29.677  1.00  0.00     0.031 C 
ATOM     61  C   UNL A   1      47.457  30.585  29.099  1.00  0.00     0.029 A 
ATOM     62  C   UNL A   1      46.118  30.225  29.114  1.00  0.00     0.049 A 
ATOM     63  H   UNL A   1      45.235  28.364  28.657  1.00  0.00     0.167 HD
ATOM     64  C   UNL A   1      43.688  30.604  29.420  1.00  0.00     0.074 A 
ATOM     65  C   UNL A   1      42.550  31.427  29.768  1.00  0.00     0.031 C 
ATOM     66  C   UNL A   1      44.975  31.029  29.458  1.00  0.00     0.031 A 
BRANCH  53  67
ATOM     67  C   UNL A   1      49.086  26.670  27.975  1.00  0.00    -0.014 A 
ATOM     68  C   UNL A   1      49.723  26.693  26.723  1.00  0.00     0.009 A 
ATOM     69  C   UNL A   1      49.817  26.271  29.105  1.00  0.00     0.009 A 
ATOM     70  C   UNL A   1      51.054  26.289  26.603  1.00  0.00     0.001 A 
ATOM     71  C   UNL A   1      51.154  25.892  28.984  1.00  0.00     0.001 A 
ATOM     72  C   UNL A   1      51.768  25.892  27.732  1.00  0.00     0.000 A 
ENDBRANCH  53  67
BRANCH  54  73
ATOM     73  C   UNL A   1      39.393  28.739  29.056  1.00  0.00    -0.014 A 
ATOM     74  C   UNL A   1      38.659  29.275  27.987  1.00  0.00     0.009 A 
ATOM     75  C   UNL A   1      38.756  28.552  30.292  1.00  0.00     0.009 A 
ATOM     76  C   UNL A   1      37.321  29.637  28.160  1.00  0.00     0.001 A 
ATOM     77  C   UNL A   1      37.412  28.894  30.454  1.00  0.00     0.001 A 
ATOM     78  C   UNL A   1      36.699  29.444  29.391  1.00  0.00     0.000 A 
ENDBRANCH  54  73
BRANCH  66  79
ATOM     79  C   UNL A   1      45.219  32.458  29.854  1.00  0.00    -0.014 A 
ATOM     80  C   UNL A   1      45.187  33.492  28.906  1.00  0.00     0.009 A 
ATOM     81  C   UNL A   1      45.434  32.777  31.204  1.00  0.00     0.009 A 
ATOM     82  C   UNL A   1      45.395  34.817  29.301  1.00  0.00     0.001 A 
ATOM     83  C   UNL A   1      45.614  34.103  31.599  1.00  0.00     0.001 A 
ATOM     84  C   UNL A   1      45.602  35.120  30.647  1.00  0.00     0.000 A 
ENDBRANCH  66  79
ENDBRANCH  40  41
ENDBRANCH  33  35
ENDBRANCH  32  33
ENDBRANCH  31  32
ENDBRANCH  30  31
ENDBRANCH  29  30
ENDBRANCH  28  29
ENDBRANCH  27  28
ENDBRANCH   1  27
TORSDOF 22
ENDMDL
MODEL 3
REMARK VINA RESULT:      -9.3      4.936     11.601
REMARK SMILES Cc1cc(C(=O)N[C@H]2C=C[C@H](C(=O)OCCOCCOCCOCCOC(=O)c3ccc(-c4c5nc(c(-c6ccccc6)c6ccc([nH]6)c(-c6ccccc6)c6nc(c(-c7ccccc7)c7ccc4[nH]7)C=C6)C=C5)cc3)C2)ccc1F
REMARK SMILES IDX 20 1 19 2 18 3 17 4 16 5 15 6 14 7 12 8 13 9 11 10 8 11 9 12
REMARK SMILES IDX 77 13 10 14 7 15 5 16 6 17 4 19 1 20 2 21 3 22 80 23 79 24
REMARK SMILES IDX 81 25 78 26 21 27 22 28 23 29 24 30 25 31 26 32 27 33 28 34
REMARK SMILES IDX 29 35 30 36 76 37 31 38 75 39 32 40 33 41 34 42 69 43 35 44
REMARK SMILES IDX 74 45 68 46 70 47 36 48 73 49 67 50 66 51 37 53 59 54 44 55
REMARK SMILES IDX 58 56 45 57 48 58 57 59 71 60 46 61 47 62 56 64 72 65 49 66
REMARK SMILES IDX 38 67 39 68 43 69 40 70 42 71 41 72 60 73 61 74 65 75 62 76
REMARK SMILES IDX 64 77 63 78 50 79 51 80 55 81 52 82 54 83 53 84
REMARK H PARENT 7 18 70 52 48 63
REMARK Flexibility Score: inf
ROOT
ATOM      1  O   UNL A   1      34.147  33.793  30.605  1.00  0.00    -0.377 OA
ENDROOT
BRANCH   1   2
ATOM      2  C   UNL A   1      34.998  33.400  29.543  1.00  0.00     0.188 C 
BRANCH   2   3
ATOM      3  C   UNL A   1      35.838  32.140  29.798  1.00  0.00     0.188 C 
BRANCH   3   4
ATOM      4  O   UNL A   1      36.102  31.390  28.617  1.00  0.00    -0.376 OA
BRANCH   4   5
ATOM      5  C   UNL A   1      36.039  29.974  28.745  1.00  0.00     0.202 C 
BRANCH   5   6
ATOM      6  C   UNL A   1      37.187  29.304  29.514  1.00  0.00     0.261 C 
BRANCH   6   7
ATOM      7  O   UNL A   1      38.214  28.774  28.660  1.00  0.00    -0.463 OA
BRANCH   7   8
ATOM      8  C   UNL A   1      39.483  29.216  28.818  1.00  0.00     0.312 C 
ATOM      9  O   UNL A   1      39.787  30.359  29.138  1.00  0.00    -0.252 OA
BRANCH   8  10
ATOM     10  C   UNL A   1      40.461  28.040  28.690  1.00  0.00     0.124 C 
ATOM     11  C   UNL A   1      41.561  28.527  26.615  1.00  0.00     0.106 C 
ATOM     12  C   UNL A   1      40.775  27.260  26.494  1.00  0.00    -0.006 C 
ATOM     13  C   UNL A   1      41.786  28.570  28.130  1.00  0.00     0.048 C 
ATOM     14  C   UNL A   1      40.102  27.032  27.633  1.00  0.00    -0.014 C 
BRANCH  11  15
ATOM     15  N   UNL A   1      42.764  28.523  25.839  1.00  0.00    -0.346 N 
ATOM     16  C   UNL A   1      43.691  27.527  25.638  1.00  0.00     0.251 C 
ATOM     17  O   UNL A   1      44.701  27.832  25.000  1.00  0.00    -0.269 OA
ATOM     18  H   UNL A   1      42.960  29.369  25.375  1.00  0.00     0.164 HD
BRANCH  16  19
ATOM     19  C   UNL A   1      43.529  26.097  26.081  1.00  0.00     0.040 A 
ATOM     20  C   UNL A   1      43.293  23.809  29.132  1.00  0.00     0.047 C 
ATOM     21  C   UNL A   1      43.346  24.269  27.706  1.00  0.00    -0.015 A 
ATOM     22  C   UNL A   1      43.615  25.614  27.393  1.00  0.00     0.020 A 
ATOM     23  C   UNL A   1      43.045  23.384  26.675  1.00  0.00     0.126 A 
ATOM     24  C   UNL A   1      43.021  23.814  25.357  1.00  0.00     0.040 A 
ATOM     25  F   UNL A   1      42.772  22.102  26.951  1.00  0.00    -0.207 F 
ATOM     26  C   UNL A   1      43.254  25.161  25.064  1.00  0.00     0.017 A 
ENDBRANCH  16  19
ENDBRANCH  11  15
ENDBRANCH   8  10
ENDBRANCH   7   8
ENDBRANCH   6   7
ENDBRANCH   5   6
ENDBRANCH   4   5
ENDBRANCH   3   4
ENDBRANCH   2   3
ENDBRANCH   1   2
BRANCH   1  27
ATOM     27  C   UNL A   1      34.687  33.935  31.917  1.00  0.00     0.188 C 
BRANCH  27  28
ATOM     28  C   UNL A   1      34.039  33.303  33.170  1.00  0.00     0.188 C 
BRANCH  28  29
ATOM     29  O   UNL A   1      34.779  33.454  34.375  1.00  0.00    -0.376 OA
BRANCH  29  30
ATOM     30  C   UNL A   1      35.929  34.289  34.306  1.00  0.00     0.202 C 
BRANCH  30  31
ATOM     31  C   UNL A   1      37.154  33.705  35.017  1.00  0.00     0.261 C 
BRANCH  31  32
ATOM     32  O   UNL A   1      37.059  32.302  35.317  1.00  0.00    -0.460 OA
BRANCH  32  33
ATOM     33  C   UNL A   1      38.126  31.729  35.914  1.00  0.00     0.338 C 
ATOM     34  O   UNL A   1      38.211  31.339  37.065  1.00  0.00    -0.246 OA
BRANCH  33  35
ATOM     35  C   UNL A   1      39.145  31.475  34.878  1.00  0.00     0.060 A 
ATOM     36  C   UNL A   1      38.790  30.704  33.763  1.00  0.00     0.016 A 
ATOM     37  C   UNL A   1      40.438  31.985  35.009  1.00  0.00     0.016 A 
ATOM     38  C   UNL A   1      39.750  30.397  32.800  1.00  0.00     0.010 A 
ATOM     39  C   UNL A   1      41.402  31.663  34.053  1.00  0.00     0.010 A 
ATOM     40  C   UNL A   1      41.070  30.834  32.967  1.00  0.00    -0.014 A 
BRANCH  40  41
ATOM     41  C   UNL A   1      42.150  30.247  32.142  1.00  0.00     0.031 A 
ATOM     42  C   UNL A   1      42.638  31.032  30.955  1.00  0.00     0.074 A 
ATOM     43  C   UNL A   1      42.690  29.052  32.433  1.00  0.00     0.049 A 
ATOM     44  N   UNL A   1      43.560  30.725  30.079  1.00  0.00    -0.248 NA
ATOM     45  C   UNL A   1      42.000  32.340  30.728  1.00  0.00     0.031 C 
ATOM     46  C   UNL A   1      42.333  28.211  33.573  1.00  0.00     0.029 A 
ATOM     47  N   UNL A   1      43.662  28.339  31.777  1.00  0.00    -0.354 N 
ATOM     48  C   UNL A   1      43.608  31.796  29.197  1.00  0.00     0.074 A 
ATOM     49  C   UNL A   1      42.609  32.749  29.627  1.00  0.00     0.031 C 
ATOM     50  C   UNL A   1      43.078  27.092  33.536  1.00  0.00     0.029 A 
ATOM     51  C   UNL A   1      43.941  27.127  32.357  1.00  0.00     0.049 A 
ATOM     52  H   UNL A   1      44.116  28.666  30.967  1.00  0.00     0.167 HD
ATOM     53  C   UNL A   1      44.414  31.978  28.125  1.00  0.00     0.031 A 
ATOM     54  C   UNL A   1      44.788  26.155  31.968  1.00  0.00     0.031 A 
ATOM     55  C   UNL A   1      45.392  31.026  27.680  1.00  0.00     0.049 A 
ATOM     56  C   UNL A   1      45.608  26.340  30.719  1.00  0.00     0.074 A 
ATOM     57  C   UNL A   1      46.273  31.127  26.618  1.00  0.00     0.029 A 
ATOM     58  N   UNL A   1      45.606  29.788  28.264  1.00  0.00    -0.354 N 
ATOM     59  N   UNL A   1      45.678  27.376  29.918  1.00  0.00    -0.248 NA
ATOM     60  C   UNL A   1      46.471  25.216  30.322  1.00  0.00     0.031 C 
ATOM     61  C   UNL A   1      46.984  29.926  26.526  1.00  0.00     0.029 A 
ATOM     62  C   UNL A   1      46.581  29.099  27.564  1.00  0.00     0.049 A 
ATOM     63  H   UNL A   1      45.133  29.449  29.058  1.00  0.00     0.167 HD
ATOM     64  C   UNL A   1      46.613  27.042  28.945  1.00  0.00     0.074 A 
ATOM     65  C   UNL A   1      47.088  25.711  29.257  1.00  0.00     0.031 C 
ATOM     66  C   UNL A   1      47.043  27.776  27.889  1.00  0.00     0.031 A 
BRANCH  53  67
ATOM     67  C   UNL A   1      44.230  33.243  27.340  1.00  0.00    -0.014 A 
ATOM     68  C   UNL A   1      43.554  33.246  26.109  1.00  0.00     0.009 A 
ATOM     69  C   UNL A   1      44.740  34.451  27.840  1.00  0.00     0.009 A 
ATOM     70  C   UNL A   1      43.424  34.428  25.379  1.00  0.00     0.001 A 
ATOM     71  C   UNL A   1      44.587  35.636  27.119  1.00  0.00     0.001 A 
ATOM     72  C   UNL A   1      43.938  35.622  25.885  1.00  0.00     0.000 A 
ENDBRANCH  53  67
BRANCH  54  73
ATOM     73  C   UNL A   1      44.907  24.904  32.762  1.00  0.00    -0.014 A 
ATOM     74  C   UNL A   1      43.994  23.855  32.578  1.00  0.00     0.009 A 
ATOM     75  C   UNL A   1      45.913  24.768  33.731  1.00  0.00     0.009 A 
ATOM     76  C   UNL A   1      44.074  22.703  33.362  1.00  0.00     0.001 A 
ATOM     77  C   UNL A   1      46.003  23.604  34.498  1.00  0.00     0.001 A 
ATOM     78  C   UNL A   1      45.079  22.577  34.319  1.00  0.00     0.000 A 
ENDBRANCH  54  73
BRANCH  66  79
ATOM     79  C   UNL A   1      48.106  27.172  27.016  1.00  0.00    -0.014 A 
ATOM     80  C   UNL A   1      47.778  26.480  25.841  1.00  0.00     0.009 A 
ATOM     81  C   UNL A   1      49.459  27.342  27.351  1.00  0.00     0.009 A 
ATOM     82  C   UNL A   1      48.784  25.945  25.032  1.00  0.00     0.001 A 
ATOM     83  C   UNL A   1      50.463  26.831  26.528  1.00  0.00     0.001 A 
ATOM     84  C   UNL A   1      50.125  26.126  25.374  1.00  0.00     0.000 A 
ENDBRANCH  66  79
ENDBRANCH  40  41
ENDBRANCH  33  35
ENDBRANCH  32  33
ENDBRANCH  31  32
ENDBRANCH  30  31
ENDBRANCH  29  30
ENDBRANCH  28  29
ENDBRANCH  27  28
ENDBRANCH   1  27
TORSDOF 22
ENDMDL
