MODEL 1
REMARK VINA RESULT:     -10.7      0.000      0.000
REMARK SMILES CCc1ccnc(C(=O)c2[nH]c3ccc(OC(F)(F)F)cc3c2CC(=O)OCCOCCOCCOCCOC(=O)c2ccc(-c3c4nc(c(-c5ccccc5)c5ccc([nH]5)c(-c5ccccc5)c5nc(c(-c6ccccc6)c6ccc3[nH]6)C=C5)C=C4)cc2)c1
REMARK SMILES IDX 32 1 31 2 30 3 29 4 28 5 27 6 25 7 26 8 24 9 23 10 10 11
REMARK SMILES IDX 11 12 12 13 22 15 13 16 21 17 14 18 15 19 8 20 9 21 7 22
REMARK SMILES IDX 3 23 4 24 90 25 5 26 6 27 2 28 1 29 16 30 17 31 18 32 19 33
REMARK SMILES IDX 20 34 33 35 34 36 35 37 36 38 37 39 38 40 39 41 40 42 41 43
REMARK SMILES IDX 42 44 43 45 89 46 44 47 88 48 45 49 46 50 47 51 82 52 48 53
REMARK SMILES IDX 87 54 81 55 83 56 49 57 86 58 80 59 79 60 50 62 72 63 57 64
REMARK SMILES IDX 71 65 58 66 61 67 70 68 84 69 59 70 60 71 69 73 85 74 62 75
REMARK SMILES IDX 51 76 52 77 56 78 53 79 55 80 54 81 73 82 74 83 78 84 75 85
REMARK SMILES IDX 77 86 76 87 63 88 64 89 68 90 65 91 67 92 66 93
REMARK H PARENT 11 14 83 61 61 72
REMARK Flexibility Score: inf
ROOT
ATOM      1  C   UNL A   1      42.037  19.207  25.759  1.00  0.00     0.188 C 
ENDROOT
BRANCH   1   2
ATOM      2  C   UNL A   1      42.381  20.512  26.474  1.00  0.00     0.188 C 
BRANCH   2   3
ATOM      3  O   UNL A   1      41.352  21.469  26.620  1.00  0.00    -0.376 OA
BRANCH   3   4
ATOM      4  C   UNL A   1      40.047  21.091  26.186  1.00  0.00     0.202 C 
BRANCH   4   5
ATOM      5  C   UNL A   1      38.917  22.140  26.121  1.00  0.00     0.261 C 
BRANCH   5   6
ATOM      6  O   UNL A   1      37.595  21.626  25.794  1.00  0.00    -0.463 OA
BRANCH   6   7
ATOM      7  C   UNL A   1      36.554  22.465  26.026  1.00  0.00     0.310 C 
ATOM      8  O   UNL A   1      36.604  23.670  25.770  1.00  0.00    -0.252 OA
BRANCH   7   9
ATOM      9  C   UNL A   1      35.272  21.884  26.599  1.00  0.00     0.161 C 
BRANCH   9  10
ATOM     10  C   UNL A   1      34.055  21.570  25.751  1.00  0.00     0.000 A 
ATOM     11  C   UNL A   1      32.773  22.144  25.828  1.00  0.00     0.093 A 
ATOM     12  N   UNL A   1      32.031  21.567  24.817  1.00  0.00    -0.352 N 
ATOM     13  C   UNL A   1      32.612  20.381  24.429  1.00  0.00     0.046 A 
ATOM     14  H   UNL A   1      31.208  21.946  24.431  1.00  0.00     0.167 HD
ATOM     15  C   UNL A   1      33.888  20.365  24.983  1.00  0.00     0.008 A 
ATOM     16  C   UNL A   1      32.103  19.321  23.668  1.00  0.00     0.030 A 
ATOM     17  C   UNL A   1      34.677  19.211  24.800  1.00  0.00     0.057 A 
ATOM     18  C   UNL A   1      32.890  18.165  23.551  1.00  0.00     0.049 A 
ATOM     19  C   UNL A   1      34.153  18.093  24.133  1.00  0.00     0.130 A 
BRANCH  11  20
ATOM     20  C   UNL A   1      32.292  23.141  26.786  1.00  0.00     0.227 C 
ATOM     21  O   UNL A   1      32.045  22.862  27.961  1.00  0.00    -0.285 OA
BRANCH  20  22
ATOM     22  C   UNL A   1      32.002  24.549  26.392  1.00  0.00     0.113 A 
ATOM     23  C   UNL A   1      32.680  26.541  25.237  1.00  0.00    -0.044 A 
ATOM     24  C   UNL A   1      31.324  26.839  25.067  1.00  0.00     0.024 A 
ATOM     25  C   UNL A   1      33.024  25.365  25.920  1.00  0.00     0.036 A 
ATOM     26  C   UNL A   1      30.376  25.987  25.609  1.00  0.00     0.112 A 
ATOM     27  N   UNL A   1      30.685  24.858  26.277  1.00  0.00    -0.253 NA
BRANCH  23  28
ATOM     28  C   UNL A   1      33.763  27.353  24.567  1.00  0.00     0.032 C 
ATOM     29  C   UNL A   1      33.455  27.790  23.142  1.00  0.00     0.009 C 
ENDBRANCH  23  28
ENDBRANCH  20  22
ENDBRANCH  11  20
BRANCH  19  30
ATOM     30  O   UNL A   1      34.979  17.003  24.155  1.00  0.00    -0.406 OA
BRANCH  30  31
ATOM     31  C   UNL A   1      34.796  16.052  25.189  1.00  0.00     0.573 C 
ATOM     32  F   UNL A   1      35.968  15.703  25.763  1.00  0.00    -0.132 F 
ATOM     33  F   UNL A   1      33.955  16.526  26.133  1.00  0.00    -0.132 F 
ATOM     34  F   UNL A   1      34.245  14.937  24.657  1.00  0.00    -0.132 F 
ENDBRANCH  30  31
ENDBRANCH  19  30
ENDBRANCH   9  10
ENDBRANCH   7   9
ENDBRANCH   6   7
ENDBRANCH   5   6
ENDBRANCH   4   5
ENDBRANCH   3   4
ENDBRANCH   2   3
ENDBRANCH   1   2
BRANCH   1  35
ATOM     35  O   UNL A   1      43.082  18.297  25.459  1.00  0.00    -0.377 OA
BRANCH  35  36
ATOM     36  C   UNL A   1      44.436  18.708  25.570  1.00  0.00     0.188 C 
BRANCH  36  37
ATOM     37  C   UNL A   1      45.166  19.141  24.300  1.00  0.00     0.188 C 
BRANCH  37  38
ATOM     38  O   UNL A   1      44.717  20.317  23.624  1.00  0.00    -0.376 OA
BRANCH  38  39
ATOM     39  C   UNL A   1      45.263  21.587  23.971  1.00  0.00     0.202 C 
BRANCH  39  40
ATOM     40  C   UNL A   1      44.227  22.677  24.217  1.00  0.00     0.261 C 
BRANCH  40  41
ATOM     41  O   UNL A   1      44.463  23.319  25.475  1.00  0.00    -0.460 OA
BRANCH  41  42
ATOM     42  C   UNL A   1      44.824  24.617  25.390  1.00  0.00     0.338 C 
ATOM     43  O   UNL A   1      45.701  25.106  24.695  1.00  0.00    -0.246 OA
BRANCH  42  44
ATOM     44  C   UNL A   1      43.872  25.421  26.170  1.00  0.00     0.060 A 
ATOM     45  C   UNL A   1      44.048  26.811  26.193  1.00  0.00     0.016 A 
ATOM     46  C   UNL A   1      42.852  24.813  26.907  1.00  0.00     0.016 A 
ATOM     47  C   UNL A   1      43.240  27.597  27.001  1.00  0.00     0.010 A 
ATOM     48  C   UNL A   1      42.050  25.600  27.730  1.00  0.00     0.010 A 
ATOM     49  C   UNL A   1      42.280  26.985  27.813  1.00  0.00    -0.014 A 
BRANCH  49  50
ATOM     50  C   UNL A   1      41.688  27.747  28.928  1.00  0.00     0.031 A 
ATOM     51  C   UNL A   1      42.409  27.737  30.245  1.00  0.00     0.074 A 
ATOM     52  C   UNL A   1      40.553  28.442  28.761  1.00  0.00     0.049 A 
ATOM     53  N   UNL A   1      42.065  28.272  31.385  1.00  0.00    -0.248 NA
ATOM     54  C   UNL A   1      43.694  27.015  30.278  1.00  0.00     0.031 C 
ATOM     55  C   UNL A   1      39.816  28.573  27.506  1.00  0.00     0.029 A 
ATOM     56  N   UNL A   1      39.826  29.169  29.663  1.00  0.00    -0.354 N 
ATOM     57  C   UNL A   1      43.084  27.946  32.271  1.00  0.00     0.074 A 
ATOM     58  C   UNL A   1      44.036  27.133  31.551  1.00  0.00     0.031 C 
ATOM     59  C   UNL A   1      38.732  29.338  27.721  1.00  0.00     0.029 A 
ATOM     60  C   UNL A   1      38.683  29.710  29.132  1.00  0.00     0.049 A 
ATOM     61  H   UNL A   1      40.096  29.293  30.603  1.00  0.00     0.167 HD
ATOM     62  C   UNL A   1      43.214  28.298  33.572  1.00  0.00     0.031 A 
ATOM     63  C   UNL A   1      37.702  30.408  29.734  1.00  0.00     0.031 A 
ATOM     64  C   UNL A   1      42.241  29.079  34.284  1.00  0.00     0.049 A 
ATOM     65  C   UNL A   1      37.811  30.691  31.208  1.00  0.00     0.074 A 
ATOM     66  C   UNL A   1      42.259  29.491  35.604  1.00  0.00     0.029 A 
ATOM     67  N   UNL A   1      41.063  29.559  33.728  1.00  0.00    -0.354 N 
ATOM     68  N   UNL A   1      38.777  30.384  32.042  1.00  0.00    -0.248 NA
ATOM     69  C   UNL A   1      36.694  31.421  31.822  1.00  0.00     0.031 C 
ATOM     70  C   UNL A   1      41.060  30.162  35.864  1.00  0.00     0.029 A 
ATOM     71  C   UNL A   1      40.330  30.236  34.686  1.00  0.00     0.049 A 
ATOM     72  H   UNL A   1      40.789  29.436  32.790  1.00  0.00     0.167 HD
ATOM     73  C   UNL A   1      38.403  30.917  33.270  1.00  0.00     0.074 A 
ATOM     74  C   UNL A   1      37.126  31.571  33.068  1.00  0.00     0.031 C 
ATOM     75  C   UNL A   1      39.059  30.878  34.458  1.00  0.00     0.031 A 
BRANCH  62  76
ATOM     76  C   UNL A   1      44.425  27.785  34.302  1.00  0.00    -0.014 A 
ATOM     77  C   UNL A   1      44.449  26.503  34.876  1.00  0.00     0.009 A 
ATOM     78  C   UNL A   1      45.556  28.605  34.436  1.00  0.00     0.009 A 
ATOM     79  C   UNL A   1      45.557  26.075  35.613  1.00  0.00     0.001 A 
ATOM     80  C   UNL A   1      46.676  28.162  35.142  1.00  0.00     0.001 A 
ATOM     81  C   UNL A   1      46.670  26.905  35.743  1.00  0.00     0.000 A 
ENDBRANCH  62  76
BRANCH  63  82
ATOM     82  C   UNL A   1      36.537  30.884  28.944  1.00  0.00    -0.014 A 
ATOM     83  C   UNL A   1      36.469  32.216  28.511  1.00  0.00     0.009 A 
ATOM     84  C   UNL A   1      35.490  30.009  28.614  1.00  0.00     0.009 A 
ATOM     85  C   UNL A   1      35.366  32.668  27.781  1.00  0.00     0.001 A 
ATOM     86  C   UNL A   1      34.403  30.456  27.859  1.00  0.00     0.001 A 
ATOM     87  C   UNL A   1      34.339  31.787  27.450  1.00  0.00     0.000 A 
ENDBRANCH  63  82
BRANCH  75  88
ATOM     88  C   UNL A   1      38.430  31.603  35.615  1.00  0.00    -0.014 A 
ATOM     89  C   UNL A   1      38.093  30.940  36.805  1.00  0.00     0.009 A 
ATOM     90  C   UNL A   1      38.218  32.989  35.526  1.00  0.00     0.009 A 
ATOM     91  C   UNL A   1      37.525  31.645  37.869  1.00  0.00     0.001 A 
ATOM     92  C   UNL A   1      37.684  33.696  36.602  1.00  0.00     0.001 A 
ATOM     93  C   UNL A   1      37.327  33.023  37.768  1.00  0.00     0.000 A 
ENDBRANCH  75  88
ENDBRANCH  49  50
ENDBRANCH  42  44
ENDBRANCH  41  42
ENDBRANCH  40  41
ENDBRANCH  39  40
ENDBRANCH  38  39
ENDBRANCH  37  38
ENDBRANCH  36  37
ENDBRANCH  35  36
ENDBRANCH   1  35
TORSDOF 26
ENDMDL
MODEL 2
REMARK VINA RESULT:     -10.7      5.326     11.046
REMARK SMILES CCc1ccnc(C(=O)c2[nH]c3ccc(OC(F)(F)F)cc3c2CC(=O)OCCOCCOCCOCCOC(=O)c2ccc(-c3c4nc(c(-c5ccccc5)c5ccc([nH]5)c(-c5ccccc5)c5nc(c(-c6ccccc6)c6ccc3[nH]6)C=C5)C=C4)cc2)c1
REMARK SMILES IDX 32 1 31 2 30 3 29 4 28 5 27 6 25 7 26 8 24 9 23 10 10 11
REMARK SMILES IDX 11 12 12 13 22 15 13 16 21 17 14 18 15 19 8 20 9 21 7 22
REMARK SMILES IDX 3 23 4 24 90 25 5 26 6 27 2 28 1 29 16 30 17 31 18 32 19 33
REMARK SMILES IDX 20 34 33 35 34 36 35 37 36 38 37 39 38 40 39 41 40 42 41 43
REMARK SMILES IDX 42 44 43 45 89 46 44 47 88 48 45 49 46 50 47 51 82 52 48 53
REMARK SMILES IDX 87 54 81 55 83 56 49 57 86 58 80 59 79 60 50 62 72 63 57 64
REMARK SMILES IDX 71 65 58 66 61 67 70 68 84 69 59 70 60 71 69 73 85 74 62 75
REMARK SMILES IDX 51 76 52 77 56 78 53 79 55 80 54 81 73 82 74 83 78 84 75 85
REMARK SMILES IDX 77 86 76 87 63 88 64 89 68 90 65 91 67 92 66 93
REMARK H PARENT 11 14 83 61 61 72
REMARK Flexibility Score: inf
ROOT
ATOM      1  C   UNL A   1      34.305  33.345  28.968  1.00  0.00     0.188 C 
ENDROOT
BRANCH   1   2
ATOM      2  C   UNL A   1      35.434  32.857  28.062  1.00  0.00     0.188 C 
BRANCH   2   3
ATOM      3  O   UNL A   1      35.240  31.641  27.371  1.00  0.00    -0.376 OA
BRANCH   3   4
ATOM      4  C   UNL A   1      33.918  31.108  27.352  1.00  0.00     0.202 C 
BRANCH   4   5
ATOM      5  C   UNL A   1      33.695  29.590  27.181  1.00  0.00     0.261 C 
BRANCH   5   6
ATOM      6  O   UNL A   1      34.085  29.034  25.894  1.00  0.00    -0.463 OA
BRANCH   6   7
ATOM      7  C   UNL A   1      33.699  27.756  25.654  1.00  0.00     0.310 C 
ATOM      8  O   UNL A   1      34.190  27.074  24.753  1.00  0.00    -0.252 OA
BRANCH   7   9
ATOM      9  C   UNL A   1      32.640  27.141  26.554  1.00  0.00     0.161 C 
BRANCH   9  10
ATOM     10  C   UNL A   1      31.348  26.549  26.027  1.00  0.00     0.000 A 
ATOM     11  C   UNL A   1      30.947  25.200  26.029  1.00  0.00     0.093 A 
ATOM     12  N   UNL A   1      29.676  25.175  25.490  1.00  0.00    -0.352 N 
ATOM     13  C   UNL A   1      29.457  26.318  24.756  1.00  0.00     0.046 A 
ATOM     14  H   UNL A   1      29.023  24.448  25.612  1.00  0.00     0.167 HD
ATOM     15  C   UNL A   1      30.478  27.204  25.087  1.00  0.00     0.008 A 
ATOM     16  C   UNL A   1      28.467  26.622  23.812  1.00  0.00     0.030 A 
ATOM     17  C   UNL A   1      30.532  28.438  24.407  1.00  0.00     0.057 A 
ATOM     18  C   UNL A   1      28.580  27.833  23.113  1.00  0.00     0.049 A 
ATOM     19  C   UNL A   1      29.617  28.724  23.383  1.00  0.00     0.130 A 
BRANCH  11  20
ATOM     20  C   UNL A   1      31.709  24.039  26.489  1.00  0.00     0.227 C 
ATOM     21  O   UNL A   1      31.689  23.658  27.661  1.00  0.00    -0.285 OA
BRANCH  20  22
ATOM     22  C   UNL A   1      32.618  23.276  25.588  1.00  0.00     0.113 A 
ATOM     23  C   UNL A   1      33.592  22.992  23.412  1.00  0.00    -0.044 A 
ATOM     24  C   UNL A   1      34.698  22.411  24.043  1.00  0.00     0.024 A 
ATOM     25  C   UNL A   1      32.525  23.432  24.209  1.00  0.00     0.036 A 
ATOM     26  C   UNL A   1      34.682  22.257  25.419  1.00  0.00     0.112 A 
ATOM     27  N   UNL A   1      33.664  22.665  26.202  1.00  0.00    -0.253 NA
BRANCH  23  28
ATOM     28  C   UNL A   1      33.592  23.305  21.935  1.00  0.00     0.032 C 
ATOM     29  C   UNL A   1      32.942  24.628  21.554  1.00  0.00     0.009 C 
ENDBRANCH  23  28
ENDBRANCH  20  22
ENDBRANCH  11  20
BRANCH  19  30
ATOM     30  O   UNL A   1      29.879  29.894  22.723  1.00  0.00    -0.406 OA
BRANCH  30  31
ATOM     31  C   UNL A   1      28.841  30.854  22.638  1.00  0.00     0.573 C 
ATOM     32  F   UNL A   1      27.933  30.529  21.693  1.00  0.00    -0.132 F 
ATOM     33  F   UNL A   1      28.221  30.996  23.829  1.00  0.00    -0.132 F 
ATOM     34  F   UNL A   1      29.384  32.047  22.302  1.00  0.00    -0.132 F 
ENDBRANCH  30  31
ENDBRANCH  19  30
ENDBRANCH   9  10
ENDBRANCH   7   9
ENDBRANCH   6   7
ENDBRANCH   5   6
ENDBRANCH   4   5
ENDBRANCH   3   4
ENDBRANCH   2   3
ENDBRANCH   1   2
BRANCH   1  35
ATOM     35  O   UNL A   1      34.062  34.738  29.067  1.00  0.00    -0.377 OA
BRANCH  35  36
ATOM     36  C   UNL A   1      33.136  35.232  30.022  1.00  0.00     0.188 C 
BRANCH  36  37
ATOM     37  C   UNL A   1      33.684  35.925  31.268  1.00  0.00     0.188 C 
BRANCH  37  38
ATOM     38  O   UNL A   1      34.614  35.217  32.089  1.00  0.00    -0.376 OA
BRANCH  38  39
ATOM     39  C   UNL A   1      34.199  34.704  33.352  1.00  0.00     0.202 C 
BRANCH  39  40
ATOM     40  C   UNL A   1      34.378  33.200  33.516  1.00  0.00     0.261 C 
BRANCH  40  41
ATOM     41  O   UNL A   1      35.452  32.729  32.694  1.00  0.00    -0.460 OA
BRANCH  41  42
ATOM     42  C   UNL A   1      36.537  32.297  33.371  1.00  0.00     0.338 C 
ATOM     43  O   UNL A   1      36.748  32.368  34.571  1.00  0.00    -0.246 OA
BRANCH  42  44
ATOM     44  C   UNL A   1      37.404  31.556  32.443  1.00  0.00     0.060 A 
ATOM     45  C   UNL A   1      38.412  30.749  32.987  1.00  0.00     0.016 A 
ATOM     46  C   UNL A   1      37.260  31.691  31.060  1.00  0.00     0.016 A 
ATOM     47  C   UNL A   1      39.320  30.117  32.149  1.00  0.00     0.010 A 
ATOM     48  C   UNL A   1      38.180  31.071  30.219  1.00  0.00     0.010 A 
ATOM     49  C   UNL A   1      39.238  30.326  30.768  1.00  0.00    -0.014 A 
BRANCH  49  50
ATOM     50  C   UNL A   1      40.392  29.979  29.918  1.00  0.00     0.031 A 
ATOM     51  C   UNL A   1      40.385  28.641  29.239  1.00  0.00     0.074 A 
ATOM     52  C   UNL A   1      41.403  30.844  29.743  1.00  0.00     0.049 A 
ATOM     53  N   UNL A   1      41.302  28.080  28.496  1.00  0.00    -0.248 NA
ATOM     54  C   UNL A   1      39.176  27.818  29.432  1.00  0.00     0.031 C 
ATOM     55  C   UNL A   1      41.470  32.193  30.300  1.00  0.00     0.029 A 
ATOM     56  N   UNL A   1      42.568  30.704  29.040  1.00  0.00    -0.354 N 
ATOM     57  C   UNL A   1      40.786  26.840  28.142  1.00  0.00     0.074 A 
ATOM     58  C   UNL A   1      39.498  26.711  28.783  1.00  0.00     0.031 C 
ATOM     59  C   UNL A   1      42.627  32.760  29.917  1.00  0.00     0.029 A 
ATOM     60  C   UNL A   1      43.391  31.797  29.127  1.00  0.00     0.049 A 
ATOM     61  H   UNL A   1      42.795  29.897  28.522  1.00  0.00     0.167 HD
ATOM     62  C   UNL A   1      41.339  25.894  27.347  1.00  0.00     0.031 A 
ATOM     63  C   UNL A   1      44.631  31.981  28.638  1.00  0.00     0.031 A 
ATOM     64  C   UNL A   1      42.637  26.023  26.744  1.00  0.00     0.049 A 
ATOM     65  C   UNL A   1      45.275  30.870  27.853  1.00  0.00     0.074 A 
ATOM     66  C   UNL A   1      43.305  25.128  25.929  1.00  0.00     0.029 A 
ATOM     67  N   UNL A   1      43.469  27.122  26.905  1.00  0.00    -0.354 N 
ATOM     68  N   UNL A   1      44.783  29.700  27.516  1.00  0.00    -0.248 NA
ATOM     69  C   UNL A   1      46.643  31.108  27.376  1.00  0.00     0.031 C 
ATOM     70  C   UNL A   1      44.569  25.658  25.652  1.00  0.00     0.029 A 
ATOM     71  C   UNL A   1      44.659  26.915  26.230  1.00  0.00     0.049 A 
ATOM     72  H   UNL A   1      43.246  27.929  27.423  1.00  0.00     0.167 HD
ATOM     73  C   UNL A   1      45.767  29.079  26.756  1.00  0.00     0.074 A 
ATOM     74  C   UNL A   1      46.878  30.005  26.677  1.00  0.00     0.031 C 
ATOM     75  C   UNL A   1      45.751  27.855  26.168  1.00  0.00     0.031 A 
BRANCH  62  76
ATOM     76  C   UNL A   1      40.555  24.625  27.146  1.00  0.00    -0.014 A 
ATOM     77  C   UNL A   1      41.011  23.392  27.641  1.00  0.00     0.009 A 
ATOM     78  C   UNL A   1      39.348  24.661  26.430  1.00  0.00     0.009 A 
ATOM     79  C   UNL A   1      40.304  22.217  27.378  1.00  0.00     0.001 A 
ATOM     80  C   UNL A   1      38.624  23.489  26.200  1.00  0.00     0.001 A 
ATOM     81  C   UNL A   1      39.110  22.267  26.660  1.00  0.00     0.000 A 
ENDBRANCH  62  76
BRANCH  63  82
ATOM     82  C   UNL A   1      45.342  33.264  28.877  1.00  0.00    -0.014 A 
ATOM     83  C   UNL A   1      45.249  34.311  27.950  1.00  0.00     0.009 A 
ATOM     84  C   UNL A   1      46.112  33.451  30.036  1.00  0.00     0.009 A 
ATOM     85  C   UNL A   1      45.929  35.513  28.166  1.00  0.00     0.001 A 
ATOM     86  C   UNL A   1      46.766  34.664  30.265  1.00  0.00     0.001 A 
ATOM     87  C   UNL A   1      46.680  35.690  29.326  1.00  0.00     0.000 A 
ENDBRANCH  63  82
BRANCH  75  88
ATOM     88  C   UNL A   1      46.951  27.471  25.348  1.00  0.00    -0.014 A 
ATOM     89  C   UNL A   1      48.013  26.735  25.896  1.00  0.00     0.009 A 
ATOM     90  C   UNL A   1      46.993  27.813  23.986  1.00  0.00     0.009 A 
ATOM     91  C   UNL A   1      49.107  26.379  25.103  1.00  0.00     0.001 A 
ATOM     92  C   UNL A   1      48.069  27.425  23.190  1.00  0.00     0.001 A 
ATOM     93  C   UNL A   1      49.131  26.719  23.751  1.00  0.00     0.000 A 
ENDBRANCH  75  88
ENDBRANCH  49  50
ENDBRANCH  42  44
ENDBRANCH  41  42
ENDBRANCH  40  41
ENDBRANCH  39  40
ENDBRANCH  38  39
ENDBRANCH  37  38
ENDBRANCH  36  37
ENDBRANCH  35  36
ENDBRANCH   1  35
TORSDOF 26
ENDMDL
MODEL 3
REMARK VINA RESULT:     -10.7      5.395     10.826
REMARK SMILES CCc1ccnc(C(=O)c2[nH]c3ccc(OC(F)(F)F)cc3c2CC(=O)OCCOCCOCCOCCOC(=O)c2ccc(-c3c4nc(c(-c5ccccc5)c5ccc([nH]5)c(-c5ccccc5)c5nc(c(-c6ccccc6)c6ccc3[nH]6)C=C5)C=C4)cc2)c1
REMARK SMILES IDX 32 1 31 2 30 3 29 4 28 5 27 6 25 7 26 8 24 9 23 10 10 11
REMARK SMILES IDX 11 12 12 13 22 15 13 16 21 17 14 18 15 19 8 20 9 21 7 22
REMARK SMILES IDX 3 23 4 24 90 25 5 26 6 27 2 28 1 29 16 30 17 31 18 32 19 33
REMARK SMILES IDX 20 34 33 35 34 36 35 37 36 38 37 39 38 40 39 41 40 42 41 43
REMARK SMILES IDX 42 44 43 45 89 46 44 47 88 48 45 49 46 50 47 51 82 52 48 53
REMARK SMILES IDX 87 54 81 55 83 56 49 57 86 58 80 59 79 60 50 62 72 63 57 64
REMARK SMILES IDX 71 65 58 66 61 67 70 68 84 69 59 70 60 71 69 73 85 74 62 75
REMARK SMILES IDX 51 76 52 77 56 78 53 79 55 80 54 81 73 82 74 83 78 84 75 85
REMARK SMILES IDX 77 86 76 87 63 88 64 89 68 90 65 91 67 92 66 93
REMARK H PARENT 11 14 83 61 61 72
REMARK Flexibility Score: inf
ROOT
ATOM      1  C   UNL A   1      34.326  33.360  28.858  1.00  0.00     0.188 C 
ENDROOT
BRANCH   1   2
ATOM      2  C   UNL A   1      35.483  32.918  27.964  1.00  0.00     0.188 C 
BRANCH   2   3
ATOM      3  O   UNL A   1      35.402  31.638  27.373  1.00  0.00    -0.376 OA
BRANCH   3   4
ATOM      4  C   UNL A   1      34.175  30.929  27.525  1.00  0.00     0.202 C 
BRANCH   4   5
ATOM      5  C   UNL A   1      34.136  29.396  27.345  1.00  0.00     0.261 C 
BRANCH   5   6
ATOM      6  O   UNL A   1      34.409  28.909  26.001  1.00  0.00    -0.463 OA
BRANCH   6   7
ATOM      7  C   UNL A   1      33.730  27.799  25.619  1.00  0.00     0.310 C 
ATOM      8  O   UNL A   1      33.994  27.183  24.585  1.00  0.00    -0.252 OA
BRANCH   7   9
ATOM      9  C   UNL A   1      32.620  27.285  26.522  1.00  0.00     0.161 C 
BRANCH   9  10
ATOM     10  C   UNL A   1      31.336  26.680  25.993  1.00  0.00     0.000 A 
ATOM     11  C   UNL A   1      30.944  25.328  26.005  1.00  0.00     0.093 A 
ATOM     12  N   UNL A   1      29.676  25.290  25.458  1.00  0.00    -0.352 N 
ATOM     13  C   UNL A   1      29.453  26.425  24.714  1.00  0.00     0.046 A 
ATOM     14  H   UNL A   1      29.028  24.559  25.583  1.00  0.00     0.167 HD
ATOM     15  C   UNL A   1      30.466  27.320  25.043  1.00  0.00     0.008 A 
ATOM     16  C   UNL A   1      28.467  26.714  23.762  1.00  0.00     0.030 A 
ATOM     17  C   UNL A   1      30.516  28.550  24.353  1.00  0.00     0.057 A 
ATOM     18  C   UNL A   1      28.576  27.920  23.054  1.00  0.00     0.049 A 
ATOM     19  C   UNL A   1      29.604  28.820  23.322  1.00  0.00     0.130 A 
BRANCH  11  20
ATOM     20  C   UNL A   1      31.712  24.176  26.479  1.00  0.00     0.227 C 
ATOM     21  O   UNL A   1      31.735  23.841  27.665  1.00  0.00    -0.285 OA
BRANCH  20  22
ATOM     22  C   UNL A   1      32.575  23.368  25.572  1.00  0.00     0.113 A 
ATOM     23  C   UNL A   1      33.518  23.034  23.390  1.00  0.00    -0.044 A 
ATOM     24  C   UNL A   1      34.599  22.399  24.013  1.00  0.00     0.024 A 
ATOM     25  C   UNL A   1      32.481  23.527  24.194  1.00  0.00     0.036 A 
ATOM     26  C   UNL A   1      34.585  22.248  25.390  1.00  0.00     0.112 A 
ATOM     27  N   UNL A   1      33.594  22.706  26.180  1.00  0.00    -0.253 NA
BRANCH  23  28
ATOM     28  C   UNL A   1      33.524  23.345  21.912  1.00  0.00     0.032 C 
ATOM     29  C   UNL A   1      32.949  24.704  21.536  1.00  0.00     0.009 C 
ENDBRANCH  23  28
ENDBRANCH  20  22
ENDBRANCH  11  20
BRANCH  19  30
ATOM     30  O   UNL A   1      29.861  29.986  22.653  1.00  0.00    -0.406 OA
BRANCH  30  31
ATOM     31  C   UNL A   1      28.857  30.985  22.651  1.00  0.00     0.573 C 
ATOM     32  F   UNL A   1      27.869  30.700  21.776  1.00  0.00    -0.132 F 
ATOM     33  F   UNL A   1      28.335  31.142  23.885  1.00  0.00    -0.132 F 
ATOM     34  F   UNL A   1      29.417  32.159  22.278  1.00  0.00    -0.132 F 
ENDBRANCH  30  31
ENDBRANCH  19  30
ENDBRANCH   9  10
ENDBRANCH   7   9
ENDBRANCH   6   7
ENDBRANCH   5   6
ENDBRANCH   4   5
ENDBRANCH   3   4
ENDBRANCH   2   3
ENDBRANCH   1   2
BRANCH   1  35
ATOM     35  O   UNL A   1      33.971  34.732  28.887  1.00  0.00    -0.377 OA
BRANCH  35  36
ATOM     36  C   UNL A   1      32.994  35.194  29.807  1.00  0.00     0.188 C 
BRANCH  36  37
ATOM     37  C   UNL A   1      33.467  35.973  31.032  1.00  0.00     0.188 C 
BRANCH  37  38
ATOM     38  O   UNL A   1      34.396  35.349  31.921  1.00  0.00    -0.376 OA
BRANCH  38  39
ATOM     39  C   UNL A   1      33.938  34.801  33.154  1.00  0.00     0.202 C 
BRANCH  39  40
ATOM     40  C   UNL A   1      34.173  33.304  33.309  1.00  0.00     0.261 C 
BRANCH  40  41
ATOM     41  O   UNL A   1      35.270  32.880  32.493  1.00  0.00    -0.460 OA
BRANCH  41  42
ATOM     42  C   UNL A   1      36.343  32.427  33.176  1.00  0.00     0.338 C 
ATOM     43  O   UNL A   1      36.560  32.516  34.374  1.00  0.00    -0.246 OA
BRANCH  42  44
ATOM     44  C   UNL A   1      37.183  31.640  32.261  1.00  0.00     0.060 A 
ATOM     45  C   UNL A   1      37.879  30.543  32.787  1.00  0.00     0.016 A 
ATOM     46  C   UNL A   1      37.323  32.004  30.920  1.00  0.00     0.016 A 
ATOM     47  C   UNL A   1      38.766  29.838  31.987  1.00  0.00     0.010 A 
ATOM     48  C   UNL A   1      38.225  31.307  30.120  1.00  0.00     0.010 A 
ATOM     49  C   UNL A   1      38.981  30.257  30.669  1.00  0.00    -0.014 A 
BRANCH  49  50
ATOM     50  C   UNL A   1      40.168  29.767  29.943  1.00  0.00     0.031 A 
ATOM     51  C   UNL A   1      41.315  30.717  29.754  1.00  0.00     0.074 A 
ATOM     52  C   UNL A   1      40.225  28.507  29.487  1.00  0.00     0.049 A 
ATOM     53  N   UNL A   1      42.434  30.549  29.103  1.00  0.00    -0.248 NA
ATOM     54  C   UNL A   1      41.173  32.043  30.382  1.00  0.00     0.031 C 
ATOM     55  C   UNL A   1      39.195  27.488  29.682  1.00  0.00     0.029 A 
ATOM     56  N   UNL A   1      41.199  27.877  28.763  1.00  0.00    -0.354 N 
ATOM     57  C   UNL A   1      43.125  31.747  29.235  1.00  0.00     0.074 A 
ATOM     58  C   UNL A   1      42.284  32.647  29.990  1.00  0.00     0.031 C 
ATOM     59  C   UNL A   1      39.595  26.353  29.084  1.00  0.00     0.029 A 
ATOM     60  C   UNL A   1      40.883  26.583  28.435  1.00  0.00     0.049 A 
ATOM     61  H   UNL A   1      42.045  28.308  28.503  1.00  0.00     0.167 HD
ATOM     62  C   UNL A   1      44.355  32.066  28.769  1.00  0.00     0.031 A 
ATOM     63  C   UNL A   1      41.557  25.700  27.676  1.00  0.00     0.031 A 
ATOM     64  C   UNL A   1      45.166  31.172  27.990  1.00  0.00     0.049 A 
ATOM     65  C   UNL A   1      42.871  26.115  27.072  1.00  0.00     0.074 A 
ATOM     66  C   UNL A   1      46.423  31.386  27.456  1.00  0.00     0.029 A 
ATOM     67  N   UNL A   1      44.786  29.888  27.625  1.00  0.00    -0.354 N 
ATOM     68  N   UNL A   1      43.523  27.246  27.202  1.00  0.00    -0.248 NA
ATOM     69  C   UNL A   1      43.545  25.126  26.220  1.00  0.00     0.031 C 
ATOM     70  C   UNL A   1      46.774  30.255  26.712  1.00  0.00     0.029 A 
ATOM     71  C   UNL A   1      45.771  29.308  26.846  1.00  0.00     0.049 A 
ATOM     72  H   UNL A   1      43.940  29.454  27.882  1.00  0.00     0.167 HD
ATOM     73  C   UNL A   1      44.701  27.092  26.480  1.00  0.00     0.074 A 
ATOM     74  C   UNL A   1      44.675  25.755  25.922  1.00  0.00     0.031 C 
ATOM     75  C   UNL A   1      45.718  27.973  26.301  1.00  0.00     0.031 A 
BRANCH  62  76
ATOM     76  C   UNL A   1      44.854  33.458  29.051  1.00  0.00    -0.014 A 
ATOM     77  C   UNL A   1      44.590  34.525  28.175  1.00  0.00     0.009 A 
ATOM     78  C   UNL A   1      45.618  33.703  30.202  1.00  0.00     0.009 A 
ATOM     79  C   UNL A   1      45.125  35.792  28.419  1.00  0.00     0.001 A 
ATOM     80  C   UNL A   1      46.122  34.979  30.462  1.00  0.00     0.001 A 
ATOM     81  C   UNL A   1      45.888  36.018  29.563  1.00  0.00     0.000 A 
ENDBRANCH  62  76
BRANCH  63  82
ATOM     82  C   UNL A   1      41.000  24.342  27.445  1.00  0.00    -0.014 A 
ATOM     83  C   UNL A   1      41.514  23.236  28.137  1.00  0.00     0.009 A 
ATOM     84  C   UNL A   1      39.948  24.143  26.537  1.00  0.00     0.009 A 
ATOM     85  C   UNL A   1      41.002  21.956  27.910  1.00  0.00     0.001 A 
ATOM     86  C   UNL A   1      39.416  22.867  26.334  1.00  0.00     0.001 A 
ATOM     87  C   UNL A   1      39.950  21.774  27.015  1.00  0.00     0.000 A 
ENDBRANCH  63  82
BRANCH  75  88
ATOM     88  C   UNL A   1      46.906  27.500  25.510  1.00  0.00    -0.014 A 
ATOM     89  C   UNL A   1      47.009  27.727  24.129  1.00  0.00     0.009 A 
ATOM     90  C   UNL A   1      47.964  26.858  26.174  1.00  0.00     0.009 A 
ATOM     91  C   UNL A   1      48.133  27.289  23.424  1.00  0.00     0.001 A 
ATOM     92  C   UNL A   1      49.101  26.454  25.474  1.00  0.00     0.001 A 
ATOM     93  C   UNL A   1      49.180  26.660  24.099  1.00  0.00     0.000 A 
ENDBRANCH  75  88
ENDBRANCH  49  50
ENDBRANCH  42  44
ENDBRANCH  41  42
ENDBRANCH  40  41
ENDBRANCH  39  40
ENDBRANCH  38  39
ENDBRANCH  37  38
ENDBRANCH  36  37
ENDBRANCH  35  36
ENDBRANCH   1  35
TORSDOF 26
ENDMDL
