MODEL 1
REMARK VINA RESULT:      -9.9      0.000      0.000
REMARK SMILES COc1ccc(F)c(NC(=O)N2CCCC[C@@H]2C(=O)OCCOCCOCCOCCOC(=O)c2ccc(-c3c4nc(c(-c5ccccc5)c5ccc([nH]5)c(-c5ccccc5)c5nc(c(-c6ccccc6)c6ccc3[nH]6)C=C5)C=C4)cc2)c1
REMARK SMILES IDX 25 1 24 2 23 3 22 4 21 5 20 6 18 7 19 8 17 9 12 10 13 11
REMARK SMILES IDX 14 12 16 13 15 14 10 15 9 16 11 18 8 19 3 20 4 21 83 22 5 23
REMARK SMILES IDX 6 24 7 25 2 26 1 27 26 28 27 29 28 30 29 31 30 32 31 33
REMARK SMILES IDX 32 34 33 35 34 36 35 37 36 38 82 39 37 40 81 41 38 42 39 43
REMARK SMILES IDX 40 44 75 45 41 46 80 47 74 48 76 49 42 50 79 51 73 52 72 53
REMARK SMILES IDX 43 55 65 56 50 57 64 58 51 59 54 60 63 61 77 62 52 63 53 64
REMARK SMILES IDX 62 66 78 67 55 68 44 69 45 70 49 71 46 72 48 73 47 74 66 75
REMARK SMILES IDX 67 76 71 77 68 78 70 79 69 80 56 81 57 82 61 83 58 84 60 85
REMARK SMILES IDX 59 86
REMARK H PARENT 9 17 76 54 54 65
REMARK Flexibility Score: inf
ROOT
ATOM      1  C   UNL A   1      40.458  21.941  27.030  1.00  0.00     0.188 C 
ENDROOT
BRANCH   1   2
ATOM      2  C   UNL A   1      39.153  22.600  26.552  1.00  0.00     0.188 C 
BRANCH   2   3
ATOM      3  O   UNL A   1      38.297  21.743  25.815  1.00  0.00    -0.376 OA
BRANCH   3   4
ATOM      4  C   UNL A   1      37.020  22.213  25.420  1.00  0.00     0.202 C 
BRANCH   4   5
ATOM      5  C   UNL A   1      36.764  23.747  25.393  1.00  0.00     0.261 C 
BRANCH   5   6
ATOM      6  O   UNL A   1      35.601  24.238  26.095  1.00  0.00    -0.462 OA
BRANCH   6   7
ATOM      7  C   UNL A   1      34.566  23.379  25.999  1.00  0.00     0.329 C 
ATOM      8  O   UNL A   1      34.399  22.557  26.887  1.00  0.00    -0.250 OA
BRANCH   7   9
ATOM      9  C   UNL A   1      33.588  23.567  24.810  1.00  0.00     0.196 C 
ATOM     10  N   UNL A   1      32.280  24.190  25.169  1.00  0.00    -0.311 N 
ATOM     11  C   UNL A   1      31.226  24.241  24.163  1.00  0.00     0.122 C 
ATOM     12  C   UNL A   1      31.092  22.976  23.327  1.00  0.00     0.022 C 
ATOM     13  C   UNL A   1      33.385  22.287  23.969  1.00  0.00     0.037 C 
ATOM     14  C   UNL A   1      32.446  22.544  22.791  1.00  0.00     0.005 C 
BRANCH  10  15
ATOM     15  C   UNL A   1      31.956  24.659  26.418  1.00  0.00     0.322 C 
ATOM     16  N   UNL A   1      31.985  25.991  26.698  1.00  0.00    -0.305 N 
ATOM     17  H   UNL A   1      31.850  26.197  27.652  1.00  0.00     0.171 HD
ATOM     18  O   UNL A   1      31.645  23.869  27.314  1.00  0.00    -0.248 OA
BRANCH  16  19
ATOM     19  C   UNL A   1      32.171  27.139  25.891  1.00  0.00     0.082 A 
ATOM     20  C   UNL A   1      31.487  28.593  24.075  1.00  0.00     0.121 A 
ATOM     21  C   UNL A   1      32.816  28.964  23.855  1.00  0.00     0.049 A 
ATOM     22  C   UNL A   1      31.165  27.715  25.119  1.00  0.00     0.075 A 
ATOM     23  C   UNL A   1      33.819  28.476  24.694  1.00  0.00     0.045 A 
ATOM     24  C   UNL A   1      33.490  27.590  25.718  1.00  0.00     0.147 A 
ATOM     25  F   UNL A   1      34.485  27.041  26.436  1.00  0.00    -0.205 F 
BRANCH  20  26
ATOM     26  O   UNL A   1      30.419  29.007  23.325  1.00  0.00    -0.497 OA
ATOM     27  C   UNL A   1      29.442  28.014  23.030  1.00  0.00     0.278 C 
ENDBRANCH  20  26
ENDBRANCH  16  19
ENDBRANCH  10  15
ENDBRANCH   7   9
ENDBRANCH   6   7
ENDBRANCH   5   6
ENDBRANCH   4   5
ENDBRANCH   3   4
ENDBRANCH   2   3
ENDBRANCH   1   2
BRANCH   1  28
ATOM     28  O   UNL A   1      40.702  20.590  26.675  1.00  0.00    -0.377 OA
BRANCH  28  29
ATOM     29  C   UNL A   1      42.007  20.043  26.860  1.00  0.00     0.188 C 
BRANCH  29  30
ATOM     30  C   UNL A   1      42.642  19.154  25.767  1.00  0.00     0.188 C 
BRANCH  30  31
ATOM     31  O   UNL A   1      43.549  19.831  24.916  1.00  0.00    -0.376 OA
BRANCH  31  32
ATOM     32  C   UNL A   1      44.111  21.036  25.409  1.00  0.00     0.202 C 
BRANCH  32  33
ATOM     33  C   UNL A   1      44.386  22.161  24.397  1.00  0.00     0.261 C 
BRANCH  33  34
ATOM     34  O   UNL A   1      43.739  23.426  24.634  1.00  0.00    -0.460 OA
BRANCH  34  35
ATOM     35  C   UNL A   1      44.490  24.477  25.025  1.00  0.00     0.338 C 
ATOM     36  O   UNL A   1      45.592  24.792  24.605  1.00  0.00    -0.246 OA
BRANCH  35  37
ATOM     37  C   UNL A   1      43.655  25.330  25.900  1.00  0.00     0.060 A 
ATOM     38  C   UNL A   1      43.921  26.707  25.971  1.00  0.00     0.016 A 
ATOM     39  C   UNL A   1      42.602  24.780  26.634  1.00  0.00     0.016 A 
ATOM     40  C   UNL A   1      43.166  27.526  26.810  1.00  0.00     0.010 A 
ATOM     41  C   UNL A   1      41.868  25.595  27.500  1.00  0.00     0.010 A 
ATOM     42  C   UNL A   1      42.176  26.962  27.622  1.00  0.00    -0.014 A 
BRANCH  42  43
ATOM     43  C   UNL A   1      41.647  27.739  28.771  1.00  0.00     0.031 A 
ATOM     44  C   UNL A   1      42.400  27.667  30.072  1.00  0.00     0.074 A 
ATOM     45  C   UNL A   1      40.557  28.517  28.662  1.00  0.00     0.049 A 
ATOM     46  N   UNL A   1      42.122  28.215  31.227  1.00  0.00    -0.248 NA
ATOM     47  C   UNL A   1      43.636  26.865  30.068  1.00  0.00     0.031 C 
ATOM     48  C   UNL A   1      39.779  28.727  27.443  1.00  0.00     0.029 A 
ATOM     49  N   UNL A   1      39.917  29.279  29.608  1.00  0.00    -0.354 N 
ATOM     50  C   UNL A   1      43.141  27.817  32.084  1.00  0.00     0.074 A 
ATOM     51  C   UNL A   1      44.024  26.957  31.330  1.00  0.00     0.031 C 
ATOM     52  C   UNL A   1      38.759  29.560  27.718  1.00  0.00     0.029 A 
ATOM     53  C   UNL A   1      38.791  29.910  29.137  1.00  0.00     0.049 A 
ATOM     54  H   UNL A   1      40.234  29.365  30.537  1.00  0.00     0.167 HD
ATOM     55  C   UNL A   1      43.329  28.142  33.385  1.00  0.00     0.031 A 
ATOM     56  C   UNL A   1      37.882  30.662  29.787  1.00  0.00     0.031 A 
ATOM     57  C   UNL A   1      42.442  28.981  34.142  1.00  0.00     0.049 A 
ATOM     58  C   UNL A   1      38.056  30.925  31.261  1.00  0.00     0.074 A 
ATOM     59  C   UNL A   1      42.543  29.369  35.466  1.00  0.00     0.029 A 
ATOM     60  N   UNL A   1      41.282  29.552  33.643  1.00  0.00    -0.354 N 
ATOM     61  N   UNL A   1      39.028  30.553  32.061  1.00  0.00    -0.248 NA
ATOM     62  C   UNL A   1      37.009  31.718  31.921  1.00  0.00     0.031 C 
ATOM     63  C   UNL A   1      41.410  30.122  35.786  1.00  0.00     0.029 A 
ATOM     64  C   UNL A   1      40.642  30.267  34.641  1.00  0.00     0.049 A 
ATOM     65  H   UNL A   1      40.961  29.463  32.717  1.00  0.00     0.167 HD
ATOM     66  C   UNL A   1      38.726  31.097  33.305  1.00  0.00     0.074 A 
ATOM     67  C   UNL A   1      37.491  31.836  33.150  1.00  0.00     0.031 C 
ATOM     68  C   UNL A   1      39.412  30.998  34.471  1.00  0.00     0.031 A 
BRANCH  55  69
ATOM     69  C   UNL A   1      44.524  27.547  34.080  1.00  0.00    -0.014 A 
ATOM     70  C   UNL A   1      45.736  28.249  34.184  1.00  0.00     0.009 A 
ATOM     71  C   UNL A   1      44.426  26.273  34.660  1.00  0.00     0.009 A 
ATOM     72  C   UNL A   1      46.833  27.671  34.826  1.00  0.00     0.001 A 
ATOM     73  C   UNL A   1      45.514  25.711  35.328  1.00  0.00     0.001 A 
ATOM     74  C   UNL A   1      46.720  26.406  35.402  1.00  0.00     0.000 A 
ENDBRANCH  55  69
BRANCH  56  75
ATOM     75  C   UNL A   1      36.704  31.211  29.060  1.00  0.00    -0.014 A 
ATOM     76  C   UNL A   1      35.609  30.392  28.744  1.00  0.00     0.009 A 
ATOM     77  C   UNL A   1      36.684  32.554  28.649  1.00  0.00     0.009 A 
ATOM     78  C   UNL A   1      34.535  30.896  28.007  1.00  0.00     0.001 A 
ATOM     79  C   UNL A   1      35.593  33.065  27.942  1.00  0.00     0.001 A 
ATOM     80  C   UNL A   1      34.525  32.233  27.611  1.00  0.00     0.000 A 
ENDBRANCH  56  75
BRANCH  68  81
ATOM     81  C   UNL A   1      38.872  31.745  35.660  1.00  0.00    -0.014 A 
ATOM     82  C   UNL A   1      39.064  33.126  35.813  1.00  0.00     0.009 A 
ATOM     83  C   UNL A   1      38.118  31.055  36.624  1.00  0.00     0.009 A 
ATOM     84  C   UNL A   1      38.546  33.793  36.926  1.00  0.00     0.001 A 
ATOM     85  C   UNL A   1      37.570  31.730  37.717  1.00  0.00     0.001 A 
ATOM     86  C   UNL A   1      37.796  33.097  37.872  1.00  0.00     0.000 A 
ENDBRANCH  68  81
ENDBRANCH  42  43
ENDBRANCH  35  37
ENDBRANCH  34  35
ENDBRANCH  33  34
ENDBRANCH  32  33
ENDBRANCH  31  32
ENDBRANCH  30  31
ENDBRANCH  29  30
ENDBRANCH  28  29
ENDBRANCH   1  28
TORSDOF 23
ENDMDL
MODEL 2
REMARK VINA RESULT:      -9.6      1.412      6.014
REMARK SMILES COc1ccc(F)c(NC(=O)N2CCCC[C@@H]2C(=O)OCCOCCOCCOCCOC(=O)c2ccc(-c3c4nc(c(-c5ccccc5)c5ccc([nH]5)c(-c5ccccc5)c5nc(c(-c6ccccc6)c6ccc3[nH]6)C=C5)C=C4)cc2)c1
REMARK SMILES IDX 25 1 24 2 23 3 22 4 21 5 20 6 18 7 19 8 17 9 12 10 13 11
REMARK SMILES IDX 14 12 16 13 15 14 10 15 9 16 11 18 8 19 3 20 4 21 83 22 5 23
REMARK SMILES IDX 6 24 7 25 2 26 1 27 26 28 27 29 28 30 29 31 30 32 31 33
REMARK SMILES IDX 32 34 33 35 34 36 35 37 36 38 82 39 37 40 81 41 38 42 39 43
REMARK SMILES IDX 40 44 75 45 41 46 80 47 74 48 76 49 42 50 79 51 73 52 72 53
REMARK SMILES IDX 43 55 65 56 50 57 64 58 51 59 54 60 63 61 77 62 52 63 53 64
REMARK SMILES IDX 62 66 78 67 55 68 44 69 45 70 49 71 46 72 48 73 47 74 66 75
REMARK SMILES IDX 67 76 71 77 68 78 70 79 69 80 56 81 57 82 61 83 58 84 60 85
REMARK SMILES IDX 59 86
REMARK H PARENT 9 17 76 54 54 65
REMARK Flexibility Score: inf
ROOT
ATOM      1  C   UNL A   1      39.133  22.328  26.207  1.00  0.00     0.188 C 
ENDROOT
BRANCH   1   2
ATOM      2  C   UNL A   1      38.143  23.502  26.131  1.00  0.00     0.188 C 
BRANCH   2   3
ATOM      3  O   UNL A   1      37.154  23.372  25.124  1.00  0.00    -0.376 OA
BRANCH   3   4
ATOM      4  C   UNL A   1      36.025  22.549  25.365  1.00  0.00     0.202 C 
BRANCH   4   5
ATOM      5  C   UNL A   1      34.933  22.436  24.263  1.00  0.00     0.261 C 
BRANCH   5   6
ATOM      6  O   UNL A   1      33.872  23.417  24.277  1.00  0.00    -0.462 OA
BRANCH   6   7
ATOM      7  C   UNL A   1      33.277  23.483  25.486  1.00  0.00     0.329 C 
ATOM      8  O   UNL A   1      32.916  22.445  26.021  1.00  0.00    -0.250 OA
BRANCH   7   9
ATOM      9  C   UNL A   1      33.187  24.874  26.164  1.00  0.00     0.196 C 
ATOM     10  N   UNL A   1      31.798  25.347  26.441  1.00  0.00    -0.311 N 
ATOM     11  C   UNL A   1      31.601  26.714  26.906  1.00  0.00     0.122 C 
ATOM     12  C   UNL A   1      32.472  27.748  26.207  1.00  0.00     0.022 C 
ATOM     13  C   UNL A   1      34.016  25.964  25.451  1.00  0.00     0.037 C 
ATOM     14  C   UNL A   1      33.922  27.300  26.188  1.00  0.00     0.005 C 
BRANCH  10  15
ATOM     15  C   UNL A   1      30.663  24.608  26.213  1.00  0.00     0.322 C 
ATOM     16  N   UNL A   1      29.847  24.880  25.158  1.00  0.00    -0.305 N 
ATOM     17  H   UNL A   1      29.008  24.365  25.165  1.00  0.00     0.171 HD
ATOM     18  O   UNL A   1      30.360  23.689  26.979  1.00  0.00    -0.248 OA
BRANCH  16  19
ATOM     19  C   UNL A   1      29.965  25.757  24.053  1.00  0.00     0.082 A 
ATOM     20  C   UNL A   1      31.307  26.982  22.447  1.00  0.00     0.121 A 
ATOM     21  C   UNL A   1      30.317  27.963  22.349  1.00  0.00     0.049 A 
ATOM     22  C   UNL A   1      31.110  25.861  23.265  1.00  0.00     0.075 A 
ATOM     23  C   UNL A   1      29.120  27.810  23.052  1.00  0.00     0.045 A 
ATOM     24  C   UNL A   1      28.941  26.702  23.876  1.00  0.00     0.147 A 
ATOM     25  F   UNL A   1      27.833  26.637  24.634  1.00  0.00    -0.205 F 
BRANCH  20  26
ATOM     26  O   UNL A   1      32.517  27.017  21.806  1.00  0.00    -0.497 OA
ATOM     27  C   UNL A   1      33.259  25.803  21.808  1.00  0.00     0.278 C 
ENDBRANCH  20  26
ENDBRANCH  16  19
ENDBRANCH  10  15
ENDBRANCH   7   9
ENDBRANCH   6   7
ENDBRANCH   5   6
ENDBRANCH   4   5
ENDBRANCH   3   4
ENDBRANCH   2   3
ENDBRANCH   1   2
BRANCH   1  28
ATOM     28  O   UNL A   1      40.027  22.267  27.307  1.00  0.00    -0.377 OA
BRANCH  28  29
ATOM     29  C   UNL A   1      41.399  21.954  27.076  1.00  0.00     0.188 C 
BRANCH  29  30
ATOM     30  C   UNL A   1      41.787  20.795  26.130  1.00  0.00     0.188 C 
BRANCH  30  31
ATOM     31  O   UNL A   1      42.723  21.146  25.127  1.00  0.00    -0.376 OA
BRANCH  31  32
ATOM     32  C   UNL A   1      44.082  21.235  25.523  1.00  0.00     0.202 C 
BRANCH  32  33
ATOM     33  C   UNL A   1      44.749  22.620  25.477  1.00  0.00     0.261 C 
BRANCH  33  34
ATOM     34  O   UNL A   1      43.888  23.752  25.244  1.00  0.00    -0.460 OA
BRANCH  34  35
ATOM     35  C   UNL A   1      44.410  24.993  25.332  1.00  0.00     0.338 C 
ATOM     36  O   UNL A   1      45.271  25.483  24.618  1.00  0.00    -0.246 OA
BRANCH  35  37
ATOM     37  C   UNL A   1      43.602  25.757  26.309  1.00  0.00     0.060 A 
ATOM     38  C   UNL A   1      43.941  27.091  26.585  1.00  0.00     0.016 A 
ATOM     39  C   UNL A   1      42.502  25.167  26.936  1.00  0.00     0.016 A 
ATOM     40  C   UNL A   1      43.211  27.822  27.523  1.00  0.00     0.010 A 
ATOM     41  C   UNL A   1      41.792  25.889  27.899  1.00  0.00     0.010 A 
ATOM     42  C   UNL A   1      42.171  27.204  28.226  1.00  0.00    -0.014 A 
BRANCH  42  43
ATOM     43  C   UNL A   1      41.657  27.835  29.467  1.00  0.00     0.031 A 
ATOM     44  C   UNL A   1      40.378  28.623  29.376  1.00  0.00     0.074 A 
ATOM     45  C   UNL A   1      42.277  27.686  30.650  1.00  0.00     0.049 A 
ATOM     46  N   UNL A   1      39.749  29.301  30.301  1.00  0.00    -0.248 NA
ATOM     47  C   UNL A   1      39.721  28.649  28.057  1.00  0.00     0.031 C 
ATOM     48  C   UNL A   1      43.482  26.894  30.887  1.00  0.00     0.029 A 
ATOM     49  N   UNL A   1      41.967  28.207  31.883  1.00  0.00    -0.354 N 
ATOM     50  C   UNL A   1      38.631  29.838  29.675  1.00  0.00     0.074 A 
ATOM     51  C   UNL A   1      38.683  29.439  28.288  1.00  0.00     0.031 C 
ATOM     52  C   UNL A   1      43.814  26.987  32.186  1.00  0.00     0.029 A 
ATOM     53  C   UNL A   1      42.869  27.873  32.864  1.00  0.00     0.049 A 
ATOM     54  H   UNL A   1      41.174  28.767  32.047  1.00  0.00     0.167 HD
ATOM     55  C   UNL A   1      37.644  30.596  30.208  1.00  0.00     0.031 A 
ATOM     56  C   UNL A   1      42.932  28.261  34.152  1.00  0.00     0.031 A 
ATOM     57  C   UNL A   1      37.601  31.012  31.583  1.00  0.00     0.049 A 
ATOM     58  C   UNL A   1      41.878  29.191  34.698  1.00  0.00     0.074 A 
ATOM     59  C   UNL A   1      36.645  31.781  32.221  1.00  0.00     0.029 A 
ATOM     60  N   UNL A   1      38.564  30.701  32.529  1.00  0.00    -0.354 N 
ATOM     61  N   UNL A   1      40.819  29.686  34.102  1.00  0.00    -0.248 NA
ATOM     62  C   UNL A   1      42.026  29.610  36.099  1.00  0.00     0.031 C 
ATOM     63  C   UNL A   1      37.063  31.990  33.538  1.00  0.00     0.029 A 
ATOM     64  C   UNL A   1      38.240  31.287  33.741  1.00  0.00     0.049 A 
ATOM     65  H   UNL A   1      39.360  30.145  32.365  1.00  0.00     0.167 HD
ATOM     66  C   UNL A   1      40.159  30.442  35.063  1.00  0.00     0.074 A 
ATOM     67  C   UNL A   1      40.928  30.329  36.285  1.00  0.00     0.031 C 
ATOM     68  C   UNL A   1      39.016  31.163  34.949  1.00  0.00     0.031 A 
BRANCH  55  69
ATOM     69  C   UNL A   1      36.552  31.059  29.282  1.00  0.00    -0.014 A 
ATOM     70  C   UNL A   1      35.527  30.193  28.867  1.00  0.00     0.009 A 
ATOM     71  C   UNL A   1      36.536  32.390  28.839  1.00  0.00     0.009 A 
ATOM     72  C   UNL A   1      34.529  30.644  28.000  1.00  0.00     0.001 A 
ATOM     73  C   UNL A   1      35.521  32.847  27.998  1.00  0.00     0.001 A 
ATOM     74  C   UNL A   1      34.524  31.971  27.571  1.00  0.00     0.000 A 
ENDBRANCH  55  69
BRANCH  56  75
ATOM     75  C   UNL A   1      44.045  27.794  35.024  1.00  0.00    -0.014 A 
ATOM     76  C   UNL A   1      45.242  28.521  35.112  1.00  0.00     0.009 A 
ATOM     77  C   UNL A   1      43.928  26.596  35.747  1.00  0.00     0.009 A 
ATOM     78  C   UNL A   1      46.306  28.045  35.882  1.00  0.00     0.001 A 
ATOM     79  C   UNL A   1      44.981  26.139  36.543  1.00  0.00     0.001 A 
ATOM     80  C   UNL A   1      46.173  26.857  36.600  1.00  0.00     0.000 A 
ENDBRANCH  56  75
BRANCH  68  81
ATOM     81  C   UNL A   1      38.498  31.846  36.186  1.00  0.00    -0.014 A 
ATOM     82  C   UNL A   1      37.713  31.165  37.130  1.00  0.00     0.009 A 
ATOM     83  C   UNL A   1      38.841  33.186  36.430  1.00  0.00     0.009 A 
ATOM     84  C   UNL A   1      37.251  31.825  38.271  1.00  0.00     0.001 A 
ATOM     85  C   UNL A   1      38.407  33.833  37.589  1.00  0.00     0.001 A 
ATOM     86  C   UNL A   1      37.603  33.154  38.502  1.00  0.00     0.000 A 
ENDBRANCH  68  81
ENDBRANCH  42  43
ENDBRANCH  35  37
ENDBRANCH  34  35
ENDBRANCH  33  34
ENDBRANCH  32  33
ENDBRANCH  31  32
ENDBRANCH  30  31
ENDBRANCH  29  30
ENDBRANCH  28  29
ENDBRANCH   1  28
TORSDOF 23
ENDMDL
MODEL 3
REMARK VINA RESULT:      -9.4      1.311      2.000
REMARK SMILES COc1ccc(F)c(NC(=O)N2CCCC[C@@H]2C(=O)OCCOCCOCCOCCOC(=O)c2ccc(-c3c4nc(c(-c5ccccc5)c5ccc([nH]5)c(-c5ccccc5)c5nc(c(-c6ccccc6)c6ccc3[nH]6)C=C5)C=C4)cc2)c1
REMARK SMILES IDX 25 1 24 2 23 3 22 4 21 5 20 6 18 7 19 8 17 9 12 10 13 11
REMARK SMILES IDX 14 12 16 13 15 14 10 15 9 16 11 18 8 19 3 20 4 21 83 22 5 23
REMARK SMILES IDX 6 24 7 25 2 26 1 27 26 28 27 29 28 30 29 31 30 32 31 33
REMARK SMILES IDX 32 34 33 35 34 36 35 37 36 38 82 39 37 40 81 41 38 42 39 43
REMARK SMILES IDX 40 44 75 45 41 46 80 47 74 48 76 49 42 50 79 51 73 52 72 53
REMARK SMILES IDX 43 55 65 56 50 57 64 58 51 59 54 60 63 61 77 62 52 63 53 64
REMARK SMILES IDX 62 66 78 67 55 68 44 69 45 70 49 71 46 72 48 73 47 74 66 75
REMARK SMILES IDX 67 76 71 77 68 78 70 79 69 80 56 81 57 82 61 83 58 84 60 85
REMARK SMILES IDX 59 86
REMARK H PARENT 9 17 76 54 54 65
REMARK Flexibility Score: inf
ROOT
ATOM      1  C   UNL A   1      39.531  21.662  26.424  1.00  0.00     0.188 C 
ENDROOT
BRANCH   1   2
ATOM      2  C   UNL A   1      38.279  22.060  25.626  1.00  0.00     0.188 C 
BRANCH   2   3
ATOM      3  O   UNL A   1      37.633  20.982  24.969  1.00  0.00    -0.376 OA
BRANCH   3   4
ATOM      4  C   UNL A   1      36.225  21.011  24.813  1.00  0.00     0.202 C 
BRANCH   4   5
ATOM      5  C   UNL A   1      35.516  22.389  24.674  1.00  0.00     0.261 C 
BRANCH   5   6
ATOM      6  O   UNL A   1      34.651  22.801  25.755  1.00  0.00    -0.462 OA
BRANCH   6   7
ATOM      7  C   UNL A   1      34.079  23.997  25.501  1.00  0.00     0.329 C 
ATOM      8  O   UNL A   1      34.797  24.978  25.377  1.00  0.00    -0.250 OA
BRANCH   7   9
ATOM      9  C   UNL A   1      32.545  24.023  25.277  1.00  0.00     0.196 C 
ATOM     10  N   UNL A   1      32.116  24.561  23.952  1.00  0.00    -0.311 N 
ATOM     11  C   UNL A   1      30.697  24.798  23.716  1.00  0.00     0.122 C 
ATOM     12  C   UNL A   1      29.957  25.413  24.895  1.00  0.00     0.022 C 
ATOM     13  C   UNL A   1      31.763  24.689  26.430  1.00  0.00     0.037 C 
ATOM     14  C   UNL A   1      30.257  24.649  26.172  1.00  0.00     0.005 C 
BRANCH  10  15
ATOM     15  C   UNL A   1      32.974  24.931  22.946  1.00  0.00     0.322 C 
ATOM     16  N   UNL A   1      33.173  26.242  22.639  1.00  0.00    -0.305 N 
ATOM     17  H   UNL A   1      33.714  26.380  21.828  1.00  0.00     0.171 HD
ATOM     18  O   UNL A   1      33.569  24.069  22.293  1.00  0.00    -0.248 OA
BRANCH  16  19
ATOM     19  C   UNL A   1      32.756  27.447  23.254  1.00  0.00     0.082 A 
ATOM     20  C   UNL A   1      32.671  28.939  25.164  1.00  0.00     0.121 A 
ATOM     21  C   UNL A   1      31.438  29.438  24.735  1.00  0.00     0.049 A 
ATOM     22  C   UNL A   1      33.345  27.976  24.400  1.00  0.00     0.075 A 
ATOM     23  C   UNL A   1      30.893  28.991  23.530  1.00  0.00     0.045 A 
ATOM     24  C   UNL A   1      31.563  28.022  22.787  1.00  0.00     0.147 A 
ATOM     25  F   UNL A   1      30.962  27.521  21.694  1.00  0.00    -0.205 F 
BRANCH  20  26
ATOM     26  O   UNL A   1      33.307  29.300  26.321  1.00  0.00    -0.497 OA
ATOM     27  C   UNL A   1      34.521  28.613  26.606  1.00  0.00     0.278 C 
ENDBRANCH  20  26
ENDBRANCH  16  19
ENDBRANCH  10  15
ENDBRANCH   7   9
ENDBRANCH   6   7
ENDBRANCH   5   6
ENDBRANCH   4   5
ENDBRANCH   3   4
ENDBRANCH   2   3
ENDBRANCH   1   2
BRANCH   1  28
ATOM     28  O   UNL A   1      39.865  20.287  26.517  1.00  0.00    -0.377 OA
BRANCH  28  29
ATOM     29  C   UNL A   1      41.141  19.910  27.033  1.00  0.00     0.188 C 
BRANCH  29  30
ATOM     30  C   UNL A   1      42.384  20.782  26.751  1.00  0.00     0.188 C 
BRANCH  30  31
ATOM     31  O   UNL A   1      42.883  20.682  25.430  1.00  0.00    -0.376 OA
BRANCH  31  32
ATOM     32  C   UNL A   1      44.281  20.854  25.259  1.00  0.00     0.202 C 
BRANCH  32  33
ATOM     33  C   UNL A   1      44.801  22.284  25.032  1.00  0.00     0.261 C 
BRANCH  33  34
ATOM     34  O   UNL A   1      43.960  23.363  25.482  1.00  0.00    -0.460 OA
BRANCH  34  35
ATOM     35  C   UNL A   1      44.418  24.629  25.380  1.00  0.00     0.338 C 
ATOM     36  O   UNL A   1      45.235  25.055  24.579  1.00  0.00    -0.246 OA
BRANCH  35  37
ATOM     37  C   UNL A   1      43.592  25.482  26.264  1.00  0.00     0.060 A 
ATOM     38  C   UNL A   1      43.776  26.874  26.240  1.00  0.00     0.016 A 
ATOM     39  C   UNL A   1      42.627  24.916  27.099  1.00  0.00     0.016 A 
ATOM     40  C   UNL A   1      43.030  27.696  27.084  1.00  0.00     0.010 A 
ATOM     41  C   UNL A   1      41.904  25.736  27.968  1.00  0.00     0.010 A 
ATOM     42  C   UNL A   1      42.134  27.124  27.994  1.00  0.00    -0.014 A 
BRANCH  42  43
ATOM     43  C   UNL A   1      41.636  27.935  29.132  1.00  0.00     0.031 A 
ATOM     44  C   UNL A   1      42.361  27.818  30.446  1.00  0.00     0.074 A 
ATOM     45  C   UNL A   1      40.600  28.781  29.005  1.00  0.00     0.049 A 
ATOM     46  N   UNL A   1      42.099  28.386  31.596  1.00  0.00    -0.248 NA
ATOM     47  C   UNL A   1      43.543  26.939  30.464  1.00  0.00     0.031 C 
ATOM     48  C   UNL A   1      39.857  29.038  27.772  1.00  0.00     0.029 A 
ATOM     49  N   UNL A   1      39.993  29.584  29.938  1.00  0.00    -0.354 N 
ATOM     50  C   UNL A   1      43.076  27.926  32.471  1.00  0.00     0.074 A 
ATOM     51  C   UNL A   1      43.914  27.009  31.733  1.00  0.00     0.031 C 
ATOM     52  C   UNL A   1      38.888  29.934  28.028  1.00  0.00     0.029 A 
ATOM     53  C   UNL A   1      38.918  30.284  29.448  1.00  0.00     0.049 A 
ATOM     54  H   UNL A   1      40.300  29.651  30.872  1.00  0.00     0.167 HD
ATOM     55  C   UNL A   1      43.262  28.240  33.774  1.00  0.00     0.031 A 
ATOM     56  C   UNL A   1      38.048  31.094  30.081  1.00  0.00     0.031 A 
ATOM     57  C   UNL A   1      42.417  29.135  34.515  1.00  0.00     0.049 A 
ATOM     58  C   UNL A   1      38.213  31.348  31.558  1.00  0.00     0.074 A 
ATOM     59  C   UNL A   1      42.519  29.519  35.840  1.00  0.00     0.029 A 
ATOM     60  N   UNL A   1      41.304  29.778  33.996  1.00  0.00    -0.354 N 
ATOM     61  N   UNL A   1      39.146  30.917  32.375  1.00  0.00    -0.248 NA
ATOM     62  C   UNL A   1      37.207  32.208  32.199  1.00  0.00     0.031 C 
ATOM     63  C   UNL A   1      41.431  30.343  36.140  1.00  0.00     0.029 A 
ATOM     64  C   UNL A   1      40.694  30.534  34.982  1.00  0.00     0.049 A 
ATOM     65  H   UNL A   1      40.994  29.708  33.064  1.00  0.00     0.167 HD
ATOM     66  C   UNL A   1      38.858  31.481  33.612  1.00  0.00     0.074 A 
ATOM     67  C   UNL A   1      37.675  32.297  33.436  1.00  0.00     0.031 C 
ATOM     68  C   UNL A   1      39.516  31.342  34.790  1.00  0.00     0.031 A 
BRANCH  55  69
ATOM     69  C   UNL A   1      44.404  27.572  34.490  1.00  0.00    -0.014 A 
ATOM     70  C   UNL A   1      44.246  26.331  35.127  1.00  0.00     0.009 A 
ATOM     71  C   UNL A   1      45.667  28.185  34.504  1.00  0.00     0.009 A 
ATOM     72  C   UNL A   1      45.320  25.737  35.792  1.00  0.00     0.001 A 
ATOM     73  C   UNL A   1      46.746  27.574  35.142  1.00  0.00     0.001 A 
ATOM     74  C   UNL A   1      46.570  26.355  35.794  1.00  0.00     0.000 A 
ENDBRANCH  55  69
BRANCH  56  75
ATOM     75  C   UNL A   1      36.920  31.716  29.334  1.00  0.00    -0.014 A 
ATOM     76  C   UNL A   1      37.039  33.007  28.796  1.00  0.00     0.009 A 
ATOM     77  C   UNL A   1      35.702  31.032  29.184  1.00  0.00     0.009 A 
ATOM     78  C   UNL A   1      35.957  33.610  28.151  1.00  0.00     0.001 A 
ATOM     79  C   UNL A   1      34.632  31.624  28.509  1.00  0.00     0.001 A 
ATOM     80  C   UNL A   1      34.756  32.917  28.004  1.00  0.00     0.000 A 
ENDBRANCH  56  75
BRANCH  68  81
ATOM     81  C   UNL A   1      39.004  32.124  35.970  1.00  0.00    -0.014 A 
ATOM     82  C   UNL A   1      39.410  33.446  36.209  1.00  0.00     0.009 A 
ATOM     83  C   UNL A   1      38.064  31.536  36.832  1.00  0.00     0.009 A 
ATOM     84  C   UNL A   1      38.913  34.148  37.310  1.00  0.00     0.001 A 
ATOM     85  C   UNL A   1      37.542  32.253  37.910  1.00  0.00     0.001 A 
ATOM     86  C   UNL A   1      37.977  33.554  38.155  1.00  0.00     0.000 A 
ENDBRANCH  68  81
ENDBRANCH  42  43
ENDBRANCH  35  37
ENDBRANCH  34  35
ENDBRANCH  33  34
ENDBRANCH  32  33
ENDBRANCH  31  32
ENDBRANCH  30  31
ENDBRANCH  29  30
ENDBRANCH  28  29
ENDBRANCH   1  28
TORSDOF 23
ENDMDL
