MODEL 1
REMARK VINA RESULT:      -6.5      0.000      0.000
REMARK SMILES O=C(OCCOCCOCCOCCOC(=O)[C@H]1CC=CC[C@H]1C(=O)Nc1ccc(S(=O)(=O)N2CCc3ccccc32)cc1)c1ccc(-c2c3nc(c(-c4ccccc4)c4ccc([nH]4)c(-c4ccccc4)c4nc(c(-c5ccccc5)c5ccc2[nH]5)C=C4)C=C3)cc1
REMARK SMILES IDX 10 1 9 2 8 3 7 4 6 5 5 6 4 7 3 8 2 9 1 10 45 11 46 12 92 13
REMARK SMILES IDX 47 14 91 15 48 16 49 17 50 18 85 19 51 20 90 21 84 22 86 23
REMARK SMILES IDX 52 24 89 25 83 26 82 27 53 29 75 30 60 31 74 32 61 33 64 34
REMARK SMILES IDX 73 35 87 36 62 37 63 38 72 40 88 41 65 42 54 43 55 44 59 45
REMARK SMILES IDX 56 46 58 47 57 48 76 49 77 50 81 51 78 52 80 53 79 54 66 55
REMARK SMILES IDX 67 56 71 57 68 58 70 59 69 60 11 61 12 62 13 63 14 64 15 65
REMARK SMILES IDX 16 66 17 67 18 68 19 69 23 70 20 71 22 72 21 73 24 74 25 75
REMARK SMILES IDX 26 76 27 78 28 79 44 80 29 81 43 82 30 83 31 84 32 85 33 86
REMARK SMILES IDX 34 87 35 88 42 89 36 90 37 91 41 92 38 93 40 94 39 95
REMARK H PARENT 86 28 64 39 26 77
REMARK Flexibility Score: inf
ROOT
ATOM      1  C   UNL A   1      34.693  33.406  28.566  1.00  0.00     0.188 C 
ENDROOT
BRANCH   1   2
ATOM      2  O   UNL A   1      34.046  33.411  29.834  1.00  0.00    -0.377 OA
BRANCH   2   3
ATOM      3  C   UNL A   1      34.352  34.447  30.760  1.00  0.00     0.188 C 
BRANCH   3   4
ATOM      4  C   UNL A   1      34.795  33.942  32.124  1.00  0.00     0.188 C 
BRANCH   4   5
ATOM      5  O   UNL A   1      36.111  33.427  31.946  1.00  0.00    -0.376 OA
BRANCH   5   6
ATOM      6  C   UNL A   1      37.168  34.356  32.069  1.00  0.00     0.202 C 
BRANCH   6   7
ATOM      7  C   UNL A   1      37.528  34.643  33.525  1.00  0.00     0.261 C 
BRANCH   7   8
ATOM      8  O   UNL A   1      38.864  35.163  33.667  1.00  0.00    -0.460 OA
BRANCH   8   9
ATOM      9  C   UNL A   1      39.911  34.556  34.284  1.00  0.00     0.338 C 
ATOM     10  O   UNL A   1      39.941  34.479  35.509  1.00  0.00    -0.246 OA
BRANCH   9  11
ATOM     11  C   UNL A   1      40.998  33.892  33.521  1.00  0.00     0.060 A 
ATOM     12  C   UNL A   1      40.813  33.313  32.265  1.00  0.00     0.016 A 
ATOM     13  C   UNL A   1      42.297  33.962  34.044  1.00  0.00     0.016 A 
ATOM     14  C   UNL A   1      41.860  32.684  31.604  1.00  0.00     0.010 A 
ATOM     15  C   UNL A   1      43.369  33.380  33.355  1.00  0.00     0.010 A 
ATOM     16  C   UNL A   1      43.140  32.688  32.157  1.00  0.00    -0.014 A 
BRANCH  16  17
ATOM     17  C   UNL A   1      44.163  31.797  31.568  1.00  0.00     0.031 A 
ATOM     18  C   UNL A   1      45.101  32.386  30.553  1.00  0.00     0.074 A 
ATOM     19  C   UNL A   1      44.347  30.549  32.033  1.00  0.00     0.049 A 
ATOM     20  N   UNL A   1      46.067  31.816  29.881  1.00  0.00    -0.248 NA
ATOM     21  C   UNL A   1      44.935  33.822  30.264  1.00  0.00     0.031 C 
ATOM     22  C   UNL A   1      43.579  29.924  33.111  1.00  0.00     0.029 A 
ATOM     23  N   UNL A   1      45.274  29.599  31.690  1.00  0.00    -0.354 N 
ATOM     24  C   UNL A   1      46.589  32.811  29.065  1.00  0.00     0.074 A 
ATOM     25  C   UNL A   1      45.839  34.019  29.320  1.00  0.00     0.031 C 
ATOM     26  C   UNL A   1      44.098  28.712  33.372  1.00  0.00     0.029 A 
ATOM     27  C   UNL A   1      45.192  28.453  32.442  1.00  0.00     0.049 A 
ATOM     28  H   UNL A   1      45.935  29.726  30.971  1.00  0.00     0.167 HD
ATOM     29  C   UNL A   1      47.603  32.726  28.175  1.00  0.00     0.031 A 
ATOM     30  C   UNL A   1      45.918  27.320  32.372  1.00  0.00     0.031 A 
ATOM     31  C   UNL A   1      48.348  31.524  27.934  1.00  0.00     0.049 A 
ATOM     32  C   UNL A   1      46.997  27.223  31.326  1.00  0.00     0.074 A 
ATOM     33  C   UNL A   1      49.338  31.286  27.000  1.00  0.00     0.029 A 
ATOM     34  N   UNL A   1      48.185  30.353  28.661  1.00  0.00    -0.354 N 
ATOM     35  N   UNL A   1      47.419  28.141  30.488  1.00  0.00    -0.248 NA
ATOM     36  C   UNL A   1      47.687  25.932  31.205  1.00  0.00     0.031 C 
ATOM     37  C   UNL A   1      49.755  29.956  27.145  1.00  0.00     0.029 A 
ATOM     38  C   UNL A   1      49.052  29.385  28.195  1.00  0.00     0.049 A 
ATOM     39  H   UNL A   1      47.546  30.232  29.399  1.00  0.00     0.167 HD
ATOM     40  C   UNL A   1      48.429  27.542  29.747  1.00  0.00     0.074 A 
ATOM     41  C   UNL A   1      48.573  26.191  30.253  1.00  0.00     0.031 C 
ATOM     42  C   UNL A   1      49.168  28.055  28.733  1.00  0.00     0.031 A 
BRANCH  29  43
ATOM     43  C   UNL A   1      47.882  33.953  27.359  1.00  0.00    -0.014 A 
ATOM     44  C   UNL A   1      47.143  34.252  26.203  1.00  0.00     0.009 A 
ATOM     45  C   UNL A   1      48.955  34.786  27.715  1.00  0.00     0.009 A 
ATOM     46  C   UNL A   1      47.503  35.334  25.397  1.00  0.00     0.001 A 
ATOM     47  C   UNL A   1      49.297  35.880  26.919  1.00  0.00     0.001 A 
ATOM     48  C   UNL A   1      48.580  36.146  25.754  1.00  0.00     0.000 A 
ENDBRANCH  29  43
BRANCH  30  49
ATOM     49  C   UNL A   1      45.632  26.180  33.286  1.00  0.00    -0.014 A 
ATOM     50  C   UNL A   1      46.272  26.078  34.531  1.00  0.00     0.009 A 
ATOM     51  C   UNL A   1      44.727  25.175  32.910  1.00  0.00     0.009 A 
ATOM     52  C   UNL A   1      46.023  24.987  35.371  1.00  0.00     0.001 A 
ATOM     53  C   UNL A   1      44.459  24.101  33.762  1.00  0.00     0.001 A 
ATOM     54  C   UNL A   1      45.114  24.003  34.989  1.00  0.00     0.000 A 
ENDBRANCH  30  49
BRANCH  42  55
ATOM     55  C   UNL A   1      50.209  27.158  28.132  1.00  0.00    -0.014 A 
ATOM     56  C   UNL A   1      49.919  26.366  27.011  1.00  0.00     0.009 A 
ATOM     57  C   UNL A   1      51.505  27.146  28.667  1.00  0.00     0.009 A 
ATOM     58  C   UNL A   1      50.906  25.555  26.452  1.00  0.00     0.001 A 
ATOM     59  C   UNL A   1      52.496  26.350  28.092  1.00  0.00     0.001 A 
ATOM     60  C   UNL A   1      52.193  25.551  26.989  1.00  0.00     0.000 A 
ENDBRANCH  42  55
ENDBRANCH  16  17
ENDBRANCH   9  11
ENDBRANCH   8   9
ENDBRANCH   7   8
ENDBRANCH   6   7
ENDBRANCH   5   6
ENDBRANCH   4   5
ENDBRANCH   3   4
ENDBRANCH   2   3
ENDBRANCH   1   2
BRANCH   1  61
ATOM     61  C   UNL A   1      36.094  32.790  28.492  1.00  0.00     0.188 C 
BRANCH  61  62
ATOM     62  O   UNL A   1      36.171  31.376  28.512  1.00  0.00    -0.376 OA
BRANCH  62  63
ATOM     63  C   UNL A   1      36.302  30.726  29.781  1.00  0.00     0.202 C 
BRANCH  63  64
ATOM     64  C   UNL A   1      37.646  30.105  30.195  1.00  0.00     0.261 C 
BRANCH  64  65
ATOM     65  O   UNL A   1      37.500  28.819  30.860  1.00  0.00    -0.463 OA
BRANCH  65  66
ATOM     66  C   UNL A   1      37.766  28.785  32.187  1.00  0.00     0.310 C 
ATOM     67  O   UNL A   1      37.423  27.858  32.917  1.00  0.00    -0.252 OA
BRANCH  66  68
ATOM     68  C   UNL A   1      38.495  30.014  32.754  1.00  0.00     0.116 C 
ATOM     69  C   UNL A   1      37.687  31.027  33.574  1.00  0.00     0.043 C 
ATOM     70  C   UNL A   1      39.942  29.780  33.228  1.00  0.00     0.097 C 
ATOM     71  C   UNL A   1      38.192  31.394  34.930  1.00  0.00    -0.030 C 
ATOM     72  C   UNL A   1      40.408  30.310  34.592  1.00  0.00     0.041 C 
ATOM     73  C   UNL A   1      39.409  31.084  35.381  1.00  0.00    -0.030 C 
BRANCH  70  74
ATOM     74  C   UNL A   1      40.503  28.404  32.962  1.00  0.00     0.228 C 
ATOM     75  O   UNL A   1      40.653  27.636  33.925  1.00  0.00    -0.274 OA
ATOM     76  N   UNL A   1      40.856  27.894  31.764  1.00  0.00    -0.326 N 
ATOM     77  H   UNL A   1      41.076  26.937  31.850  1.00  0.00     0.169 HD
BRANCH  76  78
ATOM     78  C   UNL A   1      41.004  28.309  30.431  1.00  0.00     0.041 A 
ATOM     79  C   UNL A   1      40.445  27.426  29.505  1.00  0.00     0.027 A 
ATOM     80  C   UNL A   1      41.724  29.402  29.939  1.00  0.00     0.027 A 
ATOM     81  C   UNL A   1      40.725  27.544  28.152  1.00  0.00     0.024 A 
ATOM     82  C   UNL A   1      42.015  29.537  28.561  1.00  0.00     0.024 A 
ATOM     83  C   UNL A   1      41.569  28.560  27.683  1.00  0.00     0.088 A 
BRANCH  83  84
ATOM     84  S   UNL A   1      42.197  28.243  26.053  1.00  0.00     0.264 S 
ATOM     85  O   UNL A   1      41.372  27.144  25.564  1.00  0.00    -0.201 OA
ATOM     86  O   UNL A   1      42.154  29.536  25.407  1.00  0.00    -0.201 OA
BRANCH  84  87
ATOM     87  N   UNL A   1      43.862  27.711  26.037  1.00  0.00    -0.266 N 
ATOM     88  C   UNL A   1      44.853  28.706  26.613  1.00  0.00     0.140 C 
ATOM     89  C   UNL A   1      43.928  26.607  26.991  1.00  0.00     0.055 A 
ATOM     90  C   UNL A   1      45.002  28.404  28.117  1.00  0.00     0.060 C 
ATOM     91  C   UNL A   1      44.394  27.048  28.227  1.00  0.00    -0.022 A 
ATOM     92  C   UNL A   1      43.293  25.382  26.853  1.00  0.00     0.027 A 
ATOM     93  C   UNL A   1      44.110  26.336  29.382  1.00  0.00     0.006 A 
ATOM     94  C   UNL A   1      42.998  24.661  28.010  1.00  0.00     0.002 A 
ATOM     95  C   UNL A   1      43.377  25.151  29.269  1.00  0.00     0.000 A 
ENDBRANCH  84  87
ENDBRANCH  83  84
ENDBRANCH  76  78
ENDBRANCH  70  74
ENDBRANCH  66  68
ENDBRANCH  65  66
ENDBRANCH  64  65
ENDBRANCH  63  64
ENDBRANCH  62  63
ENDBRANCH  61  62
ENDBRANCH   1  61
TORSDOF 24
ENDMDL
MODEL 2
REMARK VINA RESULT:      -6.2      5.724     10.216
REMARK SMILES O=C(OCCOCCOCCOCCOC(=O)[C@H]1CC=CC[C@H]1C(=O)Nc1ccc(S(=O)(=O)N2CCc3ccccc32)cc1)c1ccc(-c2c3nc(c(-c4ccccc4)c4ccc([nH]4)c(-c4ccccc4)c4nc(c(-c5ccccc5)c5ccc2[nH]5)C=C4)C=C3)cc1
REMARK SMILES IDX 10 1 9 2 8 3 7 4 6 5 5 6 4 7 3 8 2 9 1 10 45 11 46 12 92 13
REMARK SMILES IDX 47 14 91 15 48 16 49 17 50 18 85 19 51 20 90 21 84 22 86 23
REMARK SMILES IDX 52 24 89 25 83 26 82 27 53 29 75 30 60 31 74 32 61 33 64 34
REMARK SMILES IDX 73 35 87 36 62 37 63 38 72 40 88 41 65 42 54 43 55 44 59 45
REMARK SMILES IDX 56 46 58 47 57 48 76 49 77 50 81 51 78 52 80 53 79 54 66 55
REMARK SMILES IDX 67 56 71 57 68 58 70 59 69 60 11 61 12 62 13 63 14 64 15 65
REMARK SMILES IDX 16 66 17 67 18 68 19 69 23 70 20 71 22 72 21 73 24 74 25 75
REMARK SMILES IDX 26 76 27 78 28 79 44 80 29 81 43 82 30 83 31 84 32 85 33 86
REMARK SMILES IDX 34 87 35 88 42 89 36 90 37 91 41 92 38 93 40 94 39 95
REMARK H PARENT 86 28 64 39 26 77
REMARK Flexibility Score: inf
ROOT
ATOM      1  C   UNL A   1      41.537  29.629  29.700  1.00  0.00     0.188 C 
ENDROOT
BRANCH   1   2
ATOM      2  O   UNL A   1      40.286  29.921  30.312  1.00  0.00    -0.377 OA
BRANCH   2   3
ATOM      3  C   UNL A   1      39.858  31.276  30.392  1.00  0.00     0.188 C 
BRANCH   3   4
ATOM      4  C   UNL A   1      38.696  31.610  29.469  1.00  0.00     0.188 C 
BRANCH   4   5
ATOM      5  O   UNL A   1      37.566  30.918  29.990  1.00  0.00    -0.376 OA
BRANCH   5   6
ATOM      6  C   UNL A   1      36.304  31.330  29.508  1.00  0.00     0.202 C 
BRANCH   6   7
ATOM      7  C   UNL A   1      36.255  32.825  29.200  1.00  0.00     0.261 C 
BRANCH   7   8
ATOM      8  O   UNL A   1      35.533  33.568  30.202  1.00  0.00    -0.460 OA
BRANCH   8   9
ATOM      9  C   UNL A   1      35.345  33.210  31.499  1.00  0.00     0.338 C 
ATOM     10  O   UNL A   1      34.236  32.850  31.882  1.00  0.00    -0.246 OA
BRANCH   9  11
ATOM     11  C   UNL A   1      36.466  33.154  32.471  1.00  0.00     0.060 A 
ATOM     12  C   UNL A   1      37.670  33.838  32.296  1.00  0.00     0.016 A 
ATOM     13  C   UNL A   1      36.249  32.474  33.677  1.00  0.00     0.016 A 
ATOM     14  C   UNL A   1      38.696  33.733  33.226  1.00  0.00     0.010 A 
ATOM     15  C   UNL A   1      37.258  32.411  34.646  1.00  0.00     0.010 A 
ATOM     16  C   UNL A   1      38.508  32.995  34.395  1.00  0.00    -0.014 A 
BRANCH  16  17
ATOM     17  C   UNL A   1      39.690  32.687  35.229  1.00  0.00     0.031 A 
ATOM     18  C   UNL A   1      39.975  33.588  36.397  1.00  0.00     0.074 A 
ATOM     19  C   UNL A   1      40.396  31.557  35.043  1.00  0.00     0.049 A 
ATOM     20  N   UNL A   1      40.951  33.545  37.265  1.00  0.00    -0.248 NA
ATOM     21  C   UNL A   1      39.017  34.685  36.626  1.00  0.00     0.031 C 
ATOM     22  C   UNL A   1      40.121  30.545  34.022  1.00  0.00     0.029 A 
ATOM     23  N   UNL A   1      41.460  31.048  35.742  1.00  0.00    -0.354 N 
ATOM     24  C   UNL A   1      40.746  34.627  38.110  1.00  0.00     0.074 A 
ATOM     25  C   UNL A   1      39.558  35.313  37.656  1.00  0.00     0.031 C 
ATOM     26  C   UNL A   1      40.966  29.513  34.191  1.00  0.00     0.029 A 
ATOM     27  C   UNL A   1      41.876  29.819  35.291  1.00  0.00     0.049 A 
ATOM     28  H   UNL A   1      41.886  31.518  36.494  1.00  0.00     0.167 HD
ATOM     29  C   UNL A   1      41.487  35.023  39.170  1.00  0.00     0.031 A 
ATOM     30  C   UNL A   1      42.889  29.039  35.717  1.00  0.00     0.031 A 
ATOM     31  C   UNL A   1      42.661  34.332  39.618  1.00  0.00     0.049 A 
ATOM     32  C   UNL A   1      43.742  29.533  36.856  1.00  0.00     0.074 A 
ATOM     33  C   UNL A   1      43.545  34.679  40.623  1.00  0.00     0.029 A 
ATOM     34  N   UNL A   1      43.102  33.128  39.087  1.00  0.00    -0.354 N 
ATOM     35  N   UNL A   1      43.599  30.614  37.587  1.00  0.00    -0.248 NA
ATOM     36  C   UNL A   1      44.905  28.711  37.216  1.00  0.00     0.031 C 
ATOM     37  C   UNL A   1      44.540  33.694  40.679  1.00  0.00     0.029 A 
ATOM     38  C   UNL A   1      44.248  32.718  39.738  1.00  0.00     0.049 A 
ATOM     39  H   UNL A   1      42.662  32.640  38.354  1.00  0.00     0.167 HD
ATOM     40  C   UNL A   1      44.645  30.596  38.499  1.00  0.00     0.074 A 
ATOM     41  C   UNL A   1      45.401  29.385  38.244  1.00  0.00     0.031 C 
ATOM     42  C   UNL A   1      44.964  31.501  39.456  1.00  0.00     0.031 A 
BRANCH  29  43
ATOM     43  C   UNL A   1      41.071  36.300  39.838  1.00  0.00    -0.014 A 
ATOM     44  C   UNL A   1      41.497  37.551  39.363  1.00  0.00     0.009 A 
ATOM     45  C   UNL A   1      40.298  36.243  41.008  1.00  0.00     0.009 A 
ATOM     46  C   UNL A   1      41.195  38.715  40.074  1.00  0.00     0.001 A 
ATOM     47  C   UNL A   1      39.979  37.410  41.704  1.00  0.00     0.001 A 
ATOM     48  C   UNL A   1      40.438  38.643  41.244  1.00  0.00     0.000 A 
ENDBRANCH  29  43
BRANCH  30  49
ATOM     49  C   UNL A   1      43.175  27.739  35.054  1.00  0.00    -0.014 A 
ATOM     50  C   UNL A   1      44.021  27.672  33.935  1.00  0.00     0.009 A 
ATOM     51  C   UNL A   1      42.588  26.554  35.526  1.00  0.00     0.009 A 
ATOM     52  C   UNL A   1      44.259  26.450  33.297  1.00  0.00     0.001 A 
ATOM     53  C   UNL A   1      42.850  25.330  34.904  1.00  0.00     0.001 A 
ATOM     54  C   UNL A   1      43.679  25.280  33.784  1.00  0.00     0.000 A 
ENDBRANCH  30  49
BRANCH  42  55
ATOM     55  C   UNL A   1      46.160  31.194  40.308  1.00  0.00    -0.014 A 
ATOM     56  C   UNL A   1      47.438  31.644  39.945  1.00  0.00     0.009 A 
ATOM     57  C   UNL A   1      45.993  30.490  41.509  1.00  0.00     0.009 A 
ATOM     58  C   UNL A   1      48.536  31.369  40.761  1.00  0.00     0.001 A 
ATOM     59  C   UNL A   1      47.089  30.236  42.333  1.00  0.00     0.001 A 
ATOM     60  C   UNL A   1      48.359  30.670  41.955  1.00  0.00     0.000 A 
ENDBRANCH  42  55
ENDBRANCH  16  17
ENDBRANCH   9  11
ENDBRANCH   8   9
ENDBRANCH   7   8
ENDBRANCH   6   7
ENDBRANCH   5   6
ENDBRANCH   4   5
ENDBRANCH   3   4
ENDBRANCH   2   3
ENDBRANCH   1   2
BRANCH   1  61
ATOM     61  C   UNL A   1      41.551  28.568  28.595  1.00  0.00     0.188 C 
BRANCH  61  62
ATOM     62  O   UNL A   1      41.451  27.217  29.006  1.00  0.00    -0.376 OA
BRANCH  62  63
ATOM     63  C   UNL A   1      42.598  26.376  28.846  1.00  0.00     0.202 C 
BRANCH  63  64
ATOM     64  C   UNL A   1      42.424  24.863  28.638  1.00  0.00     0.261 C 
BRANCH  64  65
ATOM     65  O   UNL A   1      42.969  24.395  27.373  1.00  0.00    -0.463 OA
BRANCH  65  66
ATOM     66  C   UNL A   1      42.086  24.189  26.367  1.00  0.00     0.310 C 
ATOM     67  O   UNL A   1      41.114  24.912  26.169  1.00  0.00    -0.252 OA
BRANCH  66  68
ATOM     68  C   UNL A   1      42.343  22.948  25.496  1.00  0.00     0.116 C 
ATOM     69  C   UNL A   1      43.760  22.717  24.956  1.00  0.00     0.043 C 
ATOM     70  C   UNL A   1      41.566  21.677  25.888  1.00  0.00     0.097 C 
ATOM     71  C   UNL A   1      44.398  21.391  25.210  1.00  0.00    -0.030 C 
ATOM     72  C   UNL A   1      42.290  20.327  25.999  1.00  0.00     0.041 C 
ATOM     73  C   UNL A   1      43.742  20.322  25.663  1.00  0.00    -0.030 C 
BRANCH  70  74
ATOM     74  C   UNL A   1      40.559  21.843  27.001  1.00  0.00     0.228 C 
ATOM     75  O   UNL A   1      40.941  21.670  28.168  1.00  0.00    -0.274 OA
ATOM     76  N   UNL A   1      39.259  22.182  26.869  1.00  0.00    -0.326 N 
ATOM     77  H   UNL A   1      38.856  22.341  27.753  1.00  0.00     0.169 HD
BRANCH  76  78
ATOM     78  C   UNL A   1      38.306  22.376  25.856  1.00  0.00     0.041 A 
ATOM     79  C   UNL A   1      37.776  23.668  25.829  1.00  0.00     0.027 A 
ATOM     80  C   UNL A   1      37.763  21.427  24.985  1.00  0.00     0.027 A 
ATOM     81  C   UNL A   1      36.648  23.956  25.074  1.00  0.00     0.024 A 
ATOM     82  C   UNL A   1      36.614  21.709  24.207  1.00  0.00     0.024 A 
ATOM     83  C   UNL A   1      36.022  22.959  24.315  1.00  0.00     0.088 A 
BRANCH  83  84
ATOM     84  S   UNL A   1      34.361  23.380  23.851  1.00  0.00     0.264 S 
ATOM     85  O   UNL A   1      34.145  24.688  24.459  1.00  0.00    -0.201 OA
ATOM     86  O   UNL A   1      34.353  23.229  22.413  1.00  0.00    -0.201 OA
BRANCH  84  87
ATOM     87  N   UNL A   1      33.158  22.287  24.493  1.00  0.00    -0.266 N 
ATOM     88  C   UNL A   1      33.350  21.915  25.952  1.00  0.00     0.140 C 
ATOM     89  C   UNL A   1      31.912  23.050  24.521  1.00  0.00     0.055 A 
ATOM     90  C   UNL A   1      32.563  22.929  26.804  1.00  0.00     0.060 C 
ATOM     91  C   UNL A   1      31.680  23.573  25.791  1.00  0.00    -0.022 A 
ATOM     92  C   UNL A   1      31.229  23.518  23.410  1.00  0.00     0.027 A 
ATOM     93  C   UNL A   1      30.860  24.677  25.958  1.00  0.00     0.006 A 
ATOM     94  C   UNL A   1      30.404  24.633  23.567  1.00  0.00     0.002 A 
ATOM     95  C   UNL A   1      30.246  25.227  24.828  1.00  0.00     0.000 A 
ENDBRANCH  84  87
ENDBRANCH  83  84
ENDBRANCH  76  78
ENDBRANCH  70  74
ENDBRANCH  66  68
ENDBRANCH  65  66
ENDBRANCH  64  65
ENDBRANCH  63  64
ENDBRANCH  62  63
ENDBRANCH  61  62
ENDBRANCH   1  61
TORSDOF 24
ENDMDL
MODEL 3
REMARK VINA RESULT:      -5.9      5.547     10.049
REMARK SMILES O=C(OCCOCCOCCOCCOC(=O)[C@H]1CC=CC[C@H]1C(=O)Nc1ccc(S(=O)(=O)N2CCc3ccccc32)cc1)c1ccc(-c2c3nc(c(-c4ccccc4)c4ccc([nH]4)c(-c4ccccc4)c4nc(c(-c5ccccc5)c5ccc2[nH]5)C=C4)C=C3)cc1
REMARK SMILES IDX 10 1 9 2 8 3 7 4 6 5 5 6 4 7 3 8 2 9 1 10 45 11 46 12 92 13
REMARK SMILES IDX 47 14 91 15 48 16 49 17 50 18 85 19 51 20 90 21 84 22 86 23
REMARK SMILES IDX 52 24 89 25 83 26 82 27 53 29 75 30 60 31 74 32 61 33 64 34
REMARK SMILES IDX 73 35 87 36 62 37 63 38 72 40 88 41 65 42 54 43 55 44 59 45
REMARK SMILES IDX 56 46 58 47 57 48 76 49 77 50 81 51 78 52 80 53 79 54 66 55
REMARK SMILES IDX 67 56 71 57 68 58 70 59 69 60 11 61 12 62 13 63 14 64 15 65
REMARK SMILES IDX 16 66 17 67 18 68 19 69 23 70 20 71 22 72 21 73 24 74 25 75
REMARK SMILES IDX 26 76 27 78 28 79 44 80 29 81 43 82 30 83 31 84 32 85 33 86
REMARK SMILES IDX 34 87 35 88 42 89 36 90 37 91 41 92 38 93 40 94 39 95
REMARK H PARENT 86 28 64 39 26 77
REMARK Flexibility Score: inf
ROOT
ATOM      1  C   UNL A   1      41.934  29.896  29.341  1.00  0.00     0.188 C 
ENDROOT
BRANCH   1   2
ATOM      2  O   UNL A   1      40.814  30.100  30.197  1.00  0.00    -0.377 OA
BRANCH   2   3
ATOM      3  C   UNL A   1      40.106  31.332  30.123  1.00  0.00     0.188 C 
BRANCH   3   4
ATOM      4  C   UNL A   1      38.597  31.169  30.027  1.00  0.00     0.188 C 
BRANCH   4   5
ATOM      5  O   UNL A   1      38.300  29.900  30.603  1.00  0.00    -0.376 OA
BRANCH   5   6
ATOM      6  C   UNL A   1      37.244  29.872  31.541  1.00  0.00     0.202 C 
BRANCH   6   7
ATOM      7  C   UNL A   1      37.011  31.229  32.200  1.00  0.00     0.261 C 
BRANCH   7   8
ATOM      8  O   UNL A   1      37.440  31.251  33.576  1.00  0.00    -0.460 OA
BRANCH   8   9
ATOM      9  C   UNL A   1      38.719  31.197  34.028  1.00  0.00     0.338 C 
ATOM     10  O   UNL A   1      39.125  30.190  34.603  1.00  0.00    -0.246 OA
BRANCH   9  11
ATOM     11  C   UNL A   1      39.692  32.290  33.776  1.00  0.00     0.060 A 
ATOM     12  C   UNL A   1      39.316  33.611  33.528  1.00  0.00     0.016 A 
ATOM     13  C   UNL A   1      41.055  31.994  33.914  1.00  0.00     0.016 A 
ATOM     14  C   UNL A   1      40.266  34.592  33.276  1.00  0.00     0.010 A 
ATOM     15  C   UNL A   1      42.019  32.991  33.718  1.00  0.00     0.010 A 
ATOM     16  C   UNL A   1      41.624  34.283  33.341  1.00  0.00    -0.014 A 
BRANCH  16  17
ATOM     17  C   UNL A   1      42.595  35.269  32.816  1.00  0.00     0.031 A 
ATOM     18  C   UNL A   1      42.958  35.184  31.361  1.00  0.00     0.074 A 
ATOM     19  C   UNL A   1      43.019  36.296  33.574  1.00  0.00     0.049 A 
ATOM     20  N   UNL A   1      43.791  35.914  30.666  1.00  0.00    -0.248 NA
ATOM     21  C   UNL A   1      42.278  34.138  30.577  1.00  0.00     0.031 C 
ATOM     22  C   UNL A   1      42.621  36.548  34.960  1.00  0.00     0.029 A 
ATOM     23  N   UNL A   1      43.841  37.349  33.265  1.00  0.00    -0.354 N 
ATOM     24  C   UNL A   1      43.763  35.388  29.382  1.00  0.00     0.074 A 
ATOM     25  C   UNL A   1      42.837  34.279  29.387  1.00  0.00     0.031 C 
ATOM     26  C   UNL A   1      43.163  37.709  35.366  1.00  0.00     0.029 A 
ATOM     27  C   UNL A   1      43.992  38.249  34.292  1.00  0.00     0.049 A 
ATOM     28  H   UNL A   1      44.282  37.450  32.391  1.00  0.00     0.167 HD
ATOM     29  C   UNL A   1      44.455  35.789  28.291  1.00  0.00     0.031 A 
ATOM     30  C   UNL A   1      44.729  39.374  34.353  1.00  0.00     0.031 A 
ATOM     31  C   UNL A   1      45.367  36.896  28.293  1.00  0.00     0.049 A 
ATOM     32  C   UNL A   1      45.545  39.764  33.148  1.00  0.00     0.074 A 
ATOM     33  C   UNL A   1      46.190  37.347  27.279  1.00  0.00     0.029 A 
ATOM     34  N   UNL A   1      45.557  37.741  29.377  1.00  0.00    -0.354 N 
ATOM     35  N   UNL A   1      45.589  39.199  31.964  1.00  0.00    -0.248 NA
ATOM     36  C   UNL A   1      46.423  40.931  33.293  1.00  0.00     0.031 C 
ATOM     37  C   UNL A   1      46.902  38.453  27.763  1.00  0.00     0.029 A 
ATOM     38  C   UNL A   1      46.488  38.710  29.061  1.00  0.00     0.049 A 
ATOM     39  H   UNL A   1      45.096  37.660  30.243  1.00  0.00     0.167 HD
ATOM     40  C   UNL A   1      46.491  39.948  31.220  1.00  0.00     0.074 A 
ATOM     41  C   UNL A   1      46.951  41.021  32.080  1.00  0.00     0.031 C 
ATOM     42  C   UNL A   1      46.912  39.764  29.945  1.00  0.00     0.031 A 
BRANCH  29  43
ATOM     43  C   UNL A   1      44.292  34.958  27.053  1.00  0.00    -0.014 A 
ATOM     44  C   UNL A   1      43.355  35.292  26.061  1.00  0.00     0.009 A 
ATOM     45  C   UNL A   1      45.040  33.778  26.913  1.00  0.00     0.009 A 
ATOM     46  C   UNL A   1      43.140  34.435  24.978  1.00  0.00     0.001 A 
ATOM     47  C   UNL A   1      44.838  32.937  25.819  1.00  0.00     0.001 A 
ATOM     48  C   UNL A   1      43.880  33.259  24.859  1.00  0.00     0.000 A 
ENDBRANCH  29  43
BRANCH  30  49
ATOM     49  C   UNL A   1      44.761  40.192  35.596  1.00  0.00    -0.014 A 
ATOM     50  C   UNL A   1      45.509  39.780  36.711  1.00  0.00     0.009 A 
ATOM     51  C   UNL A   1      44.028  41.387  35.682  1.00  0.00     0.009 A 
ATOM     52  C   UNL A   1      45.507  40.537  37.887  1.00  0.00     0.001 A 
ATOM     53  C   UNL A   1      44.051  42.156  36.848  1.00  0.00     0.001 A 
ATOM     54  C   UNL A   1      44.784  41.726  37.953  1.00  0.00     0.000 A 
ENDBRANCH  30  49
BRANCH  42  55
ATOM     55  C   UNL A   1      47.893  40.762  29.405  1.00  0.00    -0.014 A 
ATOM     56  C   UNL A   1      47.456  41.944  28.790  1.00  0.00     0.009 A 
ATOM     57  C   UNL A   1      49.268  40.534  29.562  1.00  0.00     0.009 A 
ATOM     58  C   UNL A   1      48.384  42.870  28.314  1.00  0.00     0.001 A 
ATOM     59  C   UNL A   1      50.192  41.473  29.104  1.00  0.00     0.001 A 
ATOM     60  C   UNL A   1      49.749  42.636  28.475  1.00  0.00     0.000 A 
ENDBRANCH  42  55
ENDBRANCH  16  17
ENDBRANCH   9  11
ENDBRANCH   8   9
ENDBRANCH   7   8
ENDBRANCH   6   7
ENDBRANCH   5   6
ENDBRANCH   4   5
ENDBRANCH   3   4
ENDBRANCH   2   3
ENDBRANCH   1   2
BRANCH   1  61
ATOM     61  C   UNL A   1      41.800  28.832  28.247  1.00  0.00     0.188 C 
BRANCH  61  62
ATOM     62  O   UNL A   1      42.006  27.487  28.637  1.00  0.00    -0.376 OA
BRANCH  62  63
ATOM     63  C   UNL A   1      43.183  26.820  28.167  1.00  0.00     0.202 C 
BRANCH  63  64
ATOM     64  C   UNL A   1      43.224  25.285  28.097  1.00  0.00     0.261 C 
BRANCH  64  65
ATOM     65  O   UNL A   1      43.651  24.785  26.799  1.00  0.00    -0.463 OA
BRANCH  65  66
ATOM     66  C   UNL A   1      42.675  24.403  25.942  1.00  0.00     0.310 C 
ATOM     67  O   UNL A   1      41.609  25.002  25.828  1.00  0.00    -0.252 OA
BRANCH  66  68
ATOM     68  C   UNL A   1      42.958  23.125  25.134  1.00  0.00     0.116 C 
ATOM     69  C   UNL A   1      44.299  23.008  24.400  1.00  0.00     0.043 C 
ATOM     70  C   UNL A   1      42.413  21.816  25.734  1.00  0.00     0.097 C 
ATOM     71  C   UNL A   1      45.129  21.793  24.648  1.00  0.00    -0.030 C 
ATOM     72  C   UNL A   1      43.309  20.572  25.830  1.00  0.00     0.041 C 
ATOM     73  C   UNL A   1      44.686  20.702  25.275  1.00  0.00    -0.030 C 
BRANCH  70  74
ATOM     74  C   UNL A   1      41.564  21.967  26.974  1.00  0.00     0.228 C 
ATOM     75  O   UNL A   1      42.118  21.864  28.080  1.00  0.00    -0.274 OA
ATOM     76  N   UNL A   1      40.240  22.223  27.020  1.00  0.00    -0.326 N 
ATOM     77  H   UNL A   1      39.957  22.394  27.948  1.00  0.00     0.169 HD
BRANCH  76  78
ATOM     78  C   UNL A   1      39.143  22.320  26.149  1.00  0.00     0.041 A 
ATOM     79  C   UNL A   1      38.511  23.565  26.183  1.00  0.00     0.027 A 
ATOM     80  C   UNL A   1      38.562  21.313  25.373  1.00  0.00     0.027 A 
ATOM     81  C   UNL A   1      37.270  23.748  25.592  1.00  0.00     0.024 A 
ATOM     82  C   UNL A   1      37.297  21.487  24.761  1.00  0.00     0.024 A 
ATOM     83  C   UNL A   1      36.627  22.689  24.938  1.00  0.00     0.088 A 
BRANCH  83  84
ATOM     84  S   UNL A   1      34.889  22.969  24.708  1.00  0.00     0.264 S 
ATOM     85  O   UNL A   1      34.643  24.238  25.384  1.00  0.00    -0.201 OA
ATOM     86  O   UNL A   1      34.705  22.851  23.279  1.00  0.00    -0.201 OA
BRANCH  84  87
ATOM     87  N   UNL A   1      33.880  21.756  25.462  1.00  0.00    -0.266 N 
ATOM     88  C   UNL A   1      34.216  21.462  26.913  1.00  0.00     0.140 C 
ATOM     89  C   UNL A   1      32.552  22.358  25.558  1.00  0.00     0.055 A 
ATOM     90  C   UNL A   1      33.364  22.400  27.792  1.00  0.00     0.060 C 
ATOM     91  C   UNL A   1      32.341  22.892  26.826  1.00  0.00    -0.022 A 
ATOM     92  C   UNL A   1      31.742  22.698  24.486  1.00  0.00     0.027 A 
ATOM     93  C   UNL A   1      31.400  23.890  27.022  1.00  0.00     0.006 A 
ATOM     94  C   UNL A   1      30.795  23.706  24.671  1.00  0.00     0.002 A 
ATOM     95  C   UNL A   1      30.647  24.319  25.925  1.00  0.00     0.000 A 
ENDBRANCH  84  87
ENDBRANCH  83  84
ENDBRANCH  76  78
ENDBRANCH  70  74
ENDBRANCH  66  68
ENDBRANCH  65  66
ENDBRANCH  64  65
ENDBRANCH  63  64
ENDBRANCH  62  63
ENDBRANCH  61  62
ENDBRANCH   1  61
TORSDOF 24
ENDMDL
