MODEL 1
REMARK VINA RESULT:      -8.2      0.000      0.000
REMARK SMILES C=CCN(CC(=O)OCCOCCOCCOCCOC(=O)c1ccc(-c2c3nc(c(-c4ccccc4)c4ccc([nH]4)c(-c4ccccc4)c4nc(c(-c5ccccc5)c5ccc2[nH]5)C=C4)C=C3)cc1)C(=O)CSc1cccs1
REMARK SMILES IDX 12 1 11 2 10 3 9 4 8 5 6 6 7 7 5 8 4 9 3 10 2 11 1 12 71 13
REMARK SMILES IDX 72 14 73 15 74 16 75 17 76 18 79 19 77 20 78 21 13 22 14 23
REMARK SMILES IDX 15 24 16 25 17 26 18 27 19 28 20 29 21 30 22 31 23 32 24 33
REMARK SMILES IDX 70 34 25 35 69 36 26 37 27 38 28 39 63 40 29 41 68 42 62 43
REMARK SMILES IDX 64 44 30 45 67 46 61 47 60 48 31 50 53 51 38 52 52 53 39 54
REMARK SMILES IDX 42 55 51 56 65 57 40 58 41 59 50 61 66 62 43 63 32 64 33 65
REMARK SMILES IDX 37 66 34 67 36 68 35 69 54 70 55 71 59 72 56 73 58 74 57 75
REMARK SMILES IDX 44 76 45 77 49 78 46 79 48 80 47 81
REMARK H PARENT 64 49 42 60
REMARK Flexibility Score: inf
ROOT
ATOM      1  C   UNL A   1      37.645  21.544  25.099  1.00  0.00     0.188 C 
ENDROOT
BRANCH   1   2
ATOM      2  O   UNL A   1      36.383  22.115  24.806  1.00  0.00    -0.376 OA
BRANCH   2   3
ATOM      3  C   UNL A   1      36.210  22.806  23.575  1.00  0.00     0.202 C 
BRANCH   3   4
ATOM      4  C   UNL A   1      35.290  24.046  23.551  1.00  0.00     0.261 C 
BRANCH   4   5
ATOM      5  O   UNL A   1      34.920  24.588  24.849  1.00  0.00    -0.462 OA
BRANCH   5   6
ATOM      6  C   UNL A   1      33.935  25.523  24.858  1.00  0.00     0.325 C 
ATOM      7  O   UNL A   1      34.037  26.614  24.299  1.00  0.00    -0.250 OA
BRANCH   6   8
ATOM      8  C   UNL A   1      32.594  25.115  25.527  1.00  0.00     0.242 C 
BRANCH   8   9
ATOM      9  N   UNL A   1      31.933  23.788  25.465  1.00  0.00    -0.327 N 
BRANCH   9  10
ATOM     10  C   UNL A   1      31.414  23.248  26.721  1.00  0.00     0.147 C 
BRANCH  10  11
ATOM     11  C   UNL A   1      29.906  23.283  26.683  1.00  0.00    -0.014 C 
ATOM     12  C   UNL A   1      29.112  22.652  27.562  1.00  0.00     0.006 C 
ENDBRANCH  10  11
ENDBRANCH   9  10
BRANCH   9  13
ATOM     13  C   UNL A   1      31.727  23.015  24.317  1.00  0.00     0.233 C 
ATOM     14  O   UNL A   1      30.856  23.310  23.488  1.00  0.00    -0.274 OA
BRANCH  13  15
ATOM     15  C   UNL A   1      32.515  21.728  24.095  1.00  0.00     0.175 C 
BRANCH  15  16
ATOM     16  S   UNL A   1      32.364  20.539  25.448  1.00  0.00    -0.105 SA
BRANCH  16  17
ATOM     17  C   UNL A   1      32.737  19.032  24.647  1.00  0.00     0.060 A 
ATOM     18  C   UNL A   1      32.869  18.870  23.285  1.00  0.00     0.027 A 
ATOM     19  S   UNL A   1      32.889  17.555  25.486  1.00  0.00    -0.137 S 
ATOM     20  C   UNL A   1      33.080  17.507  22.926  1.00  0.00     0.013 A 
ATOM     21  C   UNL A   1      33.112  16.685  24.031  1.00  0.00     0.066 A 
ENDBRANCH  16  17
ENDBRANCH  15  16
ENDBRANCH  13  15
ENDBRANCH   9  13
ENDBRANCH   8   9
ENDBRANCH   6   8
ENDBRANCH   5   6
ENDBRANCH   4   5
ENDBRANCH   3   4
ENDBRANCH   2   3
ENDBRANCH   1   2
BRANCH   1  22
ATOM     22  C   UNL A   1      37.819  20.027  25.027  1.00  0.00     0.188 C 
BRANCH  22  23
ATOM     23  O   UNL A   1      39.128  19.538  24.866  1.00  0.00    -0.377 OA
BRANCH  23  24
ATOM     24  C   UNL A   1      39.901  19.268  26.018  1.00  0.00     0.188 C 
BRANCH  24  25
ATOM     25  C   UNL A   1      41.235  20.004  26.142  1.00  0.00     0.188 C 
BRANCH  25  26
ATOM     26  O   UNL A   1      41.201  21.431  26.250  1.00  0.00    -0.376 OA
BRANCH  26  27
ATOM     27  C   UNL A   1      41.722  22.069  27.422  1.00  0.00     0.202 C 
BRANCH  27  28
ATOM     28  C   UNL A   1      42.003  23.559  27.288  1.00  0.00     0.261 C 
BRANCH  28  29
ATOM     29  O   UNL A   1      41.053  24.146  26.388  1.00  0.00    -0.460 OA
BRANCH  29  30
ATOM     30  C   UNL A   1      41.387  25.356  25.897  1.00  0.00     0.338 C 
ATOM     31  O   UNL A   1      41.878  25.610  24.809  1.00  0.00    -0.246 OA
BRANCH  30  32
ATOM     32  C   UNL A   1      40.861  26.386  26.809  1.00  0.00     0.060 A 
ATOM     33  C   UNL A   1      41.310  27.702  26.632  1.00  0.00     0.016 A 
ATOM     34  C   UNL A   1      39.954  26.071  27.824  1.00  0.00     0.016 A 
ATOM     35  C   UNL A   1      40.903  28.698  27.509  1.00  0.00     0.010 A 
ATOM     36  C   UNL A   1      39.561  27.064  28.717  1.00  0.00     0.010 A 
ATOM     37  C   UNL A   1      40.077  28.365  28.588  1.00  0.00    -0.014 A 
BRANCH  37  38
ATOM     38  C   UNL A   1      39.969  29.310  29.715  1.00  0.00     0.031 A 
ATOM     39  C   UNL A   1      40.953  29.170  30.842  1.00  0.00     0.074 A 
ATOM     40  C   UNL A   1      39.050  30.290  29.711  1.00  0.00     0.049 A 
ATOM     41  N   UNL A   1      41.049  29.857  31.950  1.00  0.00    -0.248 NA
ATOM     42  C   UNL A   1      41.966  28.110  30.698  1.00  0.00     0.031 C 
ATOM     43  C   UNL A   1      38.092  30.549  28.638  1.00  0.00     0.029 A 
ATOM     44  N   UNL A   1      38.779  31.247  30.651  1.00  0.00    -0.354 N 
ATOM     45  C   UNL A   1      42.124  29.305  32.636  1.00  0.00     0.074 A 
ATOM     46  C   UNL A   1      42.628  28.211  31.839  1.00  0.00     0.031 C 
ATOM     47  C   UNL A   1      37.327  31.599  28.987  1.00  0.00     0.029 A 
ATOM     48  C   UNL A   1      37.721  32.054  30.319  1.00  0.00     0.049 A 
ATOM     49  H   UNL A   1      39.292  31.346  31.485  1.00  0.00     0.167 HD
ATOM     50  C   UNL A   1      42.646  29.682  33.825  1.00  0.00     0.031 A 
ATOM     51  C   UNL A   1      37.127  33.032  31.027  1.00  0.00     0.031 A 
ATOM     52  C   UNL A   1      42.119  30.757  34.621  1.00  0.00     0.049 A 
ATOM     53  C   UNL A   1      37.666  33.371  32.393  1.00  0.00     0.074 A 
ATOM     54  C   UNL A   1      42.567  31.228  35.840  1.00  0.00     0.029 A 
ATOM     55  N   UNL A   1      41.013  31.520  34.274  1.00  0.00    -0.354 N 
ATOM     56  N   UNL A   1      38.694  32.859  33.028  1.00  0.00    -0.248 NA
ATOM     57  C   UNL A   1      36.965  34.427  33.136  1.00  0.00     0.031 C 
ATOM     58  C   UNL A   1      41.691  32.233  36.264  1.00  0.00     0.029 A 
ATOM     59  C   UNL A   1      40.743  32.437  35.273  1.00  0.00     0.049 A 
ATOM     60  H   UNL A   1      40.497  31.423  33.441  1.00  0.00     0.167 HD
ATOM     61  C   UNL A   1      38.783  33.552  34.229  1.00  0.00     0.074 A 
ATOM     62  C   UNL A   1      37.713  34.529  34.225  1.00  0.00     0.031 C 
ATOM     63  C   UNL A   1      39.669  33.398  35.245  1.00  0.00     0.031 A 
BRANCH  50  64
ATOM     64  C   UNL A   1      43.809  28.889  34.353  1.00  0.00    -0.014 A 
ATOM     65  C   UNL A   1      45.116  29.100  33.884  1.00  0.00     0.009 A 
ATOM     66  C   UNL A   1      43.593  27.919  35.343  1.00  0.00     0.009 A 
ATOM     67  C   UNL A   1      46.175  28.331  34.371  1.00  0.00     0.001 A 
ATOM     68  C   UNL A   1      44.658  27.174  35.853  1.00  0.00     0.001 A 
ATOM     69  C   UNL A   1      45.946  27.372  35.358  1.00  0.00     0.000 A 
ENDBRANCH  50  64
BRANCH  51  70
ATOM     70  C   UNL A   1      35.945  33.743  30.474  1.00  0.00    -0.014 A 
ATOM     71  C   UNL A   1      34.773  33.888  31.232  1.00  0.00     0.009 A 
ATOM     72  C   UNL A   1      35.978  34.271  29.172  1.00  0.00     0.009 A 
ATOM     73  C   UNL A   1      33.652  34.520  30.690  1.00  0.00     0.001 A 
ATOM     74  C   UNL A   1      34.867  34.931  28.644  1.00  0.00     0.001 A 
ATOM     75  C   UNL A   1      33.701  35.045  29.399  1.00  0.00     0.000 A 
ENDBRANCH  51  70
BRANCH  63  76
ATOM     76  C   UNL A   1      39.544  34.336  36.414  1.00  0.00    -0.014 A 
ATOM     77  C   UNL A   1      38.818  33.983  37.563  1.00  0.00     0.009 A 
ATOM     78  C   UNL A   1      40.208  35.573  36.382  1.00  0.00     0.009 A 
ATOM     79  C   UNL A   1      38.728  34.869  38.638  1.00  0.00     0.001 A 
ATOM     80  C   UNL A   1      40.146  36.440  37.473  1.00  0.00     0.001 A 
ATOM     81  C   UNL A   1      39.397  36.092  38.596  1.00  0.00     0.000 A 
ENDBRANCH  63  76
ENDBRANCH  37  38
ENDBRANCH  30  32
ENDBRANCH  29  30
ENDBRANCH  28  29
ENDBRANCH  27  28
ENDBRANCH  26  27
ENDBRANCH  25  26
ENDBRANCH  24  25
ENDBRANCH  23  24
ENDBRANCH  22  23
ENDBRANCH   1  22
TORSDOF 27
ENDMDL
MODEL 2
REMARK VINA RESULT:      -7.6      4.849     10.597
REMARK SMILES C=CCN(CC(=O)OCCOCCOCCOCCOC(=O)c1ccc(-c2c3nc(c(-c4ccccc4)c4ccc([nH]4)c(-c4ccccc4)c4nc(c(-c5ccccc5)c5ccc2[nH]5)C=C4)C=C3)cc1)C(=O)CSc1cccs1
REMARK SMILES IDX 12 1 11 2 10 3 9 4 8 5 6 6 7 7 5 8 4 9 3 10 2 11 1 12 71 13
REMARK SMILES IDX 72 14 73 15 74 16 75 17 76 18 79 19 77 20 78 21 13 22 14 23
REMARK SMILES IDX 15 24 16 25 17 26 18 27 19 28 20 29 21 30 22 31 23 32 24 33
REMARK SMILES IDX 70 34 25 35 69 36 26 37 27 38 28 39 63 40 29 41 68 42 62 43
REMARK SMILES IDX 64 44 30 45 67 46 61 47 60 48 31 50 53 51 38 52 52 53 39 54
REMARK SMILES IDX 42 55 51 56 65 57 40 58 41 59 50 61 66 62 43 63 32 64 33 65
REMARK SMILES IDX 37 66 34 67 36 68 35 69 54 70 55 71 59 72 56 73 58 74 57 75
REMARK SMILES IDX 44 76 45 77 49 78 46 79 48 80 47 81
REMARK H PARENT 64 49 42 60
REMARK Flexibility Score: inf
ROOT
ATOM      1  C   UNL A   1      45.740  24.007  27.413  1.00  0.00     0.188 C 
ENDROOT
BRANCH   1   2
ATOM      2  O   UNL A   1      46.484  23.159  26.559  1.00  0.00    -0.376 OA
BRANCH   2   3
ATOM      3  C   UNL A   1      46.295  23.262  25.153  1.00  0.00     0.202 C 
BRANCH   3   4
ATOM      4  C   UNL A   1      46.723  24.565  24.446  1.00  0.00     0.261 C 
BRANCH   4   5
ATOM      5  O   UNL A   1      47.909  25.218  24.982  1.00  0.00    -0.462 OA
BRANCH   5   6
ATOM      6  C   UNL A   1      48.221  26.432  24.459  1.00  0.00     0.325 C 
ATOM      7  O   UNL A   1      48.260  26.656  23.250  1.00  0.00    -0.250 OA
BRANCH   6   8
ATOM      8  C   UNL A   1      48.430  27.592  25.471  1.00  0.00     0.242 C 
BRANCH   8   9
ATOM      9  N   UNL A   1      47.695  27.812  26.740  1.00  0.00    -0.327 N 
BRANCH   9  10
ATOM     10  C   UNL A   1      48.456  27.664  27.981  1.00  0.00     0.147 C 
BRANCH  10  11
ATOM     11  C   UNL A   1      48.602  26.195  28.293  1.00  0.00    -0.014 C 
ATOM     12  C   UNL A   1      48.631  25.685  29.534  1.00  0.00     0.006 C 
ENDBRANCH  10  11
ENDBRANCH   9  10
BRANCH   9  13
ATOM     13  C   UNL A   1      46.351  28.182  26.869  1.00  0.00     0.233 C 
ATOM     14  O   UNL A   1      45.459  27.605  26.234  1.00  0.00    -0.274 OA
BRANCH  13  15
ATOM     15  C   UNL A   1      45.953  29.372  27.736  1.00  0.00     0.175 C 
BRANCH  15  16
ATOM     16  S   UNL A   1      44.703  30.438  26.980  1.00  0.00    -0.105 SA
BRANCH  16  17
ATOM     17  C   UNL A   1      44.863  31.902  27.917  1.00  0.00     0.060 A 
ATOM     18  C   UNL A   1      43.845  32.794  28.176  1.00  0.00     0.027 A 
ATOM     19  S   UNL A   1      46.356  32.435  28.546  1.00  0.00    -0.137 S 
ATOM     20  C   UNL A   1      44.305  33.941  28.886  1.00  0.00     0.013 A 
ATOM     21  C   UNL A   1      45.655  33.873  29.151  1.00  0.00     0.066 A 
ENDBRANCH  16  17
ENDBRANCH  15  16
ENDBRANCH  13  15
ENDBRANCH   9  13
ENDBRANCH   8   9
ENDBRANCH   6   8
ENDBRANCH   5   6
ENDBRANCH   4   5
ENDBRANCH   3   4
ENDBRANCH   2   3
ENDBRANCH   1   2
BRANCH   1  22
ATOM     22  C   UNL A   1      44.931  23.399  28.559  1.00  0.00     0.188 C 
BRANCH  22  23
ATOM     23  O   UNL A   1      43.619  22.985  28.271  1.00  0.00    -0.377 OA
BRANCH  23  24
ATOM     24  C   UNL A   1      43.033  23.378  27.046  1.00  0.00     0.188 C 
BRANCH  24  25
ATOM     25  C   UNL A   1      42.718  22.266  26.045  1.00  0.00     0.188 C 
BRANCH  25  26
ATOM     26  O   UNL A   1      42.185  21.040  26.555  1.00  0.00    -0.376 OA
BRANCH  26  27
ATOM     27  C   UNL A   1      40.780  20.924  26.805  1.00  0.00     0.202 C 
BRANCH  27  28
ATOM     28  C   UNL A   1      40.044  22.237  27.038  1.00  0.00     0.261 C 
BRANCH  28  29
ATOM     29  O   UNL A   1      39.108  22.456  25.975  1.00  0.00    -0.460 OA
BRANCH  29  30
ATOM     30  C   UNL A   1      38.395  23.597  26.052  1.00  0.00     0.338 C 
ATOM     31  O   UNL A   1      37.233  23.775  25.724  1.00  0.00    -0.246 OA
BRANCH  30  32
ATOM     32  C   UNL A   1      39.181  24.583  26.814  1.00  0.00     0.060 A 
ATOM     33  C   UNL A   1      38.956  24.669  28.194  1.00  0.00     0.016 A 
ATOM     34  C   UNL A   1      40.115  25.414  26.188  1.00  0.00     0.016 A 
ATOM     35  C   UNL A   1      39.617  25.630  28.946  1.00  0.00     0.010 A 
ATOM     36  C   UNL A   1      40.763  26.392  26.937  1.00  0.00     0.010 A 
ATOM     37  C   UNL A   1      40.473  26.532  28.305  1.00  0.00    -0.014 A 
BRANCH  37  38
ATOM     38  C   UNL A   1      40.858  27.768  29.012  1.00  0.00     0.031 A 
ATOM     39  C   UNL A   1      39.841  28.872  29.093  1.00  0.00     0.074 A 
ATOM     40  C   UNL A   1      42.059  27.885  29.601  1.00  0.00     0.049 A 
ATOM     41  N   UNL A   1      39.944  30.057  29.633  1.00  0.00    -0.248 NA
ATOM     42  C   UNL A   1      38.529  28.599  28.479  1.00  0.00     0.031 C 
ATOM     43  C   UNL A   1      43.090  26.850  29.635  1.00  0.00     0.029 A 
ATOM     44  N   UNL A   1      42.607  28.937  30.285  1.00  0.00    -0.354 N 
ATOM     45  C   UNL A   1      38.717  30.673  29.415  1.00  0.00     0.074 A 
ATOM     46  C   UNL A   1      37.897  29.746  28.669  1.00  0.00     0.031 C 
ATOM     47  C   UNL A   1      44.157  27.325  30.301  1.00  0.00     0.029 A 
ATOM     48  C   UNL A   1      43.892  28.705  30.704  1.00  0.00     0.049 A 
ATOM     49  H   UNL A   1      42.126  29.778  30.457  1.00  0.00     0.167 HD
ATOM     50  C   UNL A   1      38.310  31.901  29.806  1.00  0.00     0.031 A 
ATOM     51  C   UNL A   1      44.759  29.529  31.321  1.00  0.00     0.031 A 
ATOM     52  C   UNL A   1      39.145  32.824  30.527  1.00  0.00     0.049 A 
ATOM     53  C   UNL A   1      44.316  30.928  31.662  1.00  0.00     0.074 A 
ATOM     54  C   UNL A   1      38.839  34.094  30.976  1.00  0.00     0.029 A 
ATOM     55  N   UNL A   1      40.460  32.572  30.890  1.00  0.00    -0.354 N 
ATOM     56  N   UNL A   1      43.149  31.497  31.471  1.00  0.00    -0.248 NA
ATOM     57  C   UNL A   1      45.309  31.796  32.310  1.00  0.00     0.031 C 
ATOM     58  C   UNL A   1      39.991  34.638  31.553  1.00  0.00     0.029 A 
ATOM     59  C   UNL A   1      40.991  33.677  31.530  1.00  0.00     0.049 A 
ATOM     60  H   UNL A   1      40.944  31.732  30.718  1.00  0.00     0.167 HD
ATOM     61  C   UNL A   1      43.256  32.776  32.003  1.00  0.00     0.074 A 
ATOM     62  C   UNL A   1      44.599  32.891  32.538  1.00  0.00     0.031 C 
ATOM     63  C   UNL A   1      42.331  33.767  32.050  1.00  0.00     0.031 A 
BRANCH  50  64
ATOM     64  C   UNL A   1      36.923  32.329  29.414  1.00  0.00    -0.014 A 
ATOM     65  C   UNL A   1      36.670  32.973  28.191  1.00  0.00     0.009 A 
ATOM     66  C   UNL A   1      35.850  32.074  30.280  1.00  0.00     0.009 A 
ATOM     67  C   UNL A   1      35.377  33.384  27.863  1.00  0.00     0.001 A 
ATOM     68  C   UNL A   1      34.552  32.457  29.935  1.00  0.00     0.001 A 
ATOM     69  C   UNL A   1      34.318  33.122  28.732  1.00  0.00     0.000 A 
ENDBRANCH  50  64
BRANCH  51  70
ATOM     70  C   UNL A   1      46.136  29.066  31.634  1.00  0.00    -0.014 A 
ATOM     71  C   UNL A   1      46.357  28.054  32.581  1.00  0.00     0.009 A 
ATOM     72  C   UNL A   1      47.244  29.647  30.995  1.00  0.00     0.009 A 
ATOM     73  C   UNL A   1      47.657  27.653  32.900  1.00  0.00     0.001 A 
ATOM     74  C   UNL A   1      48.540  29.222  31.292  1.00  0.00     0.001 A 
ATOM     75  C   UNL A   1      48.746  28.234  32.252  1.00  0.00     0.000 A 
ENDBRANCH  51  70
BRANCH  63  76
ATOM     76  C   UNL A   1      42.726  35.045  32.738  1.00  0.00    -0.014 A 
ATOM     77  C   UNL A   1      43.465  36.038  32.076  1.00  0.00     0.009 A 
ATOM     78  C   UNL A   1      42.307  35.276  34.058  1.00  0.00     0.009 A 
ATOM     79  C   UNL A   1      43.808  37.219  32.736  1.00  0.00     0.001 A 
ATOM     80  C   UNL A   1      42.620  36.473  34.703  1.00  0.00     0.001 A 
ATOM     81  C   UNL A   1      43.380  37.438  34.046  1.00  0.00     0.000 A 
ENDBRANCH  63  76
ENDBRANCH  37  38
ENDBRANCH  30  32
ENDBRANCH  29  30
ENDBRANCH  28  29
ENDBRANCH  27  28
ENDBRANCH  26  27
ENDBRANCH  25  26
ENDBRANCH  24  25
ENDBRANCH  23  24
ENDBRANCH  22  23
ENDBRANCH   1  22
TORSDOF 27
ENDMDL
MODEL 3
REMARK VINA RESULT:      -7.4      7.672     12.906
REMARK SMILES C=CCN(CC(=O)OCCOCCOCCOCCOC(=O)c1ccc(-c2c3nc(c(-c4ccccc4)c4ccc([nH]4)c(-c4ccccc4)c4nc(c(-c5ccccc5)c5ccc2[nH]5)C=C4)C=C3)cc1)C(=O)CSc1cccs1
REMARK SMILES IDX 12 1 11 2 10 3 9 4 8 5 6 6 7 7 5 8 4 9 3 10 2 11 1 12 71 13
REMARK SMILES IDX 72 14 73 15 74 16 75 17 76 18 79 19 77 20 78 21 13 22 14 23
REMARK SMILES IDX 15 24 16 25 17 26 18 27 19 28 20 29 21 30 22 31 23 32 24 33
REMARK SMILES IDX 70 34 25 35 69 36 26 37 27 38 28 39 63 40 29 41 68 42 62 43
REMARK SMILES IDX 64 44 30 45 67 46 61 47 60 48 31 50 53 51 38 52 52 53 39 54
REMARK SMILES IDX 42 55 51 56 65 57 40 58 41 59 50 61 66 62 43 63 32 64 33 65
REMARK SMILES IDX 37 66 34 67 36 68 35 69 54 70 55 71 59 72 56 73 58 74 57 75
REMARK SMILES IDX 44 76 45 77 49 78 46 79 48 80 47 81
REMARK H PARENT 64 49 42 60
REMARK Flexibility Score: inf
ROOT
ATOM      1  C   UNL A   1      37.864  30.914  28.792  1.00  0.00     0.188 C 
ENDROOT
BRANCH   1   2
ATOM      2  O   UNL A   1      36.921  31.118  27.757  1.00  0.00    -0.376 OA
BRANCH   2   3
ATOM      3  C   UNL A   1      35.791  31.943  28.010  1.00  0.00     0.202 C 
BRANCH   3   4
ATOM      4  C   UNL A   1      35.583  32.488  29.439  1.00  0.00     0.261 C 
BRANCH   4   5
ATOM      5  O   UNL A   1      34.209  32.787  29.812  1.00  0.00    -0.462 OA
BRANCH   5   6
ATOM      6  C   UNL A   1      33.903  34.096  30.003  1.00  0.00     0.325 C 
ATOM      7  O   UNL A   1      32.827  34.592  29.673  1.00  0.00    -0.250 OA
BRANCH   6   8
ATOM      8  C   UNL A   1      34.947  34.949  30.775  1.00  0.00     0.242 C 
BRANCH   8   9
ATOM      9  N   UNL A   1      35.284  34.857  32.217  1.00  0.00    -0.327 N 
BRANCH   9  10
ATOM     10  C   UNL A   1      34.178  34.986  33.165  1.00  0.00     0.147 C 
BRANCH  10  11
ATOM     11  C   UNL A   1      33.462  36.290  32.908  1.00  0.00    -0.014 C 
ATOM     12  C   UNL A   1      32.153  36.390  32.627  1.00  0.00     0.006 C 
ENDBRANCH  10  11
ENDBRANCH   9  10
BRANCH   9  13
ATOM     13  C   UNL A   1      36.553  34.625  32.760  1.00  0.00     0.233 C 
ATOM     14  O   UNL A   1      37.584  34.852  32.114  1.00  0.00    -0.274 OA
BRANCH  13  15
ATOM     15  C   UNL A   1      36.702  34.001  34.144  1.00  0.00     0.175 C 
BRANCH  15  16
ATOM     16  S   UNL A   1      38.415  33.894  34.713  1.00  0.00    -0.105 SA
BRANCH  16  17
ATOM     17  C   UNL A   1      38.883  32.307  34.153  1.00  0.00     0.060 A 
ATOM     18  C   UNL A   1      38.732  31.845  32.864  1.00  0.00     0.027 A 
ATOM     19  S   UNL A   1      39.505  31.108  35.194  1.00  0.00    -0.137 S 
ATOM     20  C   UNL A   1      39.117  30.478  32.736  1.00  0.00     0.013 A 
ATOM     21  C   UNL A   1      39.557  29.956  33.932  1.00  0.00     0.066 A 
ENDBRANCH  16  17
ENDBRANCH  15  16
ENDBRANCH  13  15
ENDBRANCH   9  13
ENDBRANCH   8   9
ENDBRANCH   6   8
ENDBRANCH   5   6
ENDBRANCH   4   5
ENDBRANCH   3   4
ENDBRANCH   2   3
ENDBRANCH   1   2
BRANCH   1  22
ATOM     22  C   UNL A   1      38.225  29.488  29.211  1.00  0.00     0.188 C 
BRANCH  22  23
ATOM     23  O   UNL A   1      38.491  28.565  28.184  1.00  0.00    -0.377 OA
BRANCH  23  24
ATOM     24  C   UNL A   1      39.828  28.371  27.770  1.00  0.00     0.188 C 
BRANCH  24  25
ATOM     25  C   UNL A   1      40.300  26.925  27.617  1.00  0.00     0.188 C 
BRANCH  25  26
ATOM     26  O   UNL A   1      39.302  25.902  27.542  1.00  0.00    -0.376 OA
BRANCH  26  27
ATOM     27  C   UNL A   1      39.576  24.691  26.829  1.00  0.00     0.202 C 
BRANCH  27  28
ATOM     28  C   UNL A   1      40.768  23.888  27.332  1.00  0.00     0.261 C 
BRANCH  28  29
ATOM     29  O   UNL A   1      41.503  23.373  26.214  1.00  0.00    -0.460 OA
BRANCH  29  30
ATOM     30  C   UNL A   1      42.811  23.136  26.437  1.00  0.00     0.338 C 
ATOM     31  O   UNL A   1      43.392  22.063  26.403  1.00  0.00    -0.246 OA
BRANCH  30  32
ATOM     32  C   UNL A   1      43.507  24.431  26.524  1.00  0.00     0.060 A 
ATOM     33  C   UNL A   1      43.742  25.125  25.329  1.00  0.00     0.016 A 
ATOM     34  C   UNL A   1      43.930  24.953  27.750  1.00  0.00     0.016 A 
ATOM     35  C   UNL A   1      44.458  26.315  25.348  1.00  0.00     0.010 A 
ATOM     36  C   UNL A   1      44.667  26.135  27.767  1.00  0.00     0.010 A 
ATOM     37  C   UNL A   1      44.973  26.786  26.560  1.00  0.00    -0.014 A 
BRANCH  37  38
ATOM     38  C   UNL A   1      46.039  27.805  26.528  1.00  0.00     0.031 A 
ATOM     39  C   UNL A   1      45.631  29.246  26.648  1.00  0.00     0.074 A 
ATOM     40  C   UNL A   1      47.332  27.453  26.439  1.00  0.00     0.049 A 
ATOM     41  N   UNL A   1      46.371  30.323  26.621  1.00  0.00    -0.248 NA
ATOM     42  C   UNL A   1      44.191  29.506  26.822  1.00  0.00     0.031 C 
ATOM     43  C   UNL A   1      47.835  26.082  26.381  1.00  0.00     0.029 A 
ATOM     44  N   UNL A   1      48.455  28.233  26.381  1.00  0.00    -0.354 N 
ATOM     45  C   UNL A   1      45.485  31.385  26.764  1.00  0.00     0.074 A 
ATOM     46  C   UNL A   1      44.155  30.828  26.846  1.00  0.00     0.031 C 
ATOM     47  C   UNL A   1      49.176  26.118  26.286  1.00  0.00     0.029 A 
ATOM     48  C   UNL A   1      49.614  27.512  26.240  1.00  0.00     0.049 A 
ATOM     49  H   UNL A   1      48.434  29.216  26.433  1.00  0.00     0.167 HD
ATOM     50  C   UNL A   1      45.761  32.707  26.825  1.00  0.00     0.031 A 
ATOM     51  C   UNL A   1      50.879  27.938  26.068  1.00  0.00     0.031 A 
ATOM     52  C   UNL A   1      47.088  33.250  26.717  1.00  0.00     0.049 A 
ATOM     53  C   UNL A   1      51.150  29.420  26.042  1.00  0.00     0.074 A 
ATOM     54  C   UNL A   1      47.486  34.573  26.767  1.00  0.00     0.029 A 
ATOM     55  N   UNL A   1      48.232  32.490  26.524  1.00  0.00    -0.354 N 
ATOM     56  N   UNL A   1      50.312  30.418  26.197  1.00  0.00    -0.248 NA
ATOM     57  C   UNL A   1      52.543  29.833  25.824  1.00  0.00     0.031 C 
ATOM     58  C   UNL A   1      48.865  34.618  26.536  1.00  0.00     0.029 A 
ATOM     59  C   UNL A   1      49.334  33.318  26.419  1.00  0.00     0.049 A 
ATOM     60  H   UNL A   1      48.256  31.507  26.470  1.00  0.00     0.167 HD
ATOM     61  C   UNL A   1      51.079  31.574  26.129  1.00  0.00     0.074 A 
ATOM     62  C   UNL A   1      52.452  31.150  25.932  1.00  0.00     0.031 C 
ATOM     63  C   UNL A   1      50.689  32.870  26.221  1.00  0.00     0.031 A 
BRANCH  50  64
ATOM     64  C   UNL A   1      44.598  33.650  26.963  1.00  0.00    -0.014 A 
ATOM     65  C   UNL A   1      44.094  34.018  28.222  1.00  0.00     0.009 A 
ATOM     66  C   UNL A   1      44.003  34.188  25.812  1.00  0.00     0.009 A 
ATOM     67  C   UNL A   1      42.995  34.874  28.321  1.00  0.00     0.001 A 
ATOM     68  C   UNL A   1      42.925  35.070  25.915  1.00  0.00     0.001 A 
ATOM     69  C   UNL A   1      42.415  35.403  27.169  1.00  0.00     0.000 A 
ENDBRANCH  50  64
BRANCH  51  70
ATOM     70  C   UNL A   1      51.978  26.957  25.882  1.00  0.00    -0.014 A 
ATOM     71  C   UNL A   1      52.296  26.465  24.606  1.00  0.00     0.009 A 
ATOM     72  C   UNL A   1      52.711  26.492  26.987  1.00  0.00     0.009 A 
ATOM     73  C   UNL A   1      53.303  25.511  24.445  1.00  0.00     0.001 A 
ATOM     74  C   UNL A   1      53.739  25.563  26.819  1.00  0.00     0.001 A 
ATOM     75  C   UNL A   1      54.027  25.064  25.550  1.00  0.00     0.000 A 
ENDBRANCH  51  70
BRANCH  63  76
ATOM     76  C   UNL A   1      51.766  33.919  26.154  1.00  0.00    -0.014 A 
ATOM     77  C   UNL A   1      52.133  34.517  24.938  1.00  0.00     0.009 A 
ATOM     78  C   UNL A   1      52.387  34.349  27.338  1.00  0.00     0.009 A 
ATOM     79  C   UNL A   1      53.129  35.496  24.907  1.00  0.00     0.001 A 
ATOM     80  C   UNL A   1      53.354  35.353  27.308  1.00  0.00     0.001 A 
ATOM     81  C   UNL A   1      53.733  35.917  26.092  1.00  0.00     0.000 A 
ENDBRANCH  63  76
ENDBRANCH  37  38
ENDBRANCH  30  32
ENDBRANCH  29  30
ENDBRANCH  28  29
ENDBRANCH  27  28
ENDBRANCH  26  27
ENDBRANCH  25  26
ENDBRANCH  24  25
ENDBRANCH  23  24
ENDBRANCH  22  23
ENDBRANCH   1  22
TORSDOF 27
ENDMDL
