MODEL 1
REMARK VINA RESULT:      -9.6      0.000      0.000
REMARK SMILES CC(C)C[C@H](C(=O)OCCOCCOCCOCCOC(=O)c1ccc(-c2c3nc(c(-c4ccccc4)c4ccc([nH]4)c(-c4ccccc4)c4nc(c(-c5ccccc5)c5ccc2[nH]5)C=C4)C=C3)cc1)[C@@H]1CCO[C@]2(CCOC2)C1
REMARK SMILES IDX 14 1 13 2 12 3 11 4 10 5 9 6 8 7 6 8 7 9 5 10 4 11 2 12 1 13
REMARK SMILES IDX 3 14 71 15 72 16 80 17 73 18 75 19 74 20 76 21 79 22 77 23
REMARK SMILES IDX 78 24 15 25 16 26 17 27 18 28 19 29 20 30 21 31 22 32 23 33
REMARK SMILES IDX 24 34 70 35 25 36 69 37 26 38 27 39 28 40 63 41 29 42 68 43
REMARK SMILES IDX 62 44 64 45 30 46 67 47 61 48 60 49 31 51 53 52 38 53 52 54
REMARK SMILES IDX 39 55 42 56 51 57 65 58 40 59 41 60 50 62 66 63 43 64 32 65
REMARK SMILES IDX 33 66 37 67 34 68 36 69 35 70 54 71 55 72 59 73 56 74 58 75
REMARK SMILES IDX 57 76 44 77 45 78 49 79 46 80 48 81 47 82
REMARK H PARENT 64 50 42 61
REMARK Flexibility Score: inf
ROOT
ATOM      1  O   UNL A   1      33.428  33.675  28.683  1.00  0.00    -0.377 OA
ENDROOT
BRANCH   1   2
ATOM      2  C   UNL A   1      34.484  32.812  28.323  1.00  0.00     0.188 C 
BRANCH   2   3
ATOM      3  C   UNL A   1      34.125  31.505  27.628  1.00  0.00     0.188 C 
BRANCH   3   4
ATOM      4  O   UNL A   1      32.805  31.327  27.169  1.00  0.00    -0.376 OA
BRANCH   4   5
ATOM      5  C   UNL A   1      32.434  30.121  26.514  1.00  0.00     0.202 C 
BRANCH   5   6
ATOM      6  C   UNL A   1      33.430  29.177  25.800  1.00  0.00     0.261 C 
BRANCH   6   7
ATOM      7  O   UNL A   1      33.783  27.934  26.460  1.00  0.00    -0.463 OA
BRANCH   7   8
ATOM      8  C   UNL A   1      32.771  27.053  26.605  1.00  0.00     0.309 C 
ATOM      9  O   UNL A   1      31.819  27.256  27.362  1.00  0.00    -0.252 OA
BRANCH   8  10
ATOM     10  C   UNL A   1      32.800  25.758  25.756  1.00  0.00     0.103 C 
BRANCH  10  11
ATOM     11  C   UNL A   1      34.000  24.756  25.758  1.00  0.00     0.018 C 
BRANCH  11  12
ATOM     12  C   UNL A   1      34.618  24.454  24.335  1.00  0.00    -0.017 C 
ATOM     13  C   UNL A   1      34.563  23.011  23.813  1.00  0.00     0.007 C 
ATOM     14  C   UNL A   1      34.027  25.359  23.249  1.00  0.00     0.007 C 
ENDBRANCH  11  12
ENDBRANCH  10  11
BRANCH  10  15
ATOM     15  C   UNL A   1      31.358  25.156  25.893  1.00  0.00     0.008 C 
ATOM     16  C   UNL A   1      31.051  23.778  25.320  1.00  0.00     0.033 C 
ATOM     17  C   UNL A   1      30.274  26.135  25.393  1.00  0.00     0.042 C 
ATOM     18  C   UNL A   1      30.842  23.776  23.819  1.00  0.00     0.161 C 
ATOM     19  C   UNL A   1      30.066  26.118  23.866  1.00  0.00     0.094 C 
ATOM     20  O   UNL A   1      29.983  24.795  23.334  1.00  0.00    -0.372 OA
ATOM     21  C   UNL A   1      30.992  27.056  23.097  1.00  0.00     0.066 C 
ATOM     22  C   UNL A   1      28.738  26.805  23.508  1.00  0.00     0.195 C 
ATOM     23  C   UNL A   1      30.339  28.424  23.193  1.00  0.00     0.163 C 
ATOM     24  O   UNL A   1      28.964  28.217  23.512  1.00  0.00    -0.378 OA
ENDBRANCH  10  15
ENDBRANCH   8  10
ENDBRANCH   7   8
ENDBRANCH   6   7
ENDBRANCH   5   6
ENDBRANCH   4   5
ENDBRANCH   3   4
ENDBRANCH   2   3
ENDBRANCH   1   2
BRANCH   1  25
ATOM     25  C   UNL A   1      33.642  35.065  28.818  1.00  0.00     0.188 C 
BRANCH  25  26
ATOM     26  C   UNL A   1      33.589  35.695  30.212  1.00  0.00     0.188 C 
BRANCH  26  27
ATOM     27  O   UNL A   1      33.268  34.792  31.254  1.00  0.00    -0.376 OA
BRANCH  27  28
ATOM     28  C   UNL A   1      34.151  34.659  32.359  1.00  0.00     0.202 C 
BRANCH  28  29
ATOM     29  C   UNL A   1      34.191  33.324  33.123  1.00  0.00     0.261 C 
BRANCH  29  30
ATOM     30  O   UNL A   1      35.123  32.326  32.667  1.00  0.00    -0.460 OA
BRANCH  30  31
ATOM     31  C   UNL A   1      36.321  32.224  33.284  1.00  0.00     0.338 C 
ATOM     32  O   UNL A   1      36.586  32.492  34.434  1.00  0.00    -0.246 OA
BRANCH  31  33
ATOM     33  C   UNL A   1      37.241  31.528  32.357  1.00  0.00     0.060 A 
ATOM     34  C   UNL A   1      38.251  30.718  32.891  1.00  0.00     0.016 A 
ATOM     35  C   UNL A   1      37.121  31.690  30.975  1.00  0.00     0.016 A 
ATOM     36  C   UNL A   1      39.173  30.100  32.048  1.00  0.00     0.010 A 
ATOM     37  C   UNL A   1      38.061  31.091  30.132  1.00  0.00     0.010 A 
ATOM     38  C   UNL A   1      39.114  30.327  30.668  1.00  0.00    -0.014 A 
BRANCH  38  39
ATOM     39  C   UNL A   1      40.270  29.951  29.819  1.00  0.00     0.031 A 
ATOM     40  C   UNL A   1      40.229  28.625  29.109  1.00  0.00     0.074 A 
ATOM     41  C   UNL A   1      41.313  30.780  29.646  1.00  0.00     0.049 A 
ATOM     42  N   UNL A   1      41.132  28.059  28.350  1.00  0.00    -0.248 NA
ATOM     43  C   UNL A   1      39.002  27.829  29.281  1.00  0.00     0.031 C 
ATOM     44  C   UNL A   1      41.443  32.116  30.225  1.00  0.00     0.029 A 
ATOM     45  N   UNL A   1      42.471  30.609  28.928  1.00  0.00    -0.354 N 
ATOM     46  C   UNL A   1      40.587  26.840  27.965  1.00  0.00     0.074 A 
ATOM     47  C   UNL A   1      39.292  26.734  28.596  1.00  0.00     0.031 C 
ATOM     48  C   UNL A   1      42.622  32.640  29.847  1.00  0.00     0.029 A 
ATOM     49  C   UNL A   1      43.344  31.663  29.033  1.00  0.00     0.049 A 
ATOM     50  H   UNL A   1      42.657  29.806  28.389  1.00  0.00     0.167 HD
ATOM     51  C   UNL A   1      41.117  25.895  27.153  1.00  0.00     0.031 A 
ATOM     52  C   UNL A   1      44.595  31.809  28.551  1.00  0.00     0.031 A 
ATOM     53  C   UNL A   1      42.414  25.994  26.541  1.00  0.00     0.049 A 
ATOM     54  C   UNL A   1      45.202  30.700  27.731  1.00  0.00     0.074 A 
ATOM     55  C   UNL A   1      43.042  25.092  25.699  1.00  0.00     0.029 A 
ATOM     56  N   UNL A   1      43.288  27.056  26.714  1.00  0.00    -0.354 N 
ATOM     57  N   UNL A   1      44.674  29.558  27.359  1.00  0.00    -0.248 NA
ATOM     58  C   UNL A   1      46.578  30.905  27.256  1.00  0.00     0.031 C 
ATOM     59  C   UNL A   1      44.322  25.577  25.418  1.00  0.00     0.029 A 
ATOM     60  C   UNL A   1      44.462  26.818  26.020  1.00  0.00     0.049 A 
ATOM     61  H   UNL A   1      43.100  27.860  27.249  1.00  0.00     0.167 HD
ATOM     62  C   UNL A   1      45.639  28.926  26.583  1.00  0.00     0.074 A 
ATOM     63  C   UNL A   1      46.777  29.819  26.524  1.00  0.00     0.031 C 
ATOM     64  C   UNL A   1      45.587  27.718  25.971  1.00  0.00     0.031 A 
BRANCH  51  65
ATOM     65  C   UNL A   1      40.305  24.650  26.921  1.00  0.00    -0.014 A 
ATOM     66  C   UNL A   1      39.087  24.686  26.222  1.00  0.00     0.009 A 
ATOM     67  C   UNL A   1      40.781  23.415  27.389  1.00  0.00     0.009 A 
ATOM     68  C   UNL A   1      38.345  23.517  26.032  1.00  0.00     0.001 A 
ATOM     69  C   UNL A   1      40.053  22.244  27.169  1.00  0.00     0.001 A 
ATOM     70  C   UNL A   1      38.832  22.298  26.501  1.00  0.00     0.000 A 
ENDBRANCH  51  65
BRANCH  52  71
ATOM     71  C   UNL A   1      45.375  33.039  28.855  1.00  0.00    -0.014 A 
ATOM     72  C   UNL A   1      45.348  34.142  27.989  1.00  0.00     0.009 A 
ATOM     73  C   UNL A   1      46.177  33.104  30.007  1.00  0.00     0.009 A 
ATOM     74  C   UNL A   1      46.129  35.270  28.253  1.00  0.00     0.001 A 
ATOM     75  C   UNL A   1      46.931  34.245  30.286  1.00  0.00     0.001 A 
ATOM     76  C   UNL A   1      46.915  35.323  29.403  1.00  0.00     0.000 A 
ENDBRANCH  52  71
BRANCH  64  77
ATOM     77  C   UNL A   1      46.776  27.306  25.144  1.00  0.00    -0.014 A 
ATOM     78  C   UNL A   1      47.709  26.369  25.612  1.00  0.00     0.009 A 
ATOM     79  C   UNL A   1      46.936  27.836  23.853  1.00  0.00     0.009 A 
ATOM     80  C   UNL A   1      48.798  25.999  24.819  1.00  0.00     0.001 A 
ATOM     81  C   UNL A   1      48.005  27.439  23.049  1.00  0.00     0.001 A 
ATOM     82  C   UNL A   1      48.942  26.530  23.538  1.00  0.00     0.000 A 
ENDBRANCH  64  77
ENDBRANCH  38  39
ENDBRANCH  31  33
ENDBRANCH  30  31
ENDBRANCH  29  30
ENDBRANCH  28  29
ENDBRANCH  27  28
ENDBRANCH  26  27
ENDBRANCH  25  26
ENDBRANCH   1  25
TORSDOF 23
ENDMDL
MODEL 2
REMARK VINA RESULT:      -9.4      4.682     10.575
REMARK SMILES CC(C)C[C@H](C(=O)OCCOCCOCCOCCOC(=O)c1ccc(-c2c3nc(c(-c4ccccc4)c4ccc([nH]4)c(-c4ccccc4)c4nc(c(-c5ccccc5)c5ccc2[nH]5)C=C4)C=C3)cc1)[C@@H]1CCO[C@]2(CCOC2)C1
REMARK SMILES IDX 14 1 13 2 12 3 11 4 10 5 9 6 8 7 6 8 7 9 5 10 4 11 2 12 1 13
REMARK SMILES IDX 3 14 71 15 72 16 80 17 73 18 75 19 74 20 76 21 79 22 77 23
REMARK SMILES IDX 78 24 15 25 16 26 17 27 18 28 19 29 20 30 21 31 22 32 23 33
REMARK SMILES IDX 24 34 70 35 25 36 69 37 26 38 27 39 28 40 63 41 29 42 68 43
REMARK SMILES IDX 62 44 64 45 30 46 67 47 61 48 60 49 31 51 53 52 38 53 52 54
REMARK SMILES IDX 39 55 42 56 51 57 65 58 40 59 41 60 50 62 66 63 43 64 32 65
REMARK SMILES IDX 33 66 37 67 34 68 36 69 35 70 54 71 55 72 59 73 56 74 58 75
REMARK SMILES IDX 57 76 44 77 45 78 49 79 46 80 48 81 47 82
REMARK H PARENT 64 50 42 61
REMARK Flexibility Score: inf
ROOT
ATOM      1  O   UNL A   1      42.786  18.987  25.867  1.00  0.00    -0.377 OA
ENDROOT
BRANCH   1   2
ATOM      2  C   UNL A   1      42.326  20.288  26.163  1.00  0.00     0.188 C 
BRANCH   2   3
ATOM      3  C   UNL A   1      40.857  20.453  26.528  1.00  0.00     0.188 C 
BRANCH   3   4
ATOM      4  O   UNL A   1      40.039  21.239  25.692  1.00  0.00    -0.376 OA
BRANCH   4   5
ATOM      5  C   UNL A   1      38.624  21.170  25.810  1.00  0.00     0.202 C 
BRANCH   5   6
ATOM      6  C   UNL A   1      37.636  21.749  24.770  1.00  0.00     0.261 C 
BRANCH   6   7
ATOM      7  O   UNL A   1      36.960  22.992  25.092  1.00  0.00    -0.463 OA
BRANCH   7   8
ATOM      8  C   UNL A   1      35.871  23.265  24.343  1.00  0.00     0.309 C 
ATOM      9  O   UNL A   1      35.912  23.327  23.112  1.00  0.00    -0.252 OA
BRANCH   8  10
ATOM     10  C   UNL A   1      34.517  23.470  25.065  1.00  0.00     0.103 C 
BRANCH  10  11
ATOM     11  C   UNL A   1      34.047  22.598  26.275  1.00  0.00     0.018 C 
BRANCH  11  12
ATOM     12  C   UNL A   1      32.826  21.643  25.972  1.00  0.00    -0.017 C 
ATOM     13  C   UNL A   1      31.933  21.969  24.766  1.00  0.00     0.007 C 
ATOM     14  C   UNL A   1      33.261  20.179  25.841  1.00  0.00     0.007 C 
ENDBRANCH  11  12
ENDBRANCH  10  11
BRANCH  10  15
ATOM     15  C   UNL A   1      34.364  25.026  25.195  1.00  0.00     0.008 C 
ATOM     16  C   UNL A   1      33.307  25.612  26.123  1.00  0.00     0.033 C 
ATOM     17  C   UNL A   1      34.224  25.710  23.819  1.00  0.00     0.042 C 
ATOM     18  C   UNL A   1      31.907  25.585  25.545  1.00  0.00     0.161 C 
ATOM     19  C   UNL A   1      32.794  25.682  23.244  1.00  0.00     0.094 C 
ATOM     20  O   UNL A   1      31.804  26.046  24.207  1.00  0.00    -0.372 OA
ATOM     21  C   UNL A   1      32.466  24.428  22.439  1.00  0.00     0.066 C 
ATOM     22  C   UNL A   1      32.666  26.699  22.099  1.00  0.00     0.195 C 
ATOM     23  C   UNL A   1      33.040  24.684  21.055  1.00  0.00     0.163 C 
ATOM     24  O   UNL A   1      33.205  26.095  20.920  1.00  0.00    -0.378 OA
ENDBRANCH  10  15
ENDBRANCH   8  10
ENDBRANCH   7   8
ENDBRANCH   6   7
ENDBRANCH   5   6
ENDBRANCH   4   5
ENDBRANCH   3   4
ENDBRANCH   2   3
ENDBRANCH   1   2
BRANCH   1  25
ATOM     25  C   UNL A   1      43.973  18.789  25.127  1.00  0.00     0.188 C 
BRANCH  25  26
ATOM     26  C   UNL A   1      44.597  19.975  24.388  1.00  0.00     0.188 C 
BRANCH  26  27
ATOM     27  O   UNL A   1      45.436  20.791  25.186  1.00  0.00    -0.376 OA
BRANCH  27  28
ATOM     28  C   UNL A   1      46.213  21.807  24.569  1.00  0.00     0.202 C 
BRANCH  28  29
ATOM     29  C   UNL A   1      46.108  23.249  25.097  1.00  0.00     0.261 C 
BRANCH  29  30
ATOM     30  O   UNL A   1      45.105  24.098  24.510  1.00  0.00    -0.460 OA
BRANCH  30  31
ATOM     31  C   UNL A   1      43.813  23.917  24.859  1.00  0.00     0.338 C 
ATOM     32  O   UNL A   1      43.021  23.134  24.385  1.00  0.00    -0.246 OA
BRANCH  31  33
ATOM     33  C   UNL A   1      43.565  24.714  26.081  1.00  0.00     0.060 A 
ATOM     34  C   UNL A   1      42.833  24.137  27.127  1.00  0.00     0.016 A 
ATOM     35  C   UNL A   1      44.034  26.025  26.186  1.00  0.00     0.016 A 
ATOM     36  C   UNL A   1      42.529  24.883  28.264  1.00  0.00     0.010 A 
ATOM     37  C   UNL A   1      43.706  26.782  27.315  1.00  0.00     0.010 A 
ATOM     38  C   UNL A   1      42.919  26.225  28.340  1.00  0.00    -0.014 A 
BRANCH  38  39
ATOM     39  C   UNL A   1      42.320  27.099  29.377  1.00  0.00     0.031 A 
ATOM     40  C   UNL A   1      43.014  27.203  30.708  1.00  0.00     0.074 A 
ATOM     41  C   UNL A   1      41.210  27.817  29.135  1.00  0.00     0.049 A 
ATOM     42  N   UNL A   1      42.663  27.864  31.780  1.00  0.00    -0.248 NA
ATOM     43  C   UNL A   1      44.276  26.457  30.846  1.00  0.00     0.031 C 
ATOM     44  C   UNL A   1      40.481  27.855  27.869  1.00  0.00     0.029 A 
ATOM     45  N   UNL A   1      40.499  28.655  29.959  1.00  0.00    -0.354 N 
ATOM     46  C   UNL A   1      43.653  27.605  32.721  1.00  0.00     0.074 A 
ATOM     47  C   UNL A   1      44.600  26.704  32.105  1.00  0.00     0.031 C 
ATOM     48  C   UNL A   1      39.418  28.666  28.003  1.00  0.00     0.029 A 
ATOM     49  C   UNL A   1      39.371  29.174  29.374  1.00  0.00     0.049 A 
ATOM     50  H   UNL A   1      40.773  28.864  30.881  1.00  0.00     0.167 HD
ATOM     51  C   UNL A   1      43.766  28.079  33.984  1.00  0.00     0.031 A 
ATOM     52  C   UNL A   1      38.397  29.947  29.895  1.00  0.00     0.031 A 
ATOM     53  C   UNL A   1      42.812  28.961  34.601  1.00  0.00     0.049 A 
ATOM     54  C   UNL A   1      38.494  30.383  31.335  1.00  0.00     0.074 A 
ATOM     55  C   UNL A   1      42.835  29.501  35.876  1.00  0.00     0.029 A 
ATOM     56  N   UNL A   1      41.657  29.423  33.991  1.00  0.00    -0.354 N 
ATOM     57  N   UNL A   1      39.440  30.145  32.212  1.00  0.00    -0.248 NA
ATOM     58  C   UNL A   1      37.389  31.201  31.854  1.00  0.00     0.031 C 
ATOM     59  C   UNL A   1      41.660  30.235  36.059  1.00  0.00     0.029 A 
ATOM     60  C   UNL A   1      40.943  30.217  34.873  1.00  0.00     0.049 A 
ATOM     61  H   UNL A   1      41.384  29.218  33.068  1.00  0.00     0.167 HD
ATOM     62  C   UNL A   1      39.061  30.811  33.372  1.00  0.00     0.074 A 
ATOM     63  C   UNL A   1      37.808  31.474  33.082  1.00  0.00     0.031 C 
ATOM     64  C   UNL A   1      39.695  30.870  34.569  1.00  0.00     0.031 A 
BRANCH  51  65
ATOM     65  C   UNL A   1      44.944  27.613  34.795  1.00  0.00    -0.014 A 
ATOM     66  C   UNL A   1      44.881  26.448  35.578  1.00  0.00     0.009 A 
ATOM     67  C   UNL A   1      46.144  28.338  34.755  1.00  0.00     0.009 A 
ATOM     68  C   UNL A   1      45.985  26.044  36.334  1.00  0.00     0.001 A 
ATOM     69  C   UNL A   1      47.256  27.914  35.486  1.00  0.00     0.001 A 
ATOM     70  C   UNL A   1      47.171  26.774  36.282  1.00  0.00     0.000 A 
ENDBRANCH  51  65
BRANCH  52  71
ATOM     71  C   UNL A   1      37.226  30.337  29.065  1.00  0.00    -0.014 A 
ATOM     72  C   UNL A   1      37.060  31.660  28.628  1.00  0.00     0.009 A 
ATOM     73  C   UNL A   1      36.247  29.387  28.728  1.00  0.00     0.009 A 
ATOM     74  C   UNL A   1      35.927  32.028  27.897  1.00  0.00     0.001 A 
ATOM     75  C   UNL A   1      35.133  29.750  27.969  1.00  0.00     0.001 A 
ATOM     76  C   UNL A   1      34.968  31.073  27.564  1.00  0.00     0.000 A 
ENDBRANCH  52  71
BRANCH  64  77
ATOM     77  C   UNL A   1      39.069  31.718  35.644  1.00  0.00    -0.014 A 
ATOM     78  C   UNL A   1      38.179  31.176  36.584  1.00  0.00     0.009 A 
ATOM     79  C   UNL A   1      39.416  33.076  35.744  1.00  0.00     0.009 A 
ATOM     80  C   UNL A   1      37.620  31.986  37.576  1.00  0.00     0.001 A 
ATOM     81  C   UNL A   1      38.885  33.873  36.756  1.00  0.00     0.001 A 
ATOM     82  C   UNL A   1      37.978  33.330  37.665  1.00  0.00     0.000 A 
ENDBRANCH  64  77
ENDBRANCH  38  39
ENDBRANCH  31  33
ENDBRANCH  30  31
ENDBRANCH  29  30
ENDBRANCH  28  29
ENDBRANCH  27  28
ENDBRANCH  26  27
ENDBRANCH  25  26
ENDBRANCH   1  25
TORSDOF 23
ENDMDL
MODEL 3
REMARK VINA RESULT:      -9.4      3.720      8.016
REMARK SMILES CC(C)C[C@H](C(=O)OCCOCCOCCOCCOC(=O)c1ccc(-c2c3nc(c(-c4ccccc4)c4ccc([nH]4)c(-c4ccccc4)c4nc(c(-c5ccccc5)c5ccc2[nH]5)C=C4)C=C3)cc1)[C@@H]1CCO[C@]2(CCOC2)C1
REMARK SMILES IDX 14 1 13 2 12 3 11 4 10 5 9 6 8 7 6 8 7 9 5 10 4 11 2 12 1 13
REMARK SMILES IDX 3 14 71 15 72 16 80 17 73 18 75 19 74 20 76 21 79 22 77 23
REMARK SMILES IDX 78 24 15 25 16 26 17 27 18 28 19 29 20 30 21 31 22 32 23 33
REMARK SMILES IDX 24 34 70 35 25 36 69 37 26 38 27 39 28 40 63 41 29 42 68 43
REMARK SMILES IDX 62 44 64 45 30 46 67 47 61 48 60 49 31 51 53 52 38 53 52 54
REMARK SMILES IDX 39 55 42 56 51 57 65 58 40 59 41 60 50 62 66 63 43 64 32 65
REMARK SMILES IDX 33 66 37 67 34 68 36 69 35 70 54 71 55 72 59 73 56 74 58 75
REMARK SMILES IDX 57 76 44 77 45 78 49 79 46 80 48 81 47 82
REMARK H PARENT 64 50 42 61
REMARK Flexibility Score: inf
ROOT
ATOM      1  O   UNL A   1      32.211  29.273  23.674  1.00  0.00    -0.377 OA
ENDROOT
BRANCH   1   2
ATOM      2  C   UNL A   1      33.532  28.810  23.855  1.00  0.00     0.188 C 
BRANCH   2   3
ATOM      3  C   UNL A   1      34.335  28.458  22.610  1.00  0.00     0.188 C 
BRANCH   3   4
ATOM      4  O   UNL A   1      33.756  27.600  21.654  1.00  0.00    -0.376 OA
BRANCH   4   5
ATOM      5  C   UNL A   1      33.173  26.369  22.062  1.00  0.00     0.202 C 
BRANCH   5   6
ATOM      6  C   UNL A   1      33.851  25.361  23.019  1.00  0.00     0.261 C 
BRANCH   6   7
ATOM      7  O   UNL A   1      34.195  24.051  22.497  1.00  0.00    -0.463 OA
BRANCH   7   8
ATOM      8  C   UNL A   1      33.238  23.110  22.630  1.00  0.00     0.309 C 
ATOM      9  O   UNL A   1      32.811  22.460  21.673  1.00  0.00    -0.252 OA
BRANCH   8  10
ATOM     10  C   UNL A   1      32.689  22.818  24.048  1.00  0.00     0.103 C 
BRANCH  10  11
ATOM     11  C   UNL A   1      31.213  23.106  24.474  1.00  0.00     0.018 C 
BRANCH  11  12
ATOM     12  C   UNL A   1      31.046  24.209  25.593  1.00  0.00    -0.017 C 
ATOM     13  C   UNL A   1      30.051  23.942  26.732  1.00  0.00     0.007 C 
ATOM     14  C   UNL A   1      32.387  24.586  26.233  1.00  0.00     0.007 C 
ENDBRANCH  11  12
ENDBRANCH  10  11
BRANCH  10  15
ATOM     15  C   UNL A   1      33.291  21.421  24.431  1.00  0.00     0.008 C 
ATOM     16  C   UNL A   1      32.869  20.740  25.728  1.00  0.00     0.033 C 
ATOM     17  C   UNL A   1      34.834  21.420  24.371  1.00  0.00     0.042 C 
ATOM     18  C   UNL A   1      33.550  21.302  26.960  1.00  0.00     0.161 C 
ATOM     19  C   UNL A   1      35.514  21.987  25.632  1.00  0.00     0.094 C 
ATOM     20  O   UNL A   1      34.953  21.474  26.841  1.00  0.00    -0.372 OA
ATOM     21  C   UNL A   1      35.707  23.501  25.613  1.00  0.00     0.066 C 
ATOM     22  C   UNL A   1      37.000  21.593  25.652  1.00  0.00     0.195 C 
ATOM     23  C   UNL A   1      36.971  23.729  24.803  1.00  0.00     0.163 C 
ATOM     24  O   UNL A   1      37.702  22.503  24.802  1.00  0.00    -0.378 OA
ENDBRANCH  10  15
ENDBRANCH   8  10
ENDBRANCH   7   8
ENDBRANCH   6   7
ENDBRANCH   5   6
ENDBRANCH   4   5
ENDBRANCH   3   4
ENDBRANCH   2   3
ENDBRANCH   1   2
BRANCH   1  25
ATOM     25  C   UNL A   1      31.303  29.312  24.756  1.00  0.00     0.188 C 
BRANCH  25  26
ATOM     26  C   UNL A   1      31.838  29.177  26.184  1.00  0.00     0.188 C 
BRANCH  26  27
ATOM     27  O   UNL A   1      32.050  30.408  26.851  1.00  0.00    -0.376 OA
BRANCH  27  28
ATOM     28  C   UNL A   1      31.383  31.575  26.391  1.00  0.00     0.202 C 
BRANCH  28  29
ATOM     29  C   UNL A   1      31.904  32.954  26.833  1.00  0.00     0.261 C 
BRANCH  29  30
ATOM     30  O   UNL A   1      32.531  33.041  28.126  1.00  0.00    -0.460 OA
BRANCH  30  31
ATOM     31  C   UNL A   1      33.189  34.174  28.455  1.00  0.00     0.338 C 
ATOM     32  O   UNL A   1      32.775  35.311  28.409  1.00  0.00    -0.246 OA
BRANCH  31  33
ATOM     33  C   UNL A   1      34.469  33.779  29.085  1.00  0.00     0.060 A 
ATOM     34  C   UNL A   1      35.669  34.124  28.449  1.00  0.00     0.016 A 
ATOM     35  C   UNL A   1      34.484  33.060  30.281  1.00  0.00     0.016 A 
ATOM     36  C   UNL A   1      36.888  33.711  28.983  1.00  0.00     0.010 A 
ATOM     37  C   UNL A   1      35.706  32.624  30.803  1.00  0.00     0.010 A 
ATOM     38  C   UNL A   1      36.909  32.915  30.134  1.00  0.00    -0.014 A 
BRANCH  38  39
ATOM     39  C   UNL A   1      38.158  32.209  30.507  1.00  0.00     0.031 A 
ATOM     40  C   UNL A   1      39.058  32.848  31.531  1.00  0.00     0.074 A 
ATOM     41  C   UNL A   1      38.471  31.011  29.985  1.00  0.00     0.049 A 
ATOM     42  N   UNL A   1      40.217  32.447  31.985  1.00  0.00    -0.248 NA
ATOM     43  C   UNL A   1      38.584  34.111  32.120  1.00  0.00     0.031 C 
ATOM     44  C   UNL A   1      37.654  30.258  29.035  1.00  0.00     0.029 A 
ATOM     45  N   UNL A   1      39.575  30.219  30.183  1.00  0.00    -0.354 N 
ATOM     46  C   UNL A   1      40.614  33.413  32.903  1.00  0.00     0.074 A 
ATOM     47  C   UNL A   1      39.590  34.432  32.918  1.00  0.00     0.031 C 
ATOM     48  C   UNL A   1      38.291  29.116  28.724  1.00  0.00     0.029 A 
ATOM     49  C   UNL A   1      39.575  29.075  29.422  1.00  0.00     0.049 A 
ATOM     50  H   UNL A   1      40.298  30.449  30.811  1.00  0.00     0.167 HD
ATOM     51  C   UNL A   1      41.729  33.445  33.669  1.00  0.00     0.031 A 
ATOM     52  C   UNL A   1      40.518  28.122  29.285  1.00  0.00     0.031 A 
ATOM     53  C   UNL A   1      42.757  32.440  33.638  1.00  0.00     0.049 A 
ATOM     54  C   UNL A   1      41.797  28.231  30.074  1.00  0.00     0.074 A 
ATOM     55  C   UNL A   1      43.926  32.379  34.376  1.00  0.00     0.029 A 
ATOM     56  N   UNL A   1      42.742  31.323  32.817  1.00  0.00    -0.354 N 
ATOM     57  N   UNL A   1      42.157  29.139  30.950  1.00  0.00    -0.248 NA
ATOM     58  C   UNL A   1      42.798  27.176  29.862  1.00  0.00     0.031 C 
ATOM     59  C   UNL A   1      44.651  31.261  33.953  1.00  0.00     0.029 A 
ATOM     60  C   UNL A   1      43.897  30.583  33.007  1.00  0.00     0.049 A 
ATOM     61  H   UNL A   1      42.018  31.091  32.192  1.00  0.00     0.167 HD
ATOM     62  C   UNL A   1      43.407  28.748  31.414  1.00  0.00     0.074 A 
ATOM     63  C   UNL A   1      43.735  27.512  30.736  1.00  0.00     0.031 C 
ATOM     64  C   UNL A   1      44.210  29.354  32.323  1.00  0.00     0.031 A 
BRANCH  51  65
ATOM     65  C   UNL A   1      41.915  34.635  34.570  1.00  0.00    -0.014 A 
ATOM     66  C   UNL A   1      42.550  35.805  34.122  1.00  0.00     0.009 A 
ATOM     67  C   UNL A   1      41.423  34.593  35.884  1.00  0.00     0.009 A 
ATOM     68  C   UNL A   1      42.722  36.891  34.984  1.00  0.00     0.001 A 
ATOM     69  C   UNL A   1      41.567  35.692  36.733  1.00  0.00     0.001 A 
ATOM     70  C   UNL A   1      42.226  36.835  36.285  1.00  0.00     0.000 A 
ENDBRANCH  51  65
BRANCH  52  71
ATOM     71  C   UNL A   1      40.308  26.993  28.338  1.00  0.00    -0.014 A 
ATOM     72  C   UNL A   1      40.839  27.033  27.040  1.00  0.00     0.009 A 
ATOM     73  C   UNL A   1      39.545  25.878  28.721  1.00  0.00     0.009 A 
ATOM     74  C   UNL A   1      40.588  25.995  26.139  1.00  0.00     0.001 A 
ATOM     75  C   UNL A   1      39.323  24.827  27.831  1.00  0.00     0.001 A 
ATOM     76  C   UNL A   1      39.836  24.891  26.537  1.00  0.00     0.000 A 
ENDBRANCH  52  71
BRANCH  64  77
ATOM     77  C   UNL A   1      45.503  28.668  32.674  1.00  0.00    -0.014 A 
ATOM     78  C   UNL A   1      46.706  28.990  32.027  1.00  0.00     0.009 A 
ATOM     79  C   UNL A   1      45.522  27.714  33.704  1.00  0.00     0.009 A 
ATOM     80  C   UNL A   1      47.893  28.343  32.380  1.00  0.00     0.001 A 
ATOM     81  C   UNL A   1      46.714  27.095  34.079  1.00  0.00     0.001 A 
ATOM     82  C   UNL A   1      47.897  27.402  33.408  1.00  0.00     0.000 A 
ENDBRANCH  64  77
ENDBRANCH  38  39
ENDBRANCH  31  33
ENDBRANCH  30  31
ENDBRANCH  29  30
ENDBRANCH  28  29
ENDBRANCH  27  28
ENDBRANCH  26  27
ENDBRANCH  25  26
ENDBRANCH   1  25
TORSDOF 23
ENDMDL
