MODEL 1
REMARK VINA RESULT:      -9.8      0.000      0.000
REMARK SMILES O=C(OCCOCCOCCOCCOC(=O)[C@@H]1C[C@@H](O)CN1C(=O)c1ccccc1)c1ccc(-c2c3nc(c(-c4ccccc4)c4ccc([nH]4)c(-c4ccccc4)c4nc(c(-c5ccccc5)c5ccc2[nH]5)C=C4)C=C3)cc1
REMARK SMILES IDX 9 1 8 2 7 3 6 4 5 5 4 6 3 7 2 8 1 9 32 10 33 11 79 12 34 13
REMARK SMILES IDX 78 14 35 15 36 16 37 17 72 18 38 19 77 20 71 21 73 22 39 23
REMARK SMILES IDX 76 24 70 25 69 26 40 28 62 29 47 30 61 31 48 32 51 33 60 34
REMARK SMILES IDX 74 35 49 36 50 37 59 39 75 40 52 41 41 42 42 43 46 44 43 45
REMARK SMILES IDX 45 46 44 47 63 48 64 49 68 50 65 51 67 52 66 53 53 54 54 55
REMARK SMILES IDX 58 56 55 57 57 58 56 59 10 60 11 61 12 62 13 63 14 64 15 65
REMARK SMILES IDX 16 66 17 67 18 68 19 69 23 70 20 71 22 72 24 73 25 74 26 75
REMARK SMILES IDX 27 76 31 77 28 78 30 79 29 80 21 81
REMARK H PARENT 73 27 51 38 21 82
REMARK Flexibility Score: inf
ROOT
ATOM      1  O   UNL A   1      34.427  34.249  29.196  1.00  0.00    -0.377 OA
ENDROOT
BRANCH   1   2
ATOM      2  C   UNL A   1      33.692  35.465  29.161  1.00  0.00     0.188 C 
BRANCH   2   3
ATOM      3  C   UNL A   1      32.780  35.710  30.348  1.00  0.00     0.188 C 
BRANCH   3   4
ATOM      4  O   UNL A   1      33.560  36.279  31.389  1.00  0.00    -0.376 OA
BRANCH   4   5
ATOM      5  C   UNL A   1      33.686  35.471  32.556  1.00  0.00     0.202 C 
BRANCH   5   6
ATOM      6  C   UNL A   1      35.124  35.016  32.779  1.00  0.00     0.261 C 
BRANCH   6   7
ATOM      7  O   UNL A   1      35.316  33.617  32.503  1.00  0.00    -0.460 OA
BRANCH   7   8
ATOM      8  C   UNL A   1      36.245  32.782  33.027  1.00  0.00     0.338 C 
ATOM      9  O   UNL A   1      36.193  32.540  34.241  1.00  0.00    -0.246 OA
BRANCH   8  10
ATOM     10  C   UNL A   1      37.320  32.099  32.245  1.00  0.00     0.060 A 
ATOM     11  C   UNL A   1      38.277  31.231  32.770  1.00  0.00     0.016 A 
ATOM     12  C   UNL A   1      37.299  32.270  30.850  1.00  0.00     0.016 A 
ATOM     13  C   UNL A   1      39.187  30.566  31.974  1.00  0.00     0.010 A 
ATOM     14  C   UNL A   1      38.217  31.608  30.028  1.00  0.00     0.010 A 
ATOM     15  C   UNL A   1      39.170  30.760  30.602  1.00  0.00    -0.014 A 
BRANCH  15  16
ATOM     16  C   UNL A   1      40.303  30.207  29.853  1.00  0.00     0.031 A 
ATOM     17  C   UNL A   1      41.553  31.026  29.803  1.00  0.00     0.074 A 
ATOM     18  C   UNL A   1      40.258  28.935  29.420  1.00  0.00     0.049 A 
ATOM     19  N   UNL A   1      42.667  30.796  29.169  1.00  0.00    -0.248 NA
ATOM     20  C   UNL A   1      41.557  32.270  30.599  1.00  0.00     0.031 C 
ATOM     21  C   UNL A   1      39.137  28.009  29.620  1.00  0.00     0.029 A 
ATOM     22  N   UNL A   1      41.193  28.186  28.762  1.00  0.00    -0.354 N 
ATOM     23  C   UNL A   1      43.481  31.886  29.447  1.00  0.00     0.074 A 
ATOM     24  C   UNL A   1      42.747  32.772  30.317  1.00  0.00     0.031 C 
ATOM     25  C   UNL A   1      39.457  26.813  29.099  1.00  0.00     0.029 A 
ATOM     26  C   UNL A   1      40.763  26.917  28.461  1.00  0.00     0.049 A 
ATOM     27  H   UNL A   1      42.087  28.524  28.526  1.00  0.00     0.167 HD
ATOM     28  C   UNL A   1      44.727  32.124  28.984  1.00  0.00     0.031 A 
ATOM     29  C   UNL A   1      41.352  25.975  27.703  1.00  0.00     0.031 A 
ATOM     30  C   UNL A   1      45.415  31.211  28.116  1.00  0.00     0.049 A 
ATOM     31  C   UNL A   1      42.682  26.323  27.090  1.00  0.00     0.074 A 
ATOM     32  C   UNL A   1      46.645  31.353  27.507  1.00  0.00     0.029 A 
ATOM     33  N   UNL A   1      44.911  29.972  27.739  1.00  0.00    -0.354 N 
ATOM     34  N   UNL A   1      43.419  27.397  27.268  1.00  0.00    -0.248 NA
ATOM     35  C   UNL A   1      43.255  25.346  26.158  1.00  0.00     0.031 C 
ATOM     36  C   UNL A   1      46.859  30.222  26.712  1.00  0.00     0.029 A 
ATOM     37  C   UNL A   1      45.793  29.348  26.882  1.00  0.00     0.049 A 
ATOM     38  H   UNL A   1      44.052  29.596  28.039  1.00  0.00     0.167 HD
ATOM     39  C   UNL A   1      44.549  27.217  26.487  1.00  0.00     0.074 A 
ATOM     40  C   UNL A   1      44.412  25.917  25.855  1.00  0.00     0.031 C 
ATOM     41  C   UNL A   1      45.605  28.046  26.293  1.00  0.00     0.031 A 
BRANCH  28  42
ATOM     42  C   UNL A   1      45.346  33.447  29.322  1.00  0.00    -0.014 A 
ATOM     43  C   UNL A   1      46.094  33.644  30.493  1.00  0.00     0.009 A 
ATOM     44  C   UNL A   1      45.146  34.532  28.454  1.00  0.00     0.009 A 
ATOM     45  C   UNL A   1      46.605  34.909  30.799  1.00  0.00     0.001 A 
ATOM     46  C   UNL A   1      45.678  35.788  28.750  1.00  0.00     0.001 A 
ATOM     47  C   UNL A   1      46.400  35.977  29.926  1.00  0.00     0.000 A 
ENDBRANCH  28  42
BRANCH  29  48
ATOM     48  C   UNL A   1      40.660  24.695  27.391  1.00  0.00    -0.014 A 
ATOM     49  C   UNL A   1      41.151  23.467  27.861  1.00  0.00     0.009 A 
ATOM     50  C   UNL A   1      39.521  24.688  26.565  1.00  0.00     0.009 A 
ATOM     51  C   UNL A   1      40.545  22.265  27.480  1.00  0.00     0.001 A 
ATOM     52  C   UNL A   1      38.895  23.489  26.216  1.00  0.00     0.001 A 
ATOM     53  C   UNL A   1      39.418  22.277  26.660  1.00  0.00     0.000 A 
ENDBRANCH  29  48
BRANCH  41  54
ATOM     54  C   UNL A   1      46.699  27.542  25.399  1.00  0.00    -0.014 A 
ATOM     55  C   UNL A   1      46.799  27.961  24.066  1.00  0.00     0.009 A 
ATOM     56  C   UNL A   1      47.671  26.678  25.926  1.00  0.00     0.009 A 
ATOM     57  C   UNL A   1      47.841  27.496  23.263  1.00  0.00     0.001 A 
ATOM     58  C   UNL A   1      48.729  26.244  25.133  1.00  0.00     0.001 A 
ATOM     59  C   UNL A   1      48.808  26.646  23.800  1.00  0.00     0.000 A 
ENDBRANCH  41  54
ENDBRANCH  15  16
ENDBRANCH   8  10
ENDBRANCH   7   8
ENDBRANCH   6   7
ENDBRANCH   5   6
ENDBRANCH   4   5
ENDBRANCH   3   4
ENDBRANCH   2   3
ENDBRANCH   1   2
BRANCH   1  60
ATOM     60  C   UNL A   1      34.923  33.711  27.978  1.00  0.00     0.188 C 
BRANCH  60  61
ATOM     61  C   UNL A   1      35.138  32.207  27.801  1.00  0.00     0.188 C 
BRANCH  61  62
ATOM     62  O   UNL A   1      34.157  31.311  28.261  1.00  0.00    -0.376 OA
BRANCH  62  63
ATOM     63  C   UNL A   1      33.652  30.316  27.379  1.00  0.00     0.202 C 
BRANCH  63  64
ATOM     64  C   UNL A   1      32.212  30.321  26.821  1.00  0.00     0.261 C 
BRANCH  64  65
ATOM     65  O   UNL A   1      31.879  29.283  25.864  1.00  0.00    -0.462 OA
BRANCH  65  66
ATOM     66  C   UNL A   1      31.385  28.131  26.384  1.00  0.00     0.329 C 
ATOM     67  O   UNL A   1      31.092  28.013  27.574  1.00  0.00    -0.250 OA
BRANCH  66  68
ATOM     68  C   UNL A   1      31.037  26.998  25.374  1.00  0.00     0.198 C 
ATOM     69  C   UNL A   1      31.303  25.665  26.097  1.00  0.00     0.071 C 
ATOM     70  N   UNL A   1      31.569  26.787  23.988  1.00  0.00    -0.322 N 
ATOM     71  C   UNL A   1      31.360  24.670  24.959  1.00  0.00     0.136 C 
ATOM     72  C   UNL A   1      32.165  25.451  23.918  1.00  0.00     0.152 C 
BRANCH  70  73
ATOM     73  C   UNL A   1      30.830  27.166  22.853  1.00  0.00     0.254 C 
ATOM     74  O   UNL A   1      31.154  26.861  21.709  1.00  0.00    -0.269 OA
BRANCH  73  75
ATOM     75  C   UNL A   1      29.752  28.179  23.011  1.00  0.00     0.040 A 
ATOM     76  C   UNL A   1      28.412  27.816  23.166  1.00  0.00     0.014 A 
ATOM     77  C   UNL A   1      30.107  29.534  22.928  1.00  0.00     0.014 A 
ATOM     78  C   UNL A   1      27.434  28.816  23.250  1.00  0.00     0.001 A 
ATOM     79  C   UNL A   1      29.131  30.526  23.038  1.00  0.00     0.001 A 
ATOM     80  C   UNL A   1      27.794  30.166  23.195  1.00  0.00     0.000 A 
ENDBRANCH  73  75
ENDBRANCH  70  73
BRANCH  71  81
ATOM     81  O   UNL A   1      30.036  24.383  24.492  1.00  0.00    -0.391 OA
ATOM     82  H   UNL A   1      30.001  24.499  23.529  1.00  0.00     0.211 HD
ENDBRANCH  71  81
ENDBRANCH  66  68
ENDBRANCH  65  66
ENDBRANCH  64  65
ENDBRANCH  63  64
ENDBRANCH  62  63
ENDBRANCH  61  62
ENDBRANCH  60  61
ENDBRANCH   1  60
TORSDOF 23
ENDMDL
MODEL 2
REMARK VINA RESULT:      -9.6      4.307      7.211
REMARK SMILES O=C(OCCOCCOCCOCCOC(=O)[C@@H]1C[C@@H](O)CN1C(=O)c1ccccc1)c1ccc(-c2c3nc(c(-c4ccccc4)c4ccc([nH]4)c(-c4ccccc4)c4nc(c(-c5ccccc5)c5ccc2[nH]5)C=C4)C=C3)cc1
REMARK SMILES IDX 9 1 8 2 7 3 6 4 5 5 4 6 3 7 2 8 1 9 32 10 33 11 79 12 34 13
REMARK SMILES IDX 78 14 35 15 36 16 37 17 72 18 38 19 77 20 71 21 73 22 39 23
REMARK SMILES IDX 76 24 70 25 69 26 40 28 62 29 47 30 61 31 48 32 51 33 60 34
REMARK SMILES IDX 74 35 49 36 50 37 59 39 75 40 52 41 41 42 42 43 46 44 43 45
REMARK SMILES IDX 45 46 44 47 63 48 64 49 68 50 65 51 67 52 66 53 53 54 54 55
REMARK SMILES IDX 58 56 55 57 57 58 56 59 10 60 11 61 12 62 13 63 14 64 15 65
REMARK SMILES IDX 16 66 17 67 18 68 19 69 23 70 20 71 22 72 24 73 25 74 26 75
REMARK SMILES IDX 27 76 31 77 28 78 30 79 29 80 21 81
REMARK H PARENT 73 27 51 38 21 82
REMARK Flexibility Score: inf
ROOT
ATOM      1  O   UNL A   1      34.394  31.919  29.106  1.00  0.00    -0.377 OA
ENDROOT
BRANCH   1   2
ATOM      2  C   UNL A   1      34.706  33.298  29.249  1.00  0.00     0.188 C 
BRANCH   2   3
ATOM      3  C   UNL A   1      34.752  34.093  27.958  1.00  0.00     0.188 C 
BRANCH   3   4
ATOM      4  O   UNL A   1      34.264  35.398  28.230  1.00  0.00    -0.376 OA
BRANCH   4   5
ATOM      5  C   UNL A   1      33.198  35.457  29.173  1.00  0.00     0.202 C 
BRANCH   5   6
ATOM      6  C   UNL A   1      33.117  36.819  29.854  1.00  0.00     0.261 C 
BRANCH   6   7
ATOM      7  O   UNL A   1      32.605  36.742  31.197  1.00  0.00    -0.460 OA
BRANCH   7   8
ATOM      8  C   UNL A   1      32.674  35.700  32.060  1.00  0.00     0.338 C 
ATOM      9  O   UNL A   1      31.619  35.283  32.557  1.00  0.00    -0.246 OA
BRANCH   8  10
ATOM     10  C   UNL A   1      33.932  34.988  32.443  1.00  0.00     0.060 A 
ATOM     11  C   UNL A   1      35.216  35.530  32.392  1.00  0.00     0.016 A 
ATOM     12  C   UNL A   1      33.794  33.702  32.991  1.00  0.00     0.016 A 
ATOM     13  C   UNL A   1      36.325  34.844  32.846  1.00  0.00     0.010 A 
ATOM     14  C   UNL A   1      34.907  32.990  33.451  1.00  0.00     0.010 A 
ATOM     15  C   UNL A   1      36.178  33.567  33.365  1.00  0.00    -0.014 A 
BRANCH  15  16
ATOM     16  C   UNL A   1      37.415  32.818  33.608  1.00  0.00     0.031 A 
ATOM     17  C   UNL A   1      38.073  33.000  34.939  1.00  0.00     0.074 A 
ATOM     18  C   UNL A   1      37.799  31.867  32.738  1.00  0.00     0.049 A 
ATOM     19  N   UNL A   1      39.193  32.505  35.381  1.00  0.00    -0.248 NA
ATOM     20  C   UNL A   1      37.356  33.843  35.917  1.00  0.00     0.031 C 
ATOM     21  C   UNL A   1      37.082  31.496  31.514  1.00  0.00     0.029 A 
ATOM     22  N   UNL A   1      38.863  31.010  32.773  1.00  0.00    -0.354 N 
ATOM     23  C   UNL A   1      39.339  33.014  36.665  1.00  0.00     0.074 A 
ATOM     24  C   UNL A   1      38.192  33.843  36.942  1.00  0.00     0.031 C 
ATOM     25  C   UNL A   1      37.726  30.478  30.919  1.00  0.00     0.029 A 
ATOM     26  C   UNL A   1      38.938  30.188  31.674  1.00  0.00     0.049 A 
ATOM     27  H   UNL A   1      39.512  30.984  33.512  1.00  0.00     0.167 HD
ATOM     28  C   UNL A   1      40.366  32.815  37.519  1.00  0.00     0.031 A 
ATOM     29  C   UNL A   1      39.916  29.342  31.308  1.00  0.00     0.031 A 
ATOM     30  C   UNL A   1      41.488  31.982  37.195  1.00  0.00     0.049 A 
ATOM     31  C   UNL A   1      41.112  29.243  32.217  1.00  0.00     0.074 A 
ATOM     32  C   UNL A   1      42.635  31.748  37.926  1.00  0.00     0.029 A 
ATOM     33  N   UNL A   1      41.590  31.240  36.024  1.00  0.00    -0.354 N 
ATOM     34  N   UNL A   1      41.305  29.800  33.392  1.00  0.00    -0.248 NA
ATOM     35  C   UNL A   1      42.232  28.422  31.747  1.00  0.00     0.031 C 
ATOM     36  C   UNL A   1      43.459  30.910  37.167  1.00  0.00     0.029 A 
ATOM     37  C   UNL A   1      42.794  30.567  35.997  1.00  0.00     0.049 A 
ATOM     38  H   UNL A   1      40.904  31.199  35.319  1.00  0.00     0.167 HD
ATOM     39  C   UNL A   1      42.558  29.382  33.811  1.00  0.00     0.074 A 
ATOM     40  C   UNL A   1      43.067  28.502  32.774  1.00  0.00     0.031 C 
ATOM     41  C   UNL A   1      43.240  29.696  34.939  1.00  0.00     0.031 A 
BRANCH  28  42
ATOM     42  C   UNL A   1      40.355  33.591  38.802  1.00  0.00    -0.014 A 
ATOM     43  C   UNL A   1      40.947  34.858  38.913  1.00  0.00     0.009 A 
ATOM     44  C   UNL A   1      39.760  33.018  39.937  1.00  0.00     0.009 A 
ATOM     45  C   UNL A   1      40.967  35.522  40.142  1.00  0.00     0.001 A 
ATOM     46  C   UNL A   1      39.757  33.695  41.158  1.00  0.00     0.001 A 
ATOM     47  C   UNL A   1      40.369  34.942  41.262  1.00  0.00     0.000 A 
ENDBRANCH  28  42
BRANCH  29  48
ATOM     48  C   UNL A   1      39.867  28.626  30.003  1.00  0.00    -0.014 A 
ATOM     49  C   UNL A   1      39.370  27.317  29.908  1.00  0.00     0.009 A 
ATOM     50  C   UNL A   1      40.373  29.236  28.842  1.00  0.00     0.009 A 
ATOM     51  C   UNL A   1      39.419  26.624  28.694  1.00  0.00     0.001 A 
ATOM     52  C   UNL A   1      40.387  28.556  27.622  1.00  0.00     0.001 A 
ATOM     53  C   UNL A   1      39.925  27.244  27.552  1.00  0.00     0.000 A 
ENDBRANCH  29  48
BRANCH  41  54
ATOM     54  C   UNL A   1      44.580  29.046  35.116  1.00  0.00    -0.014 A 
ATOM     55  C   UNL A   1      45.754  29.669  34.671  1.00  0.00     0.009 A 
ATOM     56  C   UNL A   1      44.663  27.818  35.790  1.00  0.00     0.009 A 
ATOM     57  C   UNL A   1      46.990  29.055  34.871  1.00  0.00     0.001 A 
ATOM     58  C   UNL A   1      45.902  27.225  36.019  1.00  0.00     0.001 A 
ATOM     59  C   UNL A   1      47.063  27.840  35.552  1.00  0.00     0.000 A 
ENDBRANCH  41  54
ENDBRANCH  15  16
ENDBRANCH   8  10
ENDBRANCH   7   8
ENDBRANCH   6   7
ENDBRANCH   5   6
ENDBRANCH   4   5
ENDBRANCH   3   4
ENDBRANCH   2   3
ENDBRANCH   1   2
BRANCH   1  60
ATOM     60  C   UNL A   1      34.206  31.389  27.801  1.00  0.00     0.188 C 
BRANCH  60  61
ATOM     61  C   UNL A   1      32.807  31.112  27.248  1.00  0.00     0.188 C 
BRANCH  61  62
ATOM     62  O   UNL A   1      32.424  29.788  26.970  1.00  0.00    -0.376 OA
BRANCH  62  63
ATOM     63  C   UNL A   1      33.361  28.736  27.163  1.00  0.00     0.202 C 
BRANCH  63  64
ATOM     64  C   UNL A   1      33.187  27.319  26.574  1.00  0.00     0.261 C 
BRANCH  64  65
ATOM     65  O   UNL A   1      34.087  26.942  25.501  1.00  0.00    -0.462 OA
BRANCH  65  66
ATOM     66  C   UNL A   1      33.810  27.465  24.280  1.00  0.00     0.329 C 
ATOM     67  O   UNL A   1      34.139  28.608  23.959  1.00  0.00    -0.250 OA
BRANCH  66  68
ATOM     68  C   UNL A   1      33.200  26.499  23.224  1.00  0.00     0.198 C 
ATOM     69  C   UNL A   1      32.157  27.309  22.433  1.00  0.00     0.071 C 
ATOM     70  N   UNL A   1      32.552  25.164  23.444  1.00  0.00    -0.322 N 
ATOM     71  C   UNL A   1      31.338  26.233  21.755  1.00  0.00     0.136 C 
ATOM     72  C   UNL A   1      31.200  25.206  22.882  1.00  0.00     0.152 C 
BRANCH  70  73
ATOM     73  C   UNL A   1      33.250  23.964  23.218  1.00  0.00     0.254 C 
ATOM     74  O   UNL A   1      32.848  23.087  22.461  1.00  0.00    -0.269 OA
BRANCH  73  75
ATOM     75  C   UNL A   1      34.392  23.625  24.111  1.00  0.00     0.040 A 
ATOM     76  C   UNL A   1      34.236  23.493  25.492  1.00  0.00     0.014 A 
ATOM     77  C   UNL A   1      35.665  23.508  23.533  1.00  0.00     0.014 A 
ATOM     78  C   UNL A   1      35.359  23.233  26.289  1.00  0.00     0.001 A 
ATOM     79  C   UNL A   1      36.775  23.222  24.328  1.00  0.00     0.001 A 
ATOM     80  C   UNL A   1      36.622  23.089  25.707  1.00  0.00     0.000 A 
ENDBRANCH  73  75
ENDBRANCH  70  73
BRANCH  71  81
ATOM     81  O   UNL A   1      32.060  25.695  20.641  1.00  0.00    -0.391 OA
ATOM     82  H   UNL A   1      32.615  24.958  20.940  1.00  0.00     0.211 HD
ENDBRANCH  71  81
ENDBRANCH  66  68
ENDBRANCH  65  66
ENDBRANCH  64  65
ENDBRANCH  63  64
ENDBRANCH  62  63
ENDBRANCH  61  62
ENDBRANCH  60  61
ENDBRANCH   1  60
TORSDOF 23
ENDMDL
MODEL 3
REMARK VINA RESULT:      -9.6      1.051      6.268
REMARK SMILES O=C(OCCOCCOCCOCCOC(=O)[C@@H]1C[C@@H](O)CN1C(=O)c1ccccc1)c1ccc(-c2c3nc(c(-c4ccccc4)c4ccc([nH]4)c(-c4ccccc4)c4nc(c(-c5ccccc5)c5ccc2[nH]5)C=C4)C=C3)cc1
REMARK SMILES IDX 9 1 8 2 7 3 6 4 5 5 4 6 3 7 2 8 1 9 32 10 33 11 79 12 34 13
REMARK SMILES IDX 78 14 35 15 36 16 37 17 72 18 38 19 77 20 71 21 73 22 39 23
REMARK SMILES IDX 76 24 70 25 69 26 40 28 62 29 47 30 61 31 48 32 51 33 60 34
REMARK SMILES IDX 74 35 49 36 50 37 59 39 75 40 52 41 41 42 42 43 46 44 43 45
REMARK SMILES IDX 45 46 44 47 63 48 64 49 68 50 65 51 67 52 66 53 53 54 54 55
REMARK SMILES IDX 58 56 55 57 57 58 56 59 10 60 11 61 12 62 13 63 14 64 15 65
REMARK SMILES IDX 16 66 17 67 18 68 19 69 23 70 20 71 22 72 24 73 25 74 26 75
REMARK SMILES IDX 27 76 31 77 28 78 30 79 29 80 21 81
REMARK H PARENT 73 27 51 38 21 82
REMARK Flexibility Score: inf
ROOT
ATOM      1  O   UNL A   1      35.142  34.106  29.128  1.00  0.00    -0.377 OA
ENDROOT
BRANCH   1   2
ATOM      2  C   UNL A   1      34.018  34.948  28.916  1.00  0.00     0.188 C 
BRANCH   2   3
ATOM      3  C   UNL A   1      33.082  35.098  30.101  1.00  0.00     0.188 C 
BRANCH   3   4
ATOM      4  O   UNL A   1      33.819  35.668  31.171  1.00  0.00    -0.376 OA
BRANCH   4   5
ATOM      5  C   UNL A   1      33.849  34.889  32.363  1.00  0.00     0.202 C 
BRANCH   5   6
ATOM      6  C   UNL A   1      35.273  34.522  32.766  1.00  0.00     0.261 C 
BRANCH   6   7
ATOM      7  O   UNL A   1      35.590  33.143  32.501  1.00  0.00    -0.460 OA
BRANCH   7   8
ATOM      8  C   UNL A   1      36.596  32.402  33.023  1.00  0.00     0.338 C 
ATOM      9  O   UNL A   1      36.579  32.169  34.239  1.00  0.00    -0.246 OA
BRANCH   8  10
ATOM     10  C   UNL A   1      37.722  31.813  32.235  1.00  0.00     0.060 A 
ATOM     11  C   UNL A   1      38.762  31.046  32.759  1.00  0.00     0.016 A 
ATOM     12  C   UNL A   1      37.669  31.964  30.839  1.00  0.00     0.016 A 
ATOM     13  C   UNL A   1      39.722  30.459  31.959  1.00  0.00     0.010 A 
ATOM     14  C   UNL A   1      38.637  31.380  30.013  1.00  0.00     0.010 A 
ATOM     15  C   UNL A   1      39.671  30.633  30.585  1.00  0.00    -0.014 A 
BRANCH  15  16
ATOM     16  C   UNL A   1      40.843  30.179  29.829  1.00  0.00     0.031 A 
ATOM     17  C   UNL A   1      40.739  28.856  29.139  1.00  0.00     0.074 A 
ATOM     18  C   UNL A   1      41.865  31.026  29.614  1.00  0.00     0.049 A 
ATOM     19  N   UNL A   1      41.641  28.206  28.460  1.00  0.00    -0.248 NA
ATOM     20  C   UNL A   1      39.428  28.180  29.206  1.00  0.00     0.031 C 
ATOM     21  C   UNL A   1      41.935  32.412  30.090  1.00  0.00     0.029 A 
ATOM     22  N   UNL A   1      43.022  30.860  28.904  1.00  0.00    -0.354 N 
ATOM     23  C   UNL A   1      41.023  27.027  28.065  1.00  0.00     0.074 A 
ATOM     24  C   UNL A   1      39.669  27.051  28.561  1.00  0.00     0.031 C 
ATOM     25  C   UNL A   1      43.074  32.970  29.650  1.00  0.00     0.029 A 
ATOM     26  C   UNL A   1      43.845  31.959  28.938  1.00  0.00     0.049 A 
ATOM     27  H   UNL A   1      43.243  30.034  28.417  1.00  0.00     0.167 HD
ATOM     28  C   UNL A   1      41.565  26.007  27.365  1.00  0.00     0.031 A 
ATOM     29  C   UNL A   1      45.103  32.095  28.485  1.00  0.00     0.031 A 
ATOM     30  C   UNL A   1      42.921  26.028  26.895  1.00  0.00     0.049 A 
ATOM     31  C   UNL A   1      45.729  30.893  27.828  1.00  0.00     0.074 A 
ATOM     32  C   UNL A   1      43.630  25.040  26.243  1.00  0.00     0.029 A 
ATOM     33  N   UNL A   1      43.772  27.118  27.035  1.00  0.00    -0.354 N 
ATOM     34  N   UNL A   1      45.182  29.734  27.536  1.00  0.00    -0.248 NA
ATOM     35  C   UNL A   1      47.143  31.004  27.458  1.00  0.00     0.031 C 
ATOM     36  C   UNL A   1      44.931  25.511  26.042  1.00  0.00     0.029 A 
ATOM     37  C   UNL A   1      45.011  26.818  26.506  1.00  0.00     0.049 A 
ATOM     38  H   UNL A   1      43.528  27.977  27.449  1.00  0.00     0.167 HD
ATOM     39  C   UNL A   1      46.179  28.985  26.931  1.00  0.00     0.074 A 
ATOM     40  C   UNL A   1      47.356  29.833  26.874  1.00  0.00     0.031 C 
ATOM     41  C   UNL A   1      46.142  27.710  26.470  1.00  0.00     0.031 A 
BRANCH  28  42
ATOM     42  C   UNL A   1      40.729  24.776  27.181  1.00  0.00    -0.014 A 
ATOM     43  C   UNL A   1      41.110  23.530  27.700  1.00  0.00     0.009 A 
ATOM     44  C   UNL A   1      39.541  24.868  26.439  1.00  0.00     0.009 A 
ATOM     45  C   UNL A   1      40.331  22.396  27.456  1.00  0.00     0.001 A 
ATOM     46  C   UNL A   1      38.750  23.738  26.218  1.00  0.00     0.001 A 
ATOM     47  C   UNL A   1      39.151  22.502  26.719  1.00  0.00     0.000 A 
ENDBRANCH  28  42
BRANCH  29  48
ATOM     48  C   UNL A   1      45.880  33.342  28.731  1.00  0.00    -0.014 A 
ATOM     49  C   UNL A   1      46.598  33.531  29.921  1.00  0.00     0.009 A 
ATOM     50  C   UNL A   1      45.862  34.384  27.787  1.00  0.00     0.009 A 
ATOM     51  C   UNL A   1      47.244  34.745  30.177  1.00  0.00     0.001 A 
ATOM     52  C   UNL A   1      46.538  35.583  28.029  1.00  0.00     0.001 A 
ATOM     53  C   UNL A   1      47.215  35.768  29.231  1.00  0.00     0.000 A 
ENDBRANCH  29  48
BRANCH  41  54
ATOM     54  C   UNL A   1      47.395  27.190  25.831  1.00  0.00    -0.014 A 
ATOM     55  C   UNL A   1      47.649  27.382  24.466  1.00  0.00     0.009 A 
ATOM     56  C   UNL A   1      48.355  26.549  26.629  1.00  0.00     0.009 A 
ATOM     57  C   UNL A   1      48.834  26.910  23.903  1.00  0.00     0.001 A 
ATOM     58  C   UNL A   1      49.553  26.111  26.070  1.00  0.00     0.001 A 
ATOM     59  C   UNL A   1      49.787  26.284  24.707  1.00  0.00     0.000 A 
ENDBRANCH  41  54
ENDBRANCH  15  16
ENDBRANCH   8  10
ENDBRANCH   7   8
ENDBRANCH   6   7
ENDBRANCH   5   6
ENDBRANCH   4   5
ENDBRANCH   3   4
ENDBRANCH   2   3
ENDBRANCH   1   2
BRANCH   1  60
ATOM     60  C   UNL A   1      35.510  33.184  28.111  1.00  0.00     0.188 C 
BRANCH  60  61
ATOM     61  C   UNL A   1      34.745  31.874  27.909  1.00  0.00     0.188 C 
BRANCH  61  62
ATOM     62  O   UNL A   1      35.443  30.723  27.503  1.00  0.00    -0.376 OA
BRANCH  62  63
ATOM     63  C   UNL A   1      34.826  29.449  27.640  1.00  0.00     0.202 C 
BRANCH  63  64
ATOM     64  C   UNL A   1      34.084  28.732  26.492  1.00  0.00     0.261 C 
BRANCH  64  65
ATOM     65  O   UNL A   1      32.638  28.674  26.584  1.00  0.00    -0.462 OA
BRANCH  65  66
ATOM     66  C   UNL A   1      31.955  29.516  25.769  1.00  0.00     0.329 C 
ATOM     67  O   UNL A   1      31.768  30.702  26.046  1.00  0.00    -0.250 OA
BRANCH  66  68
ATOM     68  C   UNL A   1      31.551  28.965  24.370  1.00  0.00     0.198 C 
ATOM     69  C   UNL A   1      30.300  29.746  23.931  1.00  0.00     0.071 C 
ATOM     70  N   UNL A   1      31.269  27.547  23.971  1.00  0.00    -0.322 N 
ATOM     71  C   UNL A   1      29.741  28.890  22.816  1.00  0.00     0.136 C 
ATOM     72  C   UNL A   1      29.922  27.486  23.398  1.00  0.00     0.152 C 
BRANCH  70  73
ATOM     73  C   UNL A   1      32.231  26.767  23.305  1.00  0.00     0.254 C 
ATOM     74  O   UNL A   1      32.290  26.673  22.083  1.00  0.00    -0.269 OA
BRANCH  73  75
ATOM     75  C   UNL A   1      33.057  25.821  24.103  1.00  0.00     0.040 A 
ATOM     76  C   UNL A   1      34.164  25.165  23.559  1.00  0.00     0.014 A 
ATOM     77  C   UNL A   1      32.651  25.542  25.417  1.00  0.00     0.014 A 
ATOM     78  C   UNL A   1      34.867  24.239  24.341  1.00  0.00     0.001 A 
ATOM     79  C   UNL A   1      33.371  24.638  26.199  1.00  0.00     0.001 A 
ATOM     80  C   UNL A   1      34.477  23.984  25.659  1.00  0.00     0.000 A 
ENDBRANCH  73  75
ENDBRANCH  70  73
BRANCH  71  81
ATOM     81  O   UNL A   1      30.516  29.068  21.625  1.00  0.00    -0.391 OA
ATOM     82  H   UNL A   1      30.056  28.658  20.875  1.00  0.00     0.211 HD
ENDBRANCH  71  81
ENDBRANCH  66  68
ENDBRANCH  65  66
ENDBRANCH  64  65
ENDBRANCH  63  64
ENDBRANCH  62  63
ENDBRANCH  61  62
ENDBRANCH  60  61
ENDBRANCH   1  60
TORSDOF 23
ENDMDL
