MODEL 1
REMARK VINA RESULT:     -10.6      0.000      0.000
REMARK SMILES Cc1ccc(NC(=O)c2ccccc2NC(=O)[C@H]2CCCC[C@H]2C(=O)OCCOCCOCCOCCOC(=O)c2ccc(-c3c4nc(c(-c5ccccc5)c5ccc([nH]5)c(-c5ccccc5)c5nc(c(-c6ccccc6)c6ccc3[nH]6)C=C5)C=C4)cc2)cc1
REMARK SMILES IDX 31 1 30 2 29 3 28 4 27 5 26 6 24 7 25 8 23 9 18 10 19 11
REMARK SMILES IDX 20 12 22 13 21 14 16 15 15 16 17 18 14 19 9 20 10 21 11 22
REMARK SMILES IDX 13 23 12 24 7 25 6 26 8 28 5 29 1 30 2 31 3 32 90 33 4 34
REMARK SMILES IDX 89 35 32 36 33 37 34 38 35 39 36 40 37 41 38 42 39 43 40 44
REMARK SMILES IDX 41 45 42 46 88 47 43 48 87 49 44 50 45 51 46 52 81 53 47 54
REMARK SMILES IDX 86 55 80 56 82 57 48 58 85 59 79 60 78 61 49 63 71 64 56 65
REMARK SMILES IDX 70 66 57 67 60 68 69 69 83 70 58 71 59 72 68 74 84 75 61 76
REMARK SMILES IDX 50 77 51 78 55 79 52 80 54 81 53 82 72 83 73 84 77 85 74 86
REMARK SMILES IDX 76 87 75 88 62 89 63 90 67 91 64 92 66 93 65 94
REMARK H PARENT 15 17 6 27 82 62 60 73
REMARK Flexibility Score: inf
ROOT
ATOM      1  C   UNL A   1      41.784  21.814  26.652  1.00  0.00     0.188 C 
ENDROOT
BRANCH   1   2
ATOM      2  C   UNL A   1      40.375  21.304  26.952  1.00  0.00     0.188 C 
BRANCH   2   3
ATOM      3  O   UNL A   1      39.272  22.062  26.508  1.00  0.00    -0.376 OA
BRANCH   3   4
ATOM      4  C   UNL A   1      38.484  21.497  25.470  1.00  0.00     0.202 C 
BRANCH   4   5
ATOM      5  C   UNL A   1      36.976  21.691  25.432  1.00  0.00     0.261 C 
BRANCH   5   6
ATOM      6  O   UNL A   1      36.326  20.572  24.791  1.00  0.00    -0.463 OA
BRANCH   6   7
ATOM      7  C   UNL A   1      35.000  20.502  24.980  1.00  0.00     0.309 C 
ATOM      8  O   UNL A   1      34.290  19.580  24.580  1.00  0.00    -0.252 OA
BRANCH   7   9
ATOM      9  C   UNL A   1      34.391  21.697  25.668  1.00  0.00     0.111 C 
ATOM     10  C   UNL A   1      33.572  22.759  24.896  1.00  0.00     0.093 C 
ATOM     11  C   UNL A   1      33.704  24.065  25.718  1.00  0.00     0.014 C 
ATOM     12  C   UNL A   1      33.395  23.870  27.219  1.00  0.00     0.001 C 
ATOM     13  C   UNL A   1      33.947  21.417  27.095  1.00  0.00     0.016 C 
ATOM     14  C   UNL A   1      34.135  22.709  27.885  1.00  0.00     0.001 C 
BRANCH  10  15
ATOM     15  C   UNL A   1      32.068  22.561  24.615  1.00  0.00     0.228 C 
ATOM     16  N   UNL A   1      31.203  23.556  24.187  1.00  0.00    -0.325 N 
ATOM     17  H   UNL A   1      30.267  23.253  24.234  1.00  0.00     0.169 HD
ATOM     18  O   UNL A   1      31.535  21.475  24.877  1.00  0.00    -0.274 OA
BRANCH  16  19
ATOM     19  C   UNL A   1      31.286  24.897  23.694  1.00  0.00     0.054 A 
ATOM     20  C   UNL A   1      31.013  26.023  24.536  1.00  0.00     0.063 A 
ATOM     21  C   UNL A   1      30.891  27.324  23.983  1.00  0.00     0.016 A 
ATOM     22  C   UNL A   1      31.028  27.542  22.621  1.00  0.00     0.001 A 
ATOM     23  C   UNL A   1      31.533  25.186  22.347  1.00  0.00     0.027 A 
ATOM     24  C   UNL A   1      31.365  26.473  21.809  1.00  0.00     0.002 A 
BRANCH  20  25
ATOM     25  C   UNL A   1      30.642  26.027  25.978  1.00  0.00     0.257 C 
ATOM     26  N   UNL A   1      31.108  26.931  26.897  1.00  0.00    -0.322 N 
ATOM     27  H   UNL A   1      30.680  26.884  27.782  1.00  0.00     0.170 HD
ATOM     28  O   UNL A   1      29.854  25.161  26.369  1.00  0.00    -0.269 OA
BRANCH  26  29
ATOM     29  C   UNL A   1      32.094  27.904  26.771  1.00  0.00     0.041 A 
ATOM     30  C   UNL A   1      34.988  30.910  27.652  1.00  0.00     0.044 C 
ATOM     31  C   UNL A   1      33.974  29.891  27.242  1.00  0.00    -0.051 A 
ATOM     32  C   UNL A   1      34.388  28.593  26.919  1.00  0.00     0.005 A 
ATOM     33  C   UNL A   1      32.615  30.215  27.187  1.00  0.00     0.005 A 
ATOM     34  C   UNL A   1      33.447  27.603  26.667  1.00  0.00     0.026 A 
ATOM     35  C   UNL A   1      31.674  29.226  26.921  1.00  0.00     0.026 A 
ENDBRANCH  26  29
ENDBRANCH  20  25
ENDBRANCH  16  19
ENDBRANCH  10  15
ENDBRANCH   7   9
ENDBRANCH   6   7
ENDBRANCH   5   6
ENDBRANCH   4   5
ENDBRANCH   3   4
ENDBRANCH   2   3
ENDBRANCH   1   2
BRANCH   1  36
ATOM     36  O   UNL A   1      42.456  21.316  25.509  1.00  0.00    -0.377 OA
BRANCH  36  37
ATOM     37  C   UNL A   1      43.882  21.228  25.522  1.00  0.00     0.188 C 
BRANCH  37  38
ATOM     38  C   UNL A   1      44.673  22.411  26.047  1.00  0.00     0.188 C 
BRANCH  38  39
ATOM     39  O   UNL A   1      44.943  23.320  24.984  1.00  0.00    -0.376 OA
BRANCH  39  40
ATOM     40  C   UNL A   1      44.355  24.607  25.164  1.00  0.00     0.202 C 
BRANCH  40  41
ATOM     41  C   UNL A   1      42.894  24.672  24.706  1.00  0.00     0.261 C 
BRANCH  41  42
ATOM     42  O   UNL A   1      42.311  25.893  25.204  1.00  0.00    -0.460 OA
BRANCH  42  43
ATOM     43  C   UNL A   1      41.531  25.755  26.301  1.00  0.00     0.338 C 
ATOM     44  O   UNL A   1      40.303  25.616  26.282  1.00  0.00    -0.246 OA
BRANCH  43  45
ATOM     45  C   UNL A   1      42.306  26.045  27.536  1.00  0.00     0.060 A 
ATOM     46  C   UNL A   1      43.078  27.214  27.626  1.00  0.00     0.016 A 
ATOM     47  C   UNL A   1      42.520  25.018  28.451  1.00  0.00     0.016 A 
ATOM     48  C   UNL A   1      44.170  27.272  28.504  1.00  0.00     0.010 A 
ATOM     49  C   UNL A   1      43.666  25.037  29.220  1.00  0.00     0.010 A 
ATOM     50  C   UNL A   1      44.531  26.141  29.228  1.00  0.00    -0.014 A 
BRANCH  50  51
ATOM     51  C   UNL A   1      45.832  25.932  29.890  1.00  0.00     0.031 A 
ATOM     52  C   UNL A   1      46.993  25.464  29.076  1.00  0.00     0.074 A 
ATOM     53  C   UNL A   1      46.052  26.495  31.108  1.00  0.00     0.049 A 
ATOM     54  N   UNL A   1      48.190  25.336  29.531  1.00  0.00    -0.248 NA
ATOM     55  C   UNL A   1      46.925  25.152  27.646  1.00  0.00     0.031 C 
ATOM     56  C   UNL A   1      47.331  26.909  31.698  1.00  0.00     0.029 A 
ATOM     57  N   UNL A   1      45.149  26.827  32.107  1.00  0.00    -0.354 N 
ATOM     58  C   UNL A   1      49.060  25.317  28.466  1.00  0.00     0.074 A 
ATOM     59  C   UNL A   1      48.223  25.103  27.313  1.00  0.00     0.031 C 
ATOM     60  C   UNL A   1      47.168  27.305  32.970  1.00  0.00     0.029 A 
ATOM     61  C   UNL A   1      45.831  26.908  33.337  1.00  0.00     0.049 A 
ATOM     62  H   UNL A   1      44.186  26.981  31.978  1.00  0.00     0.167 HD
ATOM     63  C   UNL A   1      50.369  25.637  28.688  1.00  0.00     0.031 A 
ATOM     64  C   UNL A   1      45.586  25.959  34.295  1.00  0.00     0.031 A 
ATOM     65  C   UNL A   1      50.687  25.688  30.127  1.00  0.00     0.049 A 
ATOM     66  C   UNL A   1      46.774  25.019  34.431  1.00  0.00     0.074 A 
ATOM     67  C   UNL A   1      51.283  26.601  30.982  1.00  0.00     0.029 A 
ATOM     68  N   UNL A   1      50.177  24.683  30.948  1.00  0.00    -0.354 N 
ATOM     69  N   UNL A   1      47.627  24.789  33.462  1.00  0.00    -0.248 NA
ATOM     70  C   UNL A   1      47.203  24.410  35.690  1.00  0.00     0.031 C 
ATOM     71  C   UNL A   1      50.985  26.203  32.322  1.00  0.00     0.029 A 
ATOM     72  C   UNL A   1      50.288  25.004  32.279  1.00  0.00     0.049 A 
ATOM     73  H   UNL A   1      49.785  23.844  30.614  1.00  0.00     0.167 HD
ATOM     74  C   UNL A   1      48.738  24.178  33.965  1.00  0.00     0.074 A 
ATOM     75  C   UNL A   1      48.398  23.890  35.348  1.00  0.00     0.031 C 
ATOM     76  C   UNL A   1      49.908  24.020  33.283  1.00  0.00     0.031 A 
BRANCH  63  77
ATOM     77  C   UNL A   1      51.353  26.049  27.610  1.00  0.00    -0.014 A 
ATOM     78  C   UNL A   1      51.590  25.188  26.519  1.00  0.00     0.009 A 
ATOM     79  C   UNL A   1      52.142  27.215  27.645  1.00  0.00     0.009 A 
ATOM     80  C   UNL A   1      52.538  25.478  25.525  1.00  0.00     0.001 A 
ATOM     81  C   UNL A   1      53.064  27.531  26.633  1.00  0.00     0.001 A 
ATOM     82  C   UNL A   1      53.266  26.658  25.573  1.00  0.00     0.000 A 
ENDBRANCH  63  77
BRANCH  64  83
ATOM     83  C   UNL A   1      44.112  25.704  34.384  1.00  0.00    -0.014 A 
ATOM     84  C   UNL A   1      43.754  24.363  34.102  1.00  0.00     0.009 A 
ATOM     85  C   UNL A   1      43.299  26.428  35.271  1.00  0.00     0.009 A 
ATOM     86  C   UNL A   1      42.823  23.694  34.899  1.00  0.00     0.001 A 
ATOM     87  C   UNL A   1      42.307  25.758  36.013  1.00  0.00     0.001 A 
ATOM     88  C   UNL A   1      42.134  24.381  35.889  1.00  0.00     0.000 A 
ENDBRANCH  64  83
BRANCH  76  89
ATOM     89  C   UNL A   1      50.801  22.814  33.446  1.00  0.00    -0.014 A 
ATOM     90  C   UNL A   1      50.310  21.526  33.683  1.00  0.00     0.009 A 
ATOM     91  C   UNL A   1      52.168  22.922  33.098  1.00  0.00     0.009 A 
ATOM     92  C   UNL A   1      51.142  20.405  33.587  1.00  0.00     0.001 A 
ATOM     93  C   UNL A   1      52.986  21.804  32.948  1.00  0.00     0.001 A 
ATOM     94  C   UNL A   1      52.472  20.542  33.201  1.00  0.00     0.000 A 
ENDBRANCH  76  89
ENDBRANCH  50  51
ENDBRANCH  43  45
ENDBRANCH  42  43
ENDBRANCH  41  42
ENDBRANCH  40  41
ENDBRANCH  39  40
ENDBRANCH  38  39
ENDBRANCH  37  38
ENDBRANCH  36  37
ENDBRANCH   1  36
TORSDOF 24
ENDMDL
MODEL 2
REMARK VINA RESULT:      -9.5      9.313     16.835
REMARK SMILES Cc1ccc(NC(=O)c2ccccc2NC(=O)[C@H]2CCCC[C@H]2C(=O)OCCOCCOCCOCCOC(=O)c2ccc(-c3c4nc(c(-c5ccccc5)c5ccc([nH]5)c(-c5ccccc5)c5nc(c(-c6ccccc6)c6ccc3[nH]6)C=C5)C=C4)cc2)cc1
REMARK SMILES IDX 31 1 30 2 29 3 28 4 27 5 26 6 24 7 25 8 23 9 18 10 19 11
REMARK SMILES IDX 20 12 22 13 21 14 16 15 15 16 17 18 14 19 9 20 10 21 11 22
REMARK SMILES IDX 13 23 12 24 7 25 6 26 8 28 5 29 1 30 2 31 3 32 90 33 4 34
REMARK SMILES IDX 89 35 32 36 33 37 34 38 35 39 36 40 37 41 38 42 39 43 40 44
REMARK SMILES IDX 41 45 42 46 88 47 43 48 87 49 44 50 45 51 46 52 81 53 47 54
REMARK SMILES IDX 86 55 80 56 82 57 48 58 85 59 79 60 78 61 49 63 71 64 56 65
REMARK SMILES IDX 70 66 57 67 60 68 69 69 83 70 58 71 59 72 68 74 84 75 61 76
REMARK SMILES IDX 50 77 51 78 55 79 52 80 54 81 53 82 72 83 73 84 77 85 74 86
REMARK SMILES IDX 76 87 75 88 62 89 63 90 67 91 64 92 66 93 65 94
REMARK H PARENT 15 17 6 27 82 62 60 73
REMARK Flexibility Score: inf
ROOT
ATOM      1  C   UNL A   1      45.992  17.950  40.561  1.00  0.00     0.188 C 
ENDROOT
BRANCH   1   2
ATOM      2  C   UNL A   1      45.174  16.900  39.809  1.00  0.00     0.188 C 
BRANCH   2   3
ATOM      3  O   UNL A   1      43.773  17.048  39.749  1.00  0.00    -0.376 OA
BRANCH   3   4
ATOM      4  C   UNL A   1      43.005  16.222  40.613  1.00  0.00     0.202 C 
BRANCH   4   5
ATOM      5  C   UNL A   1      42.278  14.995  40.087  1.00  0.00     0.261 C 
BRANCH   5   6
ATOM      6  O   UNL A   1      41.644  14.268  41.163  1.00  0.00    -0.463 OA
BRANCH   6   7
ATOM      7  C   UNL A   1      41.783  12.935  41.107  1.00  0.00     0.309 C 
ATOM      8  O   UNL A   1      41.482  12.248  40.132  1.00  0.00    -0.252 OA
BRANCH   7   9
ATOM      9  C   UNL A   1      42.277  12.293  42.376  1.00  0.00     0.111 C 
ATOM     10  C   UNL A   1      43.216  13.034  43.360  1.00  0.00     0.093 C 
ATOM     11  C   UNL A   1      43.998  11.924  44.104  1.00  0.00     0.014 C 
ATOM     12  C   UNL A   1      43.086  10.818  44.677  1.00  0.00     0.001 C 
ATOM     13  C   UNL A   1      41.278  11.331  43.002  1.00  0.00     0.016 C 
ATOM     14  C   UNL A   1      42.083  10.228  43.684  1.00  0.00     0.001 C 
BRANCH  10  15
ATOM     15  C   UNL A   1      42.655  13.982  44.439  1.00  0.00     0.228 C 
ATOM     16  N   UNL A   1      43.363  14.438  45.540  1.00  0.00    -0.325 N 
ATOM     17  H   UNL A   1      42.767  14.890  46.181  1.00  0.00     0.169 HD
ATOM     18  O   UNL A   1      41.459  14.300  44.413  1.00  0.00    -0.274 OA
BRANCH  16  19
ATOM     19  C   UNL A   1      44.716  14.439  46.008  1.00  0.00     0.054 A 
ATOM     20  C   UNL A   1      45.737  15.197  45.350  1.00  0.00     0.063 A 
ATOM     21  C   UNL A   1      47.102  15.021  45.694  1.00  0.00     0.016 A 
ATOM     22  C   UNL A   1      47.485  14.113  46.670  1.00  0.00     0.001 A 
ATOM     23  C   UNL A   1      45.143  13.625  47.064  1.00  0.00     0.027 A 
ATOM     24  C   UNL A   1      46.502  13.429  47.363  1.00  0.00     0.002 A 
BRANCH  20  25
ATOM     25  C   UNL A   1      45.604  16.082  44.160  1.00  0.00     0.257 C 
ATOM     26  N   UNL A   1      45.631  17.452  44.203  1.00  0.00    -0.322 N 
ATOM     27  H   UNL A   1      45.656  17.897  43.326  1.00  0.00     0.170 HD
ATOM     28  O   UNL A   1      45.471  15.543  43.057  1.00  0.00    -0.269 OA
BRANCH  26  29
ATOM     29  C   UNL A   1      45.626  18.310  45.299  1.00  0.00     0.041 A 
ATOM     30  C   UNL A   1      44.904  21.642  47.861  1.00  0.00     0.044 C 
ATOM     31  C   UNL A   1      45.238  20.446  47.027  1.00  0.00    -0.051 A 
ATOM     32  C   UNL A   1      44.533  19.253  47.216  1.00  0.00     0.005 A 
ATOM     33  C   UNL A   1      46.239  20.510  46.052  1.00  0.00     0.005 A 
ATOM     34  C   UNL A   1      44.740  18.177  46.361  1.00  0.00     0.026 A 
ATOM     35  C   UNL A   1      46.455  19.428  45.206  1.00  0.00     0.026 A 
ENDBRANCH  26  29
ENDBRANCH  20  25
ENDBRANCH  16  19
ENDBRANCH  10  15
ENDBRANCH   7   9
ENDBRANCH   6   7
ENDBRANCH   5   6
ENDBRANCH   4   5
ENDBRANCH   3   4
ENDBRANCH   2   3
ENDBRANCH   1   2
BRANCH   1  36
ATOM     36  O   UNL A   1      46.722  18.904  39.811  1.00  0.00    -0.377 OA
BRANCH  36  37
ATOM     37  C   UNL A   1      47.962  19.394  40.326  1.00  0.00     0.188 C 
BRANCH  37  38
ATOM     38  C   UNL A   1      48.896  20.127  39.381  1.00  0.00     0.188 C 
BRANCH  38  39
ATOM     39  O   UNL A   1      48.938  19.455  38.127  1.00  0.00    -0.376 OA
BRANCH  39  40
ATOM     40  C   UNL A   1      48.849  20.328  37.003  1.00  0.00     0.202 C 
BRANCH  40  41
ATOM     41  C   UNL A   1      47.421  20.473  36.464  1.00  0.00     0.261 C 
BRANCH  41  42
ATOM     42  O   UNL A   1      47.342  21.692  35.699  1.00  0.00    -0.460 OA
BRANCH  42  43
ATOM     43  C   UNL A   1      46.150  22.331  35.753  1.00  0.00     0.338 C 
ATOM     44  O   UNL A   1      45.319  22.202  36.658  1.00  0.00    -0.246 OA
BRANCH  43  45
ATOM     45  C   UNL A   1      45.861  23.011  34.462  1.00  0.00     0.060 A 
ATOM     46  C   UNL A   1      46.709  24.027  33.995  1.00  0.00     0.016 A 
ATOM     47  C   UNL A   1      44.598  22.865  33.897  1.00  0.00     0.016 A 
ATOM     48  C   UNL A   1      46.223  24.995  33.104  1.00  0.00     0.010 A 
ATOM     49  C   UNL A   1      44.093  23.888  33.120  1.00  0.00     0.010 A 
ATOM     50  C   UNL A   1      44.879  24.988  32.747  1.00  0.00    -0.014 A 
BRANCH  50  51
ATOM     51  C   UNL A   1      44.154  26.118  32.136  1.00  0.00     0.031 A 
ATOM     52  C   UNL A   1      43.659  27.221  33.012  1.00  0.00     0.074 A 
ATOM     53  C   UNL A   1      44.257  26.322  30.795  1.00  0.00     0.049 A 
ATOM     54  N   UNL A   1      43.097  28.294  32.575  1.00  0.00    -0.248 NA
ATOM     55  C   UNL A   1      43.810  27.248  34.469  1.00  0.00     0.031 C 
ATOM     56  C   UNL A   1      44.132  27.586  30.058  1.00  0.00     0.029 A 
ATOM     57  N   UNL A   1      44.504  25.414  29.777  1.00  0.00    -0.354 N 
ATOM     58  C   UNL A   1      43.165  29.252  33.560  1.00  0.00     0.074 A 
ATOM     59  C   UNL A   1      43.524  28.526  34.752  1.00  0.00     0.031 C 
ATOM     60  C   UNL A   1      44.165  27.375  28.734  1.00  0.00     0.029 A 
ATOM     61  C   UNL A   1      44.040  25.949  28.559  1.00  0.00     0.049 A 
ATOM     62  H   UNL A   1      44.935  24.536  29.887  1.00  0.00     0.167 HD
ATOM     63  C   UNL A   1      43.053  30.564  33.200  1.00  0.00     0.031 A 
ATOM     64  C   UNL A   1      42.951  25.377  27.956  1.00  0.00     0.031 A 
ATOM     65  C   UNL A   1      42.595  30.717  31.808  1.00  0.00     0.049 A 
ATOM     66  C   UNL A   1      41.737  26.285  28.077  1.00  0.00     0.074 A 
ATOM     67  C   UNL A   1      43.030  31.408  30.688  1.00  0.00     0.029 A 
ATOM     68  N   UNL A   1      41.563  29.893  31.362  1.00  0.00    -0.354 N 
ATOM     69  N   UNL A   1      41.587  27.167  29.037  1.00  0.00    -0.248 NA
ATOM     70  C   UNL A   1      40.696  26.411  27.057  1.00  0.00     0.031 C 
ATOM     71  C   UNL A   1      42.348  30.872  29.552  1.00  0.00     0.029 A 
ATOM     72  C   UNL A   1      41.439  29.922  29.994  1.00  0.00     0.049 A 
ATOM     73  H   UNL A   1      40.991  29.355  31.956  1.00  0.00     0.167 HD
ATOM     74  C   UNL A   1      40.589  28.036  28.710  1.00  0.00     0.074 A 
ATOM     75  C   UNL A   1      40.007  27.480  27.500  1.00  0.00     0.031 C 
ATOM     76  C   UNL A   1      40.339  29.207  29.363  1.00  0.00     0.031 A 
BRANCH  63  77
ATOM     77  C   UNL A   1      43.493  31.735  34.058  1.00  0.00    -0.014 A 
ATOM     78  C   UNL A   1      42.571  32.757  34.364  1.00  0.00     0.009 A 
ATOM     79  C   UNL A   1      44.807  31.945  34.520  1.00  0.00     0.009 A 
ATOM     80  C   UNL A   1      42.933  33.902  35.094  1.00  0.00     0.001 A 
ATOM     81  C   UNL A   1      45.166  33.068  35.284  1.00  0.00     0.001 A 
ATOM     82  C   UNL A   1      44.228  34.051  35.568  1.00  0.00     0.000 A 
ENDBRANCH  63  77
BRANCH  64  83
ATOM     83  C   UNL A   1      43.074  23.885  28.005  1.00  0.00    -0.014 A 
ATOM     84  C   UNL A   1      41.909  23.239  28.488  1.00  0.00     0.009 A 
ATOM     85  C   UNL A   1      43.879  23.189  27.090  1.00  0.00     0.009 A 
ATOM     86  C   UNL A   1      41.417  22.096  27.854  1.00  0.00     0.001 A 
ATOM     87  C   UNL A   1      43.408  21.992  26.516  1.00  0.00     0.001 A 
ATOM     88  C   UNL A   1      42.143  21.500  26.833  1.00  0.00     0.000 A 
ENDBRANCH  64  83
BRANCH  76  89
ATOM     89  C   UNL A   1      38.949  29.764  29.553  1.00  0.00    -0.014 A 
ATOM     90  C   UNL A   1      38.437  30.819  28.790  1.00  0.00     0.009 A 
ATOM     91  C   UNL A   1      38.025  29.042  30.345  1.00  0.00     0.009 A 
ATOM     92  C   UNL A   1      37.077  31.144  28.825  1.00  0.00     0.001 A 
ATOM     93  C   UNL A   1      36.661  29.328  30.341  1.00  0.00     0.001 A 
ATOM     94  C   UNL A   1      36.188  30.388  29.583  1.00  0.00     0.000 A 
ENDBRANCH  76  89
ENDBRANCH  50  51
ENDBRANCH  43  45
ENDBRANCH  42  43
ENDBRANCH  41  42
ENDBRANCH  40  41
ENDBRANCH  39  40
ENDBRANCH  38  39
ENDBRANCH  37  38
ENDBRANCH  36  37
ENDBRANCH   1  36
TORSDOF 24
ENDMDL
MODEL 3
REMARK VINA RESULT:      -9.4      9.582     17.318
REMARK SMILES Cc1ccc(NC(=O)c2ccccc2NC(=O)[C@H]2CCCC[C@H]2C(=O)OCCOCCOCCOCCOC(=O)c2ccc(-c3c4nc(c(-c5ccccc5)c5ccc([nH]5)c(-c5ccccc5)c5nc(c(-c6ccccc6)c6ccc3[nH]6)C=C5)C=C4)cc2)cc1
REMARK SMILES IDX 31 1 30 2 29 3 28 4 27 5 26 6 24 7 25 8 23 9 18 10 19 11
REMARK SMILES IDX 20 12 22 13 21 14 16 15 15 16 17 18 14 19 9 20 10 21 11 22
REMARK SMILES IDX 13 23 12 24 7 25 6 26 8 28 5 29 1 30 2 31 3 32 90 33 4 34
REMARK SMILES IDX 89 35 32 36 33 37 34 38 35 39 36 40 37 41 38 42 39 43 40 44
REMARK SMILES IDX 41 45 42 46 88 47 43 48 87 49 44 50 45 51 46 52 81 53 47 54
REMARK SMILES IDX 86 55 80 56 82 57 48 58 85 59 79 60 78 61 49 63 71 64 56 65
REMARK SMILES IDX 70 66 57 67 60 68 69 69 83 70 58 71 59 72 68 74 84 75 61 76
REMARK SMILES IDX 50 77 51 78 55 79 52 80 54 81 53 82 72 83 73 84 77 85 74 86
REMARK SMILES IDX 76 87 75 88 62 89 63 90 67 91 64 92 66 93 65 94
REMARK H PARENT 15 17 6 27 82 62 60 73
REMARK Flexibility Score: inf
ROOT
ATOM      1  C   UNL A   1      42.967  16.567  40.176  1.00  0.00     0.188 C 
ENDROOT
BRANCH   1   2
ATOM      2  C   UNL A   1      42.700  15.062  40.193  1.00  0.00     0.188 C 
BRANCH   2   3
ATOM      3  O   UNL A   1      41.429  14.604  40.596  1.00  0.00    -0.376 OA
BRANCH   3   4
ATOM      4  C   UNL A   1      41.221  13.199  40.587  1.00  0.00     0.202 C 
BRANCH   4   5
ATOM      5  C   UNL A   1      41.206  12.398  41.879  1.00  0.00     0.261 C 
BRANCH   5   6
ATOM      6  O   UNL A   1      42.413  12.620  42.641  1.00  0.00    -0.463 OA
BRANCH   6   7
ATOM      7  C   UNL A   1      42.737  11.634  43.491  1.00  0.00     0.309 C 
ATOM      8  O   UNL A   1      41.952  10.772  43.883  1.00  0.00    -0.252 OA
BRANCH   7   9
ATOM      9  C   UNL A   1      44.148  11.685  44.017  1.00  0.00     0.111 C 
ATOM     10  C   UNL A   1      44.682  12.899  44.815  1.00  0.00     0.093 C 
ATOM     11  C   UNL A   1      46.215  12.901  44.593  1.00  0.00     0.014 C 
ATOM     12  C   UNL A   1      46.868  11.527  44.853  1.00  0.00     0.001 C 
ATOM     13  C   UNL A   1      44.698  10.326  44.420  1.00  0.00     0.016 C 
ATOM     14  C   UNL A   1      46.198  10.348  44.143  1.00  0.00     0.001 C 
BRANCH  10  15
ATOM     15  C   UNL A   1      44.454  13.020  46.336  1.00  0.00     0.228 C 
ATOM     16  N   UNL A   1      45.291  13.691  47.213  1.00  0.00    -0.325 N 
ATOM     17  H   UNL A   1      45.049  13.499  48.148  1.00  0.00     0.169 HD
ATOM     18  O   UNL A   1      43.523  12.399  46.866  1.00  0.00    -0.274 OA
BRANCH  16  19
ATOM     19  C   UNL A   1      46.407  14.586  47.144  1.00  0.00     0.054 A 
ATOM     20  C   UNL A   1      46.271  15.915  46.630  1.00  0.00     0.063 A 
ATOM     21  C   UNL A   1      47.418  16.710  46.371  1.00  0.00     0.016 A 
ATOM     22  C   UNL A   1      48.695  16.224  46.605  1.00  0.00     0.001 A 
ATOM     23  C   UNL A   1      47.707  14.187  47.473  1.00  0.00     0.027 A 
ATOM     24  C   UNL A   1      48.835  14.969  47.171  1.00  0.00     0.002 A 
BRANCH  20  25
ATOM     25  C   UNL A   1      45.041  16.587  46.128  1.00  0.00     0.257 C 
ATOM     26  N   UNL A   1      44.892  17.089  44.861  1.00  0.00    -0.322 N 
ATOM     27  H   UNL A   1      43.983  17.393  44.636  1.00  0.00     0.170 HD
ATOM     28  O   UNL A   1      44.086  16.690  46.904  1.00  0.00    -0.269 OA
BRANCH  26  29
ATOM     29  C   UNL A   1      45.830  17.236  43.844  1.00  0.00     0.041 A 
ATOM     30  C   UNL A   1      47.648  17.847  40.034  1.00  0.00     0.044 C 
ATOM     31  C   UNL A   1      47.103  17.590  41.403  1.00  0.00    -0.051 A 
ATOM     32  C   UNL A   1      47.102  18.620  42.351  1.00  0.00     0.005 A 
ATOM     33  C   UNL A   1      46.585  16.338  41.745  1.00  0.00     0.005 A 
ATOM     34  C   UNL A   1      46.479  18.437  43.580  1.00  0.00     0.026 A 
ATOM     35  C   UNL A   1      45.974  16.150  42.980  1.00  0.00     0.026 A 
ENDBRANCH  26  29
ENDBRANCH  20  25
ENDBRANCH  16  19
ENDBRANCH  10  15
ENDBRANCH   7   9
ENDBRANCH   6   7
ENDBRANCH   5   6
ENDBRANCH   4   5
ENDBRANCH   3   4
ENDBRANCH   2   3
ENDBRANCH   1   2
BRANCH   1  36
ATOM     36  O   UNL A   1      43.194  17.201  38.930  1.00  0.00    -0.377 OA
BRANCH  36  37
ATOM     37  C   UNL A   1      44.396  16.914  38.211  1.00  0.00     0.188 C 
BRANCH  37  38
ATOM     38  C   UNL A   1      45.077  18.046  37.465  1.00  0.00     0.188 C 
BRANCH  38  39
ATOM     39  O   UNL A   1      44.906  17.870  36.062  1.00  0.00    -0.376 OA
BRANCH  39  40
ATOM     40  C   UNL A   1      45.684  18.766  35.271  1.00  0.00     0.202 C 
BRANCH  40  41
ATOM     41  C   UNL A   1      46.147  20.006  36.043  1.00  0.00     0.261 C 
BRANCH  41  42
ATOM     42  O   UNL A   1      45.385  21.141  35.587  1.00  0.00    -0.460 OA
BRANCH  42  43
ATOM     43  C   UNL A   1      46.018  22.334  35.674  1.00  0.00     0.338 C 
ATOM     44  O   UNL A   1      46.495  22.807  36.711  1.00  0.00    -0.246 OA
BRANCH  43  45
ATOM     45  C   UNL A   1      45.843  23.113  34.419  1.00  0.00     0.060 A 
ATOM     46  C   UNL A   1      46.530  24.323  34.239  1.00  0.00     0.016 A 
ATOM     47  C   UNL A   1      44.770  22.809  33.586  1.00  0.00     0.016 A 
ATOM     48  C   UNL A   1      46.030  25.293  33.357  1.00  0.00     0.010 A 
ATOM     49  C   UNL A   1      44.218  23.813  32.816  1.00  0.00     0.010 A 
ATOM     50  C   UNL A   1      44.811  25.081  32.723  1.00  0.00    -0.014 A 
BRANCH  50  51
ATOM     51  C   UNL A   1      43.993  26.126  32.077  1.00  0.00     0.031 A 
ATOM     52  C   UNL A   1      43.222  27.075  32.933  1.00  0.00     0.074 A 
ATOM     53  C   UNL A   1      44.227  26.437  30.774  1.00  0.00     0.049 A 
ATOM     54  N   UNL A   1      42.552  28.076  32.479  1.00  0.00    -0.248 NA
ATOM     55  C   UNL A   1      43.185  27.022  34.397  1.00  0.00     0.031 C 
ATOM     56  C   UNL A   1      43.991  27.715  30.091  1.00  0.00     0.029 A 
ATOM     57  N   UNL A   1      44.742  25.652  29.754  1.00  0.00    -0.354 N 
ATOM     58  C   UNL A   1      42.341  28.961  33.511  1.00  0.00     0.074 A 
ATOM     59  C   UNL A   1      42.663  28.218  34.703  1.00  0.00     0.031 C 
ATOM     60  C   UNL A   1      44.222  27.605  28.774  1.00  0.00     0.029 A 
ATOM     61  C   UNL A   1      44.352  26.193  28.513  1.00  0.00     0.049 A 
ATOM     62  H   UNL A   1      45.292  24.845  29.877  1.00  0.00     0.167 HD
ATOM     63  C   UNL A   1      42.064  30.263  33.205  1.00  0.00     0.031 A 
ATOM     64  C   UNL A   1      43.453  25.503  27.743  1.00  0.00     0.031 A 
ATOM     65  C   UNL A   1      41.763  30.441  31.773  1.00  0.00     0.049 A 
ATOM     66  C   UNL A   1      42.102  26.203  27.746  1.00  0.00     0.074 A 
ATOM     67  C   UNL A   1      42.215  31.268  30.757  1.00  0.00     0.029 A 
ATOM     68  N   UNL A   1      40.941  29.500  31.153  1.00  0.00    -0.354 N 
ATOM     69  N   UNL A   1      41.694  26.981  28.720  1.00  0.00    -0.248 NA
ATOM     70  C   UNL A   1      41.189  26.237  26.604  1.00  0.00     0.031 C 
ATOM     71  C   UNL A   1      41.775  30.714  29.515  1.00  0.00     0.029 A 
ATOM     72  C   UNL A   1      40.984  29.606  29.784  1.00  0.00     0.049 A 
ATOM     73  H   UNL A   1      40.395  28.840  31.639  1.00  0.00     0.167 HD
ATOM     74  C   UNL A   1      40.616  27.706  28.306  1.00  0.00     0.074 A 
ATOM     75  C   UNL A   1      40.286  27.154  27.004  1.00  0.00     0.031 C 
ATOM     76  C   UNL A   1      40.101  28.776  28.978  1.00  0.00     0.031 A 
BRANCH  63  77
ATOM     77  C   UNL A   1      42.198  31.425  34.171  1.00  0.00    -0.014 A 
ATOM     78  C   UNL A   1      43.396  31.591  34.895  1.00  0.00     0.009 A 
ATOM     79  C   UNL A   1      41.168  32.332  34.486  1.00  0.00     0.009 A 
ATOM     80  C   UNL A   1      43.560  32.602  35.855  1.00  0.00     0.001 A 
ATOM     81  C   UNL A   1      41.338  33.371  35.416  1.00  0.00     0.001 A 
ATOM     82  C   UNL A   1      42.535  33.504  36.106  1.00  0.00     0.000 A 
ENDBRANCH  63  77
BRANCH  64  83
ATOM     83  C   UNL A   1      43.809  24.048  27.734  1.00  0.00    -0.014 A 
ATOM     84  C   UNL A   1      42.920  23.246  28.491  1.00  0.00     0.009 A 
ATOM     85  C   UNL A   1      44.446  23.460  26.630  1.00  0.00     0.009 A 
ATOM     86  C   UNL A   1      42.460  22.027  27.987  1.00  0.00     0.001 A 
ATOM     87  C   UNL A   1      44.030  22.193  26.178  1.00  0.00     0.001 A 
ATOM     88  C   UNL A   1      42.980  21.523  26.804  1.00  0.00     0.000 A 
ENDBRANCH  64  83
BRANCH  76  89
ATOM     89  C   UNL A   1      38.626  29.097  29.008  1.00  0.00    -0.014 A 
ATOM     90  C   UNL A   1      37.867  29.098  30.182  1.00  0.00     0.009 A 
ATOM     91  C   UNL A   1      38.028  29.670  27.860  1.00  0.00     0.009 A 
ATOM     92  C   UNL A   1      36.574  29.631  30.208  1.00  0.00     0.001 A 
ATOM     93  C   UNL A   1      36.762  30.251  27.895  1.00  0.00     0.001 A 
ATOM     94  C   UNL A   1      36.031  30.225  29.072  1.00  0.00     0.000 A 
ENDBRANCH  76  89
ENDBRANCH  50  51
ENDBRANCH  43  45
ENDBRANCH  42  43
ENDBRANCH  41  42
ENDBRANCH  40  41
ENDBRANCH  39  40
ENDBRANCH  38  39
ENDBRANCH  37  38
ENDBRANCH  36  37
ENDBRANCH   1  36
TORSDOF 24
ENDMDL
