MODEL 1
REMARK VINA RESULT:      -9.3      0.000      0.000
REMARK SMILES COc1cc([C@@H]2[NH2+][C@@H](C(=O)OCCOCCOCCOCCOC(=O)c3ccc(-c4c5nc(c(-c6ccccc6)c6ccc([nH]6)c(-c6ccccc6)c6nc(c(-c7ccccc7)c7ccc4[nH]7)C=C6)C=C5)cc3)CS2)cc(Cl)c1O
REMARK SMILES IDX 17 1 16 2 15 3 14 4 13 5 12 6 11 7 9 8 10 9 8 10 6 11 7 12
REMARK SMILES IDX 75 13 74 16 5 17 3 18 4 19 79 20 77 21 76 22 78 23 2 24 1 25
REMARK SMILES IDX 80 26 18 28 19 29 20 30 21 31 22 32 23 33 24 34 25 35 26 36
REMARK SMILES IDX 27 37 73 38 28 39 72 40 29 41 30 42 31 43 66 44 32 45 71 46
REMARK SMILES IDX 65 47 67 48 33 49 70 50 64 51 63 52 34 54 56 55 41 56 55 57
REMARK SMILES IDX 42 58 45 59 54 60 68 61 43 62 44 63 53 65 69 66 46 67 35 68
REMARK SMILES IDX 36 69 40 70 37 71 39 72 38 73 57 74 58 75 62 76 59 77 61 78
REMARK SMILES IDX 60 79 47 80 48 81 52 82 49 83 51 84 50 85
REMARK H PARENT 7 14 7 15 80 27 67 53 45 64
REMARK Flexibility Score: inf
ROOT
ATOM      1  O   UNL A   1      41.954  19.458  26.679  1.00  0.00    -0.377 OA
ENDROOT
BRANCH   1   2
ATOM      2  C   UNL A   1      40.798  20.151  27.135  1.00  0.00     0.188 C 
BRANCH   2   3
ATOM      3  C   UNL A   1      40.366  21.252  26.140  1.00  0.00     0.188 C 
BRANCH   3   4
ATOM      4  O   UNL A   1      38.957  21.397  26.048  1.00  0.00    -0.376 OA
BRANCH   4   5
ATOM      5  C   UNL A   1      38.403  22.708  26.094  1.00  0.00     0.202 C 
BRANCH   5   6
ATOM      6  C   UNL A   1      37.308  23.177  25.113  1.00  0.00     0.261 C 
BRANCH   6   7
ATOM      7  O   UNL A   1      36.039  22.497  25.179  1.00  0.00    -0.459 OA
BRANCH   7   8
ATOM      8  C   UNL A   1      35.018  23.109  25.830  1.00  0.00     0.365 C 
ATOM      9  O   UNL A   1      34.860  23.058  27.043  1.00  0.00    -0.245 OA
BRANCH   8  10
ATOM     10  C   UNL A   1      34.083  23.847  24.842  1.00  0.00     0.304 C 
ATOM     11  C   UNL A   1      31.817  24.670  24.539  1.00  0.00     0.274 C 
ATOM     12  N   UNL A   1      32.907  24.500  25.499  1.00  0.00    -0.319 N 
ATOM     13  S   UNL A   1      31.826  23.189  23.516  1.00  0.00    -0.087 SA
ATOM     14  H   UNL A   1      32.587  23.917  26.272  1.00  0.00     0.348 HD
ATOM     15  H   UNL A   1      33.188  25.417  25.846  1.00  0.00     0.348 HD
ATOM     16  C   UNL A   1      33.597  22.886  23.754  1.00  0.00     0.153 C 
BRANCH  11  17
ATOM     17  C   UNL A   1      31.840  25.944  23.720  1.00  0.00     0.025 A 
ATOM     18  C   UNL A   1      30.708  27.742  22.542  1.00  0.00     0.162 A 
ATOM     19  C   UNL A   1      30.681  26.495  23.155  1.00  0.00     0.061 A 
ATOM     20  C   UNL A   1      31.879  28.491  22.504  1.00  0.00     0.176 A 
ATOM     21  C   UNL A   1      33.057  27.949  23.011  1.00  0.00     0.087 A 
ATOM     22  C   UNL A   1      33.039  26.681  23.609  1.00  0.00     0.035 A 
ATOM     23  Cl  UNL A   1      34.539  28.829  22.975  1.00  0.00    -0.080 Cl
BRANCH  18  24
ATOM     24  O   UNL A   1      29.536  28.273  22.070  1.00  0.00    -0.493 OA
ATOM     25  C   UNL A   1      28.597  28.422  23.137  1.00  0.00     0.278 C 
ENDBRANCH  18  24
BRANCH  20  26
ATOM     26  O   UNL A   1      31.837  29.763  22.001  1.00  0.00    -0.503 OA
ATOM     27  H   UNL A   1      32.613  30.153  21.647  1.00  0.00     0.293 HD
ENDBRANCH  20  26
ENDBRANCH  11  17
ENDBRANCH   8  10
ENDBRANCH   7   8
ENDBRANCH   6   7
ENDBRANCH   5   6
ENDBRANCH   4   5
ENDBRANCH   3   4
ENDBRANCH   2   3
ENDBRANCH   1   2
BRANCH   1  28
ATOM     28  C   UNL A   1      42.927  20.239  25.996  1.00  0.00     0.188 C 
BRANCH  28  29
ATOM     29  C   UNL A   1      43.994  19.551  25.113  1.00  0.00     0.188 C 
BRANCH  29  30
ATOM     30  O   UNL A   1      45.304  20.077  25.284  1.00  0.00    -0.376 OA
BRANCH  30  31
ATOM     31  C   UNL A   1      45.675  21.280  24.643  1.00  0.00     0.202 C 
BRANCH  31  32
ATOM     32  C   UNL A   1      45.695  22.544  25.510  1.00  0.00     0.261 C 
BRANCH  32  33
ATOM     33  O   UNL A   1      45.093  23.707  24.934  1.00  0.00    -0.460 OA
BRANCH  33  34
ATOM     34  C   UNL A   1      43.743  23.798  25.007  1.00  0.00     0.338 C 
ATOM     35  O   UNL A   1      42.929  23.189  24.355  1.00  0.00    -0.246 OA
BRANCH  34  36
ATOM     36  C   UNL A   1      43.433  24.635  26.190  1.00  0.00     0.060 A 
ATOM     37  C   UNL A   1      42.658  24.083  27.220  1.00  0.00     0.016 A 
ATOM     38  C   UNL A   1      43.949  25.928  26.303  1.00  0.00     0.016 A 
ATOM     39  C   UNL A   1      42.371  24.839  28.356  1.00  0.00     0.010 A 
ATOM     40  C   UNL A   1      43.636  26.694  27.426  1.00  0.00     0.010 A 
ATOM     41  C   UNL A   1      42.817  26.164  28.438  1.00  0.00    -0.014 A 
BRANCH  41  42
ATOM     42  C   UNL A   1      42.228  27.067  29.452  1.00  0.00     0.031 A 
ATOM     43  C   UNL A   1      42.941  27.202  30.767  1.00  0.00     0.074 A 
ATOM     44  C   UNL A   1      41.106  27.765  29.211  1.00  0.00     0.049 A 
ATOM     45  N   UNL A   1      42.620  27.908  31.821  1.00  0.00    -0.248 NA
ATOM     46  C   UNL A   1      44.186  26.430  30.912  1.00  0.00     0.031 C 
ATOM     47  C   UNL A   1      40.358  27.766  27.957  1.00  0.00     0.029 A 
ATOM     48  N   UNL A   1      40.404  28.614  30.028  1.00  0.00    -0.354 N 
ATOM     49  C   UNL A   1      43.616  27.655  32.755  1.00  0.00     0.074 A 
ATOM     50  C   UNL A   1      44.531  26.707  32.157  1.00  0.00     0.031 C 
ATOM     51  C   UNL A   1      39.298  28.584  28.086  1.00  0.00     0.029 A 
ATOM     52  C   UNL A   1      39.275  29.130  29.443  1.00  0.00     0.049 A 
ATOM     53  H   UNL A   1      40.683  28.832  30.947  1.00  0.00     0.167 HD
ATOM     54  C   UNL A   1      43.762  28.168  33.999  1.00  0.00     0.031 A 
ATOM     55  C   UNL A   1      38.328  29.940  29.953  1.00  0.00     0.031 A 
ATOM     56  C   UNL A   1      42.833  29.083  34.603  1.00  0.00     0.049 A 
ATOM     57  C   UNL A   1      38.449  30.412  31.378  1.00  0.00     0.074 A 
ATOM     58  C   UNL A   1      42.889  29.671  35.854  1.00  0.00     0.029 A 
ATOM     59  N   UNL A   1      41.663  29.527  34.003  1.00  0.00    -0.354 N 
ATOM     60  N   UNL A   1      39.408  30.193  32.247  1.00  0.00    -0.248 NA
ATOM     61  C   UNL A   1      37.356  31.251  31.890  1.00  0.00     0.031 C 
ATOM     62  C   UNL A   1      41.716  30.413  36.038  1.00  0.00     0.029 A 
ATOM     63  C   UNL A   1      40.969  30.350  34.873  1.00  0.00     0.049 A 
ATOM     64  H   UNL A   1      41.371  29.292  33.093  1.00  0.00     0.167 HD
ATOM     65  C   UNL A   1      39.051  30.893  33.394  1.00  0.00     0.074 A 
ATOM     66  C   UNL A   1      37.791  31.550  33.106  1.00  0.00     0.031 C 
ATOM     67  C   UNL A   1      39.711  30.989  34.576  1.00  0.00     0.031 A 
BRANCH  54  68
ATOM     68  C   UNL A   1      44.942  27.686  34.800  1.00  0.00    -0.014 A 
ATOM     69  C   UNL A   1      44.859  26.550  35.623  1.00  0.00     0.009 A 
ATOM     70  C   UNL A   1      46.149  28.398  34.748  1.00  0.00     0.009 A 
ATOM     71  C   UNL A   1      45.942  26.176  36.422  1.00  0.00     0.001 A 
ATOM     72  C   UNL A   1      47.243  27.999  35.519  1.00  0.00     0.001 A 
ATOM     73  C   UNL A   1      47.132  26.898  36.367  1.00  0.00     0.000 A 
ENDBRANCH  54  68
BRANCH  55  74
ATOM     74  C   UNL A   1      37.180  30.362  29.108  1.00  0.00    -0.014 A 
ATOM     75  C   UNL A   1      36.215  29.429  28.702  1.00  0.00     0.009 A 
ATOM     76  C   UNL A   1      37.041  31.701  28.706  1.00  0.00     0.009 A 
ATOM     77  C   UNL A   1      35.141  29.823  27.900  1.00  0.00     0.001 A 
ATOM     78  C   UNL A   1      35.952  32.097  27.927  1.00  0.00     0.001 A 
ATOM     79  C   UNL A   1      35.007  31.157  27.519  1.00  0.00     0.000 A 
ENDBRANCH  55  74
BRANCH  67  80
ATOM     80  C   UNL A   1      39.105  31.870  35.637  1.00  0.00    -0.014 A 
ATOM     81  C   UNL A   1      38.217  31.361  36.598  1.00  0.00     0.009 A 
ATOM     82  C   UNL A   1      39.470  33.224  35.702  1.00  0.00     0.009 A 
ATOM     83  C   UNL A   1      37.681  32.199  37.578  1.00  0.00     0.001 A 
ATOM     84  C   UNL A   1      38.960  34.051  36.703  1.00  0.00     0.001 A 
ATOM     85  C   UNL A   1      38.057  33.541  37.635  1.00  0.00     0.000 A 
ENDBRANCH  67  80
ENDBRANCH  41  42
ENDBRANCH  34  36
ENDBRANCH  33  34
ENDBRANCH  32  33
ENDBRANCH  31  32
ENDBRANCH  30  31
ENDBRANCH  29  30
ENDBRANCH  28  29
ENDBRANCH   1  28
TORSDOF 23
ENDMDL
MODEL 2
REMARK VINA RESULT:      -9.3      1.970      6.329
REMARK SMILES COc1cc([C@@H]2[NH2+][C@@H](C(=O)OCCOCCOCCOCCOC(=O)c3ccc(-c4c5nc(c(-c6ccccc6)c6ccc([nH]6)c(-c6ccccc6)c6nc(c(-c7ccccc7)c7ccc4[nH]7)C=C6)C=C5)cc3)CS2)cc(Cl)c1O
REMARK SMILES IDX 17 1 16 2 15 3 14 4 13 5 12 6 11 7 9 8 10 9 8 10 6 11 7 12
REMARK SMILES IDX 75 13 74 16 5 17 3 18 4 19 79 20 77 21 76 22 78 23 2 24 1 25
REMARK SMILES IDX 80 26 18 28 19 29 20 30 21 31 22 32 23 33 24 34 25 35 26 36
REMARK SMILES IDX 27 37 73 38 28 39 72 40 29 41 30 42 31 43 66 44 32 45 71 46
REMARK SMILES IDX 65 47 67 48 33 49 70 50 64 51 63 52 34 54 56 55 41 56 55 57
REMARK SMILES IDX 42 58 45 59 54 60 68 61 43 62 44 63 53 65 69 66 46 67 35 68
REMARK SMILES IDX 36 69 40 70 37 71 39 72 38 73 57 74 58 75 62 76 59 77 61 78
REMARK SMILES IDX 60 79 47 80 48 81 52 82 49 83 51 84 50 85
REMARK H PARENT 7 14 7 15 80 27 67 53 45 64
REMARK Flexibility Score: inf
ROOT
ATOM      1  O   UNL A   1      44.118  18.430  25.874  1.00  0.00    -0.377 OA
ENDROOT
BRANCH   1   2
ATOM      2  C   UNL A   1      42.713  18.525  25.678  1.00  0.00     0.188 C 
BRANCH   2   3
ATOM      3  C   UNL A   1      42.192  19.950  25.974  1.00  0.00     0.188 C 
BRANCH   3   4
ATOM      4  O   UNL A   1      41.482  20.039  27.200  1.00  0.00    -0.376 OA
BRANCH   4   5
ATOM      5  C   UNL A   1      41.633  21.214  27.990  1.00  0.00     0.202 C 
BRANCH   5   6
ATOM      6  C   UNL A   1      40.742  22.459  27.798  1.00  0.00     0.261 C 
BRANCH   6   7
ATOM      7  O   UNL A   1      39.646  22.340  26.870  1.00  0.00    -0.459 OA
BRANCH   7   8
ATOM      8  C   UNL A   1      38.982  23.470  26.517  1.00  0.00     0.365 C 
ATOM      9  O   UNL A   1      39.324  24.593  26.862  1.00  0.00    -0.245 OA
BRANCH   8  10
ATOM     10  C   UNL A   1      37.740  23.145  25.653  1.00  0.00     0.304 C 
ATOM     11  C   UNL A   1      35.391  22.531  25.760  1.00  0.00     0.274 C 
ATOM     12  N   UNL A   1      36.440  23.350  26.367  1.00  0.00    -0.319 N 
ATOM     13  S   UNL A   1      36.175  20.970  25.325  1.00  0.00    -0.087 SA
ATOM     14  H   UNL A   1      36.548  23.087  27.346  1.00  0.00     0.348 HD
ATOM     15  H   UNL A   1      36.175  24.332  26.296  1.00  0.00     0.348 HD
ATOM     16  C   UNL A   1      37.818  21.708  25.130  1.00  0.00     0.153 C 
BRANCH  11  17
ATOM     17  C   UNL A   1      34.646  23.153  24.597  1.00  0.00     0.025 A 
ATOM     18  C   UNL A   1      33.183  22.979  22.665  1.00  0.00     0.162 A 
ATOM     19  C   UNL A   1      33.985  22.381  23.629  1.00  0.00     0.061 A 
ATOM     20  C   UNL A   1      32.988  24.356  22.655  1.00  0.00     0.176 A 
ATOM     21  C   UNL A   1      33.671  25.152  23.570  1.00  0.00     0.087 A 
ATOM     22  C   UNL A   1      34.500  24.555  24.530  1.00  0.00     0.035 A 
ATOM     23  Cl  UNL A   1      33.477  26.866  23.591  1.00  0.00    -0.080 Cl
BRANCH  18  24
ATOM     24  O   UNL A   1      32.498  22.181  21.787  1.00  0.00    -0.493 OA
ATOM     25  C   UNL A   1      31.929  21.064  22.475  1.00  0.00     0.278 C 
ENDBRANCH  18  24
BRANCH  20  26
ATOM     26  O   UNL A   1      32.097  24.894  21.766  1.00  0.00    -0.503 OA
ATOM     27  H   UNL A   1      31.237  24.529  21.686  1.00  0.00     0.293 HD
ENDBRANCH  20  26
ENDBRANCH  11  17
ENDBRANCH   8  10
ENDBRANCH   7   8
ENDBRANCH   6   7
ENDBRANCH   5   6
ENDBRANCH   4   5
ENDBRANCH   3   4
ENDBRANCH   2   3
ENDBRANCH   1   2
BRANCH   1  28
ATOM     28  C   UNL A   1      44.935  18.896  24.807  1.00  0.00     0.188 C 
BRANCH  28  29
ATOM     29  C   UNL A   1      46.360  19.426  25.094  1.00  0.00     0.188 C 
BRANCH  29  30
ATOM     30  O   UNL A   1      46.405  20.817  25.388  1.00  0.00    -0.376 OA
BRANCH  30  31
ATOM     31  C   UNL A   1      45.263  21.469  25.907  1.00  0.00     0.202 C 
BRANCH  31  32
ATOM     32  C   UNL A   1      44.917  22.834  25.302  1.00  0.00     0.261 C 
BRANCH  32  33
ATOM     33  O   UNL A   1      44.469  23.832  26.226  1.00  0.00    -0.460 OA
BRANCH  33  34
ATOM     34  C   UNL A   1      44.471  25.115  25.791  1.00  0.00     0.338 C 
ATOM     35  O   UNL A   1      44.833  25.525  24.714  1.00  0.00    -0.246 OA
BRANCH  34  36
ATOM     36  C   UNL A   1      43.748  25.915  26.807  1.00  0.00     0.060 A 
ATOM     37  C   UNL A   1      44.032  27.284  26.912  1.00  0.00     0.016 A 
ATOM     38  C   UNL A   1      42.765  25.329  27.607  1.00  0.00     0.016 A 
ATOM     39  C   UNL A   1      43.350  28.066  27.843  1.00  0.00     0.010 A 
ATOM     40  C   UNL A   1      42.103  26.106  28.559  1.00  0.00     0.010 A 
ATOM     41  C   UNL A   1      42.421  27.468  28.703  1.00  0.00    -0.014 A 
BRANCH  41  42
ATOM     42  C   UNL A   1      41.967  28.202  29.905  1.00  0.00     0.031 A 
ATOM     43  C   UNL A   1      40.734  29.053  29.782  1.00  0.00     0.074 A 
ATOM     44  C   UNL A   1      42.611  28.105  31.079  1.00  0.00     0.049 A 
ATOM     45  N   UNL A   1      40.148  29.807  30.676  1.00  0.00    -0.248 NA
ATOM     46  C   UNL A   1      40.077  29.054  28.464  1.00  0.00     0.031 C 
ATOM     47  C   UNL A   1      43.779  27.267  31.341  1.00  0.00     0.029 A 
ATOM     48  N   UNL A   1      42.361  28.727  32.276  1.00  0.00    -0.354 N 
ATOM     49  C   UNL A   1      39.062  30.379  30.026  1.00  0.00     0.074 A 
ATOM     50  C   UNL A   1      39.091  29.914  28.657  1.00  0.00     0.031 C 
ATOM     51  C   UNL A   1      44.143  27.425  32.627  1.00  0.00     0.029 A 
ATOM     52  C   UNL A   1      43.259  28.402  33.262  1.00  0.00     0.049 A 
ATOM     53  H   UNL A   1      41.609  29.347  32.415  1.00  0.00     0.167 HD
ATOM     54  C   UNL A   1      38.121  31.215  30.523  1.00  0.00     0.031 A 
ATOM     55  C   UNL A   1      43.359  28.854  34.526  1.00  0.00     0.031 A 
ATOM     56  C   UNL A   1      38.115  31.703  31.875  1.00  0.00     0.049 A 
ATOM     57  C   UNL A   1      42.367  29.870  35.028  1.00  0.00     0.074 A 
ATOM     58  C   UNL A   1      37.203  32.546  32.484  1.00  0.00     0.029 A 
ATOM     59  N   UNL A   1      39.083  31.406  32.823  1.00  0.00    -0.354 N 
ATOM     60  N   UNL A   1      41.326  30.385  34.418  1.00  0.00    -0.248 NA
ATOM     61  C   UNL A   1      42.563  30.362  36.399  1.00  0.00     0.031 C 
ATOM     62  C   UNL A   1      37.661  32.816  33.779  1.00  0.00     0.029 A 
ATOM     63  C   UNL A   1      38.814  32.080  34.001  1.00  0.00     0.049 A 
ATOM     64  H   UNL A   1      39.848  30.803  32.678  1.00  0.00     0.167 HD
ATOM     65  C   UNL A   1      40.724  31.234  35.340  1.00  0.00     0.074 A 
ATOM     66  C   UNL A   1      41.513  31.157  36.554  1.00  0.00     0.031 C 
ATOM     67  C   UNL A   1      39.614  32.001  35.198  1.00  0.00     0.031 A 
BRANCH  54  68
ATOM     68  C   UNL A   1      37.065  31.697  29.564  1.00  0.00    -0.014 A 
ATOM     69  C   UNL A   1      37.201  32.908  28.866  1.00  0.00     0.009 A 
ATOM     70  C   UNL A   1      35.902  30.936  29.379  1.00  0.00     0.009 A 
ATOM     71  C   UNL A   1      36.168  33.374  28.049  1.00  0.00     0.001 A 
ATOM     72  C   UNL A   1      34.886  31.385  28.533  1.00  0.00     0.001 A 
ATOM     73  C   UNL A   1      35.014  32.611  27.882  1.00  0.00     0.000 A 
ENDBRANCH  54  68
BRANCH  55  74
ATOM     74  C   UNL A   1      44.439  28.346  35.411  1.00  0.00    -0.014 A 
ATOM     75  C   UNL A   1      44.187  27.300  36.312  1.00  0.00     0.009 A 
ATOM     76  C   UNL A   1      45.729  28.900  35.360  1.00  0.00     0.009 A 
ATOM     77  C   UNL A   1      45.198  26.828  37.152  1.00  0.00     0.001 A 
ATOM     78  C   UNL A   1      46.745  28.407  36.181  1.00  0.00     0.001 A 
ATOM     79  C   UNL A   1      46.477  27.376  37.081  1.00  0.00     0.000 A 
ENDBRANCH  55  74
BRANCH  67  80
ATOM     80  C   UNL A   1      39.160  32.791  36.398  1.00  0.00    -0.014 A 
ATOM     81  C   UNL A   1      38.287  32.243  37.351  1.00  0.00     0.009 A 
ATOM     82  C   UNL A   1      39.656  34.089  36.600  1.00  0.00     0.009 A 
ATOM     83  C   UNL A   1      37.892  32.994  38.461  1.00  0.00     0.001 A 
ATOM     84  C   UNL A   1      39.288  34.823  37.727  1.00  0.00     0.001 A 
ATOM     85  C   UNL A   1      38.398  34.280  38.652  1.00  0.00     0.000 A 
ENDBRANCH  67  80
ENDBRANCH  41  42
ENDBRANCH  34  36
ENDBRANCH  33  34
ENDBRANCH  32  33
ENDBRANCH  31  32
ENDBRANCH  30  31
ENDBRANCH  29  30
ENDBRANCH  28  29
ENDBRANCH   1  28
TORSDOF 23
ENDMDL
MODEL 3
REMARK VINA RESULT:      -8.5      3.005      7.047
REMARK SMILES COc1cc([C@@H]2[NH2+][C@@H](C(=O)OCCOCCOCCOCCOC(=O)c3ccc(-c4c5nc(c(-c6ccccc6)c6ccc([nH]6)c(-c6ccccc6)c6nc(c(-c7ccccc7)c7ccc4[nH]7)C=C6)C=C5)cc3)CS2)cc(Cl)c1O
REMARK SMILES IDX 17 1 16 2 15 3 14 4 13 5 12 6 11 7 9 8 10 9 8 10 6 11 7 12
REMARK SMILES IDX 75 13 74 16 5 17 3 18 4 19 79 20 77 21 76 22 78 23 2 24 1 25
REMARK SMILES IDX 80 26 18 28 19 29 20 30 21 31 22 32 23 33 24 34 25 35 26 36
REMARK SMILES IDX 27 37 73 38 28 39 72 40 29 41 30 42 31 43 66 44 32 45 71 46
REMARK SMILES IDX 65 47 67 48 33 49 70 50 64 51 63 52 34 54 56 55 41 56 55 57
REMARK SMILES IDX 42 58 45 59 54 60 68 61 43 62 44 63 53 65 69 66 46 67 35 68
REMARK SMILES IDX 36 69 40 70 37 71 39 72 38 73 57 74 58 75 62 76 59 77 61 78
REMARK SMILES IDX 60 79 47 80 48 81 52 82 49 83 51 84 50 85
REMARK H PARENT 7 14 7 15 80 27 67 53 45 64
REMARK Flexibility Score: inf
ROOT
ATOM      1  O   UNL A   1      45.343  19.761  24.842  1.00  0.00    -0.377 OA
ENDROOT
BRANCH   1   2
ATOM      2  C   UNL A   1      44.303  18.887  24.426  1.00  0.00     0.188 C 
BRANCH   2   3
ATOM      3  C   UNL A   1      43.395  18.478  25.608  1.00  0.00     0.188 C 
BRANCH   3   4
ATOM      4  O   UNL A   1      42.967  19.584  26.389  1.00  0.00    -0.376 OA
BRANCH   4   5
ATOM      5  C   UNL A   1      41.573  19.756  26.619  1.00  0.00     0.202 C 
BRANCH   5   6
ATOM      6  C   UNL A   1      41.020  20.389  27.914  1.00  0.00     0.261 C 
BRANCH   6   7
ATOM      7  O   UNL A   1      40.307  21.634  27.778  1.00  0.00    -0.459 OA
BRANCH   7   8
ATOM      8  C   UNL A   1      40.066  22.099  26.526  1.00  0.00     0.365 C 
ATOM      9  O   UNL A   1      40.945  22.483  25.765  1.00  0.00    -0.245 OA
BRANCH   8  10
ATOM     10  C   UNL A   1      38.552  22.101  26.209  1.00  0.00     0.304 C 
ATOM     11  C   UNL A   1      36.932  21.950  24.403  1.00  0.00     0.274 C 
ATOM     12  N   UNL A   1      38.208  21.444  24.908  1.00  0.00    -0.319 N 
ATOM     13  S   UNL A   1      36.913  23.708  24.788  1.00  0.00    -0.087 SA
ATOM     14  H   UNL A   1      38.941  21.641  24.228  1.00  0.00     0.348 HD
ATOM     15  H   UNL A   1      38.129  20.438  25.056  1.00  0.00     0.348 HD
ATOM     16  C   UNL A   1      38.008  23.532  26.221  1.00  0.00     0.153 C 
BRANCH  11  17
ATOM     17  C   UNL A   1      35.689  21.234  24.889  1.00  0.00     0.025 A 
ATOM     18  C   UNL A   1      33.448  21.251  25.827  1.00  0.00     0.162 A 
ATOM     19  C   UNL A   1      34.638  21.905  25.532  1.00  0.00     0.061 A 
ATOM     20  C   UNL A   1      33.255  19.924  25.462  1.00  0.00     0.176 A 
ATOM     21  C   UNL A   1      34.298  19.217  24.869  1.00  0.00     0.087 A 
ATOM     22  C   UNL A   1      35.509  19.866  24.591  1.00  0.00     0.035 A 
ATOM     23  Cl  UNL A   1      34.117  17.564  24.410  1.00  0.00    -0.080 Cl
BRANCH  18  24
ATOM     24  O   UNL A   1      32.423  21.966  26.389  1.00  0.00    -0.493 OA
ATOM     25  C   UNL A   1      32.395  23.292  25.854  1.00  0.00     0.278 C 
ENDBRANCH  18  24
BRANCH  20  26
ATOM     26  O   UNL A   1      32.028  19.352  25.660  1.00  0.00    -0.503 OA
ATOM     27  H   UNL A   1      31.954  18.422  25.753  1.00  0.00     0.293 HD
ENDBRANCH  20  26
ENDBRANCH  11  17
ENDBRANCH   8  10
ENDBRANCH   7   8
ENDBRANCH   6   7
ENDBRANCH   5   6
ENDBRANCH   4   5
ENDBRANCH   3   4
ENDBRANCH   2   3
ENDBRANCH   1   2
BRANCH   1  28
ATOM     28  C   UNL A   1      45.198  21.130  24.482  1.00  0.00     0.188 C 
BRANCH  28  29
ATOM     29  C   UNL A   1      46.413  22.084  24.550  1.00  0.00     0.188 C 
BRANCH  29  30
ATOM     30  O   UNL A   1      46.459  22.868  25.736  1.00  0.00    -0.376 OA
BRANCH  30  31
ATOM     31  C   UNL A   1      45.278  23.110  26.473  1.00  0.00     0.202 C 
BRANCH  31  32
ATOM     32  C   UNL A   1      44.699  24.527  26.398  1.00  0.00     0.261 C 
BRANCH  32  33
ATOM     33  O   UNL A   1      43.324  24.621  26.009  1.00  0.00    -0.460 OA
BRANCH  33  34
ATOM     34  C   UNL A   1      42.840  25.863  25.765  1.00  0.00     0.338 C 
ATOM     35  O   UNL A   1      42.438  26.301  24.714  1.00  0.00    -0.246 OA
BRANCH  34  36
ATOM     36  C   UNL A   1      42.697  26.533  27.079  1.00  0.00     0.060 A 
ATOM     37  C   UNL A   1      41.773  26.019  27.999  1.00  0.00     0.016 A 
ATOM     38  C   UNL A   1      43.506  27.621  27.415  1.00  0.00     0.016 A 
ATOM     39  C   UNL A   1      41.634  26.615  29.252  1.00  0.00     0.010 A 
ATOM     40  C   UNL A   1      43.346  28.235  28.658  1.00  0.00     0.010 A 
ATOM     41  C   UNL A   1      42.384  27.755  29.564  1.00  0.00    -0.014 A 
BRANCH  41  42
ATOM     42  C   UNL A   1      41.993  28.586  30.725  1.00  0.00     0.031 A 
ATOM     43  C   UNL A   1      40.785  29.468  30.579  1.00  0.00     0.074 A 
ATOM     44  C   UNL A   1      42.671  28.548  31.883  1.00  0.00     0.049 A 
ATOM     45  N   UNL A   1      40.253  30.302  31.435  1.00  0.00    -0.248 NA
ATOM     46  C   UNL A   1      40.086  29.400  29.284  1.00  0.00     0.031 C 
ATOM     47  C   UNL A   1      43.819  27.691  32.168  1.00  0.00     0.029 A 
ATOM     48  N   UNL A   1      42.480  29.260  33.039  1.00  0.00    -0.354 N 
ATOM     49  C   UNL A   1      39.166  30.864  30.779  1.00  0.00     0.074 A 
ATOM     50  C   UNL A   1      39.135  30.305  29.446  1.00  0.00     0.031 C 
ATOM     51  C   UNL A   1      44.230  27.925  33.427  1.00  0.00     0.029 A 
ATOM     52  C   UNL A   1      43.399  28.973  34.018  1.00  0.00     0.049 A 
ATOM     53  H   UNL A   1      41.754  29.914  33.157  1.00  0.00     0.167 HD
ATOM     54  C   UNL A   1      38.268  31.765  31.244  1.00  0.00     0.031 A 
ATOM     55  C   UNL A   1      43.555  29.509  35.244  1.00  0.00     0.031 A 
ATOM     56  C   UNL A   1      38.322  32.345  32.557  1.00  0.00     0.049 A 
ATOM     57  C   UNL A   1      42.612  30.590  35.702  1.00  0.00     0.074 A 
ATOM     58  C   UNL A   1      37.458  33.260  33.133  1.00  0.00     0.029 A 
ATOM     59  N   UNL A   1      39.310  32.082  33.494  1.00  0.00    -0.354 N 
ATOM     60  N   UNL A   1      41.570  31.098  35.089  1.00  0.00    -0.248 NA
ATOM     61  C   UNL A   1      42.868  31.169  37.029  1.00  0.00     0.031 C 
ATOM     62  C   UNL A   1      37.966  33.604  34.392  1.00  0.00     0.029 A 
ATOM     63  C   UNL A   1      39.101  32.846  34.630  1.00  0.00     0.049 A 
ATOM     64  H   UNL A   1      40.051  31.445  33.370  1.00  0.00     0.167 HD
ATOM     65  C   UNL A   1      41.026  32.029  35.967  1.00  0.00     0.074 A 
ATOM     66  C   UNL A   1      41.851  32.009  37.159  1.00  0.00     0.031 C 
ATOM     67  C   UNL A   1      39.937  32.822  35.805  1.00  0.00     0.031 A 
BRANCH  54  68
ATOM     68  C   UNL A   1      37.198  32.216  30.286  1.00  0.00    -0.014 A 
ATOM     69  C   UNL A   1      35.990  31.512  30.145  1.00  0.00     0.009 A 
ATOM     70  C   UNL A   1      37.417  33.350  29.491  1.00  0.00     0.009 A 
ATOM     71  C   UNL A   1      35.052  31.902  29.186  1.00  0.00     0.001 A 
ATOM     72  C   UNL A   1      36.461  33.761  28.559  1.00  0.00     0.001 A 
ATOM     73  C   UNL A   1      35.288  33.027  28.397  1.00  0.00     0.000 A 
ENDBRANCH  54  68
BRANCH  55  74
ATOM     74  C   UNL A   1      44.646  29.026  36.130  1.00  0.00    -0.014 A 
ATOM     75  C   UNL A   1      45.952  29.514  35.980  1.00  0.00     0.009 A 
ATOM     76  C   UNL A   1      44.387  28.078  37.134  1.00  0.00     0.009 A 
ATOM     77  C   UNL A   1      46.980  29.054  36.806  1.00  0.00     0.001 A 
ATOM     78  C   UNL A   1      45.411  27.640  37.976  1.00  0.00     0.001 A 
ATOM     79  C   UNL A   1      46.708  28.123  37.808  1.00  0.00     0.000 A 
ENDBRANCH  55  74
BRANCH  67  80
ATOM     80  C   UNL A   1      39.547  33.708  36.959  1.00  0.00    -0.014 A 
ATOM     81  C   UNL A   1      38.775  33.227  38.028  1.00  0.00     0.009 A 
ATOM     82  C   UNL A   1      40.006  35.035  36.998  1.00  0.00     0.009 A 
ATOM     83  C   UNL A   1      38.439  34.068  39.091  1.00  0.00     0.001 A 
ATOM     84  C   UNL A   1      39.699  35.862  38.078  1.00  0.00     0.001 A 
ATOM     85  C   UNL A   1      38.907  35.382  39.119  1.00  0.00     0.000 A 
ENDBRANCH  67  80
ENDBRANCH  41  42
ENDBRANCH  34  36
ENDBRANCH  33  34
ENDBRANCH  32  33
ENDBRANCH  31  32
ENDBRANCH  30  31
ENDBRANCH  29  30
ENDBRANCH  28  29
ENDBRANCH   1  28
TORSDOF 23
ENDMDL
