MODEL 1
REMARK VINA RESULT:      -9.5      0.000      0.000
REMARK SMILES O=C(OCCOCCOCCOCCOC(=O)[C@@H](c1ccccc1)[C@H](C(=O)c1ccccc1)c1ccccc1)c1ccc(-c2c3nc(c(-c4ccccc4)c4ccc([nH]4)c(-c4ccccc4)c4nc(c(-c5ccccc5)c5ccc2[nH]5)C=C4)C=C3)cc1
REMARK SMILES IDX 10 1 9 2 8 3 7 4 6 5 5 6 4 7 3 8 2 9 1 10 40 11 41 12 87 13
REMARK SMILES IDX 42 14 86 15 43 16 44 17 45 18 80 19 46 20 85 21 79 22 81 23
REMARK SMILES IDX 47 24 84 25 78 26 77 27 48 29 70 30 55 31 69 32 56 33 59 34
REMARK SMILES IDX 68 35 82 36 57 37 58 38 67 40 83 41 60 42 49 43 50 44 54 45
REMARK SMILES IDX 51 46 53 47 52 48 71 49 72 50 76 51 73 52 75 53 74 54 61 55
REMARK SMILES IDX 62 56 66 57 63 58 65 59 64 60 11 61 12 62 13 63 14 64 15 65
REMARK SMILES IDX 16 66 17 67 18 68 19 69 20 70 24 71 21 72 23 73 22 74 25 75
REMARK SMILES IDX 34 76 35 77 39 78 36 79 38 80 37 81 26 82 27 83 28 84 29 85
REMARK SMILES IDX 33 86 30 87 32 88 31 89
REMARK H PARENT 81 28 59 39
REMARK Flexibility Score: inf
ROOT
ATOM      1  C   UNL A   1      31.492  32.862  26.545  1.00  0.00     0.188 C 
ENDROOT
BRANCH   1   2
ATOM      2  O   UNL A   1      32.232  32.924  27.758  1.00  0.00    -0.377 OA
BRANCH   2   3
ATOM      3  C   UNL A   1      33.107  34.027  27.992  1.00  0.00     0.188 C 
BRANCH   3   4
ATOM      4  C   UNL A   1      34.588  33.699  28.016  1.00  0.00     0.188 C 
BRANCH   4   5
ATOM      5  O   UNL A   1      35.078  33.825  29.339  1.00  0.00    -0.376 OA
BRANCH   5   6
ATOM      6  C   UNL A   1      35.939  32.807  29.808  1.00  0.00     0.202 C 
BRANCH   6   7
ATOM      7  C   UNL A   1      36.042  32.785  31.328  1.00  0.00     0.261 C 
BRANCH   7   8
ATOM      8  O   UNL A   1      36.875  31.696  31.757  1.00  0.00    -0.460 OA
BRANCH   8   9
ATOM      9  C   UNL A   1      36.932  30.440  31.254  1.00  0.00     0.338 C 
ATOM     10  O   UNL A   1      35.906  29.770  31.254  1.00  0.00    -0.246 OA
BRANCH   9  11
ATOM     11  C   UNL A   1      38.168  29.808  30.683  1.00  0.00     0.060 A 
ATOM     12  C   UNL A   1      39.167  29.136  31.397  1.00  0.00     0.016 A 
ATOM     13  C   UNL A   1      38.274  29.834  29.281  1.00  0.00     0.016 A 
ATOM     14  C   UNL A   1      40.223  28.501  30.767  1.00  0.00     0.010 A 
ATOM     15  C   UNL A   1      39.367  29.255  28.635  1.00  0.00     0.010 A 
ATOM     16  C   UNL A   1      40.352  28.614  29.391  1.00  0.00    -0.014 A 
BRANCH  16  17
ATOM     17  C   UNL A   1      41.682  28.357  28.834  1.00  0.00     0.031 A 
ATOM     18  C   UNL A   1      41.935  26.967  28.342  1.00  0.00     0.074 A 
ATOM     19  C   UNL A   1      42.556  29.357  28.662  1.00  0.00     0.049 A 
ATOM     20  N   UNL A   1      43.042  26.422  27.927  1.00  0.00    -0.248 NA
ATOM     21  C   UNL A   1      40.766  26.066  28.307  1.00  0.00     0.031 C 
ATOM     22  C   UNL A   1      42.298  30.769  28.943  1.00  0.00     0.029 A 
ATOM     23  N   UNL A   1      43.839  29.328  28.198  1.00  0.00    -0.354 N 
ATOM     24  C   UNL A   1      42.714  25.105  27.632  1.00  0.00     0.074 A 
ATOM     25  C   UNL A   1      41.307  24.933  27.899  1.00  0.00     0.031 C 
ATOM     26  C   UNL A   1      43.409  31.474  28.666  1.00  0.00     0.029 A 
ATOM     27  C   UNL A   1      44.462  30.549  28.261  1.00  0.00     0.049 A 
ATOM     28  H   UNL A   1      44.275  28.514  27.854  1.00  0.00     0.167 HD
ATOM     29  C   UNL A   1      43.536  24.123  27.204  1.00  0.00     0.031 A 
ATOM     30  C   UNL A   1      45.759  30.851  28.065  1.00  0.00     0.031 A 
ATOM     31  C   UNL A   1      44.937  24.340  26.987  1.00  0.00     0.049 A 
ATOM     32  C   UNL A   1      46.689  29.722  27.709  1.00  0.00     0.074 A 
ATOM     33  C   UNL A   1      45.913  23.434  26.627  1.00  0.00     0.029 A 
ATOM     34  N   UNL A   1      45.557  25.577  27.125  1.00  0.00    -0.354 N 
ATOM     35  N   UNL A   1      46.410  28.451  27.519  1.00  0.00    -0.248 NA
ATOM     36  C   UNL A   1      48.107  30.058  27.551  1.00  0.00     0.031 C 
ATOM     37  C   UNL A   1      47.135  24.114  26.603  1.00  0.00     0.029 A 
ATOM     38  C   UNL A   1      46.909  25.458  26.874  1.00  0.00     0.049 A 
ATOM     39  H   UNL A   1      45.099  26.414  27.365  1.00  0.00     0.167 HD
ATOM     40  C   UNL A   1      47.610  27.839  27.189  1.00  0.00     0.074 A 
ATOM     41  C   UNL A   1      48.619  28.884  27.202  1.00  0.00     0.031 C 
ATOM     42  C   UNL A   1      47.864  26.539  26.895  1.00  0.00     0.031 A 
BRANCH  29  43
ATOM     43  C   UNL A   1      42.943  22.748  27.084  1.00  0.00    -0.014 A 
ATOM     44  C   UNL A   1      42.980  22.022  25.881  1.00  0.00     0.009 A 
ATOM     45  C   UNL A   1      42.254  22.204  28.179  1.00  0.00     0.009 A 
ATOM     46  C   UNL A   1      42.291  20.812  25.762  1.00  0.00     0.001 A 
ATOM     47  C   UNL A   1      41.594  20.979  28.068  1.00  0.00     0.001 A 
ATOM     48  C   UNL A   1      41.598  20.292  26.856  1.00  0.00     0.000 A 
ENDBRANCH  29  43
BRANCH  30  49
ATOM     49  C   UNL A   1      46.237  32.242  28.276  1.00  0.00    -0.014 A 
ATOM     50  C   UNL A   1      46.248  33.169  27.225  1.00  0.00     0.009 A 
ATOM     51  C   UNL A   1      46.657  32.661  29.549  1.00  0.00     0.009 A 
ATOM     52  C   UNL A   1      46.678  34.483  27.443  1.00  0.00     0.001 A 
ATOM     53  C   UNL A   1      47.059  33.982  29.772  1.00  0.00     0.001 A 
ATOM     54  C   UNL A   1      47.075  34.889  28.716  1.00  0.00     0.000 A 
ENDBRANCH  30  49
BRANCH  42  55
ATOM     55  C   UNL A   1      49.270  26.192  26.503  1.00  0.00    -0.014 A 
ATOM     56  C   UNL A   1      49.748  26.429  25.207  1.00  0.00     0.009 A 
ATOM     57  C   UNL A   1      50.149  25.707  27.485  1.00  0.00     0.009 A 
ATOM     58  C   UNL A   1      51.082  26.163  24.896  1.00  0.00     0.001 A 
ATOM     59  C   UNL A   1      51.487  25.474  27.178  1.00  0.00     0.001 A 
ATOM     60  C   UNL A   1      51.951  25.696  25.882  1.00  0.00     0.000 A 
ENDBRANCH  42  55
ENDBRANCH  16  17
ENDBRANCH   9  11
ENDBRANCH   8   9
ENDBRANCH   7   8
ENDBRANCH   6   7
ENDBRANCH   5   6
ENDBRANCH   4   5
ENDBRANCH   3   4
ENDBRANCH   2   3
ENDBRANCH   1   2
BRANCH   1  61
ATOM     61  C   UNL A   1      31.195  31.412  26.153  1.00  0.00     0.188 C 
BRANCH  61  62
ATOM     62  O   UNL A   1      30.259  31.214  25.099  1.00  0.00    -0.376 OA
BRANCH  62  63
ATOM     63  C   UNL A   1      30.566  30.259  24.091  1.00  0.00     0.202 C 
BRANCH  63  64
ATOM     64  C   UNL A   1      29.416  29.438  23.452  1.00  0.00     0.261 C 
BRANCH  64  65
ATOM     65  O   UNL A   1      29.705  28.125  22.871  1.00  0.00    -0.463 OA
BRANCH  65  66
ATOM     66  C   UNL A   1      29.678  27.079  23.737  1.00  0.00     0.314 C 
ATOM     67  O   UNL A   1      28.617  26.638  24.189  1.00  0.00    -0.252 OA
BRANCH  66  68
ATOM     68  C   UNL A   1      30.985  26.657  24.406  1.00  0.00     0.144 C 
BRANCH  68  69
ATOM     69  C   UNL A   1      31.925  27.402  25.377  1.00  0.00    -0.033 A 
ATOM     70  C   UNL A   1      33.230  27.816  25.138  1.00  0.00     0.004 A 
ATOM     71  C   UNL A   1      31.461  27.671  26.690  1.00  0.00     0.004 A 
ATOM     72  C   UNL A   1      33.969  28.549  26.092  1.00  0.00     0.000 A 
ATOM     73  C   UNL A   1      32.197  28.373  27.653  1.00  0.00     0.000 A 
ATOM     74  C   UNL A   1      33.458  28.832  27.346  1.00  0.00     0.000 A 
ENDBRANCH  68  69
BRANCH  68  75
ATOM     75  C   UNL A   1      30.824  25.104  24.572  1.00  0.00     0.110 C 
BRANCH  75  76
ATOM     76  C   UNL A   1      31.549  24.305  23.477  1.00  0.00    -0.036 A 
ATOM     77  C   UNL A   1      32.403  24.978  22.573  1.00  0.00     0.004 A 
ATOM     78  C   UNL A   1      31.439  22.920  23.345  1.00  0.00     0.004 A 
ATOM     79  C   UNL A   1      33.242  24.281  21.705  1.00  0.00     0.000 A 
ATOM     80  C   UNL A   1      32.267  22.220  22.462  1.00  0.00     0.000 A 
ATOM     81  C   UNL A   1      33.189  22.896  21.667  1.00  0.00     0.000 A 
ENDBRANCH  75  76
BRANCH  75  82
ATOM     82  C   UNL A   1      30.966  24.605  26.030  1.00  0.00     0.171 C 
ATOM     83  O   UNL A   1      30.060  24.748  26.852  1.00  0.00    -0.293 OA
BRANCH  82  84
ATOM     84  C   UNL A   1      32.174  23.886  26.504  1.00  0.00     0.018 A 
ATOM     85  C   UNL A   1      32.035  22.751  27.306  1.00  0.00     0.012 A 
ATOM     86  C   UNL A   1      33.449  24.363  26.197  1.00  0.00     0.012 A 
ATOM     87  C   UNL A   1      33.162  22.014  27.677  1.00  0.00     0.001 A 
ATOM     88  C   UNL A   1      34.576  23.616  26.554  1.00  0.00     0.001 A 
ATOM     89  C   UNL A   1      34.428  22.428  27.271  1.00  0.00     0.000 A 
ENDBRANCH  82  84
ENDBRANCH  75  82
ENDBRANCH  68  75
ENDBRANCH  66  68
ENDBRANCH  65  66
ENDBRANCH  64  65
ENDBRANCH  63  64
ENDBRANCH  62  63
ENDBRANCH  61  62
ENDBRANCH   1  61
TORSDOF 25
ENDMDL
MODEL 2
REMARK VINA RESULT:      -9.3      3.430      6.663
REMARK SMILES O=C(OCCOCCOCCOCCOC(=O)[C@@H](c1ccccc1)[C@H](C(=O)c1ccccc1)c1ccccc1)c1ccc(-c2c3nc(c(-c4ccccc4)c4ccc([nH]4)c(-c4ccccc4)c4nc(c(-c5ccccc5)c5ccc2[nH]5)C=C4)C=C3)cc1
REMARK SMILES IDX 10 1 9 2 8 3 7 4 6 5 5 6 4 7 3 8 2 9 1 10 40 11 41 12 87 13
REMARK SMILES IDX 42 14 86 15 43 16 44 17 45 18 80 19 46 20 85 21 79 22 81 23
REMARK SMILES IDX 47 24 84 25 78 26 77 27 48 29 70 30 55 31 69 32 56 33 59 34
REMARK SMILES IDX 68 35 82 36 57 37 58 38 67 40 83 41 60 42 49 43 50 44 54 45
REMARK SMILES IDX 51 46 53 47 52 48 71 49 72 50 76 51 73 52 75 53 74 54 61 55
REMARK SMILES IDX 62 56 66 57 63 58 65 59 64 60 11 61 12 62 13 63 14 64 15 65
REMARK SMILES IDX 16 66 17 67 18 68 19 69 20 70 24 71 21 72 23 73 22 74 25 75
REMARK SMILES IDX 34 76 35 77 39 78 36 79 38 80 37 81 26 82 27 83 28 84 29 85
REMARK SMILES IDX 33 86 30 87 32 88 31 89
REMARK H PARENT 81 28 59 39
REMARK Flexibility Score: inf
ROOT
ATOM      1  C   UNL A   1      36.428  33.293  29.193  1.00  0.00     0.188 C 
ENDROOT
BRANCH   1   2
ATOM      2  O   UNL A   1      36.955  32.040  29.611  1.00  0.00    -0.377 OA
BRANCH   2   3
ATOM      3  C   UNL A   1      36.429  31.410  30.779  1.00  0.00     0.188 C 
BRANCH   3   4
ATOM      4  C   UNL A   1      36.367  32.277  32.022  1.00  0.00     0.188 C 
BRANCH   4   5
ATOM      5  O   UNL A   1      36.495  31.463  33.173  1.00  0.00    -0.376 OA
BRANCH   5   6
ATOM      6  C   UNL A   1      37.433  31.866  34.150  1.00  0.00     0.202 C 
BRANCH   6   7
ATOM      7  C   UNL A   1      38.160  30.687  34.784  1.00  0.00     0.261 C 
BRANCH   7   8
ATOM      8  O   UNL A   1      38.234  29.590  33.861  1.00  0.00    -0.460 OA
BRANCH   8   9
ATOM      9  C   UNL A   1      39.290  29.201  33.108  1.00  0.00     0.338 C 
ATOM     10  O   UNL A   1      39.616  28.020  33.134  1.00  0.00    -0.246 OA
BRANCH   9  11
ATOM     11  C   UNL A   1      40.091  30.118  32.228  1.00  0.00     0.060 A 
ATOM     12  C   UNL A   1      40.001  30.226  30.835  1.00  0.00     0.016 A 
ATOM     13  C   UNL A   1      40.953  31.004  32.897  1.00  0.00     0.016 A 
ATOM     14  C   UNL A   1      40.715  31.173  30.122  1.00  0.00     0.010 A 
ATOM     15  C   UNL A   1      41.729  31.921  32.186  1.00  0.00     0.010 A 
ATOM     16  C   UNL A   1      41.622  31.977  30.794  1.00  0.00    -0.014 A 
BRANCH  16  17
ATOM     17  C   UNL A   1      42.668  32.603  29.983  1.00  0.00     0.031 A 
ATOM     18  C   UNL A   1      43.863  31.756  29.675  1.00  0.00     0.074 A 
ATOM     19  C   UNL A   1      42.484  33.817  29.447  1.00  0.00     0.049 A 
ATOM     20  N   UNL A   1      44.985  32.080  29.100  1.00  0.00    -0.248 NA
ATOM     21  C   UNL A   1      43.771  30.335  30.068  1.00  0.00     0.031 C 
ATOM     22  C   UNL A   1      41.262  34.614  29.549  1.00  0.00     0.029 A 
ATOM     23  N   UNL A   1      43.331  34.582  28.699  1.00  0.00    -0.354 N 
ATOM     24  C   UNL A   1      45.749  30.920  29.109  1.00  0.00     0.074 A 
ATOM     25  C   UNL A   1      44.965  29.882  29.730  1.00  0.00     0.031 C 
ATOM     26  C   UNL A   1      41.451  35.778  28.904  1.00  0.00     0.029 A 
ATOM     27  C   UNL A   1      42.824  35.824  28.412  1.00  0.00     0.049 A 
ATOM     28  H   UNL A   1      44.217  34.275  28.397  1.00  0.00     0.167 HD
ATOM     29  C   UNL A   1      47.012  30.758  28.660  1.00  0.00     0.031 A 
ATOM     30  C   UNL A   1      43.442  36.887  27.865  1.00  0.00     0.031 A 
ATOM     31  C   UNL A   1      47.762  31.835  28.081  1.00  0.00     0.049 A 
ATOM     32  C   UNL A   1      44.889  36.729  27.483  1.00  0.00     0.074 A 
ATOM     33  C   UNL A   1      49.072  31.851  27.648  1.00  0.00     0.029 A 
ATOM     34  N   UNL A   1      47.243  33.108  27.865  1.00  0.00    -0.354 N 
ATOM     35  N   UNL A   1      45.655  35.664  27.573  1.00  0.00    -0.248 NA
ATOM     36  C   UNL A   1      45.562  37.912  26.936  1.00  0.00     0.031 C 
ATOM     37  C   UNL A   1      49.361  33.151  27.222  1.00  0.00     0.029 A 
ATOM     38  C   UNL A   1      48.212  33.925  27.319  1.00  0.00     0.049 A 
ATOM     39  H   UNL A   1      46.321  33.384  28.069  1.00  0.00     0.167 HD
ATOM     40  C   UNL A   1      46.892  36.036  27.067  1.00  0.00     0.074 A 
ATOM     41  C   UNL A   1      46.769  37.427  26.669  1.00  0.00     0.031 C 
ATOM     42  C   UNL A   1      48.026  35.304  26.935  1.00  0.00     0.031 A 
BRANCH  29  43
ATOM     43  C   UNL A   1      47.653  29.422  28.909  1.00  0.00    -0.014 A 
ATOM     44  C   UNL A   1      48.395  29.156  30.073  1.00  0.00     0.009 A 
ATOM     45  C   UNL A   1      47.585  28.436  27.913  1.00  0.00     0.009 A 
ATOM     46  C   UNL A   1      49.101  27.957  30.204  1.00  0.00     0.001 A 
ATOM     47  C   UNL A   1      48.263  27.225  28.061  1.00  0.00     0.001 A 
ATOM     48  C   UNL A   1      49.035  26.993  29.198  1.00  0.00     0.000 A 
ENDBRANCH  29  43
BRANCH  30  49
ATOM     49  C   UNL A   1      42.717  38.177  27.728  1.00  0.00    -0.014 A 
ATOM     50  C   UNL A   1      42.738  39.131  28.754  1.00  0.00     0.009 A 
ATOM     51  C   UNL A   1      42.022  38.477  26.544  1.00  0.00     0.009 A 
ATOM     52  C   UNL A   1      42.072  40.352  28.601  1.00  0.00     0.001 A 
ATOM     53  C   UNL A   1      41.382  39.708  26.382  1.00  0.00     0.001 A 
ATOM     54  C   UNL A   1      41.402  40.641  27.414  1.00  0.00     0.000 A 
ENDBRANCH  30  49
BRANCH  42  55
ATOM     55  C   UNL A   1      49.196  35.974  26.278  1.00  0.00    -0.014 A 
ATOM     56  C   UNL A   1      50.163  36.658  27.028  1.00  0.00     0.009 A 
ATOM     57  C   UNL A   1      49.373  35.831  24.892  1.00  0.00     0.009 A 
ATOM     58  C   UNL A   1      51.278  37.208  26.393  1.00  0.00     0.001 A 
ATOM     59  C   UNL A   1      50.503  36.352  24.269  1.00  0.00     0.001 A 
ATOM     60  C   UNL A   1      51.451  37.046  25.018  1.00  0.00     0.000 A 
ENDBRANCH  42  55
ENDBRANCH  16  17
ENDBRANCH   9  11
ENDBRANCH   8   9
ENDBRANCH   7   8
ENDBRANCH   6   7
ENDBRANCH   5   6
ENDBRANCH   4   5
ENDBRANCH   3   4
ENDBRANCH   2   3
ENDBRANCH   1   2
BRANCH   1  61
ATOM     61  C   UNL A   1      35.439  33.119  28.037  1.00  0.00     0.188 C 
BRANCH  61  62
ATOM     62  O   UNL A   1      35.092  31.782  27.689  1.00  0.00    -0.376 OA
BRANCH  62  63
ATOM     63  C   UNL A   1      33.759  31.346  27.925  1.00  0.00     0.202 C 
BRANCH  63  64
ATOM     64  C   UNL A   1      33.039  30.501  26.842  1.00  0.00     0.261 C 
BRANCH  64  65
ATOM     65  O   UNL A   1      32.714  29.100  27.120  1.00  0.00    -0.463 OA
BRANCH  65  66
ATOM     66  C   UNL A   1      33.688  28.200  26.825  1.00  0.00     0.314 C 
ATOM     67  O   UNL A   1      34.881  28.517  26.806  1.00  0.00    -0.252 OA
BRANCH  66  68
ATOM     68  C   UNL A   1      33.279  26.869  26.197  1.00  0.00     0.144 C 
BRANCH  68  69
ATOM     69  C   UNL A   1      31.976  26.047  26.297  1.00  0.00    -0.033 A 
ATOM     70  C   UNL A   1      30.674  26.506  26.144  1.00  0.00     0.004 A 
ATOM     71  C   UNL A   1      32.073  24.671  26.629  1.00  0.00     0.004 A 
ATOM     72  C   UNL A   1      29.563  25.636  26.198  1.00  0.00     0.000 A 
ATOM     73  C   UNL A   1      30.975  23.805  26.711  1.00  0.00     0.000 A 
ATOM     74  C   UNL A   1      29.707  24.288  26.476  1.00  0.00     0.000 A 
ENDBRANCH  68  69
BRANCH  68  75
ATOM     75  C   UNL A   1      34.067  26.850  24.839  1.00  0.00     0.110 C 
BRANCH  75  76
ATOM     76  C   UNL A   1      34.330  25.427  24.319  1.00  0.00    -0.036 A 
ATOM     77  C   UNL A   1      35.182  24.565  25.047  1.00  0.00     0.004 A 
ATOM     78  C   UNL A   1      33.734  24.916  23.165  1.00  0.00     0.004 A 
ATOM     79  C   UNL A   1      35.285  23.209  24.739  1.00  0.00     0.000 A 
ATOM     80  C   UNL A   1      33.851  23.560  22.843  1.00  0.00     0.000 A 
ATOM     81  C   UNL A   1      34.599  22.702  23.647  1.00  0.00     0.000 A 
ENDBRANCH  75  76
BRANCH  75  82
ATOM     82  C   UNL A   1      33.590  27.906  23.814  1.00  0.00     0.171 C 
ATOM     83  O   UNL A   1      34.390  28.579  23.161  1.00  0.00    -0.293 OA
BRANCH  82  84
ATOM     84  C   UNL A   1      32.153  28.133  23.525  1.00  0.00     0.018 A 
ATOM     85  C   UNL A   1      31.531  29.300  23.976  1.00  0.00     0.012 A 
ATOM     86  C   UNL A   1      31.405  27.167  22.850  1.00  0.00     0.012 A 
ATOM     87  C   UNL A   1      30.205  29.565  23.626  1.00  0.00     0.001 A 
ATOM     88  C   UNL A   1      30.082  27.441  22.487  1.00  0.00     0.001 A 
ATOM     89  C   UNL A   1      29.493  28.651  22.853  1.00  0.00     0.000 A 
ENDBRANCH  82  84
ENDBRANCH  75  82
ENDBRANCH  68  75
ENDBRANCH  66  68
ENDBRANCH  65  66
ENDBRANCH  64  65
ENDBRANCH  63  64
ENDBRANCH  62  63
ENDBRANCH  61  62
ENDBRANCH   1  61
TORSDOF 25
ENDMDL
MODEL 3
REMARK VINA RESULT:      -9.2      3.963      8.459
REMARK SMILES O=C(OCCOCCOCCOCCOC(=O)[C@@H](c1ccccc1)[C@H](C(=O)c1ccccc1)c1ccccc1)c1ccc(-c2c3nc(c(-c4ccccc4)c4ccc([nH]4)c(-c4ccccc4)c4nc(c(-c5ccccc5)c5ccc2[nH]5)C=C4)C=C3)cc1
REMARK SMILES IDX 10 1 9 2 8 3 7 4 6 5 5 6 4 7 3 8 2 9 1 10 40 11 41 12 87 13
REMARK SMILES IDX 42 14 86 15 43 16 44 17 45 18 80 19 46 20 85 21 79 22 81 23
REMARK SMILES IDX 47 24 84 25 78 26 77 27 48 29 70 30 55 31 69 32 56 33 59 34
REMARK SMILES IDX 68 35 82 36 57 37 58 38 67 40 83 41 60 42 49 43 50 44 54 45
REMARK SMILES IDX 51 46 53 47 52 48 71 49 72 50 76 51 73 52 75 53 74 54 61 55
REMARK SMILES IDX 62 56 66 57 63 58 65 59 64 60 11 61 12 62 13 63 14 64 15 65
REMARK SMILES IDX 16 66 17 67 18 68 19 69 20 70 24 71 21 72 23 73 22 74 25 75
REMARK SMILES IDX 34 76 35 77 39 78 36 79 38 80 37 81 26 82 27 83 28 84 29 85
REMARK SMILES IDX 33 86 30 87 32 88 31 89
REMARK H PARENT 81 28 59 39
REMARK Flexibility Score: inf
ROOT
ATOM      1  C   UNL A   1      34.609  31.967  28.280  1.00  0.00     0.188 C 
ENDROOT
BRANCH   1   2
ATOM      2  O   UNL A   1      34.433  33.368  28.109  1.00  0.00    -0.377 OA
BRANCH   2   3
ATOM      3  C   UNL A   1      33.762  34.121  29.119  1.00  0.00     0.188 C 
BRANCH   3   4
ATOM      4  C   UNL A   1      34.489  34.237  30.446  1.00  0.00     0.188 C 
BRANCH   4   5
ATOM      5  O   UNL A   1      33.646  34.864  31.394  1.00  0.00    -0.376 OA
BRANCH   5   6
ATOM      6  C   UNL A   1      33.575  34.284  32.680  1.00  0.00     0.202 C 
BRANCH   6   7
ATOM      7  C   UNL A   1      34.608  33.183  32.882  1.00  0.00     0.261 C 
BRANCH   7   8
ATOM      8  O   UNL A   1      35.805  33.720  33.466  1.00  0.00    -0.460 OA
BRANCH   8   9
ATOM      9  C   UNL A   1      36.789  33.053  34.117  1.00  0.00     0.338 C 
ATOM     10  O   UNL A   1      36.640  32.824  35.312  1.00  0.00    -0.246 OA
BRANCH   9  11
ATOM     11  C   UNL A   1      38.052  32.562  33.472  1.00  0.00     0.060 A 
ATOM     12  C   UNL A   1      38.148  31.724  32.355  1.00  0.00     0.016 A 
ATOM     13  C   UNL A   1      39.248  33.070  34.010  1.00  0.00     0.016 A 
ATOM     14  C   UNL A   1      39.363  31.404  31.774  1.00  0.00     0.010 A 
ATOM     15  C   UNL A   1      40.485  32.705  33.477  1.00  0.00     0.010 A 
ATOM     16  C   UNL A   1      40.531  31.847  32.374  1.00  0.00    -0.014 A 
BRANCH  16  17
ATOM     17  C   UNL A   1      41.757  31.122  32.035  1.00  0.00     0.031 A 
ATOM     18  C   UNL A   1      42.516  31.625  30.847  1.00  0.00     0.074 A 
ATOM     19  C   UNL A   1      42.223  30.154  32.835  1.00  0.00     0.049 A 
ATOM     20  N   UNL A   1      43.548  31.110  30.243  1.00  0.00    -0.248 NA
ATOM     21  C   UNL A   1      42.044  32.896  30.264  1.00  0.00     0.031 C 
ATOM     22  C   UNL A   1      41.632  29.749  34.111  1.00  0.00     0.029 A 
ATOM     23  N   UNL A   1      43.312  29.344  32.689  1.00  0.00    -0.354 N 
ATOM     24  C   UNL A   1      43.815  31.965  29.181  1.00  0.00     0.074 A 
ATOM     25  C   UNL A   1      42.852  33.038  29.229  1.00  0.00     0.031 C 
ATOM     26  C   UNL A   1      42.359  28.740  34.621  1.00  0.00     0.029 A 
ATOM     27  C   UNL A   1      43.412  28.394  33.673  1.00  0.00     0.049 A 
ATOM     28  H   UNL A   1      43.959  29.432  31.952  1.00  0.00     0.167 HD
ATOM     29  C   UNL A   1      44.769  31.837  28.235  1.00  0.00     0.031 A 
ATOM     30  C   UNL A   1      44.236  27.333  33.746  1.00  0.00     0.031 A 
ATOM     31  C   UNL A   1      45.681  30.730  28.214  1.00  0.00     0.049 A 
ATOM     32  C   UNL A   1      45.213  27.132  32.619  1.00  0.00     0.074 A 
ATOM     33  C   UNL A   1      46.652  30.419  27.285  1.00  0.00     0.029 A 
ATOM     34  N   UNL A   1      45.716  29.740  29.190  1.00  0.00    -0.354 N 
ATOM     35  N   UNL A   1      45.414  27.882  31.557  1.00  0.00    -0.248 NA
ATOM     36  C   UNL A   1      46.068  25.943  32.687  1.00  0.00     0.031 C 
ATOM     37  C   UNL A   1      47.236  29.208  27.671  1.00  0.00     0.029 A 
ATOM     38  C   UNL A   1      46.681  28.804  28.879  1.00  0.00     0.049 A 
ATOM     39  H   UNL A   1      45.138  29.712  29.986  1.00  0.00     0.167 HD
ATOM     40  C   UNL A   1      46.437  27.275  30.845  1.00  0.00     0.074 A 
ATOM     41  C   UNL A   1      46.818  26.095  31.601  1.00  0.00     0.031 C 
ATOM     42  C   UNL A   1      47.020  27.651  29.679  1.00  0.00     0.031 A 
BRANCH  29  43
ATOM     43  C   UNL A   1      44.756  32.843  27.119  1.00  0.00    -0.014 A 
ATOM     44  C   UNL A   1      44.023  32.638  25.938  1.00  0.00     0.009 A 
ATOM     45  C   UNL A   1      45.568  33.984  27.220  1.00  0.00     0.009 A 
ATOM     46  C   UNL A   1      44.152  33.521  24.862  1.00  0.00     0.001 A 
ATOM     47  C   UNL A   1      45.669  34.883  26.157  1.00  0.00     0.001 A 
ATOM     48  C   UNL A   1      44.975  34.642  24.973  1.00  0.00     0.000 A 
ENDBRANCH  29  43
BRANCH  30  49
ATOM     49  C   UNL A   1      44.110  26.370  34.871  1.00  0.00    -0.014 A 
ATOM     50  C   UNL A   1      43.254  25.264  34.783  1.00  0.00     0.009 A 
ATOM     51  C   UNL A   1      44.877  26.538  36.036  1.00  0.00     0.009 A 
ATOM     52  C   UNL A   1      43.163  24.352  35.841  1.00  0.00     0.001 A 
ATOM     53  C   UNL A   1      44.806  25.611  37.080  1.00  0.00     0.001 A 
ATOM     54  C   UNL A   1      43.944  24.523  36.983  1.00  0.00     0.000 A 
ENDBRANCH  30  49
BRANCH  42  55
ATOM     55  C   UNL A   1      48.165  26.816  29.189  1.00  0.00    -0.014 A 
ATOM     56  C   UNL A   1      49.426  26.875  29.799  1.00  0.00     0.009 A 
ATOM     57  C   UNL A   1      47.940  25.890  28.158  1.00  0.00     0.009 A 
ATOM     58  C   UNL A   1      50.450  26.031  29.366  1.00  0.00     0.001 A 
ATOM     59  C   UNL A   1      48.955  25.028  27.752  1.00  0.00     0.001 A 
ATOM     60  C   UNL A   1      50.211  25.103  28.352  1.00  0.00     0.000 A 
ENDBRANCH  42  55
ENDBRANCH  16  17
ENDBRANCH   9  11
ENDBRANCH   8   9
ENDBRANCH   7   8
ENDBRANCH   6   7
ENDBRANCH   5   6
ENDBRANCH   4   5
ENDBRANCH   3   4
ENDBRANCH   2   3
ENDBRANCH   1   2
BRANCH   1  61
ATOM     61  C   UNL A   1      36.091  31.589  28.249  1.00  0.00     0.188 C 
BRANCH  61  62
ATOM     62  O   UNL A   1      36.415  30.245  28.592  1.00  0.00    -0.376 OA
BRANCH  62  63
ATOM     63  C   UNL A   1      37.482  29.608  27.899  1.00  0.00     0.202 C 
BRANCH  63  64
ATOM     64  C   UNL A   1      38.385  28.606  28.663  1.00  0.00     0.261 C 
BRANCH  64  65
ATOM     65  O   UNL A   1      38.740  27.331  28.033  1.00  0.00    -0.463 OA
BRANCH  65  66
ATOM     66  C   UNL A   1      39.787  26.670  28.590  1.00  0.00     0.314 C 
ATOM     67  O   UNL A   1      40.550  27.219  29.392  1.00  0.00    -0.252 OA
BRANCH  66  68
ATOM     68  C   UNL A   1      40.215  25.340  27.972  1.00  0.00     0.144 C 
BRANCH  68  69
ATOM     69  C   UNL A   1      39.431  24.290  27.157  1.00  0.00    -0.033 A 
ATOM     70  C   UNL A   1      39.865  23.030  26.764  1.00  0.00     0.004 A 
ATOM     71  C   UNL A   1      38.133  24.628  26.696  1.00  0.00     0.004 A 
ATOM     72  C   UNL A   1      39.025  22.132  26.070  1.00  0.00     0.000 A 
ATOM     73  C   UNL A   1      37.301  23.754  25.984  1.00  0.00     0.000 A 
ATOM     74  C   UNL A   1      37.745  22.486  25.682  1.00  0.00     0.000 A 
ENDBRANCH  68  69
BRANCH  68  75
ATOM     75  C   UNL A   1      41.729  25.569  27.626  1.00  0.00     0.110 C 
BRANCH  75  76
ATOM     76  C   UNL A   1      42.679  24.749  28.514  1.00  0.00    -0.036 A 
ATOM     77  C   UNL A   1      42.340  23.419  28.855  1.00  0.00     0.004 A 
ATOM     78  C   UNL A   1      43.900  25.238  28.980  1.00  0.00     0.004 A 
ATOM     79  C   UNL A   1      43.254  22.567  29.472  1.00  0.00     0.000 A 
ATOM     80  C   UNL A   1      44.813  24.391  29.616  1.00  0.00     0.000 A 
ATOM     81  C   UNL A   1      44.503  23.050  29.833  1.00  0.00     0.000 A 
ENDBRANCH  75  76
BRANCH  75  82
ATOM     82  C   UNL A   1      42.033  25.614  26.109  1.00  0.00     0.171 C 
ATOM     83  O   UNL A   1      41.314  26.236  25.326  1.00  0.00    -0.293 OA
BRANCH  82  84
ATOM     84  C   UNL A   1      43.226  24.957  25.523  1.00  0.00     0.018 A 
ATOM     85  C   UNL A   1      44.420  25.670  25.399  1.00  0.00     0.012 A 
ATOM     86  C   UNL A   1      43.151  23.646  25.047  1.00  0.00     0.012 A 
ATOM     87  C   UNL A   1      45.572  25.030  24.937  1.00  0.00     0.001 A 
ATOM     88  C   UNL A   1      44.309  23.002  24.600  1.00  0.00     0.001 A 
ATOM     89  C   UNL A   1      45.523  23.687  24.571  1.00  0.00     0.000 A 
ENDBRANCH  82  84
ENDBRANCH  75  82
ENDBRANCH  68  75
ENDBRANCH  66  68
ENDBRANCH  65  66
ENDBRANCH  64  65
ENDBRANCH  63  64
ENDBRANCH  62  63
ENDBRANCH  61  62
ENDBRANCH   1  61
TORSDOF 25
ENDMDL
