MODEL 1
REMARK VINA RESULT:     -10.6      0.000      0.000
REMARK SMILES O=C(OCCOCCOCCOCCOC(=O)c1ccc(-c2c3nc(c(-c4ccccc4)c4ccc([nH]4)c(-c4ccccc4)c4nc(c(-c5ccccc5)c5ccc2[nH]5)C=C4)C=C3)cc1)C1=Cc2cc(S(F)(F)(F)(F)F)ccc2O[C@@H]1C(F)(F)F
REMARK SMILES IDX 10 1 9 2 8 3 7 4 6 5 5 6 4 7 3 8 2 9 1 10 66 11 67 12 81 13
REMARK SMILES IDX 68 14 80 15 69 16 79 17 70 18 78 19 77 20 82 21 83 22 84 23
REMARK SMILES IDX 85 24 71 25 72 26 73 27 74 28 75 29 76 30 11 31 12 32 13 33
REMARK SMILES IDX 14 34 15 35 16 36 17 37 18 38 19 39 65 40 20 41 64 42 21 43
REMARK SMILES IDX 22 44 23 45 58 46 24 47 63 48 57 49 59 50 25 51 62 52 56 53
REMARK SMILES IDX 55 54 26 56 48 57 33 58 47 59 34 60 37 61 46 62 60 63 35 64
REMARK SMILES IDX 36 65 45 67 61 68 38 69 27 70 28 71 32 72 29 73 31 74 30 75
REMARK SMILES IDX 49 76 50 77 54 78 51 79 53 80 52 81 39 82 40 83 44 84 41 85
REMARK SMILES IDX 43 86 42 87
REMARK H PARENT 59 55 37 66
REMARK Flexibility Score: inf
ROOT
ATOM      1  C   UNL A   1      40.442  21.842  26.401  1.00  0.00     0.188 C 
ENDROOT
BRANCH   1   2
ATOM      2  O   UNL A   1      39.323  21.099  25.941  1.00  0.00    -0.377 OA
BRANCH   2   3
ATOM      3  C   UNL A   1      38.245  21.983  25.672  1.00  0.00     0.188 C 
BRANCH   3   4
ATOM      4  C   UNL A   1      37.068  21.195  25.120  1.00  0.00     0.188 C 
BRANCH   4   5
ATOM      5  O   UNL A   1      35.900  22.001  25.155  1.00  0.00    -0.376 OA
BRANCH   5   6
ATOM      6  C   UNL A   1      35.929  22.825  26.311  1.00  0.00     0.202 C 
BRANCH   6   7
ATOM      7  C   UNL A   1      34.515  23.002  26.842  1.00  0.00     0.261 C 
BRANCH   7   8
ATOM      8  O   UNL A   1      33.888  24.083  26.169  1.00  0.00    -0.460 OA
BRANCH   8   9
ATOM      9  C   UNL A   1      32.474  24.117  26.043  1.00  0.00     0.338 C 
ATOM     10  O   UNL A   1      31.769  24.657  26.952  1.00  0.00    -0.246 OA
BRANCH   9  11
ATOM     11  C   UNL A   1      31.805  23.508  24.822  1.00  0.00     0.087 C 
ATOM     12  C   UNL A   1      31.239  24.315  23.883  1.00  0.00     0.027 C 
ATOM     13  C   UNL A   1      31.769  21.998  24.648  1.00  0.00     0.316 C 
ATOM     14  C   UNL A   1      31.276  25.824  24.056  1.00  0.00     0.019 A 
ATOM     15  O   UNL A   1      33.480  25.724  24.940  1.00  0.00    -0.475 OA
ATOM     16  C   UNL A   1      30.130  26.517  23.702  1.00  0.00     0.036 A 
ATOM     17  C   UNL A   1      32.378  26.462  24.430  1.00  0.00     0.128 A 
ATOM     18  C   UNL A   1      30.338  27.901  23.495  1.00  0.00     0.107 A 
ATOM     19  C   UNL A   1      32.464  27.829  24.328  1.00  0.00     0.048 A 
ATOM     20  C   UNL A   1      31.388  28.573  23.927  1.00  0.00     0.028 A 
BRANCH  13  21
ATOM     21  C   UNL A   1      32.481  21.618  23.360  1.00  0.00     0.430 C 
ATOM     22  F   UNL A   1      33.083  20.443  23.518  1.00  0.00    -0.167 F 
ATOM     23  F   UNL A   1      31.595  21.534  22.373  1.00  0.00    -0.167 F 
ATOM     24  F   UNL A   1      33.389  22.545  23.066  1.00  0.00    -0.167 F 
ENDBRANCH  13  21
BRANCH  18  25
ATOM     25  S   UNL A   1      29.076  28.813  22.573  1.00  0.00     0.310 S 
ATOM     26  F   UNL A   1      29.078  29.996  23.629  1.00  0.00    -0.094 F 
ATOM     27  F   UNL A   1      27.973  28.116  23.458  1.00  0.00    -0.094 F 
ATOM     28  F   UNL A   1      27.988  29.598  21.786  1.00  0.00    -0.094 F 
ATOM     29  F   UNL A   1      30.198  29.604  21.793  1.00  0.00    -0.094 F 
ATOM     30  F   UNL A   1      30.194  28.107  23.439  1.00  0.00    -0.094 F 
ENDBRANCH  18  25
ENDBRANCH   9  11
ENDBRANCH   8   9
ENDBRANCH   7   8
ENDBRANCH   6   7
ENDBRANCH   5   6
ENDBRANCH   4   5
ENDBRANCH   3   4
ENDBRANCH   2   3
ENDBRANCH   1   2
BRANCH   1  31
ATOM     31  C   UNL A   1      41.694  20.985  26.306  1.00  0.00     0.188 C 
BRANCH  31  32
ATOM     32  O   UNL A   1      41.536  19.827  27.112  1.00  0.00    -0.376 OA
BRANCH  32  33
ATOM     33  C   UNL A   1      42.681  18.998  26.978  1.00  0.00     0.202 C 
BRANCH  33  34
ATOM     34  C   UNL A   1      42.847  18.595  25.522  1.00  0.00     0.261 C 
BRANCH  34  35
ATOM     35  O   UNL A   1      44.228  18.537  25.201  1.00  0.00    -0.460 OA
BRANCH  35  36
ATOM     36  C   UNL A   1      44.769  19.418  24.227  1.00  0.00     0.338 C 
ATOM     37  O   UNL A   1      45.061  18.983  23.069  1.00  0.00    -0.246 OA
BRANCH  36  38
ATOM     38  C   UNL A   1      44.996  20.882  24.569  1.00  0.00     0.060 A 
ATOM     39  C   UNL A   1      45.548  21.171  25.805  1.00  0.00     0.016 A 
ATOM     40  C   UNL A   1      44.544  21.845  23.774  1.00  0.00     0.016 A 
ATOM     41  C   UNL A   1      45.316  22.497  26.242  1.00  0.00     0.010 A 
ATOM     42  C   UNL A   1      44.471  23.143  24.220  1.00  0.00     0.010 A 
ATOM     43  C   UNL A   1      44.945  23.490  25.454  1.00  0.00    -0.014 A 
BRANCH  43  44
ATOM     44  C   UNL A   1      45.039  24.940  25.898  1.00  0.00     0.031 A 
ATOM     45  C   UNL A   1      43.934  25.629  26.402  1.00  0.00     0.074 A 
ATOM     46  C   UNL A   1      46.320  25.462  25.850  1.00  0.00     0.049 A 
ATOM     47  N   UNL A   1      43.912  26.849  26.940  1.00  0.00    -0.248 NA
ATOM     48  C   UNL A   1      42.566  25.089  26.422  1.00  0.00     0.031 C 
ATOM     49  C   UNL A   1      47.442  24.772  25.351  1.00  0.00     0.029 A 
ATOM     50  N   UNL A   1      46.740  26.708  26.263  1.00  0.00    -0.354 N 
ATOM     51  C   UNL A   1      42.672  27.160  27.327  1.00  0.00     0.074 A 
ATOM     52  C   UNL A   1      41.788  26.035  26.993  1.00  0.00     0.031 C 
ATOM     53  C   UNL A   1      48.520  25.593  25.449  1.00  0.00     0.029 A 
ATOM     54  C   UNL A   1      48.091  26.810  26.012  1.00  0.00     0.049 A 
ATOM     55  H   UNL A   1      46.174  27.404  26.665  1.00  0.00     0.167 HD
ATOM     56  C   UNL A   1      42.246  28.336  27.946  1.00  0.00     0.031 A 
ATOM     57  C   UNL A   1      48.920  27.895  26.253  1.00  0.00     0.031 A 
ATOM     58  C   UNL A   1      43.082  29.404  28.227  1.00  0.00     0.049 A 
ATOM     59  C   UNL A   1      48.481  29.095  26.819  1.00  0.00     0.074 A 
ATOM     60  C   UNL A   1      42.670  30.594  28.856  1.00  0.00     0.029 A 
ATOM     61  N   UNL A   1      44.428  29.515  27.954  1.00  0.00    -0.354 N 
ATOM     62  N   UNL A   1      47.251  29.390  27.241  1.00  0.00    -0.248 NA
ATOM     63  C   UNL A   1      49.343  30.261  27.049  1.00  0.00     0.031 C 
ATOM     64  C   UNL A   1      43.749  31.415  28.955  1.00  0.00     0.029 A 
ATOM     65  C   UNL A   1      44.854  30.752  28.387  1.00  0.00     0.049 A 
ATOM     66  H   UNL A   1      44.989  28.829  27.524  1.00  0.00     0.167 HD
ATOM     67  C   UNL A   1      47.221  30.626  27.742  1.00  0.00     0.074 A 
ATOM     68  C   UNL A   1      48.564  31.208  27.618  1.00  0.00     0.031 C 
ATOM     69  C   UNL A   1      46.128  31.292  28.299  1.00  0.00     0.031 A 
BRANCH  56  70
ATOM     70  C   UNL A   1      40.781  28.451  28.334  1.00  0.00    -0.014 A 
ATOM     71  C   UNL A   1      40.425  27.947  29.574  1.00  0.00     0.009 A 
ATOM     72  C   UNL A   1      39.898  29.084  27.570  1.00  0.00     0.009 A 
ATOM     73  C   UNL A   1      39.030  27.907  29.799  1.00  0.00     0.001 A 
ATOM     74  C   UNL A   1      38.570  29.122  27.920  1.00  0.00     0.001 A 
ATOM     75  C   UNL A   1      38.139  28.592  29.103  1.00  0.00     0.000 A 
ENDBRANCH  56  70
BRANCH  57  76
ATOM     76  C   UNL A   1      50.388  27.772  25.880  1.00  0.00    -0.014 A 
ATOM     77  C   UNL A   1      51.334  27.406  26.824  1.00  0.00     0.009 A 
ATOM     78  C   UNL A   1      50.743  28.121  24.649  1.00  0.00     0.009 A 
ATOM     79  C   UNL A   1      52.663  27.722  26.455  1.00  0.00     0.001 A 
ATOM     80  C   UNL A   1      52.068  28.279  24.320  1.00  0.00     0.001 A 
ATOM     81  C   UNL A   1      53.054  27.993  25.223  1.00  0.00     0.000 A 
ENDBRANCH  57  76
BRANCH  69  82
ATOM     82  C   UNL A   1      46.348  32.693  28.844  1.00  0.00    -0.014 A 
ATOM     83  C   UNL A   1      46.181  33.738  27.951  1.00  0.00     0.009 A 
ATOM     84  C   UNL A   1      46.782  32.907  30.081  1.00  0.00     0.009 A 
ATOM     85  C   UNL A   1      46.779  34.951  28.369  1.00  0.00     0.001 A 
ATOM     86  C   UNL A   1      47.225  34.150  30.461  1.00  0.00     0.001 A 
ATOM     87  C   UNL A   1      47.145  35.216  29.609  1.00  0.00     0.000 A 
ENDBRANCH  69  82
ENDBRANCH  43  44
ENDBRANCH  36  38
ENDBRANCH  35  36
ENDBRANCH  34  35
ENDBRANCH  33  34
ENDBRANCH  32  33
ENDBRANCH  31  32
ENDBRANCH   1  31
TORSDOF 22
ENDMDL
MODEL 2
REMARK VINA RESULT:     -10.3      4.757      9.546
REMARK SMILES O=C(OCCOCCOCCOCCOC(=O)c1ccc(-c2c3nc(c(-c4ccccc4)c4ccc([nH]4)c(-c4ccccc4)c4nc(c(-c5ccccc5)c5ccc2[nH]5)C=C4)C=C3)cc1)C1=Cc2cc(S(F)(F)(F)(F)F)ccc2O[C@@H]1C(F)(F)F
REMARK SMILES IDX 10 1 9 2 8 3 7 4 6 5 5 6 4 7 3 8 2 9 1 10 66 11 67 12 81 13
REMARK SMILES IDX 68 14 80 15 69 16 79 17 70 18 78 19 77 20 82 21 83 22 84 23
REMARK SMILES IDX 85 24 71 25 72 26 73 27 74 28 75 29 76 30 11 31 12 32 13 33
REMARK SMILES IDX 14 34 15 35 16 36 17 37 18 38 19 39 65 40 20 41 64 42 21 43
REMARK SMILES IDX 22 44 23 45 58 46 24 47 63 48 57 49 59 50 25 51 62 52 56 53
REMARK SMILES IDX 55 54 26 56 48 57 33 58 47 59 34 60 37 61 46 62 60 63 35 64
REMARK SMILES IDX 36 65 45 67 61 68 38 69 27 70 28 71 32 72 29 73 31 74 30 75
REMARK SMILES IDX 49 76 50 77 54 78 51 79 53 80 52 81 39 82 40 83 44 84 41 85
REMARK SMILES IDX 43 86 42 87
REMARK H PARENT 59 55 37 66
REMARK Flexibility Score: inf
ROOT
ATOM      1  C   UNL A   1      33.364  28.494  26.988  1.00  0.00     0.188 C 
ENDROOT
BRANCH   1   2
ATOM      2  O   UNL A   1      33.376  27.401  26.081  1.00  0.00    -0.377 OA
BRANCH   2   3
ATOM      3  C   UNL A   1      32.067  27.199  25.568  1.00  0.00     0.188 C 
BRANCH   3   4
ATOM      4  C   UNL A   1      31.347  26.159  26.411  1.00  0.00     0.188 C 
BRANCH   4   5
ATOM      5  O   UNL A   1      31.568  24.868  25.862  1.00  0.00    -0.376 OA
BRANCH   5   6
ATOM      6  C   UNL A   1      30.648  23.949  26.430  1.00  0.00     0.202 C 
BRANCH   6   7
ATOM      7  C   UNL A   1      31.210  22.540  26.327  1.00  0.00     0.261 C 
BRANCH   7   8
ATOM      8  O   UNL A   1      32.554  22.532  26.786  1.00  0.00    -0.460 OA
BRANCH   8   9
ATOM      9  C   UNL A   1      33.435  21.495  26.383  1.00  0.00     0.338 C 
ATOM     10  O   UNL A   1      34.519  21.300  27.017  1.00  0.00    -0.246 OA
BRANCH   9  11
ATOM     11  C   UNL A   1      33.082  20.616  25.194  1.00  0.00     0.087 C 
ATOM     12  C   UNL A   1      32.999  21.159  23.949  1.00  0.00     0.027 C 
ATOM     13  C   UNL A   1      32.822  19.132  25.396  1.00  0.00     0.316 C 
ATOM     14  C   UNL A   1      33.260  22.642  23.747  1.00  0.00     0.019 A 
ATOM     15  O   UNL A   1      35.017  22.607  25.347  1.00  0.00    -0.475 OA
ATOM     16  C   UNL A   1      32.433  23.301  22.852  1.00  0.00     0.036 A 
ATOM     17  C   UNL A   1      34.288  23.258  24.317  1.00  0.00     0.128 A 
ATOM     18  C   UNL A   1      32.950  24.538  22.398  1.00  0.00     0.107 A 
ATOM     19  C   UNL A   1      34.654  24.521  23.919  1.00  0.00     0.048 A 
ATOM     20  C   UNL A   1      33.917  25.209  22.994  1.00  0.00     0.028 A 
BRANCH  13  21
ATOM     21  C   UNL A   1      33.818  18.326  24.578  1.00  0.00     0.430 C 
ATOM     22  F   UNL A   1      33.379  18.219  23.327  1.00  0.00    -0.167 F 
ATOM     23  F   UNL A   1      34.996  18.941  24.584  1.00  0.00    -0.167 F 
ATOM     24  F   UNL A   1      33.947  17.113  25.107  1.00  0.00    -0.167 F 
ENDBRANCH  13  21
BRANCH  18  25
ATOM     25  S   UNL A   1      32.233  25.248  20.896  1.00  0.00     0.310 S 
ATOM     26  F   UNL A   1      33.297  26.425  20.877  1.00  0.00    -0.094 F 
ATOM     27  F   UNL A   1      31.331  26.170  21.801  1.00  0.00    -0.094 F 
ATOM     28  F   UNL A   1      31.618  25.865  19.607  1.00  0.00    -0.094 F 
ATOM     29  F   UNL A   1      33.242  24.420  20.007  1.00  0.00    -0.094 F 
ATOM     30  F   UNL A   1      32.945  24.695  22.195  1.00  0.00    -0.094 F 
ENDBRANCH  18  25
ENDBRANCH   9  11
ENDBRANCH   8   9
ENDBRANCH   7   8
ENDBRANCH   6   7
ENDBRANCH   5   6
ENDBRANCH   4   5
ENDBRANCH   3   4
ENDBRANCH   2   3
ENDBRANCH   1   2
BRANCH   1  31
ATOM     31  C   UNL A   1      32.317  29.505  26.550  1.00  0.00     0.188 C 
BRANCH  31  32
ATOM     32  O   UNL A   1      32.646  30.783  27.075  1.00  0.00    -0.376 OA
BRANCH  32  33
ATOM     33  C   UNL A   1      31.552  31.668  26.884  1.00  0.00     0.202 C 
BRANCH  33  34
ATOM     34  C   UNL A   1      32.074  33.077  26.659  1.00  0.00     0.261 C 
BRANCH  34  35
ATOM     35  O   UNL A   1      31.995  33.811  27.872  1.00  0.00    -0.460 OA
BRANCH  35  36
ATOM     36  C   UNL A   1      33.149  34.458  28.387  1.00  0.00     0.338 C 
ATOM     37  O   UNL A   1      33.136  35.712  28.593  1.00  0.00    -0.246 OA
BRANCH  36  38
ATOM     38  C   UNL A   1      34.400  33.650  28.694  1.00  0.00     0.060 A 
ATOM     39  C   UNL A   1      34.362  32.807  29.792  1.00  0.00     0.016 A 
ATOM     40  C   UNL A   1      35.528  33.860  28.025  1.00  0.00     0.016 A 
ATOM     41  C   UNL A   1      35.639  32.451  30.287  1.00  0.00     0.010 A 
ATOM     42  C   UNL A   1      36.722  33.367  28.495  1.00  0.00     0.010 A 
ATOM     43  C   UNL A   1      36.766  32.575  29.608  1.00  0.00    -0.014 A 
BRANCH  43  44
ATOM     44  C   UNL A   1      38.042  31.874  30.043  1.00  0.00     0.031 A 
ATOM     45  C   UNL A   1      38.419  30.638  29.515  1.00  0.00     0.074 A 
ATOM     46  C   UNL A   1      38.823  32.614  30.914  1.00  0.00     0.049 A 
ATOM     47  N   UNL A   1      39.565  29.984  29.713  1.00  0.00    -0.248 NA
ATOM     48  C   UNL A   1      37.577  29.834  28.617  1.00  0.00     0.031 C 
ATOM     49  C   UNL A   1      38.454  33.866  31.445  1.00  0.00     0.029 A 
ATOM     50  N   UNL A   1      40.065  32.292  31.417  1.00  0.00    -0.354 N 
ATOM     51  C   UNL A   1      39.568  28.840  29.024  1.00  0.00     0.074 A 
ATOM     52  C   UNL A   1      38.287  28.725  28.314  1.00  0.00     0.031 C 
ATOM     53  C   UNL A   1      39.452  34.287  32.265  1.00  0.00     0.029 A 
ATOM     54  C   UNL A   1      40.463  33.306  32.260  1.00  0.00     0.049 A 
ATOM     55  H   UNL A   1      40.578  31.479  31.210  1.00  0.00     0.167 HD
ATOM     56  C   UNL A   1      40.589  27.892  28.958  1.00  0.00     0.031 A 
ATOM     57  C   UNL A   1      41.636  33.389  32.994  1.00  0.00     0.031 A 
ATOM     58  C   UNL A   1      41.781  27.995  29.657  1.00  0.00     0.049 A 
ATOM     59  C   UNL A   1      42.633  32.411  32.974  1.00  0.00     0.074 A 
ATOM     60  C   UNL A   1      42.824  27.051  29.597  1.00  0.00     0.029 A 
ATOM     61  N   UNL A   1      42.168  28.997  30.520  1.00  0.00    -0.354 N 
ATOM     62  N   UNL A   1      42.653  31.288  32.254  1.00  0.00    -0.248 NA
ATOM     63  C   UNL A   1      43.865  32.473  33.771  1.00  0.00     0.031 C 
ATOM     64  C   UNL A   1      43.823  27.473  30.417  1.00  0.00     0.029 A 
ATOM     65  C   UNL A   1      43.420  28.687  31.005  1.00  0.00     0.049 A 
ATOM     66  H   UNL A   1      41.642  29.797  30.749  1.00  0.00     0.167 HD
ATOM     67  C   UNL A   1      43.781  30.614  32.485  1.00  0.00     0.074 A 
ATOM     68  C   UNL A   1      44.574  31.363  33.470  1.00  0.00     0.031 C 
ATOM     69  C   UNL A   1      44.183  29.407  31.911  1.00  0.00     0.031 A 
BRANCH  56  70
ATOM     70  C   UNL A   1      40.383  26.676  28.069  1.00  0.00    -0.014 A 
ATOM     71  C   UNL A   1      39.681  25.616  28.619  1.00  0.00     0.009 A 
ATOM     72  C   UNL A   1      40.770  26.659  26.799  1.00  0.00     0.009 A 
ATOM     73  C   UNL A   1      39.686  24.449  27.821  1.00  0.00     0.001 A 
ATOM     74  C   UNL A   1      40.621  25.525  26.037  1.00  0.00     0.001 A 
ATOM     75  C   UNL A   1      39.990  24.421  26.536  1.00  0.00     0.000 A 
ENDBRANCH  56  70
BRANCH  57  76
ATOM     76  C   UNL A   1      41.849  34.614  33.869  1.00  0.00    -0.014 A 
ATOM     77  C   UNL A   1      42.547  35.713  33.397  1.00  0.00     0.009 A 
ATOM     78  C   UNL A   1      41.430  34.552  35.128  1.00  0.00     0.009 A 
ATOM     79  C   UNL A   1      43.010  36.579  34.417  1.00  0.00     0.001 A 
ATOM     80  C   UNL A   1      41.809  35.507  36.039  1.00  0.00     0.001 A 
ATOM     81  C   UNL A   1      42.550  36.591  35.655  1.00  0.00     0.000 A 
ENDBRANCH  57  76
BRANCH  69  82
ATOM     82  C   UNL A   1      45.541  28.847  32.303  1.00  0.00    -0.014 A 
ATOM     83  C   UNL A   1      45.574  28.030  33.421  1.00  0.00     0.009 A 
ATOM     84  C   UNL A   1      46.656  29.205  31.677  1.00  0.00     0.009 A 
ATOM     85  C   UNL A   1      46.866  27.874  33.978  1.00  0.00     0.001 A 
ATOM     86  C   UNL A   1      47.885  28.902  32.211  1.00  0.00     0.001 A 
ATOM     87  C   UNL A   1      47.992  28.148  33.346  1.00  0.00     0.000 A 
ENDBRANCH  69  82
ENDBRANCH  43  44
ENDBRANCH  36  38
ENDBRANCH  35  36
ENDBRANCH  34  35
ENDBRANCH  33  34
ENDBRANCH  32  33
ENDBRANCH  31  32
ENDBRANCH   1  31
TORSDOF 22
ENDMDL
MODEL 3
REMARK VINA RESULT:     -10.3      5.336      9.729
REMARK SMILES O=C(OCCOCCOCCOCCOC(=O)c1ccc(-c2c3nc(c(-c4ccccc4)c4ccc([nH]4)c(-c4ccccc4)c4nc(c(-c5ccccc5)c5ccc2[nH]5)C=C4)C=C3)cc1)C1=Cc2cc(S(F)(F)(F)(F)F)ccc2O[C@@H]1C(F)(F)F
REMARK SMILES IDX 10 1 9 2 8 3 7 4 6 5 5 6 4 7 3 8 2 9 1 10 66 11 67 12 81 13
REMARK SMILES IDX 68 14 80 15 69 16 79 17 70 18 78 19 77 20 82 21 83 22 84 23
REMARK SMILES IDX 85 24 71 25 72 26 73 27 74 28 75 29 76 30 11 31 12 32 13 33
REMARK SMILES IDX 14 34 15 35 16 36 17 37 18 38 19 39 65 40 20 41 64 42 21 43
REMARK SMILES IDX 22 44 23 45 58 46 24 47 63 48 57 49 59 50 25 51 62 52 56 53
REMARK SMILES IDX 55 54 26 56 48 57 33 58 47 59 34 60 37 61 46 62 60 63 35 64
REMARK SMILES IDX 36 65 45 67 61 68 38 69 27 70 28 71 32 72 29 73 31 74 30 75
REMARK SMILES IDX 49 76 50 77 54 78 51 79 53 80 52 81 39 82 40 83 44 84 41 85
REMARK SMILES IDX 43 86 42 87
REMARK H PARENT 59 55 37 66
REMARK Flexibility Score: inf
ROOT
ATOM      1  C   UNL A   1      33.148  28.459  27.175  1.00  0.00     0.188 C 
ENDROOT
BRANCH   1   2
ATOM      2  O   UNL A   1      33.644  27.582  26.174  1.00  0.00    -0.377 OA
BRANCH   2   3
ATOM      3  C   UNL A   1      32.556  27.005  25.468  1.00  0.00     0.188 C 
BRANCH   3   4
ATOM      4  C   UNL A   1      31.776  26.090  26.399  1.00  0.00     0.188 C 
BRANCH   4   5
ATOM      5  O   UNL A   1      32.069  24.736  26.088  1.00  0.00    -0.376 OA
BRANCH   5   6
ATOM      6  C   UNL A   1      30.977  23.915  26.475  1.00  0.00     0.202 C 
BRANCH   6   7
ATOM      7  C   UNL A   1      31.434  22.467  26.548  1.00  0.00     0.261 C 
BRANCH   7   8
ATOM      8  O   UNL A   1      32.821  22.423  26.848  1.00  0.00    -0.460 OA
BRANCH   8   9
ATOM      9  C   UNL A   1      33.625  21.369  26.337  1.00  0.00     0.338 C 
ATOM     10  O   UNL A   1      34.766  21.137  26.846  1.00  0.00    -0.246 OA
BRANCH   9  11
ATOM     11  C   UNL A   1      33.119  20.519  25.183  1.00  0.00     0.087 C 
ATOM     12  C   UNL A   1      32.973  21.069  23.947  1.00  0.00     0.027 C 
ATOM     13  C   UNL A   1      32.778  19.055  25.410  1.00  0.00     0.316 C 
ATOM     14  C   UNL A   1      33.314  22.532  23.720  1.00  0.00     0.019 A 
ATOM     15  O   UNL A   1      35.188  22.376  25.174  1.00  0.00    -0.475 OA
ATOM     16  C   UNL A   1      32.464  23.246  22.892  1.00  0.00     0.036 A 
ATOM     17  C   UNL A   1      34.424  23.077  24.204  1.00  0.00     0.128 A 
ATOM     18  C   UNL A   1      33.023  24.447  22.395  1.00  0.00     0.107 A 
ATOM     19  C   UNL A   1      34.840  24.314  23.774  1.00  0.00     0.048 A 
ATOM     20  C   UNL A   1      34.078  25.051  22.909  1.00  0.00     0.028 A 
BRANCH  13  21
ATOM     21  C   UNL A   1      33.649  18.187  24.517  1.00  0.00     0.430 C 
ATOM     22  F   UNL A   1      33.545  16.917  24.897  1.00  0.00    -0.167 F 
ATOM     23  F   UNL A   1      33.249  18.307  23.255  1.00  0.00    -0.167 F 
ATOM     24  F   UNL A   1      34.917  18.577  24.620  1.00  0.00    -0.167 F 
ENDBRANCH  13  21
BRANCH  18  25
ATOM     25  S   UNL A   1      32.237  25.207  20.952  1.00  0.00     0.310 S 
ATOM     26  F   UNL A   1      33.292  26.391  20.930  1.00  0.00    -0.094 F 
ATOM     27  F   UNL A   1      31.372  26.088  21.930  1.00  0.00    -0.094 F 
ATOM     28  F   UNL A   1      31.562  25.866  19.716  1.00  0.00    -0.094 F 
ATOM     29  F   UNL A   1      33.210  24.418  19.991  1.00  0.00    -0.094 F 
ATOM     30  F   UNL A   1      33.009  24.612  22.197  1.00  0.00    -0.094 F 
ENDBRANCH  18  25
ENDBRANCH   9  11
ENDBRANCH   8   9
ENDBRANCH   7   8
ENDBRANCH   6   7
ENDBRANCH   5   6
ENDBRANCH   4   5
ENDBRANCH   3   4
ENDBRANCH   2   3
ENDBRANCH   1   2
BRANCH   1  31
ATOM     31  C   UNL A   1      32.391  29.602  26.517  1.00  0.00     0.188 C 
BRANCH  31  32
ATOM     32  O   UNL A   1      32.646  30.806  27.224  1.00  0.00    -0.376 OA
BRANCH  32  33
ATOM     33  C   UNL A   1      31.637  31.757  26.917  1.00  0.00     0.202 C 
BRANCH  33  34
ATOM     34  C   UNL A   1      32.254  33.143  26.834  1.00  0.00     0.261 C 
BRANCH  34  35
ATOM     35  O   UNL A   1      32.161  33.780  28.099  1.00  0.00    -0.460 OA
BRANCH  35  36
ATOM     36  C   UNL A   1      33.268  34.509  28.610  1.00  0.00     0.338 C 
ATOM     37  O   UNL A   1      33.200  35.774  28.718  1.00  0.00    -0.246 OA
BRANCH  36  38
ATOM     38  C   UNL A   1      34.532  33.777  29.029  1.00  0.00     0.060 A 
ATOM     39  C   UNL A   1      34.387  32.665  29.841  1.00  0.00     0.016 A 
ATOM     40  C   UNL A   1      35.732  34.274  28.750  1.00  0.00     0.016 A 
ATOM     41  C   UNL A   1      35.560  32.315  30.551  1.00  0.00     0.010 A 
ATOM     42  C   UNL A   1      36.853  33.793  29.383  1.00  0.00     0.010 A 
ATOM     43  C   UNL A   1      36.775  32.733  30.242  1.00  0.00    -0.014 A 
BRANCH  43  44
ATOM     44  C   UNL A   1      38.018  32.071  30.813  1.00  0.00     0.031 A 
ATOM     45  C   UNL A   1      38.523  32.413  32.068  1.00  0.00     0.074 A 
ATOM     46  C   UNL A   1      38.523  31.048  30.028  1.00  0.00     0.049 A 
ATOM     47  N   UNL A   1      39.518  31.824  32.733  1.00  0.00    -0.248 NA
ATOM     48  C   UNL A   1      38.010  33.520  32.889  1.00  0.00     0.031 C 
ATOM     49  C   UNL A   1      38.014  30.691  28.764  1.00  0.00     0.029 A 
ATOM     50  N   UNL A   1      39.579  30.210  30.310  1.00  0.00    -0.354 N 
ATOM     51  C   UNL A   1      39.701  32.421  33.913  1.00  0.00     0.074 A 
ATOM     52  C   UNL A   1      38.737  33.525  34.027  1.00  0.00     0.031 C 
ATOM     53  C   UNL A   1      38.759  29.660  28.286  1.00  0.00     0.029 A 
ATOM     54  C   UNL A   1      39.746  29.355  29.243  1.00  0.00     0.049 A 
ATOM     55  H   UNL A   1      40.120  30.219  31.132  1.00  0.00     0.167 HD
ATOM     56  C   UNL A   1      40.631  32.087  34.899  1.00  0.00     0.031 A 
ATOM     57  C   UNL A   1      40.700  28.361  29.092  1.00  0.00     0.031 A 
ATOM     58  C   UNL A   1      41.557  31.065  34.767  1.00  0.00     0.049 A 
ATOM     59  C   UNL A   1      41.669  28.065  30.054  1.00  0.00     0.074 A 
ATOM     60  C   UNL A   1      42.497  30.711  35.753  1.00  0.00     0.029 A 
ATOM     61  N   UNL A   1      41.740  30.227  33.689  1.00  0.00    -0.354 N 
ATOM     62  N   UNL A   1      41.826  28.636  31.250  1.00  0.00    -0.248 NA
ATOM     63  C   UNL A   1      42.704  27.036  29.892  1.00  0.00     0.031 C 
ATOM     64  C   UNL A   1      43.243  29.679  35.275  1.00  0.00     0.029 A 
ATOM     65  C   UNL A   1      42.781  29.373  33.980  1.00  0.00     0.049 A 
ATOM     66  H   UNL A   1      41.217  30.236  32.855  1.00  0.00     0.167 HD
ATOM     67  C   UNL A   1      42.849  28.073  31.897  1.00  0.00     0.074 A 
ATOM     68  C   UNL A   1      43.433  27.042  31.030  1.00  0.00     0.031 C 
ATOM     69  C   UNL A   1      43.315  28.378  33.176  1.00  0.00     0.031 A 
BRANCH  56  70
ATOM     70  C   UNL A   1      40.628  32.891  36.189  1.00  0.00    -0.014 A 
ATOM     71  C   UNL A   1      41.478  33.983  36.242  1.00  0.00     0.009 A 
ATOM     72  C   UNL A   1      39.791  32.622  37.184  1.00  0.00     0.009 A 
ATOM     73  C   UNL A   1      41.575  34.573  37.524  1.00  0.00     0.001 A 
ATOM     74  C   UNL A   1      39.851  33.330  38.360  1.00  0.00     0.001 A 
ATOM     75  C   UNL A   1      40.708  34.384  38.503  1.00  0.00     0.000 A 
ENDBRANCH  56  70
BRANCH  57  76
ATOM     76  C   UNL A   1      40.691  27.547  27.809  1.00  0.00    -0.014 A 
ATOM     77  C   UNL A   1      39.988  26.355  27.727  1.00  0.00     0.009 A 
ATOM     78  C   UNL A   1      41.455  27.966  26.807  1.00  0.00     0.009 A 
ATOM     79  C   UNL A   1      40.389  25.527  26.651  1.00  0.00     0.001 A 
ATOM     80  C   UNL A   1      41.694  27.157  25.723  1.00  0.00     0.001 A 
ATOM     81  C   UNL A   1      41.080  25.941  25.605  1.00  0.00     0.000 A 
ENDBRANCH  57  76
BRANCH  69  82
ATOM     82  C   UNL A   1      44.480  27.568  33.723  1.00  0.00    -0.014 A 
ATOM     83  C   UNL A   1      45.747  27.963  33.328  1.00  0.00     0.009 A 
ATOM     84  C   UNL A   1      44.295  26.475  34.453  1.00  0.00     0.009 A 
ATOM     85  C   UNL A   1      46.740  26.970  33.511  1.00  0.00     0.001 A 
ATOM     86  C   UNL A   1      45.339  25.618  34.706  1.00  0.00     0.001 A 
ATOM     87  C   UNL A   1      46.608  25.916  34.294  1.00  0.00     0.000 A 
ENDBRANCH  69  82
ENDBRANCH  43  44
ENDBRANCH  36  38
ENDBRANCH  35  36
ENDBRANCH  34  35
ENDBRANCH  33  34
ENDBRANCH  32  33
ENDBRANCH  31  32
ENDBRANCH   1  31
TORSDOF 22
ENDMDL
