MODEL 1
REMARK VINA RESULT:     -10.1      0.000      0.000
REMARK SMILES O=C(CC[C@@H]1CN(c2ccncc2)CC[C@@H]1[NH+]1CCOCC1)OCCOCCOCCOCCOC(=O)c1ccc(-c2c3nc(c(-c4ccccc4)c4ccc([nH]4)c(-c4ccccc4)c4nc(c(-c5ccccc5)c5ccc2[nH]5)C=C4)C=C3)cc1
REMARK SMILES IDX 28 1 27 2 26 3 25 4 24 5 23 6 2 7 1 8 3 9 4 10 5 11 6 12
REMARK SMILES IDX 16 13 7 14 15 15 14 16 17 17 18 18 22 19 19 21 21 22 20 23
REMARK SMILES IDX 8 24 9 25 13 26 10 27 12 28 11 29 29 30 30 31 31 32 32 33
REMARK SMILES IDX 33 34 34 35 35 36 36 37 37 38 38 39 39 40 85 41 40 42 84 43
REMARK SMILES IDX 41 44 42 45 43 46 78 47 44 48 83 49 77 50 79 51 45 52 82 53
REMARK SMILES IDX 76 54 75 55 46 57 68 58 53 59 67 60 54 61 57 62 66 63 80 64
REMARK SMILES IDX 55 65 56 66 65 68 81 69 58 70 47 71 48 72 52 73 49 74 51 75
REMARK SMILES IDX 50 76 69 77 70 78 74 79 71 80 73 81 72 82 59 83 60 84 64 85
REMARK SMILES IDX 61 86 63 87 62 88
REMARK H PARENT 17 20 79 56 57 67
REMARK Flexibility Score: inf
ROOT
ATOM      1  C   UNL A   1      31.851  26.453  22.736  1.00  0.00     0.188 C 
ENDROOT
BRANCH   1   2
ATOM      2  C   UNL A   1      33.339  26.719  22.474  1.00  0.00     0.188 C 
BRANCH   2   3
ATOM      3  O   UNL A   1      34.117  25.537  22.287  1.00  0.00    -0.376 OA
BRANCH   3   4
ATOM      4  C   UNL A   1      33.456  24.342  22.691  1.00  0.00     0.202 C 
BRANCH   4   5
ATOM      5  C   UNL A   1      34.349  23.136  22.504  1.00  0.00     0.261 C 
BRANCH   5   6
ATOM      6  O   UNL A   1      35.723  23.391  22.835  1.00  0.00    -0.463 OA
BRANCH   6   7
ATOM      7  C   UNL A   1      36.346  23.179  24.014  1.00  0.00     0.305 C 
ATOM      8  O   UNL A   1      36.376  24.100  24.832  1.00  0.00    -0.252 OA
BRANCH   7   9
ATOM      9  C   UNL A   1      37.032  21.866  24.339  1.00  0.00     0.123 C 
BRANCH   9  10
ATOM     10  C   UNL A   1      36.173  20.814  25.039  1.00  0.00     0.023 C 
BRANCH  10  11
ATOM     11  C   UNL A   1      34.658  21.012  24.868  1.00  0.00     0.067 C 
ATOM     12  C   UNL A   1      34.037  21.752  26.052  1.00  0.00     0.126 C 
ATOM     13  C   UNL A   1      33.821  19.748  24.425  1.00  0.00     0.190 C 
ATOM     14  N   UNL A   1      32.659  22.061  25.691  1.00  0.00    -0.371 N 
ATOM     15  C   UNL A   1      32.346  20.156  24.235  1.00  0.00     0.087 C 
ATOM     16  C   UNL A   1      31.765  20.959  25.393  1.00  0.00     0.122 C 
BRANCH  13  17
ATOM     17  N   UNL A   1      34.090  18.485  25.143  1.00  0.00    -0.328 N 
ATOM     18  C   UNL A   1      34.935  17.523  24.390  1.00  0.00     0.291 C 
ATOM     19  C   UNL A   1      32.992  17.753  25.784  1.00  0.00     0.291 C 
ATOM     20  H   UNL A   1      34.599  18.895  25.925  1.00  0.00     0.348 HD
ATOM     21  C   UNL A   1      34.183  16.477  23.547  1.00  0.00     0.221 C 
ATOM     22  C   UNL A   1      32.287  16.695  24.910  1.00  0.00     0.221 C 
ATOM     23  O   UNL A   1      33.218  15.775  24.333  1.00  0.00    -0.370 OA
ENDBRANCH  13  17
BRANCH  14  24
ATOM     24  C   UNL A   1      32.138  23.306  25.967  1.00  0.00     0.040 A 
ATOM     25  C   UNL A   1      30.766  23.532  26.003  1.00  0.00     0.046 A 
ATOM     26  C   UNL A   1      32.990  24.389  26.180  1.00  0.00     0.046 A 
ATOM     27  C   UNL A   1      30.306  24.817  26.242  1.00  0.00     0.113 A 
ATOM     28  C   UNL A   1      32.440  25.643  26.392  1.00  0.00     0.113 A 
ATOM     29  N   UNL A   1      31.113  25.883  26.430  1.00  0.00    -0.265 NA
ENDBRANCH  14  24
ENDBRANCH  10  11
ENDBRANCH   9  10
ENDBRANCH   7   9
ENDBRANCH   6   7
ENDBRANCH   5   6
ENDBRANCH   4   5
ENDBRANCH   3   4
ENDBRANCH   2   3
ENDBRANCH   1   2
BRANCH   1  30
ATOM     30  O   UNL A   1      31.010  27.063  21.767  1.00  0.00    -0.377 OA
BRANCH  30  31
ATOM     31  C   UNL A   1      30.320  28.253  22.143  1.00  0.00     0.188 C 
BRANCH  31  32
ATOM     32  C   UNL A   1      29.883  28.515  23.601  1.00  0.00     0.188 C 
BRANCH  32  33
ATOM     33  O   UNL A   1      30.334  29.754  24.142  1.00  0.00    -0.376 OA
BRANCH  33  34
ATOM     34  C   UNL A   1      31.443  29.690  25.036  1.00  0.00     0.202 C 
BRANCH  34  35
ATOM     35  C   UNL A   1      31.540  30.881  26.000  1.00  0.00     0.261 C 
BRANCH  35  36
ATOM     36  O   UNL A   1      32.579  30.767  26.988  1.00  0.00    -0.460 OA
BRANCH  36  37
ATOM     37  C   UNL A   1      33.253  31.889  27.325  1.00  0.00     0.338 C 
ATOM     38  O   UNL A   1      32.802  33.021  27.365  1.00  0.00    -0.246 OA
BRANCH  37  39
ATOM     39  C   UNL A   1      34.570  31.491  27.890  1.00  0.00     0.060 A 
ATOM     40  C   UNL A   1      34.803  30.130  28.124  1.00  0.00     0.016 A 
ATOM     41  C   UNL A   1      35.591  32.422  28.119  1.00  0.00     0.016 A 
ATOM     42  C   UNL A   1      36.032  29.701  28.634  1.00  0.00     0.010 A 
ATOM     43  C   UNL A   1      36.820  31.994  28.631  1.00  0.00     0.010 A 
ATOM     44  C   UNL A   1      37.032  30.638  28.932  1.00  0.00    -0.014 A 
BRANCH  44  45
ATOM     45  C   UNL A   1      38.171  30.247  29.803  1.00  0.00     0.031 A 
ATOM     46  C   UNL A   1      39.219  29.341  29.208  1.00  0.00     0.074 A 
ATOM     47  C   UNL A   1      38.302  30.680  31.070  1.00  0.00     0.049 A 
ATOM     48  N   UNL A   1      40.292  28.835  29.758  1.00  0.00    -0.248 NA
ATOM     49  C   UNL A   1      39.022  28.954  27.801  1.00  0.00     0.031 C 
ATOM     50  C   UNL A   1      37.392  31.589  31.762  1.00  0.00     0.029 A 
ATOM     51  N   UNL A   1      39.271  30.396  32.004  1.00  0.00    -0.354 N 
ATOM     52  C   UNL A   1      40.895  28.072  28.766  1.00  0.00     0.074 A 
ATOM     53  C   UNL A   1      40.053  28.153  27.594  1.00  0.00     0.031 C 
ATOM     54  C   UNL A   1      37.843  31.785  33.016  1.00  0.00     0.029 A 
ATOM     55  C   UNL A   1      39.057  30.992  33.223  1.00  0.00     0.049 A 
ATOM     56  H   UNL A   1      40.046  29.819  31.816  1.00  0.00     0.167 HD
ATOM     57  C   UNL A   1      42.049  27.369  28.815  1.00  0.00     0.031 A 
ATOM     58  C   UNL A   1      39.751  30.895  34.375  1.00  0.00     0.031 A 
ATOM     59  C   UNL A   1      42.882  27.258  29.979  1.00  0.00     0.049 A 
ATOM     60  C   UNL A   1      40.986  30.030  34.433  1.00  0.00     0.074 A 
ATOM     61  C   UNL A   1      44.072  26.567  30.124  1.00  0.00     0.029 A 
ATOM     62  N   UNL A   1      42.604  27.843  31.202  1.00  0.00    -0.354 N 
ATOM     63  N   UNL A   1      41.563  29.341  33.478  1.00  0.00    -0.248 NA
ATOM     64  C   UNL A   1      41.670  29.937  35.734  1.00  0.00     0.031 C 
ATOM     65  C   UNL A   1      44.489  26.692  31.453  1.00  0.00     0.029 A 
ATOM     66  C   UNL A   1      43.587  27.508  32.117  1.00  0.00     0.049 A 
ATOM     67  H   UNL A   1      41.824  28.413  31.393  1.00  0.00     0.167 HD
ATOM     68  C   UNL A   1      42.688  28.760  34.054  1.00  0.00     0.074 A 
ATOM     69  C   UNL A   1      42.722  29.187  35.436  1.00  0.00     0.031 C 
ATOM     70  C   UNL A   1      43.612  27.946  33.488  1.00  0.00     0.031 A 
BRANCH  57  71
ATOM     71  C   UNL A   1      42.453  26.634  27.570  1.00  0.00    -0.014 A 
ATOM     72  C   UNL A   1      41.898  25.384  27.253  1.00  0.00     0.009 A 
ATOM     73  C   UNL A   1      43.394  27.204  26.701  1.00  0.00     0.009 A 
ATOM     74  C   UNL A   1      42.305  24.704  26.104  1.00  0.00     0.001 A 
ATOM     75  C   UNL A   1      43.779  26.534  25.539  1.00  0.00     0.001 A 
ATOM     76  C   UNL A   1      43.242  25.281  25.247  1.00  0.00     0.000 A 
ENDBRANCH  57  71
BRANCH  58  77
ATOM     77  C   UNL A   1      39.293  31.614  35.596  1.00  0.00    -0.014 A 
ATOM     78  C   UNL A   1      38.331  31.044  36.445  1.00  0.00     0.009 A 
ATOM     79  C   UNL A   1      39.774  32.900  35.887  1.00  0.00     0.009 A 
ATOM     80  C   UNL A   1      37.838  31.760  37.540  1.00  0.00     0.001 A 
ATOM     81  C   UNL A   1      39.300  33.602  36.998  1.00  0.00     0.001 A 
ATOM     82  C   UNL A   1      38.325  33.036  37.817  1.00  0.00     0.000 A 
ENDBRANCH  58  77
BRANCH  70  83
ATOM     83  C   UNL A   1      44.763  27.494  34.344  1.00  0.00    -0.014 A 
ATOM     84  C   UNL A   1      44.709  26.295  35.069  1.00  0.00     0.009 A 
ATOM     85  C   UNL A   1      45.942  28.258  34.379  1.00  0.00     0.009 A 
ATOM     86  C   UNL A   1      45.803  25.884  35.837  1.00  0.00     0.001 A 
ATOM     87  C   UNL A   1      47.042  27.830  35.124  1.00  0.00     0.001 A 
ATOM     88  C   UNL A   1      46.968  26.649  35.859  1.00  0.00     0.000 A 
ENDBRANCH  70  83
ENDBRANCH  44  45
ENDBRANCH  37  39
ENDBRANCH  36  37
ENDBRANCH  35  36
ENDBRANCH  34  35
ENDBRANCH  33  34
ENDBRANCH  32  33
ENDBRANCH  31  32
ENDBRANCH  30  31
ENDBRANCH   1  30
TORSDOF 24
ENDMDL
MODEL 2
REMARK VINA RESULT:      -9.9      2.708      8.615
REMARK SMILES O=C(CC[C@@H]1CN(c2ccncc2)CC[C@@H]1[NH+]1CCOCC1)OCCOCCOCCOCCOC(=O)c1ccc(-c2c3nc(c(-c4ccccc4)c4ccc([nH]4)c(-c4ccccc4)c4nc(c(-c5ccccc5)c5ccc2[nH]5)C=C4)C=C3)cc1
REMARK SMILES IDX 28 1 27 2 26 3 25 4 24 5 23 6 2 7 1 8 3 9 4 10 5 11 6 12
REMARK SMILES IDX 16 13 7 14 15 15 14 16 17 17 18 18 22 19 19 21 21 22 20 23
REMARK SMILES IDX 8 24 9 25 13 26 10 27 12 28 11 29 29 30 30 31 31 32 32 33
REMARK SMILES IDX 33 34 34 35 35 36 36 37 37 38 38 39 39 40 85 41 40 42 84 43
REMARK SMILES IDX 41 44 42 45 43 46 78 47 44 48 83 49 77 50 79 51 45 52 82 53
REMARK SMILES IDX 76 54 75 55 46 57 68 58 53 59 67 60 54 61 57 62 66 63 80 64
REMARK SMILES IDX 55 65 56 66 65 68 81 69 58 70 47 71 48 72 52 73 49 74 51 75
REMARK SMILES IDX 50 76 69 77 70 78 74 79 71 80 73 81 72 82 59 83 60 84 64 85
REMARK SMILES IDX 61 86 63 87 62 88
REMARK H PARENT 17 20 79 56 57 67
REMARK Flexibility Score: inf
ROOT
ATOM      1  C   UNL A   1      43.039  20.195  25.992  1.00  0.00     0.188 C 
ENDROOT
BRANCH   1   2
ATOM      2  C   UNL A   1      41.837  19.872  26.889  1.00  0.00     0.188 C 
BRANCH   2   3
ATOM      3  O   UNL A   1      40.574  20.202  26.309  1.00  0.00    -0.376 OA
BRANCH   3   4
ATOM      4  C   UNL A   1      39.979  21.376  26.853  1.00  0.00     0.202 C 
BRANCH   4   5
ATOM      5  C   UNL A   1      39.279  22.179  25.781  1.00  0.00     0.261 C 
BRANCH   5   6
ATOM      6  O   UNL A   1      37.862  21.950  25.735  1.00  0.00    -0.463 OA
BRANCH   6   7
ATOM      7  C   UNL A   1      36.880  22.859  25.559  1.00  0.00     0.305 C 
ATOM      8  O   UNL A   1      36.206  23.189  26.537  1.00  0.00    -0.252 OA
BRANCH   7   9
ATOM      9  C   UNL A   1      36.563  23.452  24.198  1.00  0.00     0.123 C 
BRANCH   9  10
ATOM     10  C   UNL A   1      35.326  22.898  23.495  1.00  0.00     0.023 C 
BRANCH  10  11
ATOM     11  C   UNL A   1      34.388  22.085  24.403  1.00  0.00     0.067 C 
ATOM     12  C   UNL A   1      33.831  20.849  23.696  1.00  0.00     0.126 C 
ATOM     13  C   UNL A   1      33.282  22.894  25.188  1.00  0.00     0.190 C 
ATOM     14  N   UNL A   1      33.132  20.058  24.701  1.00  0.00    -0.371 N 
ATOM     15  C   UNL A   1      32.493  21.928  26.096  1.00  0.00     0.087 C 
ATOM     16  C   UNL A   1      32.011  20.664  25.392  1.00  0.00     0.122 C 
BRANCH  13  17
ATOM     17  N   UNL A   1      32.507  23.888  24.417  1.00  0.00    -0.328 N 
ATOM     18  C   UNL A   1      33.105  25.247  24.397  1.00  0.00     0.291 C 
ATOM     19  C   UNL A   1      31.058  24.008  24.616  1.00  0.00     0.291 C 
ATOM     20  H   UNL A   1      32.592  23.430  23.510  1.00  0.00     0.348 HD
ATOM     21  C   UNL A   1      32.610  26.220  25.482  1.00  0.00     0.221 C 
ATOM     22  C   UNL A   1      30.608  25.016  25.693  1.00  0.00     0.221 C 
ATOM     23  O   UNL A   1      31.183  26.309  25.486  1.00  0.00    -0.370 OA
ENDBRANCH  13  17
BRANCH  14  24
ATOM     24  C   UNL A   1      33.298  18.691  24.737  1.00  0.00     0.040 A 
ATOM     25  C   UNL A   1      34.197  18.041  23.898  1.00  0.00     0.046 A 
ATOM     26  C   UNL A   1      32.525  17.916  25.602  1.00  0.00     0.046 A 
ATOM     27  C   UNL A   1      34.284  16.660  23.953  1.00  0.00     0.113 A 
ATOM     28  C   UNL A   1      32.666  16.538  25.573  1.00  0.00     0.113 A 
ATOM     29  N   UNL A   1      33.532  15.889  24.766  1.00  0.00    -0.265 NA
ENDBRANCH  14  24
ENDBRANCH  10  11
ENDBRANCH   9  10
ENDBRANCH   7   9
ENDBRANCH   6   7
ENDBRANCH   5   6
ENDBRANCH   4   5
ENDBRANCH   3   4
ENDBRANCH   2   3
ENDBRANCH   1   2
BRANCH   1  30
ATOM     30  O   UNL A   1      43.341  19.144  25.086  1.00  0.00    -0.377 OA
BRANCH  30  31
ATOM     31  C   UNL A   1      44.694  18.698  25.016  1.00  0.00     0.188 C 
BRANCH  31  32
ATOM     32  C   UNL A   1      45.775  19.490  24.248  1.00  0.00     0.188 C 
BRANCH  32  33
ATOM     33  O   UNL A   1      46.481  20.445  25.034  1.00  0.00    -0.376 OA
BRANCH  33  34
ATOM     34  C   UNL A   1      46.368  21.808  24.630  1.00  0.00     0.202 C 
BRANCH  34  35
ATOM     35  C   UNL A   1      45.784  22.734  25.708  1.00  0.00     0.261 C 
BRANCH  35  36
ATOM     36  O   UNL A   1      45.148  23.918  25.197  1.00  0.00    -0.460 OA
BRANCH  36  37
ATOM     37  C   UNL A   1      43.822  23.859  24.939  1.00  0.00     0.338 C 
ATOM     38  O   UNL A   1      43.257  23.040  24.236  1.00  0.00    -0.246 OA
BRANCH  37  39
ATOM     39  C   UNL A   1      43.125  24.798  25.858  1.00  0.00     0.060 A 
ATOM     40  C   UNL A   1      43.586  26.120  25.923  1.00  0.00     0.016 A 
ATOM     41  C   UNL A   1      41.993  24.418  26.589  1.00  0.00     0.016 A 
ATOM     42  C   UNL A   1      42.952  27.048  26.755  1.00  0.00     0.010 A 
ATOM     43  C   UNL A   1      41.360  25.346  27.423  1.00  0.00     0.010 A 
ATOM     44  C   UNL A   1      41.862  26.653  27.543  1.00  0.00    -0.014 A 
BRANCH  44  45
ATOM     45  C   UNL A   1      41.429  27.505  28.681  1.00  0.00     0.031 A 
ATOM     46  C   UNL A   1      42.187  27.369  29.976  1.00  0.00     0.074 A 
ATOM     47  C   UNL A   1      40.415  28.384  28.588  1.00  0.00     0.049 A 
ATOM     48  N   UNL A   1      41.996  27.974  31.120  1.00  0.00    -0.248 NA
ATOM     49  C   UNL A   1      43.312  26.419  29.976  1.00  0.00     0.031 C 
ATOM     50  C   UNL A   1      39.621  28.652  27.391  1.00  0.00     0.029 A 
ATOM     51  N   UNL A   1      39.880  29.219  29.541  1.00  0.00    -0.354 N 
ATOM     52  C   UNL A   1      42.974  27.476  31.972  1.00  0.00     0.074 A 
ATOM     53  C   UNL A   1      43.734  26.498  31.227  1.00  0.00     0.031 C 
ATOM     54  C   UNL A   1      38.694  29.584  27.683  1.00  0.00     0.029 A 
ATOM     55  C   UNL A   1      38.811  29.958  29.094  1.00  0.00     0.049 A 
ATOM     56  H   UNL A   1      40.231  29.282  30.459  1.00  0.00     0.167 HD
ATOM     57  C   UNL A   1      43.230  27.803  33.260  1.00  0.00     0.031 A 
ATOM     58  C   UNL A   1      38.012  30.821  29.753  1.00  0.00     0.031 A 
ATOM     59  C   UNL A   1      42.469  28.753  34.021  1.00  0.00     0.049 A 
ATOM     60  C   UNL A   1      38.258  31.101  31.215  1.00  0.00     0.074 A 
ATOM     61  C   UNL A   1      42.654  29.150  35.333  1.00  0.00     0.029 A 
ATOM     62  N   UNL A   1      41.370  29.445  33.541  1.00  0.00    -0.354 N 
ATOM     63  N   UNL A   1      39.207  30.649  32.000  1.00  0.00    -0.248 NA
ATOM     64  C   UNL A   1      37.321  32.021  31.881  1.00  0.00     0.031 C 
ATOM     65  C   UNL A   1      41.632  30.046  35.665  1.00  0.00     0.029 A 
ATOM     66  C   UNL A   1      40.849  30.248  34.540  1.00  0.00     0.049 A 
ATOM     67  H   UNL A   1      41.013  29.375  32.626  1.00  0.00     0.167 HD
ATOM     68  C   UNL A   1      38.998  31.250  33.236  1.00  0.00     0.074 A 
ATOM     69  C   UNL A   1      37.843  32.110  33.097  1.00  0.00     0.031 C 
ATOM     70  C   UNL A   1      39.702  31.104  34.386  1.00  0.00     0.031 A 
BRANCH  57  71
ATOM     71  C   UNL A   1      44.367  27.090  33.931  1.00  0.00    -0.014 A 
ATOM     72  C   UNL A   1      45.661  27.635  33.940  1.00  0.00     0.009 A 
ATOM     73  C   UNL A   1      44.139  25.862  34.569  1.00  0.00     0.009 A 
ATOM     74  C   UNL A   1      46.711  26.945  34.547  1.00  0.00     0.001 A 
ATOM     75  C   UNL A   1      45.186  25.188  35.198  1.00  0.00     0.001 A 
ATOM     76  C   UNL A   1      46.472  25.725  35.179  1.00  0.00     0.000 A 
ENDBRANCH  57  71
BRANCH  58  77
ATOM     77  C   UNL A   1      36.873  31.479  29.056  1.00  0.00    -0.014 A 
ATOM     78  C   UNL A   1      36.970  32.811  28.623  1.00  0.00     0.009 A 
ATOM     79  C   UNL A   1      35.660  30.796  28.873  1.00  0.00     0.009 A 
ATOM     80  C   UNL A   1      35.869  33.453  28.050  1.00  0.00     0.001 A 
ATOM     81  C   UNL A   1      34.569  31.431  28.275  1.00  0.00     0.001 A 
ATOM     82  C   UNL A   1      34.671  32.762  27.874  1.00  0.00     0.000 A 
ENDBRANCH  58  77
BRANCH  70  83
ATOM     83  C   UNL A   1      39.274  31.919  35.574  1.00  0.00    -0.014 A 
ATOM     84  C   UNL A   1      39.827  33.182  35.833  1.00  0.00     0.009 A 
ATOM     85  C   UNL A   1      38.260  31.435  36.417  1.00  0.00     0.009 A 
ATOM     86  C   UNL A   1      39.392  33.932  36.930  1.00  0.00     0.001 A 
ATOM     87  C   UNL A   1      37.808  32.199  37.495  1.00  0.00     0.001 A 
ATOM     88  C   UNL A   1      38.382  33.442  37.755  1.00  0.00     0.000 A 
ENDBRANCH  70  83
ENDBRANCH  44  45
ENDBRANCH  37  39
ENDBRANCH  36  37
ENDBRANCH  35  36
ENDBRANCH  34  35
ENDBRANCH  33  34
ENDBRANCH  32  33
ENDBRANCH  31  32
ENDBRANCH  30  31
ENDBRANCH   1  30
TORSDOF 24
ENDMDL
MODEL 3
REMARK VINA RESULT:      -9.7      2.600      7.966
REMARK SMILES O=C(CC[C@@H]1CN(c2ccncc2)CC[C@@H]1[NH+]1CCOCC1)OCCOCCOCCOCCOC(=O)c1ccc(-c2c3nc(c(-c4ccccc4)c4ccc([nH]4)c(-c4ccccc4)c4nc(c(-c5ccccc5)c5ccc2[nH]5)C=C4)C=C3)cc1
REMARK SMILES IDX 28 1 27 2 26 3 25 4 24 5 23 6 2 7 1 8 3 9 4 10 5 11 6 12
REMARK SMILES IDX 16 13 7 14 15 15 14 16 17 17 18 18 22 19 19 21 21 22 20 23
REMARK SMILES IDX 8 24 9 25 13 26 10 27 12 28 11 29 29 30 30 31 31 32 32 33
REMARK SMILES IDX 33 34 34 35 35 36 36 37 37 38 38 39 39 40 85 41 40 42 84 43
REMARK SMILES IDX 41 44 42 45 43 46 78 47 44 48 83 49 77 50 79 51 45 52 82 53
REMARK SMILES IDX 76 54 75 55 46 57 68 58 53 59 67 60 54 61 57 62 66 63 80 64
REMARK SMILES IDX 55 65 56 66 65 68 81 69 58 70 47 71 48 72 52 73 49 74 51 75
REMARK SMILES IDX 50 76 69 77 70 78 74 79 71 80 73 81 72 82 59 83 60 84 64 85
REMARK SMILES IDX 61 86 63 87 62 88
REMARK H PARENT 17 20 79 56 57 67
REMARK Flexibility Score: inf
ROOT
ATOM      1  C   UNL A   1      42.404  20.557  25.829  1.00  0.00     0.188 C 
ENDROOT
BRANCH   1   2
ATOM      2  C   UNL A   1      41.061  20.729  26.550  1.00  0.00     0.188 C 
BRANCH   2   3
ATOM      3  O   UNL A   1      40.206  21.710  25.961  1.00  0.00    -0.376 OA
BRANCH   3   4
ATOM      4  C   UNL A   1      39.484  22.489  26.910  1.00  0.00     0.202 C 
BRANCH   4   5
ATOM      5  C   UNL A   1      38.753  23.627  26.236  1.00  0.00     0.261 C 
BRANCH   5   6
ATOM      6  O   UNL A   1      37.418  23.285  25.834  1.00  0.00    -0.463 OA
BRANCH   6   7
ATOM      7  C   UNL A   1      37.035  22.383  24.906  1.00  0.00     0.305 C 
ATOM      8  O   UNL A   1      37.109  22.700  23.717  1.00  0.00    -0.252 OA
BRANCH   7   9
ATOM      9  C   UNL A   1      36.489  21.018  25.284  1.00  0.00     0.123 C 
BRANCH   9  10
ATOM     10  C   UNL A   1      35.052  20.989  25.801  1.00  0.00     0.023 C 
BRANCH  10  11
ATOM     11  C   UNL A   1      34.044  21.755  24.928  1.00  0.00     0.067 C 
ATOM     12  C   UNL A   1      33.100  22.619  25.763  1.00  0.00     0.126 C 
ATOM     13  C   UNL A   1      33.294  20.924  23.814  1.00  0.00     0.190 C 
ATOM     14  N   UNL A   1      32.339  23.444  24.833  1.00  0.00    -0.371 N 
ATOM     15  C   UNL A   1      32.389  21.869  22.998  1.00  0.00     0.087 C 
ATOM     16  C   UNL A   1      31.508  22.778  23.848  1.00  0.00     0.122 C 
BRANCH  13  17
ATOM     17  N   UNL A   1      32.727  19.622  24.220  1.00  0.00    -0.328 N 
ATOM     18  C   UNL A   1      33.700  18.709  24.873  1.00  0.00     0.291 C 
ATOM     19  C   UNL A   1      31.907  18.849  23.281  1.00  0.00     0.291 C 
ATOM     20  H   UNL A   1      32.051  19.987  24.891  1.00  0.00     0.348 HD
ATOM     21  C   UNL A   1      34.419  17.712  23.947  1.00  0.00     0.221 C 
ATOM     22  C   UNL A   1      32.667  17.842  22.394  1.00  0.00     0.221 C 
ATOM     23  O   UNL A   1      33.485  16.962  23.168  1.00  0.00    -0.370 OA
ENDBRANCH  13  17
BRANCH  14  24
ATOM     24  C   UNL A   1      32.137  24.780  25.104  1.00  0.00     0.040 A 
ATOM     25  C   UNL A   1      30.961  25.236  25.691  1.00  0.00     0.046 A 
ATOM     26  C   UNL A   1      33.107  25.719  24.753  1.00  0.00     0.046 A 
ATOM     27  C   UNL A   1      30.802  26.597  25.897  1.00  0.00     0.113 A 
ATOM     28  C   UNL A   1      32.851  27.061  24.978  1.00  0.00     0.113 A 
ATOM     29  N   UNL A   1      31.718  27.525  25.545  1.00  0.00    -0.265 NA
ENDBRANCH  14  24
ENDBRANCH  10  11
ENDBRANCH   9  10
ENDBRANCH   7   9
ENDBRANCH   6   7
ENDBRANCH   5   6
ENDBRANCH   4   5
ENDBRANCH   3   4
ENDBRANCH   2   3
ENDBRANCH   1   2
BRANCH   1  30
ATOM     30  O   UNL A   1      42.568  19.255  25.285  1.00  0.00    -0.377 OA
BRANCH  30  31
ATOM     31  C   UNL A   1      43.892  18.730  25.210  1.00  0.00     0.188 C 
BRANCH  31  32
ATOM     32  C   UNL A   1      45.029  19.485  24.486  1.00  0.00     0.188 C 
BRANCH  32  33
ATOM     33  O   UNL A   1      45.913  20.194  25.349  1.00  0.00    -0.376 OA
BRANCH  33  34
ATOM     34  C   UNL A   1      46.106  21.578  25.062  1.00  0.00     0.202 C 
BRANCH  34  35
ATOM     35  C   UNL A   1      45.659  22.519  26.191  1.00  0.00     0.261 C 
BRANCH  35  36
ATOM     36  O   UNL A   1      45.359  23.860  25.765  1.00  0.00    -0.460 OA
BRANCH  36  37
ATOM     37  C   UNL A   1      44.138  24.093  25.235  1.00  0.00     0.338 C 
ATOM     38  O   UNL A   1      43.638  23.516  24.285  1.00  0.00    -0.246 OA
BRANCH  37  39
ATOM     39  C   UNL A   1      43.392  24.993  26.154  1.00  0.00     0.060 A 
ATOM     40  C   UNL A   1      43.703  26.359  26.136  1.00  0.00     0.016 A 
ATOM     41  C   UNL A   1      42.355  24.525  26.971  1.00  0.00     0.016 A 
ATOM     42  C   UNL A   1      43.017  27.250  26.966  1.00  0.00     0.010 A 
ATOM     43  C   UNL A   1      41.669  25.417  27.802  1.00  0.00     0.010 A 
ATOM     44  C   UNL A   1      42.026  26.776  27.836  1.00  0.00    -0.014 A 
BRANCH  44  45
ATOM     45  C   UNL A   1      41.564  27.629  28.962  1.00  0.00     0.031 A 
ATOM     46  C   UNL A   1      42.322  27.532  30.261  1.00  0.00     0.074 A 
ATOM     47  C   UNL A   1      40.526  28.478  28.856  1.00  0.00     0.049 A 
ATOM     48  N   UNL A   1      42.111  28.145  31.397  1.00  0.00    -0.248 NA
ATOM     49  C   UNL A   1      43.475  26.614  30.276  1.00  0.00     0.031 C 
ATOM     50  C   UNL A   1      39.728  28.707  27.654  1.00  0.00     0.029 A 
ATOM     51  N   UNL A   1      39.964  29.308  29.797  1.00  0.00    -0.354 N 
ATOM     52  C   UNL A   1      43.100  27.686  32.258  1.00  0.00     0.074 A 
ATOM     53  C   UNL A   1      43.890  26.721  31.526  1.00  0.00     0.031 C 
ATOM     54  C   UNL A   1      38.773  29.615  27.932  1.00  0.00     0.029 A 
ATOM     55  C   UNL A   1      38.875  30.010  29.338  1.00  0.00     0.049 A 
ATOM     56  H   UNL A   1      40.310  29.392  30.715  1.00  0.00     0.167 HD
ATOM     57  C   UNL A   1      43.342  28.036  33.542  1.00  0.00     0.031 A 
ATOM     58  C   UNL A   1      38.049  30.857  29.984  1.00  0.00     0.031 A 
ATOM     59  C   UNL A   1      42.552  28.972  34.289  1.00  0.00     0.049 A 
ATOM     60  C   UNL A   1      38.283  31.163  31.443  1.00  0.00     0.074 A 
ATOM     61  C   UNL A   1      42.721  29.391  35.597  1.00  0.00     0.029 A 
ATOM     62  N   UNL A   1      41.435  29.626  33.798  1.00  0.00    -0.354 N 
ATOM     63  N   UNL A   1      39.242  30.747  32.236  1.00  0.00    -0.248 NA
ATOM     64  C   UNL A   1      37.317  32.063  32.096  1.00  0.00     0.031 C 
ATOM     65  C   UNL A   1      41.673  30.261  35.915  1.00  0.00     0.029 A 
ATOM     66  C   UNL A   1      40.887  30.426  34.785  1.00  0.00     0.049 A 
ATOM     67  H   UNL A   1      41.083  29.535  32.883  1.00  0.00     0.167 HD
ATOM     68  C   UNL A   1      39.012  31.358  33.464  1.00  0.00     0.074 A 
ATOM     69  C   UNL A   1      37.833  32.182  33.312  1.00  0.00     0.031 C 
ATOM     70  C   UNL A   1      39.717  31.247  34.617  1.00  0.00     0.031 A 
BRANCH  57  71
ATOM     71  C   UNL A   1      44.498  27.365  34.225  1.00  0.00    -0.014 A 
ATOM     72  C   UNL A   1      45.763  27.972  34.276  1.00  0.00     0.009 A 
ATOM     73  C   UNL A   1      44.316  26.113  34.831  1.00  0.00     0.009 A 
ATOM     74  C   UNL A   1      46.832  27.320  34.893  1.00  0.00     0.001 A 
ATOM     75  C   UNL A   1      45.380  25.477  35.471  1.00  0.00     0.001 A 
ATOM     76  C   UNL A   1      46.638  26.076  35.493  1.00  0.00     0.000 A 
ENDBRANCH  57  71
BRANCH  58  77
ATOM     77  C   UNL A   1      36.894  31.473  29.276  1.00  0.00    -0.014 A 
ATOM     78  C   UNL A   1      35.694  30.764  29.111  1.00  0.00     0.009 A 
ATOM     79  C   UNL A   1      37.006  32.752  28.709  1.00  0.00     0.009 A 
ATOM     80  C   UNL A   1      34.643  31.310  28.367  1.00  0.00     0.001 A 
ATOM     81  C   UNL A   1      35.945  33.308  27.991  1.00  0.00     0.001 A 
ATOM     82  C   UNL A   1      34.769  32.582  27.811  1.00  0.00     0.000 A 
ENDBRANCH  58  77
BRANCH  70  83
ATOM     83  C   UNL A   1      39.262  32.063  35.795  1.00  0.00    -0.014 A 
ATOM     84  C   UNL A   1      39.800  33.332  36.058  1.00  0.00     0.009 A 
ATOM     85  C   UNL A   1      38.236  31.575  36.622  1.00  0.00     0.009 A 
ATOM     86  C   UNL A   1      39.341  34.083  37.143  1.00  0.00     0.001 A 
ATOM     87  C   UNL A   1      37.760  32.340  37.688  1.00  0.00     0.001 A 
ATOM     88  C   UNL A   1      38.319  33.588  37.953  1.00  0.00     0.000 A 
ENDBRANCH  70  83
ENDBRANCH  44  45
ENDBRANCH  37  39
ENDBRANCH  36  37
ENDBRANCH  35  36
ENDBRANCH  34  35
ENDBRANCH  33  34
ENDBRANCH  32  33
ENDBRANCH  31  32
ENDBRANCH  30  31
ENDBRANCH   1  30
TORSDOF 24
ENDMDL
