MODEL 1
REMARK VINA RESULT:      -9.3      0.000      0.000
REMARK SMILES COc1ccc2c(c1)C=C(C(=O)OCCOCCOCCOCCOC(=O)c1ccc(-c3c4nc(c(-c5ccccc5)c5ccc([nH]5)c(-c5ccccc5)c5nc(c(-c6ccccc6)c6ccc3[nH]6)C=C5)C=C4)cc1)[C@H](C(F)(F)F)O2
REMARK SMILES IDX 20 1 19 2 18 3 17 4 16 5 15 6 14 7 13 8 11 9 12 10 10 11
REMARK SMILES IDX 3 12 4 13 8 14 5 15 7 16 6 17 9 18 81 19 76 20 2 21 1 22
REMARK SMILES IDX 77 23 78 24 79 25 80 26 21 27 22 28 23 29 24 30 25 31 26 32
REMARK SMILES IDX 27 33 28 34 29 35 75 36 30 37 74 38 31 39 32 40 33 41 68 42
REMARK SMILES IDX 34 43 73 44 67 45 69 46 35 47 72 48 66 49 65 50 36 52 58 53
REMARK SMILES IDX 43 54 57 55 44 56 47 57 56 58 70 59 45 60 46 61 55 63 71 64
REMARK SMILES IDX 48 65 37 66 38 67 42 68 39 69 41 70 40 71 59 72 60 73 64 74
REMARK SMILES IDX 61 75 63 76 62 77 49 78 50 79 54 80 51 81 53 82 52 83
REMARK H PARENT 69 51 47 62
REMARK Flexibility Score: inf
ROOT
ATOM      1  C   UNL A   1      32.739  28.435  24.891  1.00  0.00     0.188 C 
ENDROOT
BRANCH   1   2
ATOM      2  O   UNL A   1      32.035  29.245  23.954  1.00  0.00    -0.377 OA
BRANCH   2   3
ATOM      3  C   UNL A   1      30.630  29.099  23.823  1.00  0.00     0.188 C 
BRANCH   3   4
ATOM      4  C   UNL A   1      30.075  27.785  23.236  1.00  0.00     0.188 C 
BRANCH   4   5
ATOM      5  O   UNL A   1      30.648  27.420  21.991  1.00  0.00    -0.376 OA
BRANCH   5   6
ATOM      6  C   UNL A   1      31.508  26.296  21.954  1.00  0.00     0.202 C 
BRANCH   6   7
ATOM      7  C   UNL A   1      31.576  25.419  23.211  1.00  0.00     0.261 C 
BRANCH   7   8
ATOM      8  O   UNL A   1      32.897  25.120  23.683  1.00  0.00    -0.460 OA
BRANCH   8   9
ATOM      9  C   UNL A   1      33.001  24.446  24.851  1.00  0.00     0.338 C 
ATOM     10  O   UNL A   1      32.226  24.512  25.787  1.00  0.00    -0.246 OA
BRANCH   9  11
ATOM     11  C   UNL A   1      34.120  23.486  24.762  1.00  0.00     0.087 C 
ATOM     12  C   UNL A   1      38.637  22.080  25.726  1.00  0.00     0.119 A 
ATOM     13  C   UNL A   1      38.269  20.761  25.455  1.00  0.00     0.050 A 
ATOM     14  C   UNL A   1      37.683  23.101  25.626  1.00  0.00     0.058 A 
ATOM     15  C   UNL A   1      36.964  20.466  25.056  1.00  0.00     0.051 A 
ATOM     16  C   UNL A   1      36.370  22.808  25.247  1.00  0.00     0.021 A 
ATOM     17  C   UNL A   1      36.027  21.487  24.940  1.00  0.00     0.128 A 
ATOM     18  C   UNL A   1      35.315  23.818  25.285  1.00  0.00     0.027 C 
ATOM     19  O   UNL A   1      34.754  21.118  24.596  1.00  0.00    -0.475 OA
ATOM     20  C   UNL A   1      33.953  22.181  24.012  1.00  0.00     0.316 C 
BRANCH  12  21
ATOM     21  O   UNL A   1      39.872  22.483  26.158  1.00  0.00    -0.497 OA
ATOM     22  C   UNL A   1      40.390  21.814  27.303  1.00  0.00     0.278 C 
ENDBRANCH  12  21
BRANCH  20  23
ATOM     23  C   UNL A   1      32.537  21.630  23.773  1.00  0.00     0.430 C 
ATOM     24  F   UNL A   1      31.912  22.268  22.757  1.00  0.00    -0.167 F 
ATOM     25  F   UNL A   1      32.607  20.324  23.392  1.00  0.00    -0.167 F 
ATOM     26  F   UNL A   1      31.754  21.683  24.866  1.00  0.00    -0.167 F 
ENDBRANCH  20  23
ENDBRANCH   9  11
ENDBRANCH   8   9
ENDBRANCH   7   8
ENDBRANCH   6   7
ENDBRANCH   5   6
ENDBRANCH   4   5
ENDBRANCH   3   4
ENDBRANCH   2   3
ENDBRANCH   1   2
BRANCH   1  27
ATOM     27  C   UNL A   1      32.293  28.322  26.371  1.00  0.00     0.188 C 
BRANCH  27  28
ATOM     28  O   UNL A   1      31.892  29.544  26.967  1.00  0.00    -0.376 OA
BRANCH  28  29
ATOM     29  C   UNL A   1      32.882  30.536  27.173  1.00  0.00     0.202 C 
BRANCH  29  30
ATOM     30  C   UNL A   1      32.398  31.991  27.176  1.00  0.00     0.261 C 
BRANCH  30  31
ATOM     31  O   UNL A   1      33.424  32.995  27.218  1.00  0.00    -0.460 OA
BRANCH  31  32
ATOM     32  C   UNL A   1      33.351  33.909  28.209  1.00  0.00     0.338 C 
ATOM     33  O   UNL A   1      32.457  34.714  28.410  1.00  0.00    -0.246 OA
BRANCH  32  34
ATOM     34  C   UNL A   1      34.464  33.643  29.142  1.00  0.00     0.060 A 
ATOM     35  C   UNL A   1      35.763  34.038  28.791  1.00  0.00     0.016 A 
ATOM     36  C   UNL A   1      34.218  33.021  30.368  1.00  0.00     0.016 A 
ATOM     37  C   UNL A   1      36.827  33.777  29.654  1.00  0.00     0.010 A 
ATOM     38  C   UNL A   1      35.288  32.737  31.219  1.00  0.00     0.010 A 
ATOM     39  C   UNL A   1      36.601  33.080  30.847  1.00  0.00    -0.014 A 
BRANCH  39  40
ATOM     40  C   UNL A   1      37.747  32.510  31.593  1.00  0.00     0.031 A 
ATOM     41  C   UNL A   1      38.417  31.286  31.030  1.00  0.00     0.074 A 
ATOM     42  C   UNL A   1      38.202  33.070  32.728  1.00  0.00     0.049 A 
ATOM     43  N   UNL A   1      39.403  30.578  31.517  1.00  0.00    -0.248 NA
ATOM     44  C   UNL A   1      37.900  30.795  29.740  1.00  0.00     0.031 C 
ATOM     45  C   UNL A   1      37.678  34.285  33.347  1.00  0.00     0.029 A 
ATOM     46  N   UNL A   1      39.217  32.674  33.563  1.00  0.00    -0.354 N 
ATOM     47  C   UNL A   1      39.619  29.558  30.598  1.00  0.00     0.074 A 
ATOM     48  C   UNL A   1      38.641  29.716  29.545  1.00  0.00     0.031 C 
ATOM     49  C   UNL A   1      38.374  34.536  34.470  1.00  0.00     0.029 A 
ATOM     50  C   UNL A   1      39.365  33.478  34.667  1.00  0.00     0.049 A 
ATOM     51  H   UNL A   1      39.785  31.890  33.388  1.00  0.00     0.167 HD
ATOM     52  C   UNL A   1      40.556  28.581  30.621  1.00  0.00     0.031 A 
ATOM     53  C   UNL A   1      40.193  33.358  35.724  1.00  0.00     0.031 A 
ATOM     54  C   UNL A   1      41.514  28.409  31.678  1.00  0.00     0.049 A 
ATOM     55  C   UNL A   1      41.156  32.199  35.779  1.00  0.00     0.074 A 
ATOM     56  C   UNL A   1      42.502  27.448  31.799  1.00  0.00     0.029 A 
ATOM     57  N   UNL A   1      41.598  29.214  32.804  1.00  0.00    -0.354 N 
ATOM     58  N   UNL A   1      41.365  31.250  34.897  1.00  0.00    -0.248 NA
ATOM     59  C   UNL A   1      42.006  32.102  36.976  1.00  0.00     0.031 C 
ATOM     60  C   UNL A   1      43.143  27.634  33.028  1.00  0.00     0.029 A 
ATOM     61  C   UNL A   1      42.603  28.756  33.636  1.00  0.00     0.049 A 
ATOM     62  H   UNL A   1      41.026  29.995  32.984  1.00  0.00     0.167 HD
ATOM     63  C   UNL A   1      42.394  30.470  35.415  1.00  0.00     0.074 A 
ATOM     64  C   UNL A   1      42.775  31.064  36.679  1.00  0.00     0.031 C 
ATOM     65  C   UNL A   1      42.975  29.364  34.889  1.00  0.00     0.031 A 
BRANCH  52  66
ATOM     66  C   UNL A   1      40.559  27.602  29.481  1.00  0.00    -0.014 A 
ATOM     67  C   UNL A   1      39.596  26.585  29.388  1.00  0.00     0.009 A 
ATOM     68  C   UNL A   1      41.528  27.711  28.471  1.00  0.00     0.009 A 
ATOM     69  C   UNL A   1      39.624  25.676  28.327  1.00  0.00     0.001 A 
ATOM     70  C   UNL A   1      41.535  26.823  27.394  1.00  0.00     0.001 A 
ATOM     71  C   UNL A   1      40.590  25.800  27.329  1.00  0.00     0.000 A 
ENDBRANCH  52  66
BRANCH  53  72
ATOM     72  C   UNL A   1      40.142  34.345  36.837  1.00  0.00    -0.014 A 
ATOM     73  C   UNL A   1      39.262  34.162  37.916  1.00  0.00     0.009 A 
ATOM     74  C   UNL A   1      40.939  35.499  36.804  1.00  0.00     0.009 A 
ATOM     75  C   UNL A   1      39.160  35.130  38.919  1.00  0.00     0.001 A 
ATOM     76  C   UNL A   1      40.859  36.449  37.824  1.00  0.00     0.001 A 
ATOM     77  C   UNL A   1      39.961  36.270  38.875  1.00  0.00     0.000 A 
ENDBRANCH  53  72
BRANCH  65  78
ATOM     78  C   UNL A   1      44.123  28.754  35.649  1.00  0.00    -0.014 A 
ATOM     79  C   UNL A   1      45.443  29.193  35.468  1.00  0.00     0.009 A 
ATOM     80  C   UNL A   1      43.866  27.750  36.596  1.00  0.00     0.009 A 
ATOM     81  C   UNL A   1      46.487  28.610  36.191  1.00  0.00     0.001 A 
ATOM     82  C   UNL A   1      44.906  27.193  37.343  1.00  0.00     0.001 A 
ATOM     83  C   UNL A   1      46.216  27.616  37.132  1.00  0.00     0.000 A 
ENDBRANCH  65  78
ENDBRANCH  39  40
ENDBRANCH  32  34
ENDBRANCH  31  32
ENDBRANCH  30  31
ENDBRANCH  29  30
ENDBRANCH  28  29
ENDBRANCH  27  28
ENDBRANCH   1  27
TORSDOF 22
ENDMDL
MODEL 2
REMARK VINA RESULT:      -9.2      2.385      6.563
REMARK SMILES COc1ccc2c(c1)C=C(C(=O)OCCOCCOCCOCCOC(=O)c1ccc(-c3c4nc(c(-c5ccccc5)c5ccc([nH]5)c(-c5ccccc5)c5nc(c(-c6ccccc6)c6ccc3[nH]6)C=C5)C=C4)cc1)[C@H](C(F)(F)F)O2
REMARK SMILES IDX 20 1 19 2 18 3 17 4 16 5 15 6 14 7 13 8 11 9 12 10 10 11
REMARK SMILES IDX 3 12 4 13 8 14 5 15 7 16 6 17 9 18 81 19 76 20 2 21 1 22
REMARK SMILES IDX 77 23 78 24 79 25 80 26 21 27 22 28 23 29 24 30 25 31 26 32
REMARK SMILES IDX 27 33 28 34 29 35 75 36 30 37 74 38 31 39 32 40 33 41 68 42
REMARK SMILES IDX 34 43 73 44 67 45 69 46 35 47 72 48 66 49 65 50 36 52 58 53
REMARK SMILES IDX 43 54 57 55 44 56 47 57 56 58 70 59 45 60 46 61 55 63 71 64
REMARK SMILES IDX 48 65 37 66 38 67 42 68 39 69 41 70 40 71 59 72 60 73 64 74
REMARK SMILES IDX 61 75 63 76 62 77 49 78 50 79 54 80 51 81 53 82 52 83
REMARK H PARENT 69 51 47 62
REMARK Flexibility Score: inf
ROOT
ATOM      1  C   UNL A   1      34.549  32.428  28.578  1.00  0.00     0.188 C 
ENDROOT
BRANCH   1   2
ATOM      2  O   UNL A   1      33.908  31.413  27.809  1.00  0.00    -0.377 OA
BRANCH   2   3
ATOM      3  C   UNL A   1      34.630  30.242  27.461  1.00  0.00     0.188 C 
BRANCH   3   4
ATOM      4  C   UNL A   1      33.847  28.932  27.232  1.00  0.00     0.188 C 
BRANCH   4   5
ATOM      5  O   UNL A   1      34.097  28.320  25.978  1.00  0.00    -0.376 OA
BRANCH   5   6
ATOM      6  C   UNL A   1      33.142  27.403  25.479  1.00  0.00     0.202 C 
BRANCH   6   7
ATOM      7  C   UNL A   1      32.647  26.310  26.436  1.00  0.00     0.261 C 
BRANCH   7   8
ATOM      8  O   UNL A   1      33.114  24.983  26.151  1.00  0.00    -0.460 OA
BRANCH   8   9
ATOM      9  C   UNL A   1      32.317  23.954  26.514  1.00  0.00     0.338 C 
ATOM     10  O   UNL A   1      31.504  23.962  27.420  1.00  0.00    -0.246 OA
BRANCH   9  11
ATOM     11  C   UNL A   1      32.464  22.855  25.537  1.00  0.00     0.087 C 
ATOM     12  C   UNL A   1      33.798  18.384  24.297  1.00  0.00     0.119 A 
ATOM     13  C   UNL A   1      32.948  18.453  23.191  1.00  0.00     0.050 A 
ATOM     14  C   UNL A   1      33.888  19.474  25.171  1.00  0.00     0.058 A 
ATOM     15  C   UNL A   1      32.214  19.614  22.944  1.00  0.00     0.051 A 
ATOM     16  C   UNL A   1      33.139  20.632  24.939  1.00  0.00     0.021 A 
ATOM     17  C   UNL A   1      32.322  20.700  23.806  1.00  0.00     0.128 A 
ATOM     18  C   UNL A   1      33.087  21.722  25.910  1.00  0.00     0.027 C 
ATOM     19  O   UNL A   1      31.533  21.785  23.531  1.00  0.00    -0.475 OA
ATOM     20  C   UNL A   1      32.003  23.035  24.106  1.00  0.00     0.316 C 
BRANCH  12  21
ATOM     21  O   UNL A   1      34.537  17.290  24.660  1.00  0.00    -0.497 OA
ATOM     22  C   UNL A   1      33.830  16.058  24.766  1.00  0.00     0.278 C 
ENDBRANCH  12  21
BRANCH  20  23
ATOM     23  C   UNL A   1      30.964  24.123  23.784  1.00  0.00     0.430 C 
ATOM     24  F   UNL A   1      30.312  24.541  24.893  1.00  0.00    -0.167 F 
ATOM     25  F   UNL A   1      31.588  25.228  23.292  1.00  0.00    -0.167 F 
ATOM     26  F   UNL A   1      30.057  23.737  22.866  1.00  0.00    -0.167 F 
ENDBRANCH  20  23
ENDBRANCH   9  11
ENDBRANCH   8   9
ENDBRANCH   7   8
ENDBRANCH   6   7
ENDBRANCH   5   6
ENDBRANCH   4   5
ENDBRANCH   3   4
ENDBRANCH   2   3
ENDBRANCH   1   2
BRANCH   1  27
ATOM     27  C   UNL A   1      34.832  33.837  27.997  1.00  0.00     0.188 C 
BRANCH  27  28
ATOM     28  O   UNL A   1      34.812  34.888  28.947  1.00  0.00    -0.376 OA
BRANCH  28  29
ATOM     29  C   UNL A   1      34.000  36.015  28.669  1.00  0.00     0.202 C 
BRANCH  29  30
ATOM     30  C   UNL A   1      32.723  36.157  29.506  1.00  0.00     0.261 C 
BRANCH  30  31
ATOM     31  O   UNL A   1      32.550  35.195  30.558  1.00  0.00    -0.460 OA
BRANCH  31  32
ATOM     32  C   UNL A   1      32.723  35.630  31.825  1.00  0.00     0.338 C 
ATOM     33  O   UNL A   1      31.971  36.337  32.475  1.00  0.00    -0.246 OA
BRANCH  32  34
ATOM     34  C   UNL A   1      33.907  34.938  32.374  1.00  0.00     0.060 A 
ATOM     35  C   UNL A   1      35.152  35.582  32.345  1.00  0.00     0.016 A 
ATOM     36  C   UNL A   1      33.778  33.665  32.932  1.00  0.00     0.016 A 
ATOM     37  C   UNL A   1      36.282  34.934  32.842  1.00  0.00     0.010 A 
ATOM     38  C   UNL A   1      34.915  33.007  33.407  1.00  0.00     0.010 A 
ATOM     39  C   UNL A   1      36.177  33.625  33.329  1.00  0.00    -0.014 A 
BRANCH  39  40
ATOM     40  C   UNL A   1      37.402  32.819  33.541  1.00  0.00     0.031 A 
ATOM     41  C   UNL A   1      38.174  33.031  34.815  1.00  0.00     0.074 A 
ATOM     42  C   UNL A   1      37.813  31.907  32.644  1.00  0.00     0.049 A 
ATOM     43  N   UNL A   1      39.295  32.485  35.210  1.00  0.00    -0.248 NA
ATOM     44  C   UNL A   1      37.600  33.992  35.774  1.00  0.00     0.031 C 
ATOM     45  C   UNL A   1      37.126  31.567  31.399  1.00  0.00     0.029 A 
ATOM     46  N   UNL A   1      38.922  31.097  32.650  1.00  0.00    -0.354 N 
ATOM     47  C   UNL A   1      39.562  33.040  36.456  1.00  0.00     0.074 A 
ATOM     48  C   UNL A   1      38.508  33.991  36.735  1.00  0.00     0.031 C 
ATOM     49  C   UNL A   1      37.833  30.619  30.757  1.00  0.00     0.029 A 
ATOM     50  C   UNL A   1      39.039  30.315  31.527  1.00  0.00     0.049 A 
ATOM     51  H   UNL A   1      39.571  31.078  33.389  1.00  0.00     0.167 HD
ATOM     52  C   UNL A   1      40.587  32.776  37.299  1.00  0.00     0.031 A 
ATOM     53  C   UNL A   1      40.020  29.469  31.157  1.00  0.00     0.031 A 
ATOM     54  C   UNL A   1      41.648  31.850  37.013  1.00  0.00     0.049 A 
ATOM     55  C   UNL A   1      41.207  29.271  32.066  1.00  0.00     0.074 A 
ATOM     56  C   UNL A   1      42.736  31.514  37.798  1.00  0.00     0.029 A 
ATOM     57  N   UNL A   1      41.756  31.116  35.841  1.00  0.00    -0.354 N 
ATOM     58  N   UNL A   1      41.442  29.787  33.249  1.00  0.00    -0.248 NA
ATOM     59  C   UNL A   1      42.262  28.364  31.588  1.00  0.00     0.031 C 
ATOM     60  C   UNL A   1      43.536  30.623  37.076  1.00  0.00     0.029 A 
ATOM     61  C   UNL A   1      42.907  30.348  35.872  1.00  0.00     0.049 A 
ATOM     62  H   UNL A   1      41.111  31.138  35.098  1.00  0.00     0.167 HD
ATOM     63  C   UNL A   1      42.648  29.238  33.672  1.00  0.00     0.074 A 
ATOM     64  C   UNL A   1      43.088  28.340  32.625  1.00  0.00     0.031 C 
ATOM     65  C   UNL A   1      43.328  29.453  34.825  1.00  0.00     0.031 A 
BRANCH  52  66
ATOM     66  C   UNL A   1      40.625  33.534  38.597  1.00  0.00    -0.014 A 
ATOM     67  C   UNL A   1      41.473  34.638  38.775  1.00  0.00     0.009 A 
ATOM     68  C   UNL A   1      39.782  33.150  39.652  1.00  0.00     0.009 A 
ATOM     69  C   UNL A   1      41.502  35.320  39.994  1.00  0.00     0.001 A 
ATOM     70  C   UNL A   1      39.789  33.854  40.858  1.00  0.00     0.001 A 
ATOM     71  C   UNL A   1      40.656  34.931  41.031  1.00  0.00     0.000 A 
ENDBRANCH  52  66
BRANCH  53  72
ATOM     72  C   UNL A   1      39.946  28.753  29.854  1.00  0.00    -0.014 A 
ATOM     73  C   UNL A   1      39.467  27.435  29.787  1.00  0.00     0.009 A 
ATOM     74  C   UNL A   1      40.396  29.368  28.675  1.00  0.00     0.009 A 
ATOM     75  C   UNL A   1      39.472  26.739  28.575  1.00  0.00     0.001 A 
ATOM     76  C   UNL A   1      40.369  28.682  27.460  1.00  0.00     0.001 A 
ATOM     77  C   UNL A   1      39.919  27.363  27.413  1.00  0.00     0.000 A 
ENDBRANCH  53  72
BRANCH  65  78
ATOM     78  C   UNL A   1      44.591  28.663  35.043  1.00  0.00    -0.014 A 
ATOM     79  C   UNL A   1      44.570  27.384  35.621  1.00  0.00     0.009 A 
ATOM     80  C   UNL A   1      45.819  29.198  34.622  1.00  0.00     0.009 A 
ATOM     81  C   UNL A   1      45.759  26.675  35.807  1.00  0.00     0.001 A 
ATOM     82  C   UNL A   1      47.001  28.472  34.778  1.00  0.00     0.001 A 
ATOM     83  C   UNL A   1      46.972  27.217  35.380  1.00  0.00     0.000 A 
ENDBRANCH  65  78
ENDBRANCH  39  40
ENDBRANCH  32  34
ENDBRANCH  31  32
ENDBRANCH  30  31
ENDBRANCH  29  30
ENDBRANCH  28  29
ENDBRANCH  27  28
ENDBRANCH   1  27
TORSDOF 22
ENDMDL
MODEL 3
REMARK VINA RESULT:      -8.8      1.780      2.640
REMARK SMILES COc1ccc2c(c1)C=C(C(=O)OCCOCCOCCOCCOC(=O)c1ccc(-c3c4nc(c(-c5ccccc5)c5ccc([nH]5)c(-c5ccccc5)c5nc(c(-c6ccccc6)c6ccc3[nH]6)C=C5)C=C4)cc1)[C@H](C(F)(F)F)O2
REMARK SMILES IDX 20 1 19 2 18 3 17 4 16 5 15 6 14 7 13 8 11 9 12 10 10 11
REMARK SMILES IDX 3 12 4 13 8 14 5 15 7 16 6 17 9 18 81 19 76 20 2 21 1 22
REMARK SMILES IDX 77 23 78 24 79 25 80 26 21 27 22 28 23 29 24 30 25 31 26 32
REMARK SMILES IDX 27 33 28 34 29 35 75 36 30 37 74 38 31 39 32 40 33 41 68 42
REMARK SMILES IDX 34 43 73 44 67 45 69 46 35 47 72 48 66 49 65 50 36 52 58 53
REMARK SMILES IDX 43 54 57 55 44 56 47 57 56 58 70 59 45 60 46 61 55 63 71 64
REMARK SMILES IDX 48 65 37 66 38 67 42 68 39 69 41 70 40 71 59 72 60 73 64 74
REMARK SMILES IDX 61 75 63 76 62 77 49 78 50 79 54 80 51 81 53 82 52 83
REMARK H PARENT 69 51 47 62
REMARK Flexibility Score: inf
ROOT
ATOM      1  C   UNL A   1      32.681  28.673  25.088  1.00  0.00     0.188 C 
ENDROOT
BRANCH   1   2
ATOM      2  O   UNL A   1      32.120  29.195  23.886  1.00  0.00    -0.377 OA
BRANCH   2   3
ATOM      3  C   UNL A   1      30.710  29.217  23.726  1.00  0.00     0.188 C 
BRANCH   3   4
ATOM      4  C   UNL A   1      30.026  28.012  23.047  1.00  0.00     0.188 C 
BRANCH   4   5
ATOM      5  O   UNL A   1      30.795  27.415  22.016  1.00  0.00    -0.376 OA
BRANCH   5   6
ATOM      6  C   UNL A   1      31.353  26.136  22.254  1.00  0.00     0.202 C 
BRANCH   6   7
ATOM      7  C   UNL A   1      31.253  25.577  23.679  1.00  0.00     0.261 C 
BRANCH   7   8
ATOM      8  O   UNL A   1      31.951  24.344  23.908  1.00  0.00    -0.460 OA
BRANCH   8   9
ATOM      9  C   UNL A   1      32.193  23.997  25.192  1.00  0.00     0.338 C 
ATOM     10  O   UNL A   1      31.752  24.555  26.180  1.00  0.00    -0.246 OA
BRANCH   9  11
ATOM     11  C   UNL A   1      32.952  22.730  25.220  1.00  0.00     0.087 C 
ATOM     12  C   UNL A   1      33.258  17.918  24.988  1.00  0.00     0.119 A 
ATOM     13  C   UNL A   1      34.618  18.033  24.689  1.00  0.00     0.050 A 
ATOM     14  C   UNL A   1      32.493  19.073  25.193  1.00  0.00     0.058 A 
ATOM     15  C   UNL A   1      35.216  19.293  24.623  1.00  0.00     0.051 A 
ATOM     16  C   UNL A   1      33.083  20.337  25.108  1.00  0.00     0.021 A 
ATOM     17  C   UNL A   1      34.454  20.434  24.847  1.00  0.00     0.128 A 
ATOM     18  C   UNL A   1      32.288  21.562  25.158  1.00  0.00     0.027 C 
ATOM     19  O   UNL A   1      35.094  21.638  24.714  1.00  0.00    -0.475 OA
ATOM     20  C   UNL A   1      34.455  22.743  25.409  1.00  0.00     0.316 C 
BRANCH  12  21
ATOM     21  O   UNL A   1      32.558  16.743  25.043  1.00  0.00    -0.497 OA
ATOM     22  C   UNL A   1      33.326  15.559  25.227  1.00  0.00     0.278 C 
ENDBRANCH  12  21
BRANCH  20  23
ATOM     23  C   UNL A   1      35.242  24.024  25.083  1.00  0.00     0.430 C 
ATOM     24  F   UNL A   1      36.570  23.864  25.281  1.00  0.00    -0.167 F 
ATOM     25  F   UNL A   1      35.106  24.328  23.763  1.00  0.00    -0.167 F 
ATOM     26  F   UNL A   1      34.825  25.097  25.783  1.00  0.00    -0.167 F 
ENDBRANCH  20  23
ENDBRANCH   9  11
ENDBRANCH   8   9
ENDBRANCH   7   8
ENDBRANCH   6   7
ENDBRANCH   5   6
ENDBRANCH   4   5
ENDBRANCH   3   4
ENDBRANCH   2   3
ENDBRANCH   1   2
BRANCH   1  27
ATOM     27  C   UNL A   1      32.089  29.010  26.480  1.00  0.00     0.188 C 
BRANCH  27  28
ATOM     28  O   UNL A   1      31.728  30.369  26.661  1.00  0.00    -0.376 OA
BRANCH  28  29
ATOM     29  C   UNL A   1      32.619  31.199  27.383  1.00  0.00     0.202 C 
BRANCH  29  30
ATOM     30  C   UNL A   1      32.594  32.692  27.035  1.00  0.00     0.261 C 
BRANCH  30  31
ATOM     31  O   UNL A   1      33.725  33.460  27.473  1.00  0.00    -0.460 OA
BRANCH  31  32
ATOM     32  C   UNL A   1      33.635  34.056  28.681  1.00  0.00     0.338 C 
ATOM     33  O   UNL A   1      32.683  34.669  29.136  1.00  0.00    -0.246 OA
BRANCH  32  34
ATOM     34  C   UNL A   1      34.834  33.676  29.455  1.00  0.00     0.060 A 
ATOM     35  C   UNL A   1      36.096  34.102  29.019  1.00  0.00     0.016 A 
ATOM     36  C   UNL A   1      34.705  32.916  30.619  1.00  0.00     0.016 A 
ATOM     37  C   UNL A   1      37.239  33.735  29.728  1.00  0.00     0.010 A 
ATOM     38  C   UNL A   1      35.851  32.528  31.315  1.00  0.00     0.010 A 
ATOM     39  C   UNL A   1      37.125  32.905  30.850  1.00  0.00    -0.014 A 
BRANCH  39  40
ATOM     40  C   UNL A   1      38.331  32.245  31.401  1.00  0.00     0.031 A 
ATOM     41  C   UNL A   1      38.897  31.070  30.650  1.00  0.00     0.074 A 
ATOM     42  C   UNL A   1      38.928  32.682  32.523  1.00  0.00     0.049 A 
ATOM     43  N   UNL A   1      39.912  30.300  30.950  1.00  0.00    -0.248 NA
ATOM     44  C   UNL A   1      38.223  30.716  29.388  1.00  0.00     0.031 C 
ATOM     45  C   UNL A   1      38.513  33.841  33.311  1.00  0.00     0.029 A 
ATOM     46  N   UNL A   1      40.020  32.190  33.194  1.00  0.00    -0.354 N 
ATOM     47  C   UNL A   1      39.993  29.371  29.920  1.00  0.00     0.074 A 
ATOM     48  C   UNL A   1      38.905  29.648  29.007  1.00  0.00     0.031 C 
ATOM     49  C   UNL A   1      39.340  33.969  34.365  1.00  0.00     0.029 A 
ATOM     50  C   UNL A   1      40.316  32.879  34.344  1.00  0.00     0.049 A 
ATOM     51  H   UNL A   1      40.542  31.416  32.880  1.00  0.00     0.167 HD
ATOM     52  C   UNL A   1      40.897  28.380  29.742  1.00  0.00     0.031 A 
ATOM     53  C   UNL A   1      41.255  32.642  35.282  1.00  0.00     0.031 A 
ATOM     54  C   UNL A   1      41.964  28.088  30.659  1.00  0.00     0.049 A 
ATOM     55  C   UNL A   1      42.185  31.467  35.115  1.00  0.00     0.074 A 
ATOM     56  C   UNL A   1      42.931  27.103  30.573  1.00  0.00     0.029 A 
ATOM     57  N   UNL A   1      42.198  28.778  31.839  1.00  0.00    -0.354 N 
ATOM     58  N   UNL A   1      42.264  30.604  34.129  1.00  0.00    -0.248 NA
ATOM     59  C   UNL A   1      43.161  31.238  36.190  1.00  0.00     0.031 C 
ATOM     60  C   UNL A   1      43.713  27.157  31.731  1.00  0.00     0.029 A 
ATOM     61  C   UNL A   1      43.278  28.224  32.502  1.00  0.00     0.049 A 
ATOM     62  H   UNL A   1      41.673  29.548  32.157  1.00  0.00     0.167 HD
ATOM     63  C   UNL A   1      43.323  29.759  34.447  1.00  0.00     0.074 A 
ATOM     64  C   UNL A   1      43.861  30.221  35.709  1.00  0.00     0.031 C 
ATOM     65  C   UNL A   1      43.808  28.699  33.754  1.00  0.00     0.031 A 
BRANCH  52  66
ATOM     66  C   UNL A   1      40.742  27.516  28.521  1.00  0.00    -0.014 A 
ATOM     67  C   UNL A   1      41.357  27.851  27.305  1.00  0.00     0.009 A 
ATOM     68  C   UNL A   1      39.984  26.336  28.595  1.00  0.00     0.009 A 
ATOM     69  C   UNL A   1      41.189  27.041  26.179  1.00  0.00     0.001 A 
ATOM     70  C   UNL A   1      39.845  25.511  27.477  1.00  0.00     0.001 A 
ATOM     71  C   UNL A   1      40.438  25.870  26.268  1.00  0.00     0.000 A 
ENDBRANCH  52  66
BRANCH  53  72
ATOM     72  C   UNL A   1      41.359  33.516  36.481  1.00  0.00    -0.014 A 
ATOM     73  C   UNL A   1      42.259  34.594  36.506  1.00  0.00     0.009 A 
ATOM     74  C   UNL A   1      40.592  33.251  37.627  1.00  0.00     0.009 A 
ATOM     75  C   UNL A   1      42.411  35.365  37.662  1.00  0.00     0.001 A 
ATOM     76  C   UNL A   1      40.723  34.043  38.769  1.00  0.00     0.001 A 
ATOM     77  C   UNL A   1      41.641  35.091  38.790  1.00  0.00     0.000 A 
ENDBRANCH  53  72
BRANCH  65  78
ATOM     78  C   UNL A   1      45.016  27.998  34.316  1.00  0.00    -0.014 A 
ATOM     79  C   UNL A   1      46.320  28.419  34.011  1.00  0.00     0.009 A 
ATOM     80  C   UNL A   1      44.840  26.923  35.200  1.00  0.00     0.009 A 
ATOM     81  C   UNL A   1      47.422  27.750  34.550  1.00  0.00     0.001 A 
ATOM     82  C   UNL A   1      45.942  26.278  35.765  1.00  0.00     0.001 A 
ATOM     83  C   UNL A   1      47.231  26.685  35.431  1.00  0.00     0.000 A 
ENDBRANCH  65  78
ENDBRANCH  39  40
ENDBRANCH  32  34
ENDBRANCH  31  32
ENDBRANCH  30  31
ENDBRANCH  29  30
ENDBRANCH  28  29
ENDBRANCH  27  28
ENDBRANCH   1  27
TORSDOF 22
ENDMDL
