MODEL 1
REMARK VINA RESULT:      -8.7      0.000      0.000
REMARK SMILES CCOC(=O)C1CCN(c2cc(NCC(=O)OCCOCCOCCOCCOC(=O)c3ccc(-c4c5nc(c(-c6ccccc6)c6ccc([nH]6)c(-c6ccccc6)c6nc(c(-c7ccccc7)c7ccc4[nH]7)C=C6)C=C5)cc3)c3c4c(onc24)-c2ccccc2C3=O)CC1
REMARK SMILES IDX 21 1 20 2 19 3 18 4 17 5 15 6 16 7 14 8 13 9 12 11 10 12
REMARK SMILES IDX 11 13 85 14 81 15 84 16 80 17 82 18 83 19 92 20 86 21 91 22
REMARK SMILES IDX 93 23 87 24 90 25 88 26 89 27 9 28 6 29 7 30 95 31 8 32
REMARK SMILES IDX 94 33 4 34 5 35 3 36 2 37 1 38 22 39 23 40 24 41 25 42 26 43
REMARK SMILES IDX 27 44 28 45 29 46 30 47 31 48 32 49 33 50 79 51 34 52 78 53
REMARK SMILES IDX 35 54 36 55 37 56 72 57 38 58 77 59 71 60 73 61 39 62 76 63
REMARK SMILES IDX 70 64 69 65 40 67 62 68 47 69 61 70 48 71 51 72 60 73 74 74
REMARK SMILES IDX 49 75 50 76 59 78 75 79 52 80 41 81 42 82 46 83 43 84 45 85
REMARK SMILES IDX 44 86 63 87 64 88 68 89 65 90 67 91 66 92 53 93 54 94 58 95
REMARK SMILES IDX 55 96 57 97 56 98
REMARK H PARENT 13 10 73 66 51 77
REMARK Flexibility Score: inf
ROOT
ATOM      1  C   UNL A   1      45.047  23.762  25.664  1.00  0.00     0.188 C 
ENDROOT
BRANCH   1   2
ATOM      2  O   UNL A   1      44.717  22.782  24.692  1.00  0.00    -0.376 OA
BRANCH   2   3
ATOM      3  C   UNL A   1      43.953  21.675  25.146  1.00  0.00     0.202 C 
BRANCH   3   4
ATOM      4  C   UNL A   1      44.593  20.272  25.162  1.00  0.00     0.261 C 
BRANCH   4   5
ATOM      5  O   UNL A   1      43.900  19.279  25.932  1.00  0.00    -0.462 OA
BRANCH   5   6
ATOM      6  C   UNL A   1      42.551  19.363  26.051  1.00  0.00     0.325 C 
ATOM      7  O   UNL A   1      41.766  19.242  25.115  1.00  0.00    -0.250 OA
BRANCH   6   8
ATOM      8  C   UNL A   1      42.091  19.459  27.507  1.00  0.00     0.236 C 
BRANCH   8   9
ATOM      9  N   UNL A   1      42.212  20.782  28.117  1.00  0.00    -0.374 N 
ATOM     10  H   UNL A   1      42.843  20.862  28.867  1.00  0.00     0.161 HD
BRANCH   9  11
ATOM     11  C   UNL A   1      41.535  21.936  27.753  1.00  0.00     0.049 A 
ATOM     12  C   UNL A   1      39.455  22.949  26.608  1.00  0.00     0.069 A 
ATOM     13  C   UNL A   1      40.289  21.855  27.016  1.00  0.00     0.054 A 
ATOM     14  C   UNL A   1      40.011  24.197  26.984  1.00  0.00     0.138 A 
ATOM     15  C   UNL A   1      41.216  24.223  27.721  1.00  0.00     0.065 A 
ATOM     16  N   UNL A   1      39.590  25.478  26.832  1.00  0.00    -0.077 NA
ATOM     17  C   UNL A   1      42.019  23.198  28.174  1.00  0.00     0.059 A 
ATOM     18  C   UNL A   1      41.477  25.510  28.042  1.00  0.00     0.176 A 
ATOM     19  O   UNL A   1      40.515  26.294  27.504  1.00  0.00    -0.355 OA
ATOM     20  C   UNL A   1      43.177  23.544  29.053  1.00  0.00     0.196 C 
ATOM     21  C   UNL A   1      42.558  25.998  28.854  1.00  0.00     0.032 A 
ATOM     22  C   UNL A   1      43.427  25.005  29.366  1.00  0.00     0.034 A 
ATOM     23  O   UNL A   1      43.887  22.679  29.548  1.00  0.00    -0.288 OA
ATOM     24  C   UNL A   1      42.765  27.341  29.162  1.00  0.00     0.013 A 
ATOM     25  C   UNL A   1      44.500  25.373  30.182  1.00  0.00     0.013 A 
ATOM     26  C   UNL A   1      43.840  27.700  29.979  1.00  0.00     0.001 A 
ATOM     27  C   UNL A   1      44.703  26.722  30.486  1.00  0.00     0.001 A 
BRANCH  12  28
ATOM     28  N   UNL A   1      38.231  22.765  26.003  1.00  0.00    -0.370 N 
ATOM     29  C   UNL A   1      35.937  22.761  24.305  1.00  0.00     0.103 C 
ATOM     30  C   UNL A   1      37.120  21.815  24.049  1.00  0.00     0.037 C 
ATOM     31  C   UNL A   1      36.325  23.974  25.154  1.00  0.00     0.037 C 
ATOM     32  C   UNL A   1      37.976  21.526  25.283  1.00  0.00     0.117 C 
ATOM     33  C   UNL A   1      37.088  23.567  26.410  1.00  0.00     0.117 C 
BRANCH  29  34
ATOM     34  C   UNL A   1      34.703  22.106  24.896  1.00  0.00     0.309 C 
ATOM     35  O   UNL A   1      34.766  21.171  25.687  1.00  0.00    -0.252 OA
BRANCH  34  36
ATOM     36  O   UNL A   1      33.550  22.616  24.398  1.00  0.00    -0.466 OA
BRANCH  36  37
ATOM     37  C   UNL A   1      33.465  22.698  22.968  1.00  0.00     0.229 C 
ATOM     38  C   UNL A   1      32.970  24.067  22.538  1.00  0.00     0.049 C 
ENDBRANCH  36  37
ENDBRANCH  34  36
ENDBRANCH  29  34
ENDBRANCH  12  28
ENDBRANCH   9  11
ENDBRANCH   8   9
ENDBRANCH   6   8
ENDBRANCH   5   6
ENDBRANCH   4   5
ENDBRANCH   3   4
ENDBRANCH   2   3
ENDBRANCH   1   2
BRANCH   1  39
ATOM     39  C   UNL A   1      44.658  25.174  25.213  1.00  0.00     0.188 C 
BRANCH  39  40
ATOM     40  O   UNL A   1      45.701  25.995  24.710  1.00  0.00    -0.377 OA
BRANCH  40  41
ATOM     41  C   UNL A   1      46.853  26.232  25.520  1.00  0.00     0.188 C 
BRANCH  41  42
ATOM     42  C   UNL A   1      47.725  27.486  25.294  1.00  0.00     0.188 C 
BRANCH  42  43
ATOM     43  O   UNL A   1      48.917  27.501  26.063  1.00  0.00    -0.376 OA
BRANCH  43  44
ATOM     44  C   UNL A   1      49.177  28.673  26.815  1.00  0.00     0.202 C 
BRANCH  44  45
ATOM     45  C   UNL A   1      47.942  29.358  27.406  1.00  0.00     0.261 C 
BRANCH  45  46
ATOM     46  O   UNL A   1      47.763  30.737  27.056  1.00  0.00    -0.460 OA
BRANCH  46  47
ATOM     47  C   UNL A   1      46.614  31.111  26.461  1.00  0.00     0.338 C 
ATOM     48  O   UNL A   1      46.128  30.678  25.431  1.00  0.00    -0.246 OA
BRANCH  47  49
ATOM     49  C   UNL A   1      45.952  32.031  27.407  1.00  0.00     0.060 A 
ATOM     50  C   UNL A   1      44.885  31.587  28.195  1.00  0.00     0.016 A 
ATOM     51  C   UNL A   1      46.314  33.378  27.398  1.00  0.00     0.016 A 
ATOM     52  C   UNL A   1      44.186  32.497  28.992  1.00  0.00     0.010 A 
ATOM     53  C   UNL A   1      45.583  34.288  28.163  1.00  0.00     0.010 A 
ATOM     54  C   UNL A   1      44.526  33.858  28.986  1.00  0.00    -0.014 A 
BRANCH  54  55
ATOM     55  C   UNL A   1      43.855  34.784  29.935  1.00  0.00     0.031 A 
ATOM     56  C   UNL A   1      42.365  34.771  29.918  1.00  0.00     0.074 A 
ATOM     57  C   UNL A   1      44.380  35.166  31.121  1.00  0.00     0.049 A 
ATOM     58  N   UNL A   1      41.699  33.921  30.641  1.00  0.00    -0.248 NA
ATOM     59  C   UNL A   1      41.547  35.483  28.941  1.00  0.00     0.031 C 
ATOM     60  C   UNL A   1      45.340  34.368  31.896  1.00  0.00     0.029 A 
ATOM     61  N   UNL A   1      44.005  36.177  31.981  1.00  0.00    -0.354 N 
ATOM     62  C   UNL A   1      40.396  33.922  30.187  1.00  0.00     0.074 A 
ATOM     63  C   UNL A   1      40.342  34.925  29.147  1.00  0.00     0.031 C 
ATOM     64  C   UNL A   1      45.356  34.830  33.164  1.00  0.00     0.029 A 
ATOM     65  C   UNL A   1      44.553  36.044  33.246  1.00  0.00     0.049 A 
ATOM     66  H   UNL A   1      43.410  36.917  31.722  1.00  0.00     0.167 HD
ATOM     67  C   UNL A   1      39.453  33.094  30.712  1.00  0.00     0.031 A 
ATOM     68  C   UNL A   1      44.119  36.629  34.391  1.00  0.00     0.031 A 
ATOM     69  C   UNL A   1      39.845  32.260  31.826  1.00  0.00     0.049 A 
ATOM     70  C   UNL A   1      42.957  35.761  34.785  1.00  0.00     0.074 A 
ATOM     71  C   UNL A   1      39.605  30.985  32.300  1.00  0.00     0.029 A 
ATOM     72  N   UNL A   1      40.703  32.825  32.727  1.00  0.00    -0.354 N 
ATOM     73  N   UNL A   1      43.026  34.603  35.382  1.00  0.00    -0.248 NA
ATOM     74  C   UNL A   1      41.616  36.110  34.282  1.00  0.00     0.031 C 
ATOM     75  C   UNL A   1      40.266  30.866  33.569  1.00  0.00     0.029 A 
ATOM     76  C   UNL A   1      40.861  32.083  33.863  1.00  0.00     0.049 A 
ATOM     77  H   UNL A   1      41.161  33.682  32.573  1.00  0.00     0.167 HD
ATOM     78  C   UNL A   1      41.837  33.970  35.047  1.00  0.00     0.074 A 
ATOM     79  C   UNL A   1      40.947  34.990  34.534  1.00  0.00     0.031 C 
ATOM     80  C   UNL A   1      41.728  32.622  34.883  1.00  0.00     0.031 A 
BRANCH  67  81
ATOM     81  C   UNL A   1      38.019  33.205  30.354  1.00  0.00    -0.014 A 
ATOM     82  C   UNL A   1      37.047  33.714  31.219  1.00  0.00     0.009 A 
ATOM     83  C   UNL A   1      37.656  32.873  29.037  1.00  0.00     0.009 A 
ATOM     84  C   UNL A   1      35.734  33.894  30.763  1.00  0.00     0.001 A 
ATOM     85  C   UNL A   1      36.351  33.053  28.586  1.00  0.00     0.001 A 
ATOM     86  C   UNL A   1      35.389  33.567  29.450  1.00  0.00     0.000 A 
ENDBRANCH  67  81
BRANCH  68  87
ATOM     87  C   UNL A   1      44.054  38.123  34.436  1.00  0.00    -0.014 A 
ATOM     88  C   UNL A   1      44.532  38.907  35.497  1.00  0.00     0.009 A 
ATOM     89  C   UNL A   1      43.560  38.809  33.307  1.00  0.00     0.009 A 
ATOM     90  C   UNL A   1      44.395  40.302  35.491  1.00  0.00     0.001 A 
ATOM     91  C   UNL A   1      43.454  40.204  33.283  1.00  0.00     0.001 A 
ATOM     92  C   UNL A   1      43.846  40.949  34.390  1.00  0.00     0.000 A 
ENDBRANCH  68  87
BRANCH  80  93
ATOM     93  C   UNL A   1      42.689  31.765  35.620  1.00  0.00    -0.014 A 
ATOM     94  C   UNL A   1      42.557  31.542  36.994  1.00  0.00     0.009 A 
ATOM     95  C   UNL A   1      43.792  31.219  34.943  1.00  0.00     0.009 A 
ATOM     96  C   UNL A   1      43.521  30.798  37.675  1.00  0.00     0.001 A 
ATOM     97  C   UNL A   1      44.751  30.477  35.628  1.00  0.00     0.001 A 
ATOM     98  C   UNL A   1      44.618  30.273  36.998  1.00  0.00     0.000 A 
ENDBRANCH  80  93
ENDBRANCH  54  55
ENDBRANCH  47  49
ENDBRANCH  46  47
ENDBRANCH  45  46
ENDBRANCH  44  45
ENDBRANCH  43  44
ENDBRANCH  42  43
ENDBRANCH  41  42
ENDBRANCH  40  41
ENDBRANCH  39  40
ENDBRANCH   1  39
TORSDOF 26
ENDMDL
MODEL 2
REMARK VINA RESULT:      -8.7      4.562     10.498
REMARK SMILES CCOC(=O)C1CCN(c2cc(NCC(=O)OCCOCCOCCOCCOC(=O)c3ccc(-c4c5nc(c(-c6ccccc6)c6ccc([nH]6)c(-c6ccccc6)c6nc(c(-c7ccccc7)c7ccc4[nH]7)C=C6)C=C5)cc3)c3c4c(onc24)-c2ccccc2C3=O)CC1
REMARK SMILES IDX 21 1 20 2 19 3 18 4 17 5 15 6 16 7 14 8 13 9 12 11 10 12
REMARK SMILES IDX 11 13 85 14 81 15 84 16 80 17 82 18 83 19 92 20 86 21 91 22
REMARK SMILES IDX 93 23 87 24 90 25 88 26 89 27 9 28 6 29 7 30 95 31 8 32
REMARK SMILES IDX 94 33 4 34 5 35 3 36 2 37 1 38 22 39 23 40 24 41 25 42 26 43
REMARK SMILES IDX 27 44 28 45 29 46 30 47 31 48 32 49 33 50 79 51 34 52 78 53
REMARK SMILES IDX 35 54 36 55 37 56 72 57 38 58 77 59 71 60 73 61 39 62 76 63
REMARK SMILES IDX 70 64 69 65 40 67 62 68 47 69 61 70 48 71 51 72 60 73 74 74
REMARK SMILES IDX 49 75 50 76 59 78 75 79 52 80 41 81 42 82 46 83 43 84 45 85
REMARK SMILES IDX 44 86 63 87 64 88 68 89 65 90 67 91 66 92 53 93 54 94 58 95
REMARK SMILES IDX 55 96 57 97 56 98
REMARK H PARENT 13 10 73 66 51 77
REMARK Flexibility Score: inf
ROOT
ATOM      1  C   UNL A   1      33.403  29.823  27.227  1.00  0.00     0.188 C 
ENDROOT
BRANCH   1   2
ATOM      2  O   UNL A   1      33.600  29.475  25.865  1.00  0.00    -0.376 OA
BRANCH   2   3
ATOM      3  C   UNL A   1      32.430  29.221  25.103  1.00  0.00     0.202 C 
BRANCH   3   4
ATOM      4  C   UNL A   1      32.330  27.916  24.287  1.00  0.00     0.261 C 
BRANCH   4   5
ATOM      5  O   UNL A   1      33.095  26.809  24.786  1.00  0.00    -0.462 OA
BRANCH   5   6
ATOM      6  C   UNL A   1      32.442  25.748  25.324  1.00  0.00     0.325 C 
ATOM      7  O   UNL A   1      31.229  25.577  25.257  1.00  0.00    -0.250 OA
BRANCH   6   8
ATOM      8  C   UNL A   1      33.395  24.691  25.886  1.00  0.00     0.236 C 
BRANCH   8   9
ATOM      9  N   UNL A   1      34.718  24.646  25.266  1.00  0.00    -0.374 N 
ATOM     10  H   UNL A   1      34.986  25.438  24.748  1.00  0.00     0.161 HD
BRANCH   9  11
ATOM     11  C   UNL A   1      35.636  23.608  25.328  1.00  0.00     0.049 A 
ATOM     12  C   UNL A   1      38.037  22.881  25.938  1.00  0.00     0.069 A 
ATOM     13  C   UNL A   1      36.992  23.852  25.779  1.00  0.00     0.054 A 
ATOM     14  C   UNL A   1      37.608  21.586  25.555  1.00  0.00     0.138 A 
ATOM     15  C   UNL A   1      36.269  21.395  25.143  1.00  0.00     0.065 A 
ATOM     16  N   UNL A   1      38.222  20.377  25.543  1.00  0.00    -0.077 NA
ATOM     17  C   UNL A   1      35.225  22.288  25.025  1.00  0.00     0.059 A 
ATOM     18  C   UNL A   1      36.085  20.071  24.936  1.00  0.00     0.176 A 
ATOM     19  O   UNL A   1      37.256  19.432  25.158  1.00  0.00    -0.355 OA
ATOM     20  C   UNL A   1      33.873  21.751  24.685  1.00  0.00     0.196 C 
ATOM     21  C   UNL A   1      34.858  19.413  24.583  1.00  0.00     0.032 A 
ATOM     22  C   UNL A   1      33.732  20.261  24.449  1.00  0.00     0.034 A 
ATOM     23  O   UNL A   1      32.889  22.476  24.634  1.00  0.00    -0.288 OA
ATOM     24  C   UNL A   1      34.729  18.038  24.398  1.00  0.00     0.013 A 
ATOM     25  C   UNL A   1      32.486  19.717  24.127  1.00  0.00     0.013 A 
ATOM     26  C   UNL A   1      33.480  17.503  24.076  1.00  0.00     0.001 A 
ATOM     27  C   UNL A   1      32.364  18.337  23.941  1.00  0.00     0.001 A 
BRANCH  12  28
ATOM     28  N   UNL A   1      39.265  23.193  26.477  1.00  0.00    -0.370 N 
ATOM     29  C   UNL A   1      41.496  23.823  28.142  1.00  0.00     0.103 C 
ATOM     30  C   UNL A   1      41.048  22.370  27.926  1.00  0.00     0.037 C 
ATOM     31  C   UNL A   1      40.385  24.834  27.844  1.00  0.00     0.037 C 
ATOM     32  C   UNL A   1      40.255  22.138  26.640  1.00  0.00     0.117 C 
ATOM     33  C   UNL A   1      39.727  24.571  26.494  1.00  0.00     0.117 C 
BRANCH  29  34
ATOM     34  C   UNL A   1      42.756  24.227  27.400  1.00  0.00     0.309 C 
ATOM     35  O   UNL A   1      42.947  25.369  26.995  1.00  0.00    -0.252 OA
BRANCH  34  36
ATOM     36  O   UNL A   1      43.590  23.182  27.177  1.00  0.00    -0.466 OA
BRANCH  36  37
ATOM     37  C   UNL A   1      44.044  23.017  25.826  1.00  0.00     0.229 C 
ATOM     38  C   UNL A   1      43.809  21.594  25.351  1.00  0.00     0.049 C 
ENDBRANCH  36  37
ENDBRANCH  34  36
ENDBRANCH  29  34
ENDBRANCH  12  28
ENDBRANCH   9  11
ENDBRANCH   8   9
ENDBRANCH   6   8
ENDBRANCH   5   6
ENDBRANCH   4   5
ENDBRANCH   3   4
ENDBRANCH   2   3
ENDBRANCH   1   2
BRANCH   1  39
ATOM     39  C   UNL A   1      33.074  31.311  27.399  1.00  0.00     0.188 C 
BRANCH  39  40
ATOM     40  O   UNL A   1      34.097  32.133  27.941  1.00  0.00    -0.377 OA
BRANCH  40  41
ATOM     41  C   UNL A   1      35.408  31.593  28.109  1.00  0.00     0.188 C 
BRANCH  41  42
ATOM     42  C   UNL A   1      36.219  31.891  29.388  1.00  0.00     0.188 C 
BRANCH  42  43
ATOM     43  O   UNL A   1      37.126  32.974  29.253  1.00  0.00    -0.376 OA
BRANCH  43  44
ATOM     44  C   UNL A   1      38.113  33.110  30.260  1.00  0.00     0.202 C 
BRANCH  44  45
ATOM     45  C   UNL A   1      39.533  32.724  29.841  1.00  0.00     0.261 C 
BRANCH  45  46
ATOM     46  O   UNL A   1      40.594  33.425  30.505  1.00  0.00    -0.460 OA
BRANCH  46  47
ATOM     47  C   UNL A   1      41.864  33.202  30.112  1.00  0.00     0.338 C 
ATOM     48  O   UNL A   1      42.317  32.207  29.573  1.00  0.00    -0.246 OA
BRANCH  47  49
ATOM     49  C   UNL A   1      42.573  34.483  30.294  1.00  0.00     0.060 A 
ATOM     50  C   UNL A   1      43.021  35.207  29.185  1.00  0.00     0.016 A 
ATOM     51  C   UNL A   1      42.910  34.886  31.587  1.00  0.00     0.016 A 
ATOM     52  C   UNL A   1      43.799  36.352  29.373  1.00  0.00     0.010 A 
ATOM     53  C   UNL A   1      43.724  36.006  31.763  1.00  0.00     0.010 A 
ATOM     54  C   UNL A   1      44.161  36.765  30.663  1.00  0.00    -0.014 A 
BRANCH  54  55
ATOM     55  C   UNL A   1      44.879  38.053  30.845  1.00  0.00     0.031 A 
ATOM     56  C   UNL A   1      46.296  38.081  30.386  1.00  0.00     0.074 A 
ATOM     57  C   UNL A   1      44.279  39.265  30.827  1.00  0.00     0.049 A 
ATOM     58  N   UNL A   1      46.590  38.361  29.152  1.00  0.00    -0.248 NA
ATOM     59  C   UNL A   1      47.421  37.563  31.158  1.00  0.00     0.031 C 
ATOM     60  C   UNL A   1      43.031  39.559  30.111  1.00  0.00     0.029 A 
ATOM     61  N   UNL A   1      44.752  40.503  31.210  1.00  0.00    -0.354 N 
ATOM     62  C   UNL A   1      47.907  38.000  28.948  1.00  0.00     0.074 A 
ATOM     63  C   UNL A   1      48.391  37.532  30.228  1.00  0.00     0.031 C 
ATOM     64  C   UNL A   1      42.922  40.898  29.972  1.00  0.00     0.029 A 
ATOM     65  C   UNL A   1      43.985  41.550  30.727  1.00  0.00     0.049 A 
ATOM     66  H   UNL A   1      45.553  40.628  31.770  1.00  0.00     0.167 HD
ATOM     67  C   UNL A   1      48.503  38.122  27.731  1.00  0.00     0.031 A 
ATOM     68  C   UNL A   1      44.358  42.849  30.607  1.00  0.00     0.031 A 
ATOM     69  C   UNL A   1      47.730  38.721  26.667  1.00  0.00     0.049 A 
ATOM     70  C   UNL A   1      45.174  42.844  29.346  1.00  0.00     0.074 A 
ATOM     71  C   UNL A   1      47.550  38.570  25.306  1.00  0.00     0.029 A 
ATOM     72  N   UNL A   1      46.907  39.751  27.028  1.00  0.00    -0.354 N 
ATOM     73  N   UNL A   1      44.710  42.846  28.126  1.00  0.00    -0.248 NA
ATOM     74  C   UNL A   1      46.625  42.600  29.448  1.00  0.00     0.031 C 
ATOM     75  C   UNL A   1      46.679  39.624  24.868  1.00  0.00     0.029 A 
ATOM     76  C   UNL A   1      46.377  40.419  25.962  1.00  0.00     0.049 A 
ATOM     77  H   UNL A   1      46.718  39.989  27.964  1.00  0.00     0.167 HD
ATOM     78  C   UNL A   1      45.735  42.299  27.366  1.00  0.00     0.074 A 
ATOM     79  C   UNL A   1      46.930  42.336  28.182  1.00  0.00     0.031 C 
ATOM     80  C   UNL A   1      45.520  41.544  26.253  1.00  0.00     0.031 A 
BRANCH  67  81
ATOM     81  C   UNL A   1      49.956  37.901  27.541  1.00  0.00    -0.014 A 
ATOM     82  C   UNL A   1      50.907  38.923  27.618  1.00  0.00     0.009 A 
ATOM     83  C   UNL A   1      50.391  36.574  27.377  1.00  0.00     0.009 A 
ATOM     84  C   UNL A   1      52.271  38.613  27.541  1.00  0.00     0.001 A 
ATOM     85  C   UNL A   1      51.748  36.268  27.302  1.00  0.00     0.001 A 
ATOM     86  C   UNL A   1      52.690  37.289  27.387  1.00  0.00     0.000 A 
ENDBRANCH  67  81
BRANCH  68  87
ATOM     87  C   UNL A   1      44.797  43.571  31.842  1.00  0.00    -0.014 A 
ATOM     88  C   UNL A   1      45.915  43.220  32.613  1.00  0.00     0.009 A 
ATOM     89  C   UNL A   1      44.100  44.737  32.223  1.00  0.00     0.009 A 
ATOM     90  C   UNL A   1      46.240  43.915  33.785  1.00  0.00     0.001 A 
ATOM     91  C   UNL A   1      44.442  45.454  33.374  1.00  0.00     0.001 A 
ATOM     92  C   UNL A   1      45.496  45.025  34.172  1.00  0.00     0.000 A 
ENDBRANCH  68  87
BRANCH  80  93
ATOM     93  C   UNL A   1      44.261  41.778  25.503  1.00  0.00    -0.014 A 
ATOM     94  C   UNL A   1      43.091  41.079  25.812  1.00  0.00     0.009 A 
ATOM     95  C   UNL A   1      44.257  42.670  24.417  1.00  0.00     0.009 A 
ATOM     96  C   UNL A   1      41.945  41.261  25.037  1.00  0.00     0.001 A 
ATOM     97  C   UNL A   1      43.110  42.847  23.648  1.00  0.00     0.001 A 
ATOM     98  C   UNL A   1      41.954  42.136  23.955  1.00  0.00     0.000 A 
ENDBRANCH  80  93
ENDBRANCH  54  55
ENDBRANCH  47  49
ENDBRANCH  46  47
ENDBRANCH  45  46
ENDBRANCH  44  45
ENDBRANCH  43  44
ENDBRANCH  42  43
ENDBRANCH  41  42
ENDBRANCH  40  41
ENDBRANCH  39  40
ENDBRANCH   1  39
TORSDOF 26
ENDMDL
MODEL 3
REMARK VINA RESULT:      -8.5      4.830     10.104
REMARK SMILES CCOC(=O)C1CCN(c2cc(NCC(=O)OCCOCCOCCOCCOC(=O)c3ccc(-c4c5nc(c(-c6ccccc6)c6ccc([nH]6)c(-c6ccccc6)c6nc(c(-c7ccccc7)c7ccc4[nH]7)C=C6)C=C5)cc3)c3c4c(onc24)-c2ccccc2C3=O)CC1
REMARK SMILES IDX 21 1 20 2 19 3 18 4 17 5 15 6 16 7 14 8 13 9 12 11 10 12
REMARK SMILES IDX 11 13 85 14 81 15 84 16 80 17 82 18 83 19 92 20 86 21 91 22
REMARK SMILES IDX 93 23 87 24 90 25 88 26 89 27 9 28 6 29 7 30 95 31 8 32
REMARK SMILES IDX 94 33 4 34 5 35 3 36 2 37 1 38 22 39 23 40 24 41 25 42 26 43
REMARK SMILES IDX 27 44 28 45 29 46 30 47 31 48 32 49 33 50 79 51 34 52 78 53
REMARK SMILES IDX 35 54 36 55 37 56 72 57 38 58 77 59 71 60 73 61 39 62 76 63
REMARK SMILES IDX 70 64 69 65 40 67 62 68 47 69 61 70 48 71 51 72 60 73 74 74
REMARK SMILES IDX 49 75 50 76 59 78 75 79 52 80 41 81 42 82 46 83 43 84 45 85
REMARK SMILES IDX 44 86 63 87 64 88 68 89 65 90 67 91 66 92 53 93 54 94 58 95
REMARK SMILES IDX 55 96 57 97 56 98
REMARK H PARENT 13 10 73 66 51 77
REMARK Flexibility Score: inf
ROOT
ATOM      1  C   UNL A   1      33.646  28.962  26.834  1.00  0.00     0.188 C 
ENDROOT
BRANCH   1   2
ATOM      2  O   UNL A   1      33.096  28.601  25.576  1.00  0.00    -0.376 OA
BRANCH   2   3
ATOM      3  C   UNL A   1      31.683  28.477  25.518  1.00  0.00     0.202 C 
BRANCH   3   4
ATOM      4  C   UNL A   1      31.060  27.101  25.206  1.00  0.00     0.261 C 
BRANCH   4   5
ATOM      5  O   UNL A   1      31.971  25.993  25.189  1.00  0.00    -0.462 OA
BRANCH   5   6
ATOM      6  C   UNL A   1      31.949  25.107  26.218  1.00  0.00     0.325 C 
ATOM      7  O   UNL A   1      30.925  24.701  26.757  1.00  0.00    -0.250 OA
BRANCH   6   8
ATOM      8  C   UNL A   1      33.332  24.534  26.533  1.00  0.00     0.236 C 
BRANCH   8   9
ATOM      9  N   UNL A   1      34.108  24.093  25.375  1.00  0.00    -0.374 N 
ATOM     10  H   UNL A   1      33.858  24.481  24.507  1.00  0.00     0.161 HD
BRANCH   9  11
ATOM     11  C   UNL A   1      35.157  23.186  25.368  1.00  0.00     0.049 A 
ATOM     12  C   UNL A   1      37.659  22.774  25.849  1.00  0.00     0.069 A 
ATOM     13  C   UNL A   1      36.489  23.599  25.763  1.00  0.00     0.054 A 
ATOM     14  C   UNL A   1      37.388  21.441  25.452  1.00  0.00     0.138 A 
ATOM     15  C   UNL A   1      36.068  21.081  25.096  1.00  0.00     0.065 A 
ATOM     16  N   UNL A   1      38.155  20.325  25.381  1.00  0.00    -0.077 NA
ATOM     17  C   UNL A   1      34.910  21.828  25.050  1.00  0.00     0.059 A 
ATOM     18  C   UNL A   1      36.051  19.749  24.863  1.00  0.00     0.176 A 
ATOM     19  O   UNL A   1      37.306  19.267  25.015  1.00  0.00    -0.355 OA
ATOM     20  C   UNL A   1      33.626  21.123  24.757  1.00  0.00     0.196 C 
ATOM     21  C   UNL A   1      34.906  18.940  24.549  1.00  0.00     0.032 A 
ATOM     22  C   UNL A   1      33.673  19.632  24.489  1.00  0.00     0.034 A 
ATOM     23  O   UNL A   1      32.554  21.711  24.770  1.00  0.00    -0.288 OA
ATOM     24  C   UNL A   1      34.952  17.564  24.334  1.00  0.00     0.013 A 
ATOM     25  C   UNL A   1      32.495  18.934  24.209  1.00  0.00     0.013 A 
ATOM     26  C   UNL A   1      33.770  16.873  24.055  1.00  0.00     0.001 A 
ATOM     27  C   UNL A   1      32.549  17.554  23.992  1.00  0.00     0.001 A 
BRANCH  12  28
ATOM     28  N   UNL A   1      38.860  23.236  26.341  1.00  0.00    -0.370 N 
ATOM     29  C   UNL A   1      41.519  24.191  26.752  1.00  0.00     0.103 C 
ATOM     30  C   UNL A   1      40.380  25.145  26.359  1.00  0.00     0.037 C 
ATOM     31  C   UNL A   1      41.218  22.734  26.389  1.00  0.00     0.037 C 
ATOM     32  C   UNL A   1      38.982  24.638  26.711  1.00  0.00     0.117 C 
ATOM     33  C   UNL A   1      39.838  22.301  26.874  1.00  0.00     0.117 C 
BRANCH  29  34
ATOM     34  C   UNL A   1      41.954  24.269  28.203  1.00  0.00     0.309 C 
ATOM     35  O   UNL A   1      42.479  23.327  28.787  1.00  0.00    -0.252 OA
BRANCH  34  36
ATOM     36  O   UNL A   1      41.631  25.451  28.783  1.00  0.00    -0.466 OA
BRANCH  36  37
ATOM     37  C   UNL A   1      42.721  26.354  29.019  1.00  0.00     0.229 C 
ATOM     38  C   UNL A   1      42.300  27.786  28.741  1.00  0.00     0.049 C 
ENDBRANCH  36  37
ENDBRANCH  34  36
ENDBRANCH  29  34
ENDBRANCH  12  28
ENDBRANCH   9  11
ENDBRANCH   8   9
ENDBRANCH   6   8
ENDBRANCH   5   6
ENDBRANCH   4   5
ENDBRANCH   3   4
ENDBRANCH   2   3
ENDBRANCH   1   2
BRANCH   1  39
ATOM     39  C   UNL A   1      33.346  30.422  27.196  1.00  0.00     0.188 C 
BRANCH  39  40
ATOM     40  O   UNL A   1      34.460  31.294  27.312  1.00  0.00    -0.377 OA
BRANCH  40  41
ATOM     41  C   UNL A   1      35.695  30.783  27.818  1.00  0.00     0.188 C 
BRANCH  41  42
ATOM     42  C   UNL A   1      36.206  31.208  29.210  1.00  0.00     0.188 C 
BRANCH  42  43
ATOM     43  O   UNL A   1      37.617  31.140  29.348  1.00  0.00    -0.376 OA
BRANCH  43  44
ATOM     44  C   UNL A   1      38.115  30.703  30.600  1.00  0.00     0.202 C 
BRANCH  44  45
ATOM     45  C   UNL A   1      38.551  31.816  31.555  1.00  0.00     0.261 C 
BRANCH  45  46
ATOM     46  O   UNL A   1      39.339  31.403  32.680  1.00  0.00    -0.460 OA
BRANCH  46  47
ATOM     47  C   UNL A   1      38.719  30.843  33.737  1.00  0.00     0.338 C 
ATOM     48  O   UNL A   1      38.246  29.723  33.820  1.00  0.00    -0.246 OA
BRANCH  47  49
ATOM     49  C   UNL A   1      38.887  31.793  34.853  1.00  0.00     0.060 A 
ATOM     50  C   UNL A   1      39.718  31.476  35.932  1.00  0.00     0.016 A 
ATOM     51  C   UNL A   1      38.098  32.944  34.880  1.00  0.00     0.016 A 
ATOM     52  C   UNL A   1      39.770  32.326  37.040  1.00  0.00     0.010 A 
ATOM     53  C   UNL A   1      38.124  33.764  36.008  1.00  0.00     0.010 A 
ATOM     54  C   UNL A   1      38.974  33.480  37.092  1.00  0.00    -0.014 A 
BRANCH  54  55
ATOM     55  C   UNL A   1      39.142  34.434  38.219  1.00  0.00     0.031 A 
ATOM     56  C   UNL A   1      38.799  33.913  39.572  1.00  0.00     0.074 A 
ATOM     57  C   UNL A   1      40.051  35.434  38.238  1.00  0.00     0.049 A 
ATOM     58  N   UNL A   1      39.682  33.280  40.284  1.00  0.00    -0.248 NA
ATOM     59  C   UNL A   1      37.441  33.822  40.099  1.00  0.00     0.031 C 
ATOM     60  C   UNL A   1      41.317  35.415  37.492  1.00  0.00     0.029 A 
ATOM     61  N   UNL A   1      40.167  36.522  39.078  1.00  0.00    -0.354 N 
ATOM     62  C   UNL A   1      39.011  32.648  41.312  1.00  0.00     0.074 A 
ATOM     63  C   UNL A   1      37.624  33.033  41.172  1.00  0.00     0.031 C 
ATOM     64  C   UNL A   1      42.139  36.346  38.021  1.00  0.00     0.029 A 
ATOM     65  C   UNL A   1      41.409  37.130  39.009  1.00  0.00     0.049 A 
ATOM     66  H   UNL A   1      39.441  36.834  39.665  1.00  0.00     0.167 HD
ATOM     67  C   UNL A   1      39.656  31.856  42.210  1.00  0.00     0.031 A 
ATOM     68  C   UNL A   1      41.965  37.960  39.928  1.00  0.00     0.031 A 
ATOM     69  C   UNL A   1      41.095  31.759  42.100  1.00  0.00     0.049 A 
ATOM     70  C   UNL A   1      42.473  37.006  40.971  1.00  0.00     0.074 A 
ATOM     71  C   UNL A   1      42.083  30.807  42.253  1.00  0.00     0.029 A 
ATOM     72  N   UNL A   1      41.750  32.905  41.745  1.00  0.00    -0.354 N 
ATOM     73  N   UNL A   1      43.574  36.308  40.909  1.00  0.00    -0.248 NA
ATOM     74  C   UNL A   1      41.576  36.634  42.080  1.00  0.00     0.031 C 
ATOM     75  C   UNL A   1      43.347  31.467  42.085  1.00  0.00     0.029 A 
ATOM     76  C   UNL A   1      43.106  32.815  41.873  1.00  0.00     0.049 A 
ATOM     77  H   UNL A   1      41.289  33.715  41.429  1.00  0.00     0.167 HD
ATOM     78  C   UNL A   1      43.350  35.233  41.757  1.00  0.00     0.074 A 
ATOM     79  C   UNL A   1      42.204  35.573  42.574  1.00  0.00     0.031 C 
ATOM     80  C   UNL A   1      43.875  33.993  41.548  1.00  0.00     0.031 A 
BRANCH  67  81
ATOM     81  C   UNL A   1      38.980  31.314  43.412  1.00  0.00    -0.014 A 
ATOM     82  C   UNL A   1      38.309  30.088  43.431  1.00  0.00     0.009 A 
ATOM     83  C   UNL A   1      39.119  32.036  44.610  1.00  0.00     0.009 A 
ATOM     84  C   UNL A   1      37.796  29.593  44.637  1.00  0.00     0.001 A 
ATOM     85  C   UNL A   1      38.608  31.542  45.808  1.00  0.00     0.001 A 
ATOM     86  C   UNL A   1      37.948  30.317  45.822  1.00  0.00     0.000 A 
ENDBRANCH  67  81
BRANCH  68  87
ATOM     87  C   UNL A   1      41.228  39.214  40.280  1.00  0.00    -0.014 A 
ATOM     88  C   UNL A   1      39.951  39.249  40.859  1.00  0.00     0.009 A 
ATOM     89  C   UNL A   1      41.882  40.451  40.103  1.00  0.00     0.009 A 
ATOM     90  C   UNL A   1      39.301  40.462  41.119  1.00  0.00     0.001 A 
ATOM     91  C   UNL A   1      41.250  41.665  40.394  1.00  0.00     0.001 A 
ATOM     92  C   UNL A   1      39.946  41.670  40.876  1.00  0.00     0.000 A 
ENDBRANCH  68  87
BRANCH  80  93
ATOM     93  C   UNL A   1      45.140  33.909  40.777  1.00  0.00    -0.014 A 
ATOM     94  C   UNL A   1      45.181  33.314  39.513  1.00  0.00     0.009 A 
ATOM     95  C   UNL A   1      46.334  34.375  41.352  1.00  0.00     0.009 A 
ATOM     96  C   UNL A   1      46.399  33.177  38.847  1.00  0.00     0.001 A 
ATOM     97  C   UNL A   1      47.547  34.235  40.681  1.00  0.00     0.001 A 
ATOM     98  C   UNL A   1      47.579  33.629  39.429  1.00  0.00     0.000 A 
ENDBRANCH  80  93
ENDBRANCH  54  55
ENDBRANCH  47  49
ENDBRANCH  46  47
ENDBRANCH  45  46
ENDBRANCH  44  45
ENDBRANCH  43  44
ENDBRANCH  42  43
ENDBRANCH  41  42
ENDBRANCH  40  41
ENDBRANCH  39  40
ENDBRANCH   1  39
TORSDOF 26
ENDMDL
