MODEL 1
REMARK VINA RESULT:     -10.7      0.000      0.000
REMARK SMILES Cc1cc(C(=O)OCCOCCOCCOCCOC(=O)c2ccc(-c3c4nc(c(-c5ccccc5)c5ccc([nH]5)c(-c5ccccc5)c5nc(c(-c6ccccc6)c6ccc3[nH]6)C=C5)C=C4)cc2)ccc1NS(=O)(=O)c1ccc(C#N)cc1C
REMARK SMILES IDX 12 1 11 2 10 3 9 4 8 5 7 6 5 7 6 8 4 9 1 10 2 11 3 12 72 13
REMARK SMILES IDX 71 14 70 15 73 16 74 18 75 19 76 20 77 21 78 22 84 23 79 24
REMARK SMILES IDX 83 25 85 26 80 27 81 28 82 29 13 30 14 31 15 32 16 33 17 34
REMARK SMILES IDX 18 35 19 36 20 37 21 38 22 39 23 40 69 41 24 42 68 43 25 44
REMARK SMILES IDX 26 45 27 46 62 47 28 48 67 49 61 50 63 51 29 52 66 53 60 54
REMARK SMILES IDX 59 55 30 57 52 58 37 59 51 60 38 61 41 62 50 63 64 64 39 65
REMARK SMILES IDX 40 66 49 68 65 69 42 70 31 71 32 72 36 73 33 74 35 75 34 76
REMARK SMILES IDX 53 77 54 78 58 79 55 80 57 81 56 82 43 83 44 84 48 85 45 86
REMARK SMILES IDX 47 87 46 88
REMARK H PARENT 73 17 63 56 41 67
REMARK Flexibility Score: inf
ROOT
ATOM      1  C   UNL A   1      40.455  21.513  26.111  1.00  0.00     0.188 C 
ENDROOT
BRANCH   1   2
ATOM      2  C   UNL A   1      38.915  21.494  26.144  1.00  0.00     0.188 C 
BRANCH   2   3
ATOM      3  O   UNL A   1      38.133  21.490  24.963  1.00  0.00    -0.376 OA
BRANCH   3   4
ATOM      4  C   UNL A   1      37.091  20.530  24.911  1.00  0.00     0.202 C 
BRANCH   4   5
ATOM      5  C   UNL A   1      35.696  20.869  25.402  1.00  0.00     0.261 C 
BRANCH   5   6
ATOM      6  O   UNL A   1      34.724  20.111  24.720  1.00  0.00    -0.460 OA
BRANCH   6   7
ATOM      7  C   UNL A   1      33.499  20.193  25.249  1.00  0.00     0.338 C 
ATOM      8  O   UNL A   1      33.101  19.746  26.309  1.00  0.00    -0.246 OA
BRANCH   7   9
ATOM      9  C   UNL A   1      32.840  21.265  24.495  1.00  0.00     0.060 A 
ATOM     10  C   UNL A   1      32.012  24.748  25.529  1.00  0.00     0.046 C 
ATOM     11  C   UNL A   1      32.055  23.548  24.628  1.00  0.00    -0.026 A 
ATOM     12  C   UNL A   1      32.475  22.370  25.250  1.00  0.00     0.021 A 
ATOM     13  C   UNL A   1      31.963  23.568  23.228  1.00  0.00     0.052 A 
ATOM     14  C   UNL A   1      32.615  22.585  22.512  1.00  0.00     0.028 A 
ATOM     15  C   UNL A   1      32.950  21.383  23.109  1.00  0.00     0.018 A 
BRANCH  13  16
ATOM     16  N   UNL A   1      31.323  24.593  22.474  1.00  0.00    -0.279 N 
ATOM     17  H   UNL A   1      30.366  24.512  22.259  1.00  0.00     0.180 HD
BRANCH  16  18
ATOM     18  S   UNL A   1      32.206  25.975  21.927  1.00  0.00     0.262 S 
ATOM     19  O   UNL A   1      33.561  25.558  21.638  1.00  0.00    -0.201 OA
ATOM     20  O   UNL A   1      31.338  26.437  20.860  1.00  0.00    -0.201 OA
BRANCH  18  21
ATOM     21  C   UNL A   1      32.323  27.336  23.126  1.00  0.00     0.090 A 
ATOM     22  C   UNL A   1      33.553  27.937  23.410  1.00  0.00     0.024 A 
ATOM     23  C   UNL A   1      31.187  27.931  23.712  1.00  0.00    -0.029 A 
ATOM     24  C   UNL A   1      33.729  28.817  24.489  1.00  0.00     0.021 A 
ATOM     25  C   UNL A   1      31.356  28.872  24.763  1.00  0.00     0.024 A 
ATOM     26  C   UNL A   1      29.784  27.806  23.180  1.00  0.00     0.046 C 
ATOM     27  C   UNL A   1      32.623  29.266  25.197  1.00  0.00     0.052 A 
BRANCH  27  28
ATOM     28  C   UNL A   1      32.784  30.177  26.282  1.00  0.00     0.099 C 
ATOM     29  N   UNL A   1      32.935  30.915  27.182  1.00  0.00    -0.192 NA
ENDBRANCH  27  28
ENDBRANCH  18  21
ENDBRANCH  16  18
ENDBRANCH  13  16
ENDBRANCH   7   9
ENDBRANCH   6   7
ENDBRANCH   5   6
ENDBRANCH   4   5
ENDBRANCH   3   4
ENDBRANCH   2   3
ENDBRANCH   1   2
BRANCH   1  30
ATOM     30  O   UNL A   1      41.197  21.292  27.302  1.00  0.00    -0.377 OA
BRANCH  30  31
ATOM     31  C   UNL A   1      42.137  20.226  27.312  1.00  0.00     0.188 C 
BRANCH  31  32
ATOM     32  C   UNL A   1      42.057  19.163  26.230  1.00  0.00     0.188 C 
BRANCH  32  33
ATOM     33  O   UNL A   1      42.921  19.515  25.153  1.00  0.00    -0.376 OA
BRANCH  33  34
ATOM     34  C   UNL A   1      44.068  18.688  24.975  1.00  0.00     0.202 C 
BRANCH  34  35
ATOM     35  C   UNL A   1      45.184  19.342  24.152  1.00  0.00     0.261 C 
BRANCH  35  36
ATOM     36  O   UNL A   1      45.700  20.483  24.873  1.00  0.00    -0.460 OA
BRANCH  36  37
ATOM     37  C   UNL A   1      45.231  21.701  24.482  1.00  0.00     0.338 C 
ATOM     38  O   UNL A   1      44.589  21.916  23.466  1.00  0.00    -0.246 OA
BRANCH  37  39
ATOM     39  C   UNL A   1      45.882  22.787  25.284  1.00  0.00     0.060 A 
ATOM     40  C   UNL A   1      45.647  22.902  26.665  1.00  0.00     0.016 A 
ATOM     41  C   UNL A   1      46.359  23.889  24.602  1.00  0.00     0.016 A 
ATOM     42  C   UNL A   1      45.648  24.169  27.289  1.00  0.00     0.010 A 
ATOM     43  C   UNL A   1      46.231  25.127  25.197  1.00  0.00     0.010 A 
ATOM     44  C   UNL A   1      45.804  25.314  26.520  1.00  0.00    -0.014 A 
BRANCH  44  45
ATOM     45  C   UNL A   1      45.478  26.716  26.925  1.00  0.00     0.031 A 
ATOM     46  C   UNL A   1      44.015  27.119  26.902  1.00  0.00     0.074 A 
ATOM     47  C   UNL A   1      46.411  27.423  27.636  1.00  0.00     0.049 A 
ATOM     48  N   UNL A   1      43.528  28.248  27.290  1.00  0.00    -0.248 NA
ATOM     49  C   UNL A   1      42.930  26.212  26.499  1.00  0.00     0.031 C 
ATOM     50  C   UNL A   1      46.219  28.523  28.601  1.00  0.00     0.029 A 
ATOM     51  N   UNL A   1      47.782  27.265  27.738  1.00  0.00    -0.354 N 
ATOM     52  C   UNL A   1      42.176  28.073  27.594  1.00  0.00     0.074 A 
ATOM     53  C   UNL A   1      41.838  26.811  26.993  1.00  0.00     0.031 C 
ATOM     54  C   UNL A   1      47.392  28.991  29.073  1.00  0.00     0.029 A 
ATOM     55  C   UNL A   1      48.399  28.428  28.216  1.00  0.00     0.049 A 
ATOM     56  H   UNL A   1      48.264  26.439  27.504  1.00  0.00     0.167 HD
ATOM     57  C   UNL A   1      41.555  28.940  28.462  1.00  0.00     0.031 A 
ATOM     58  C   UNL A   1      49.137  29.215  27.371  1.00  0.00     0.031 A 
ATOM     59  C   UNL A   1      42.468  30.041  28.843  1.00  0.00     0.049 A 
ATOM     60  C   UNL A   1      48.274  30.453  27.005  1.00  0.00     0.074 A 
ATOM     61  C   UNL A   1      42.894  30.589  30.039  1.00  0.00     0.029 A 
ATOM     62  N   UNL A   1      43.273  30.619  27.864  1.00  0.00    -0.354 N 
ATOM     63  N   UNL A   1      46.955  30.436  26.925  1.00  0.00    -0.248 NA
ATOM     64  C   UNL A   1      48.787  31.826  27.060  1.00  0.00     0.031 C 
ATOM     65  C   UNL A   1      44.100  31.314  29.781  1.00  0.00     0.029 A 
ATOM     66  C   UNL A   1      44.344  31.294  28.410  1.00  0.00     0.049 A 
ATOM     67  H   UNL A   1      43.098  30.555  26.897  1.00  0.00     0.167 HD
ATOM     68  C   UNL A   1      46.462  31.702  27.146  1.00  0.00     0.074 A 
ATOM     69  C   UNL A   1      47.651  32.544  27.146  1.00  0.00     0.031 C 
ATOM     70  C   UNL A   1      45.201  32.086  27.537  1.00  0.00     0.031 A 
BRANCH  57  71
ATOM     71  C   UNL A   1      40.200  28.745  29.166  1.00  0.00    -0.014 A 
ATOM     72  C   UNL A   1      39.103  29.554  28.784  1.00  0.00     0.009 A 
ATOM     73  C   UNL A   1      39.930  27.865  30.232  1.00  0.00     0.009 A 
ATOM     74  C   UNL A   1      37.847  29.511  29.418  1.00  0.00     0.001 A 
ATOM     75  C   UNL A   1      38.661  27.790  30.854  1.00  0.00     0.001 A 
ATOM     76  C   UNL A   1      37.620  28.618  30.451  1.00  0.00     0.000 A 
ENDBRANCH  57  71
BRANCH  58  77
ATOM     77  C   UNL A   1      50.085  28.324  26.605  1.00  0.00    -0.014 A 
ATOM     78  C   UNL A   1      51.001  27.621  27.439  1.00  0.00     0.009 A 
ATOM     79  C   UNL A   1      49.660  27.669  25.437  1.00  0.00     0.009 A 
ATOM     80  C   UNL A   1      51.199  26.237  27.298  1.00  0.00     0.001 A 
ATOM     81  C   UNL A   1      49.915  26.290  25.273  1.00  0.00     0.001 A 
ATOM     82  C   UNL A   1      50.600  25.559  26.244  1.00  0.00     0.000 A 
ENDBRANCH  58  77
BRANCH  70  83
ATOM     83  C   UNL A   1      44.557  33.334  26.972  1.00  0.00    -0.014 A 
ATOM     84  C   UNL A   1      44.174  33.437  25.633  1.00  0.00     0.009 A 
ATOM     85  C   UNL A   1      44.093  34.346  27.851  1.00  0.00     0.009 A 
ATOM     86  C   UNL A   1      43.401  34.509  25.187  1.00  0.00     0.001 A 
ATOM     87  C   UNL A   1      43.266  35.381  27.421  1.00  0.00     0.001 A 
ATOM     88  C   UNL A   1      42.935  35.470  26.081  1.00  0.00     0.000 A 
ENDBRANCH  70  83
ENDBRANCH  44  45
ENDBRANCH  37  39
ENDBRANCH  36  37
ENDBRANCH  35  36
ENDBRANCH  34  35
ENDBRANCH  33  34
ENDBRANCH  32  33
ENDBRANCH  31  32
ENDBRANCH  30  31
ENDBRANCH   1  30
TORSDOF 24
ENDMDL
MODEL 2
REMARK VINA RESULT:      -9.2      4.273      6.630
REMARK SMILES Cc1cc(C(=O)OCCOCCOCCOCCOC(=O)c2ccc(-c3c4nc(c(-c5ccccc5)c5ccc([nH]5)c(-c5ccccc5)c5nc(c(-c6ccccc6)c6ccc3[nH]6)C=C5)C=C4)cc2)ccc1NS(=O)(=O)c1ccc(C#N)cc1C
REMARK SMILES IDX 12 1 11 2 10 3 9 4 8 5 7 6 5 7 6 8 4 9 1 10 2 11 3 12 72 13
REMARK SMILES IDX 71 14 70 15 73 16 74 18 75 19 76 20 77 21 78 22 84 23 79 24
REMARK SMILES IDX 83 25 85 26 80 27 81 28 82 29 13 30 14 31 15 32 16 33 17 34
REMARK SMILES IDX 18 35 19 36 20 37 21 38 22 39 23 40 69 41 24 42 68 43 25 44
REMARK SMILES IDX 26 45 27 46 62 47 28 48 67 49 61 50 63 51 29 52 66 53 60 54
REMARK SMILES IDX 59 55 30 57 52 58 37 59 51 60 38 61 41 62 50 63 64 64 39 65
REMARK SMILES IDX 40 66 49 68 65 69 42 70 31 71 32 72 36 73 33 74 35 75 34 76
REMARK SMILES IDX 53 77 54 78 58 79 55 80 57 81 56 82 43 83 44 84 48 85 45 86
REMARK SMILES IDX 47 87 46 88
REMARK H PARENT 73 17 63 56 41 67
REMARK Flexibility Score: inf
ROOT
ATOM      1  C   UNL A   1      39.341  21.901  26.492  1.00  0.00     0.188 C 
ENDROOT
BRANCH   1   2
ATOM      2  C   UNL A   1      38.193  21.759  25.476  1.00  0.00     0.188 C 
BRANCH   2   3
ATOM      3  O   UNL A   1      36.917  22.337  25.689  1.00  0.00    -0.376 OA
BRANCH   3   4
ATOM      4  C   UNL A   1      35.848  21.774  24.948  1.00  0.00     0.202 C 
BRANCH   4   5
ATOM      5  C   UNL A   1      34.910  20.764  25.580  1.00  0.00     0.261 C 
BRANCH   5   6
ATOM      6  O   UNL A   1      34.243  20.010  24.594  1.00  0.00    -0.460 OA
BRANCH   6   7
ATOM      7  C   UNL A   1      32.933  19.863  24.814  1.00  0.00     0.338 C 
ATOM      8  O   UNL A   1      32.375  19.106  25.588  1.00  0.00    -0.246 OA
BRANCH   7   9
ATOM      9  C   UNL A   1      32.323  21.065  24.237  1.00  0.00     0.060 A 
ATOM     10  C   UNL A   1      31.068  24.146  25.918  1.00  0.00     0.046 C 
ATOM     11  C   UNL A   1      31.350  23.212  24.776  1.00  0.00    -0.026 A 
ATOM     12  C   UNL A   1      31.755  21.932  25.160  1.00  0.00     0.021 A 
ATOM     13  C   UNL A   1      31.485  23.580  23.429  1.00  0.00     0.052 A 
ATOM     14  C   UNL A   1      32.319  22.832  22.623  1.00  0.00     0.028 A 
ATOM     15  C   UNL A   1      32.646  21.532  22.962  1.00  0.00     0.018 A 
BRANCH  13  16
ATOM     16  N   UNL A   1      30.897  24.738  22.843  1.00  0.00    -0.279 N 
ATOM     17  H   UNL A   1      29.932  24.747  22.649  1.00  0.00     0.180 HD
BRANCH  16  18
ATOM     18  S   UNL A   1      31.856  26.126  22.467  1.00  0.00     0.262 S 
ATOM     19  O   UNL A   1      33.116  25.668  21.922  1.00  0.00    -0.201 OA
ATOM     20  O   UNL A   1      30.927  26.871  21.639  1.00  0.00    -0.201 OA
BRANCH  18  21
ATOM     21  C   UNL A   1      32.256  27.191  23.884  1.00  0.00     0.090 A 
ATOM     22  C   UNL A   1      31.385  28.209  24.285  1.00  0.00     0.024 A 
ATOM     23  C   UNL A   1      33.371  26.960  24.716  1.00  0.00    -0.029 A 
ATOM     24  C   UNL A   1      31.757  29.196  25.210  1.00  0.00     0.021 A 
ATOM     25  C   UNL A   1      33.719  27.923  25.700  1.00  0.00     0.024 A 
ATOM     26  C   UNL A   1      34.129  25.662  24.792  1.00  0.00     0.046 C 
ATOM     27  C   UNL A   1      32.952  29.073  25.904  1.00  0.00     0.052 A 
BRANCH  27  28
ATOM     28  C   UNL A   1      33.334  30.057  26.862  1.00  0.00     0.099 C 
ATOM     29  N   UNL A   1      33.670  30.857  27.653  1.00  0.00    -0.192 NA
ENDBRANCH  27  28
ENDBRANCH  18  21
ENDBRANCH  16  18
ENDBRANCH  13  16
ENDBRANCH   7   9
ENDBRANCH   6   7
ENDBRANCH   5   6
ENDBRANCH   4   5
ENDBRANCH   3   4
ENDBRANCH   2   3
ENDBRANCH   1   2
BRANCH   1  30
ATOM     30  O   UNL A   1      40.691  21.910  26.048  1.00  0.00    -0.377 OA
BRANCH  30  31
ATOM     31  C   UNL A   1      41.415  23.129  26.147  1.00  0.00     0.188 C 
BRANCH  31  32
ATOM     32  C   UNL A   1      41.126  24.065  27.308  1.00  0.00     0.188 C 
BRANCH  32  33
ATOM     33  O   UNL A   1      42.273  24.148  28.149  1.00  0.00    -0.376 OA
BRANCH  33  34
ATOM     34  C   UNL A   1      42.910  25.421  28.214  1.00  0.00     0.202 C 
BRANCH  34  35
ATOM     35  C   UNL A   1      43.890  25.686  27.065  1.00  0.00     0.261 C 
BRANCH  35  36
ATOM     36  O   UNL A   1      43.688  27.027  26.567  1.00  0.00    -0.460 OA
BRANCH  36  37
ATOM     37  C   UNL A   1      42.419  27.338  26.180  1.00  0.00     0.338 C 
ATOM     38  O   UNL A   1      41.859  26.904  25.185  1.00  0.00    -0.246 OA
BRANCH  37  39
ATOM     39  C   UNL A   1      41.922  28.528  26.945  1.00  0.00     0.060 A 
ATOM     40  C   UNL A   1      42.816  29.505  27.415  1.00  0.00     0.016 A 
ATOM     41  C   UNL A   1      40.674  28.438  27.528  1.00  0.00     0.016 A 
ATOM     42  C   UNL A   1      42.550  30.200  28.616  1.00  0.00     0.010 A 
ATOM     43  C   UNL A   1      40.489  29.030  28.761  1.00  0.00     0.010 A 
ATOM     44  C   UNL A   1      41.439  29.860  29.376  1.00  0.00    -0.014 A 
BRANCH  44  45
ATOM     45  C   UNL A   1      41.193  30.211  30.808  1.00  0.00     0.031 A 
ATOM     46  C   UNL A   1      40.358  31.448  31.082  1.00  0.00     0.074 A 
ATOM     47  C   UNL A   1      41.387  29.245  31.759  1.00  0.00     0.049 A 
ATOM     48  N   UNL A   1      39.971  31.866  32.239  1.00  0.00    -0.248 NA
ATOM     49  C   UNL A   1      39.799  32.300  30.022  1.00  0.00     0.031 C 
ATOM     50  C   UNL A   1      40.750  29.088  33.081  1.00  0.00     0.029 A 
ATOM     51  N   UNL A   1      42.152  28.091  31.735  1.00  0.00    -0.354 N 
ATOM     52  C   UNL A   1      38.851  32.684  32.068  1.00  0.00     0.074 A 
ATOM     53  C   UNL A   1      38.847  32.993  30.664  1.00  0.00     0.031 C 
ATOM     54  C   UNL A   1      41.230  28.021  33.750  1.00  0.00     0.029 A 
ATOM     55  C   UNL A   1      42.405  27.617  33.028  1.00  0.00     0.049 A 
ATOM     56  H   UNL A   1      42.477  27.658  30.913  1.00  0.00     0.167 HD
ATOM     57  C   UNL A   1      37.971  32.860  33.110  1.00  0.00     0.031 A 
ATOM     58  C   UNL A   1      43.656  27.740  33.576  1.00  0.00     0.031 A 
ATOM     59  C   UNL A   1      38.473  32.200  34.335  1.00  0.00     0.049 A 
ATOM     60  C   UNL A   1      43.615  28.920  34.584  1.00  0.00     0.074 A 
ATOM     61  C   UNL A   1      37.952  31.297  35.245  1.00  0.00     0.029 A 
ATOM     62  N   UNL A   1      39.827  32.299  34.649  1.00  0.00    -0.354 N 
ATOM     63  N   UNL A   1      42.834  29.978  34.451  1.00  0.00    -0.248 NA
ATOM     64  C   UNL A   1      44.159  28.826  35.943  1.00  0.00     0.031 C 
ATOM     65  C   UNL A   1      39.048  30.699  35.942  1.00  0.00     0.029 A 
ATOM     66  C   UNL A   1      40.226  31.316  35.530  1.00  0.00     0.049 A 
ATOM     67  H   UNL A   1      40.427  32.990  34.286  1.00  0.00     0.167 HD
ATOM     68  C   UNL A   1      42.594  30.534  35.688  1.00  0.00     0.074 A 
ATOM     69  C   UNL A   1      43.509  29.823  36.572  1.00  0.00     0.031 C 
ATOM     70  C   UNL A   1      41.574  31.366  36.082  1.00  0.00     0.031 A 
BRANCH  57  71
ATOM     71  C   UNL A   1      36.545  33.439  33.040  1.00  0.00    -0.014 A 
ATOM     72  C   UNL A   1      36.374  34.811  32.740  1.00  0.00     0.009 A 
ATOM     73  C   UNL A   1      35.348  32.750  33.314  1.00  0.00     0.009 A 
ATOM     74  C   UNL A   1      35.123  35.455  32.731  1.00  0.00     0.001 A 
ATOM     75  C   UNL A   1      34.081  33.380  33.275  1.00  0.00     0.001 A 
ATOM     76  C   UNL A   1      33.969  34.736  32.989  1.00  0.00     0.000 A 
ENDBRANCH  57  71
BRANCH  58  77
ATOM     77  C   UNL A   1      44.663  27.247  32.565  1.00  0.00    -0.014 A 
ATOM     78  C   UNL A   1      45.821  28.071  32.469  1.00  0.00     0.009 A 
ATOM     79  C   UNL A   1      44.847  25.870  32.356  1.00  0.00     0.009 A 
ATOM     80  C   UNL A   1      47.112  27.520  32.512  1.00  0.00     0.001 A 
ATOM     81  C   UNL A   1      46.151  25.330  32.340  1.00  0.00     0.001 A 
ATOM     82  C   UNL A   1      47.274  26.142  32.511  1.00  0.00     0.000 A 
ENDBRANCH  58  77
BRANCH  70  83
ATOM     83  C   UNL A   1      41.823  32.498  37.055  1.00  0.00    -0.014 A 
ATOM     84  C   UNL A   1      42.477  32.305  38.274  1.00  0.00     0.009 A 
ATOM     85  C   UNL A   1      41.623  33.839  36.640  1.00  0.00     0.009 A 
ATOM     86  C   UNL A   1      42.875  33.391  39.055  1.00  0.00     0.001 A 
ATOM     87  C   UNL A   1      42.079  34.923  37.386  1.00  0.00     0.001 A 
ATOM     88  C   UNL A   1      42.692  34.695  38.605  1.00  0.00     0.000 A 
ENDBRANCH  70  83
ENDBRANCH  44  45
ENDBRANCH  37  39
ENDBRANCH  36  37
ENDBRANCH  35  36
ENDBRANCH  34  35
ENDBRANCH  33  34
ENDBRANCH  32  33
ENDBRANCH  31  32
ENDBRANCH  30  31
ENDBRANCH   1  30
TORSDOF 24
ENDMDL
MODEL 3
REMARK VINA RESULT:      -9.1      4.578      9.870
REMARK SMILES Cc1cc(C(=O)OCCOCCOCCOCCOC(=O)c2ccc(-c3c4nc(c(-c5ccccc5)c5ccc([nH]5)c(-c5ccccc5)c5nc(c(-c6ccccc6)c6ccc3[nH]6)C=C5)C=C4)cc2)ccc1NS(=O)(=O)c1ccc(C#N)cc1C
REMARK SMILES IDX 12 1 11 2 10 3 9 4 8 5 7 6 5 7 6 8 4 9 1 10 2 11 3 12 72 13
REMARK SMILES IDX 71 14 70 15 73 16 74 18 75 19 76 20 77 21 78 22 84 23 79 24
REMARK SMILES IDX 83 25 85 26 80 27 81 28 82 29 13 30 14 31 15 32 16 33 17 34
REMARK SMILES IDX 18 35 19 36 20 37 21 38 22 39 23 40 69 41 24 42 68 43 25 44
REMARK SMILES IDX 26 45 27 46 62 47 28 48 67 49 61 50 63 51 29 52 66 53 60 54
REMARK SMILES IDX 59 55 30 57 52 58 37 59 51 60 38 61 41 62 50 63 64 64 39 65
REMARK SMILES IDX 40 66 49 68 65 69 42 70 31 71 32 72 36 73 33 74 35 75 34 76
REMARK SMILES IDX 53 77 54 78 58 79 55 80 57 81 56 82 43 83 44 84 48 85 45 86
REMARK SMILES IDX 47 87 46 88
REMARK H PARENT 73 17 63 56 41 67
REMARK Flexibility Score: inf
ROOT
ATOM      1  C   UNL A   1      36.937  31.408  31.212  1.00  0.00     0.188 C 
ENDROOT
BRANCH   1   2
ATOM      2  C   UNL A   1      37.465  31.144  29.788  1.00  0.00     0.188 C 
BRANCH   2   3
ATOM      3  O   UNL A   1      36.605  30.827  28.709  1.00  0.00    -0.376 OA
BRANCH   3   4
ATOM      4  C   UNL A   1      35.741  31.864  28.276  1.00  0.00     0.202 C 
BRANCH   4   5
ATOM      5  C   UNL A   1      34.246  31.638  28.168  1.00  0.00     0.261 C 
BRANCH   5   6
ATOM      6  O   UNL A   1      33.945  30.742  27.124  1.00  0.00    -0.460 OA
BRANCH   6   7
ATOM      7  C   UNL A   1      32.640  30.639  26.853  1.00  0.00     0.338 C 
ATOM      8  O   UNL A   1      31.796  31.516  26.849  1.00  0.00    -0.246 OA
BRANCH   7   9
ATOM      9  C   UNL A   1      32.504  29.346  26.173  1.00  0.00     0.060 A 
ATOM     10  C   UNL A   1      33.947  28.189  22.938  1.00  0.00     0.046 C 
ATOM     11  C   UNL A   1      33.125  28.108  24.192  1.00  0.00    -0.026 A 
ATOM     12  C   UNL A   1      32.980  29.320  24.870  1.00  0.00     0.021 A 
ATOM     13  C   UNL A   1      32.732  26.927  24.840  1.00  0.00     0.052 A 
ATOM     14  C   UNL A   1      32.563  26.955  26.210  1.00  0.00     0.028 A 
ATOM     15  C   UNL A   1      32.330  28.148  26.868  1.00  0.00     0.018 A 
BRANCH  13  16
ATOM     16  N   UNL A   1      32.586  25.663  24.202  1.00  0.00    -0.279 N 
ATOM     17  H   UNL A   1      31.696  25.373  23.897  1.00  0.00     0.180 HD
BRANCH  16  18
ATOM     18  S   UNL A   1      33.950  24.629  23.958  1.00  0.00     0.262 S 
ATOM     19  O   UNL A   1      34.362  24.748  22.576  1.00  0.00    -0.201 OA
ATOM     20  O   UNL A   1      34.822  25.087  25.024  1.00  0.00    -0.201 OA
BRANCH  18  21
ATOM     21  C   UNL A   1      33.642  22.865  24.262  1.00  0.00     0.090 A 
ATOM     22  C   UNL A   1      32.346  22.344  24.209  1.00  0.00     0.024 A 
ATOM     23  C   UNL A   1      34.685  21.929  24.424  1.00  0.00    -0.029 A 
ATOM     24  C   UNL A   1      32.034  21.054  24.665  1.00  0.00     0.021 A 
ATOM     25  C   UNL A   1      34.376  20.602  24.824  1.00  0.00     0.024 A 
ATOM     26  C   UNL A   1      36.114  22.159  24.012  1.00  0.00     0.046 C 
ATOM     27  C   UNL A   1      33.057  20.181  25.010  1.00  0.00     0.052 A 
BRANCH  27  28
ATOM     28  C   UNL A   1      32.757  18.860  25.454  1.00  0.00     0.099 C 
ATOM     29  N   UNL A   1      32.509  17.781  25.843  1.00  0.00    -0.192 NA
ENDBRANCH  27  28
ENDBRANCH  18  21
ENDBRANCH  16  18
ENDBRANCH  13  16
ENDBRANCH   7   9
ENDBRANCH   6   7
ENDBRANCH   5   6
ENDBRANCH   4   5
ENDBRANCH   3   4
ENDBRANCH   2   3
ENDBRANCH   1   2
BRANCH   1  30
ATOM     30  O   UNL A   1      37.843  31.519  32.300  1.00  0.00    -0.377 OA
BRANCH  30  31
ATOM     31  C   UNL A   1      39.004  30.701  32.284  1.00  0.00     0.188 C 
BRANCH  31  32
ATOM     32  C   UNL A   1      38.945  29.325  32.926  1.00  0.00     0.188 C 
BRANCH  32  33
ATOM     33  O   UNL A   1      38.671  28.346  31.928  1.00  0.00    -0.376 OA
BRANCH  33  34
ATOM     34  C   UNL A   1      39.632  28.232  30.882  1.00  0.00     0.202 C 
BRANCH  34  35
ATOM     35  C   UNL A   1      39.112  27.505  29.636  1.00  0.00     0.261 C 
BRANCH  35  36
ATOM     36  O   UNL A   1      40.140  26.619  29.139  1.00  0.00    -0.460 OA
BRANCH  36  37
ATOM     37  C   UNL A   1      40.722  26.977  27.960  1.00  0.00     0.338 C 
ATOM     38  O   UNL A   1      40.154  27.535  27.035  1.00  0.00    -0.246 OA
BRANCH  37  39
ATOM     39  C   UNL A   1      42.055  26.306  27.818  1.00  0.00     0.060 A 
ATOM     40  C   UNL A   1      42.289  25.042  28.388  1.00  0.00     0.016 A 
ATOM     41  C   UNL A   1      43.139  27.098  27.498  1.00  0.00     0.016 A 
ATOM     42  C   UNL A   1      43.575  24.698  28.860  1.00  0.00     0.010 A 
ATOM     43  C   UNL A   1      44.356  26.799  28.078  1.00  0.00     0.010 A 
ATOM     44  C   UNL A   1      44.593  25.641  28.833  1.00  0.00    -0.014 A 
BRANCH  44  45
ATOM     45  C   UNL A   1      45.878  25.593  29.597  1.00  0.00     0.031 A 
ATOM     46  C   UNL A   1      47.125  25.199  28.827  1.00  0.00     0.074 A 
ATOM     47  C   UNL A   1      45.947  26.245  30.800  1.00  0.00     0.049 A 
ATOM     48  N   UNL A   1      48.330  25.179  29.285  1.00  0.00    -0.248 NA
ATOM     49  C   UNL A   1      47.121  24.865  27.395  1.00  0.00     0.031 C 
ATOM     50  C   UNL A   1      47.116  26.831  31.483  1.00  0.00     0.029 A 
ATOM     51  N   UNL A   1      44.950  26.631  31.679  1.00  0.00    -0.354 N 
ATOM     52  C   UNL A   1      49.219  25.270  28.211  1.00  0.00     0.074 A 
ATOM     53  C   UNL A   1      48.413  24.977  27.056  1.00  0.00     0.031 C 
ATOM     54  C   UNL A   1      46.789  27.365  32.677  1.00  0.00     0.029 A 
ATOM     55  C   UNL A   1      45.464  26.884  32.957  1.00  0.00     0.049 A 
ATOM     56  H   UNL A   1      44.000  26.716  31.437  1.00  0.00     0.167 HD
ATOM     57  C   UNL A   1      50.491  25.748  28.420  1.00  0.00     0.031 A 
ATOM     58  C   UNL A   1      45.226  26.007  33.983  1.00  0.00     0.031 A 
ATOM     59  C   UNL A   1      50.733  25.980  29.861  1.00  0.00     0.049 A 
ATOM     60  C   UNL A   1      46.518  25.175  34.202  1.00  0.00     0.074 A 
ATOM     61  C   UNL A   1      51.190  27.043  30.618  1.00  0.00     0.029 A 
ATOM     62  N   UNL A   1      50.268  25.044  30.782  1.00  0.00    -0.354 N 
ATOM     63  N   UNL A   1      47.370  24.867  33.240  1.00  0.00    -0.248 NA
ATOM     64  C   UNL A   1      47.109  24.954  35.527  1.00  0.00     0.031 C 
ATOM     65  C   UNL A   1      50.782  26.822  31.971  1.00  0.00     0.029 A 
ATOM     66  C   UNL A   1      50.171  25.574  32.051  1.00  0.00     0.049 A 
ATOM     67  H   UNL A   1      50.038  24.114  30.554  1.00  0.00     0.167 HD
ATOM     68  C   UNL A   1      48.618  24.650  33.778  1.00  0.00     0.074 A 
ATOM     69  C   UNL A   1      48.380  24.639  35.216  1.00  0.00     0.031 C 
ATOM     70  C   UNL A   1      49.847  24.690  33.164  1.00  0.00     0.031 A 
BRANCH  57  71
ATOM     71  C   UNL A   1      51.496  26.223  27.353  1.00  0.00    -0.014 A 
ATOM     72  C   UNL A   1      51.891  25.326  26.332  1.00  0.00     0.009 A 
ATOM     73  C   UNL A   1      52.143  27.474  27.310  1.00  0.00     0.009 A 
ATOM     74  C   UNL A   1      52.861  25.633  25.360  1.00  0.00     0.001 A 
ATOM     75  C   UNL A   1      53.094  27.805  26.317  1.00  0.00     0.001 A 
ATOM     76  C   UNL A   1      53.459  26.881  25.344  1.00  0.00     0.000 A 
ENDBRANCH  57  71
BRANCH  58  77
ATOM     77  C   UNL A   1      43.749  25.690  33.999  1.00  0.00    -0.014 A 
ATOM     78  C   UNL A   1      43.465  24.324  34.289  1.00  0.00     0.009 A 
ATOM     79  C   UNL A   1      42.822  26.641  34.455  1.00  0.00     0.009 A 
ATOM     80  C   UNL A   1      42.516  23.970  35.262  1.00  0.00     0.001 A 
ATOM     81  C   UNL A   1      41.831  26.265  35.389  1.00  0.00     0.001 A 
ATOM     82  C   UNL A   1      41.740  24.954  35.859  1.00  0.00     0.000 A 
ENDBRANCH  58  77
BRANCH  70  83
ATOM     83  C   UNL A   1      50.936  23.707  33.535  1.00  0.00    -0.014 A 
ATOM     84  C   UNL A   1      51.018  22.433  32.969  1.00  0.00     0.009 A 
ATOM     85  C   UNL A   1      52.056  24.148  34.285  1.00  0.00     0.009 A 
ATOM     86  C   UNL A   1      52.138  21.626  33.170  1.00  0.00     0.001 A 
ATOM     87  C   UNL A   1      53.203  23.371  34.432  1.00  0.00     0.001 A 
ATOM     88  C   UNL A   1      53.235  22.101  33.886  1.00  0.00     0.000 A 
ENDBRANCH  70  83
ENDBRANCH  44  45
ENDBRANCH  37  39
ENDBRANCH  36  37
ENDBRANCH  35  36
ENDBRANCH  34  35
ENDBRANCH  33  34
ENDBRANCH  32  33
ENDBRANCH  31  32
ENDBRANCH  30  31
ENDBRANCH   1  30
TORSDOF 24
ENDMDL
