MODEL 1
REMARK VINA RESULT:      -9.3      0.000      0.000
REMARK SMILES CCCc1cc(OC(F)(F)F)cc2c1O[C@@H](C(F)(F)F)C(C(=O)OCCOCCOCCOCCOC(=O)c1ccc(-c3c4nc(c(-c5ccccc5)c5ccc([nH]5)c(-c5ccccc5)c5nc(c(-c6ccccc6)c6ccc3[nH]6)C=C5)C=C4)cc1)=C2
REMARK SMILES IDX 30 1 29 2 28 3 27 4 26 5 25 6 24 7 22 8 23 9 21 10 4 11 5 12
REMARK SMILES IDX 14 13 6 14 13 15 15 16 12 17 87 18 16 19 3 20 2 21 1 22 7 23
REMARK SMILES IDX 8 24 9 25 10 26 11 27 17 28 18 29 19 30 20 31 31 32 32 33
REMARK SMILES IDX 33 34 34 35 35 36 36 37 37 38 38 39 39 40 40 41 86 42 41 43
REMARK SMILES IDX 85 44 42 45 43 46 44 47 79 48 45 49 84 50 78 51 80 52 46 53
REMARK SMILES IDX 83 54 77 55 76 56 47 58 69 59 54 60 68 61 55 62 58 63 67 64
REMARK SMILES IDX 81 65 56 66 57 67 66 69 82 70 59 71 48 72 49 73 53 74 50 75
REMARK SMILES IDX 52 76 51 77 70 78 71 79 75 80 72 81 74 82 73 83 60 84 61 85
REMARK SMILES IDX 65 86 62 87 64 88 63 89
REMARK H PARENT 80 57 58 68
REMARK Flexibility Score: inf
ROOT
ATOM      1  O   UNL A   1      31.503  29.680  25.751  1.00  0.00    -0.377 OA
ENDROOT
BRANCH   1   2
ATOM      2  C   UNL A   1      32.115  29.234  24.556  1.00  0.00     0.188 C 
BRANCH   2   3
ATOM      3  C   UNL A   1      31.198  28.961  23.352  1.00  0.00     0.188 C 
BRANCH   3   4
ATOM      4  O   UNL A   1      30.774  27.606  23.234  1.00  0.00    -0.376 OA
BRANCH   4   5
ATOM      5  C   UNL A   1      29.395  27.369  23.494  1.00  0.00     0.202 C 
BRANCH   5   6
ATOM      6  C   UNL A   1      29.136  26.000  24.128  1.00  0.00     0.261 C 
BRANCH   6   7
ATOM      7  O   UNL A   1      30.321  25.201  24.267  1.00  0.00    -0.460 OA
BRANCH   7   8
ATOM      8  C   UNL A   1      30.619  24.760  25.510  1.00  0.00     0.338 C 
ATOM      9  O   UNL A   1      30.003  25.006  26.530  1.00  0.00    -0.246 OA
BRANCH   8  10
ATOM     10  C   UNL A   1      31.745  23.816  25.430  1.00  0.00     0.087 C 
ATOM     11  C   UNL A   1      35.048  21.343  24.750  1.00  0.00    -0.002 A 
ATOM     12  C   UNL A   1      34.854  19.953  24.755  1.00  0.00     0.054 A 
ATOM     13  C   UNL A   1      33.925  22.163  24.947  1.00  0.00     0.131 A 
ATOM     14  C   UNL A   1      33.573  19.400  24.884  1.00  0.00     0.130 A 
ATOM     15  C   UNL A   1      32.639  21.620  25.094  1.00  0.00     0.021 A 
ATOM     16  O   UNL A   1      34.121  23.523  24.930  1.00  0.00    -0.475 OA
ATOM     17  C   UNL A   1      32.472  20.237  25.074  1.00  0.00     0.058 A 
ATOM     18  C   UNL A   1      31.494  22.521  25.179  1.00  0.00     0.027 C 
ATOM     19  C   UNL A   1      33.154  24.281  25.707  1.00  0.00     0.316 C 
BRANCH  11  20
ATOM     20  C   UNL A   1      36.402  21.998  24.555  1.00  0.00     0.039 C 
BRANCH  20  21
ATOM     21  C   UNL A   1      37.265  22.301  25.785  1.00  0.00     0.001 C 
ATOM     22  C   UNL A   1      37.398  23.789  26.082  1.00  0.00     0.004 C 
ENDBRANCH  20  21
ENDBRANCH  11  20
BRANCH  14  23
ATOM     23  O   UNL A   1      33.283  18.065  24.847  1.00  0.00    -0.406 OA
BRANCH  23  24
ATOM     24  C   UNL A   1      33.482  17.410  23.602  1.00  0.00     0.573 C 
ATOM     25  F   UNL A   1      32.945  18.111  22.580  1.00  0.00    -0.132 F 
ATOM     26  F   UNL A   1      34.797  17.211  23.371  1.00  0.00    -0.132 F 
ATOM     27  F   UNL A   1      32.877  16.203  23.646  1.00  0.00    -0.132 F 
ENDBRANCH  23  24
ENDBRANCH  14  23
BRANCH  19  28
ATOM     28  C   UNL A   1      33.482  25.775  25.552  1.00  0.00     0.430 C 
ATOM     29  F   UNL A   1      34.793  26.023  25.789  1.00  0.00    -0.167 F 
ATOM     30  F   UNL A   1      33.261  26.169  24.270  1.00  0.00    -0.167 F 
ATOM     31  F   UNL A   1      32.740  26.569  26.347  1.00  0.00    -0.167 F 
ENDBRANCH  19  28
ENDBRANCH   8  10
ENDBRANCH   7   8
ENDBRANCH   6   7
ENDBRANCH   5   6
ENDBRANCH   4   5
ENDBRANCH   3   4
ENDBRANCH   2   3
ENDBRANCH   1   2
BRANCH   1  32
ATOM     32  C   UNL A   1      31.506  31.069  26.063  1.00  0.00     0.188 C 
BRANCH  32  33
ATOM     33  C   UNL A   1      32.480  31.674  27.095  1.00  0.00     0.188 C 
BRANCH  33  34
ATOM     34  O   UNL A   1      33.298  30.727  27.774  1.00  0.00    -0.376 OA
BRANCH  34  35
ATOM     35  C   UNL A   1      34.666  31.077  27.928  1.00  0.00     0.202 C 
BRANCH  35  36
ATOM     36  C   UNL A   1      35.408  30.136  28.881  1.00  0.00     0.261 C 
BRANCH  36  37
ATOM     37  O   UNL A   1      36.339  30.795  29.751  1.00  0.00    -0.460 OA
BRANCH  37  38
ATOM     38  C   UNL A   1      36.944  30.025  30.682  1.00  0.00     0.338 C 
ATOM     39  O   UNL A   1      36.419  29.391  31.579  1.00  0.00    -0.246 OA
BRANCH  38  40
ATOM     40  C   UNL A   1      38.372  29.933  30.330  1.00  0.00     0.060 A 
ATOM     41  C   UNL A   1      38.780  30.365  29.062  1.00  0.00     0.016 A 
ATOM     42  C   UNL A   1      39.295  29.426  31.247  1.00  0.00     0.016 A 
ATOM     43  C   UNL A   1      40.119  30.249  28.692  1.00  0.00     0.010 A 
ATOM     44  C   UNL A   1      40.630  29.293  30.869  1.00  0.00     0.010 A 
ATOM     45  C   UNL A   1      41.038  29.670  29.578  1.00  0.00    -0.014 A 
BRANCH  45  46
ATOM     46  C   UNL A   1      42.369  29.254  29.086  1.00  0.00     0.031 A 
ATOM     47  C   UNL A   1      42.535  27.836  28.613  1.00  0.00     0.074 A 
ATOM     48  C   UNL A   1      43.407  30.106  29.062  1.00  0.00     0.049 A 
ATOM     49  N   UNL A   1      43.604  27.232  28.163  1.00  0.00    -0.248 NA
ATOM     50  C   UNL A   1      41.332  26.988  28.655  1.00  0.00     0.031 C 
ATOM     51  C   UNL A   1      43.364  31.510  29.465  1.00  0.00     0.029 A 
ATOM     52  N   UNL A   1      44.708  29.901  28.682  1.00  0.00    -0.354 N 
ATOM     53  C   UNL A   1      43.202  25.936  27.868  1.00  0.00     0.074 A 
ATOM     54  C   UNL A   1      41.803  25.831  28.215  1.00  0.00     0.031 C 
ATOM     55  C   UNL A   1      44.592  32.041  29.318  1.00  0.00     0.029 A 
ATOM     56  C   UNL A   1      45.506  31.007  28.836  1.00  0.00     0.049 A 
ATOM     57  H   UNL A   1      45.039  29.042  28.332  1.00  0.00     0.167 HD
ATOM     58  C   UNL A   1      43.931  24.921  27.348  1.00  0.00     0.031 A 
ATOM     59  C   UNL A   1      46.828  31.157  28.625  1.00  0.00     0.031 A 
ATOM     60  C   UNL A   1      45.328  25.012  27.029  1.00  0.00     0.049 A 
ATOM     61  C   UNL A   1      47.636  29.990  28.122  1.00  0.00     0.074 A 
ATOM     62  C   UNL A   1      46.154  24.041  26.492  1.00  0.00     0.029 A 
ATOM     63  N   UNL A   1      46.107  26.139  27.232  1.00  0.00    -0.354 N 
ATOM     64  N   UNL A   1      47.238  28.779  27.811  1.00  0.00    -0.248 NA
ATOM     65  C   UNL A   1      49.078  30.213  27.938  1.00  0.00     0.031 C 
ATOM     66  C   UNL A   1      47.449  24.568  26.415  1.00  0.00     0.029 A 
ATOM     67  C   UNL A   1      47.413  25.881  26.856  1.00  0.00     0.049 A 
ATOM     68  H   UNL A   1      45.781  26.995  27.591  1.00  0.00     0.167 HD
ATOM     69  C   UNL A   1      48.372  28.109  27.368  1.00  0.00     0.074 A 
ATOM     70  C   UNL A   1      49.471  29.048  27.442  1.00  0.00     0.031 C 
ATOM     71  C   UNL A   1      48.493  26.830  26.936  1.00  0.00     0.031 A 
BRANCH  58  72
ATOM     72  C   UNL A   1      43.224  23.617  27.127  1.00  0.00    -0.014 A 
ATOM     73  C   UNL A   1      42.957  22.746  28.196  1.00  0.00     0.009 A 
ATOM     74  C   UNL A   1      42.813  23.256  25.835  1.00  0.00     0.009 A 
ATOM     75  C   UNL A   1      42.319  21.526  27.970  1.00  0.00     0.001 A 
ATOM     76  C   UNL A   1      42.154  22.046  25.615  1.00  0.00     0.001 A 
ATOM     77  C   UNL A   1      41.915  21.179  26.681  1.00  0.00     0.000 A 
ENDBRANCH  58  72
BRANCH  59  78
ATOM     78  C   UNL A   1      47.484  32.461  28.901  1.00  0.00    -0.014 A 
ATOM     79  C   UNL A   1      47.991  32.750  30.176  1.00  0.00     0.009 A 
ATOM     80  C   UNL A   1      47.578  33.436  27.895  1.00  0.00     0.009 A 
ATOM     81  C   UNL A   1      48.556  33.999  30.446  1.00  0.00     0.001 A 
ATOM     82  C   UNL A   1      48.166  34.674  28.162  1.00  0.00     0.001 A 
ATOM     83  C   UNL A   1      48.646  34.958  29.438  1.00  0.00     0.000 A 
ENDBRANCH  59  78
BRANCH  71  84
ATOM     84  C   UNL A   1      49.851  26.383  26.475  1.00  0.00    -0.014 A 
ATOM     85  C   UNL A   1      50.285  26.605  25.160  1.00  0.00     0.009 A 
ATOM     86  C   UNL A   1      50.727  25.776  27.390  1.00  0.00     0.009 A 
ATOM     87  C   UNL A   1      51.560  26.201  24.761  1.00  0.00     0.001 A 
ATOM     88  C   UNL A   1      52.011  25.396  26.995  1.00  0.00     0.001 A 
ATOM     89  C   UNL A   1      52.423  25.602  25.680  1.00  0.00     0.000 A 
ENDBRANCH  71  84
ENDBRANCH  45  46
ENDBRANCH  38  40
ENDBRANCH  37  38
ENDBRANCH  36  37
ENDBRANCH  35  36
ENDBRANCH  34  35
ENDBRANCH  33  34
ENDBRANCH  32  33
ENDBRANCH   1  32
TORSDOF 25
ENDMDL
MODEL 2
REMARK VINA RESULT:      -8.9      4.653      8.715
REMARK SMILES CCCc1cc(OC(F)(F)F)cc2c1O[C@@H](C(F)(F)F)C(C(=O)OCCOCCOCCOCCOC(=O)c1ccc(-c3c4nc(c(-c5ccccc5)c5ccc([nH]5)c(-c5ccccc5)c5nc(c(-c6ccccc6)c6ccc3[nH]6)C=C5)C=C4)cc1)=C2
REMARK SMILES IDX 30 1 29 2 28 3 27 4 26 5 25 6 24 7 22 8 23 9 21 10 4 11 5 12
REMARK SMILES IDX 14 13 6 14 13 15 15 16 12 17 87 18 16 19 3 20 2 21 1 22 7 23
REMARK SMILES IDX 8 24 9 25 10 26 11 27 17 28 18 29 19 30 20 31 31 32 32 33
REMARK SMILES IDX 33 34 34 35 35 36 36 37 37 38 38 39 39 40 40 41 86 42 41 43
REMARK SMILES IDX 85 44 42 45 43 46 44 47 79 48 45 49 84 50 78 51 80 52 46 53
REMARK SMILES IDX 83 54 77 55 76 56 47 58 69 59 54 60 68 61 55 62 58 63 67 64
REMARK SMILES IDX 81 65 56 66 57 67 66 69 82 70 59 71 48 72 49 73 53 74 50 75
REMARK SMILES IDX 52 76 51 77 70 78 71 79 75 80 72 81 74 82 73 83 60 84 61 85
REMARK SMILES IDX 65 86 62 87 64 88 63 89
REMARK H PARENT 80 57 58 68
REMARK Flexibility Score: inf
ROOT
ATOM      1  O   UNL A   1      31.379  29.522  25.675  1.00  0.00    -0.377 OA
ENDROOT
BRANCH   1   2
ATOM      2  C   UNL A   1      31.723  29.203  24.340  1.00  0.00     0.188 C 
BRANCH   2   3
ATOM      3  C   UNL A   1      30.572  29.041  23.333  1.00  0.00     0.188 C 
BRANCH   3   4
ATOM      4  O   UNL A   1      30.247  27.686  23.030  1.00  0.00    -0.376 OA
BRANCH   4   5
ATOM      5  C   UNL A   1      28.964  27.251  23.463  1.00  0.00     0.202 C 
BRANCH   5   6
ATOM      6  C   UNL A   1      28.984  25.840  24.057  1.00  0.00     0.261 C 
BRANCH   6   7
ATOM      7  O   UNL A   1      30.309  25.327  24.267  1.00  0.00    -0.460 OA
BRANCH   7   8
ATOM      8  C   UNL A   1      30.603  24.882  25.509  1.00  0.00     0.338 C 
ATOM      9  O   UNL A   1      29.991  25.136  26.530  1.00  0.00    -0.246 OA
BRANCH   8  10
ATOM     10  C   UNL A   1      31.717  23.925  25.428  1.00  0.00     0.087 C 
ATOM     11  C   UNL A   1      34.974  21.396  24.734  1.00  0.00    -0.002 A 
ATOM     12  C   UNL A   1      34.768  20.009  24.796  1.00  0.00     0.054 A 
ATOM     13  C   UNL A   1      33.865  22.234  24.936  1.00  0.00     0.131 A 
ATOM     14  C   UNL A   1      33.488  19.474  24.987  1.00  0.00     0.130 A 
ATOM     15  C   UNL A   1      32.580  21.710  25.145  1.00  0.00     0.021 A 
ATOM     16  O   UNL A   1      34.073  23.590  24.863  1.00  0.00    -0.475 OA
ATOM     17  C   UNL A   1      32.401  20.328  25.182  1.00  0.00     0.058 A 
ATOM     18  C   UNL A   1      31.446  22.623  25.233  1.00  0.00     0.027 C 
ATOM     19  C   UNL A   1      33.138  24.386  25.642  1.00  0.00     0.316 C 
BRANCH  11  20
ATOM     20  C   UNL A   1      36.327  22.030  24.470  1.00  0.00     0.039 C 
BRANCH  20  21
ATOM     21  C   UNL A   1      37.298  22.222  25.641  1.00  0.00     0.001 C 
ATOM     22  C   UNL A   1      37.527  23.682  26.007  1.00  0.00     0.004 C 
ENDBRANCH  20  21
ENDBRANCH  11  20
BRANCH  14  23
ATOM     23  O   UNL A   1      33.185  18.141  25.009  1.00  0.00    -0.406 OA
BRANCH  23  24
ATOM     24  C   UNL A   1      33.203  17.469  23.757  1.00  0.00     0.573 C 
ATOM     25  F   UNL A   1      34.421  17.532  23.177  1.00  0.00    -0.132 F 
ATOM     26  F   UNL A   1      32.838  16.177  23.903  1.00  0.00    -0.132 F 
ATOM     27  F   UNL A   1      32.314  18.065  22.932  1.00  0.00    -0.132 F 
ENDBRANCH  23  24
ENDBRANCH  14  23
BRANCH  19  28
ATOM     28  C   UNL A   1      33.474  25.870  25.421  1.00  0.00     0.430 C 
ATOM     29  F   UNL A   1      32.814  26.664  26.298  1.00  0.00    -0.167 F 
ATOM     30  F   UNL A   1      34.796  26.087  25.655  1.00  0.00    -0.167 F 
ATOM     31  F   UNL A   1      33.216  26.294  24.170  1.00  0.00    -0.167 F 
ENDBRANCH  19  28
ENDBRANCH   8  10
ENDBRANCH   7   8
ENDBRANCH   6   7
ENDBRANCH   5   6
ENDBRANCH   4   5
ENDBRANCH   3   4
ENDBRANCH   2   3
ENDBRANCH   1   2
BRANCH   1  32
ATOM     32  C   UNL A   1      31.869  30.726  26.256  1.00  0.00     0.188 C 
BRANCH  32  33
ATOM     33  C   UNL A   1      33.090  30.743  27.199  1.00  0.00     0.188 C 
BRANCH  33  34
ATOM     34  O   UNL A   1      33.658  29.465  27.465  1.00  0.00    -0.376 OA
BRANCH  34  35
ATOM     35  C   UNL A   1      35.044  29.324  27.183  1.00  0.00     0.202 C 
BRANCH  35  36
ATOM     36  C   UNL A   1      35.927  29.767  28.352  1.00  0.00     0.261 C 
BRANCH  36  37
ATOM     37  O   UNL A   1      36.675  30.967  28.102  1.00  0.00    -0.460 OA
BRANCH  37  38
ATOM     38  C   UNL A   1      36.323  32.057  28.819  1.00  0.00     0.338 C 
ATOM     39  O   UNL A   1      35.200  32.430  29.103  1.00  0.00    -0.246 OA
BRANCH  38  40
ATOM     40  C   UNL A   1      37.556  32.652  29.363  1.00  0.00     0.060 A 
ATOM     41  C   UNL A   1      38.512  31.807  29.939  1.00  0.00     0.016 A 
ATOM     42  C   UNL A   1      37.761  34.032  29.303  1.00  0.00     0.016 A 
ATOM     43  C   UNL A   1      39.667  32.352  30.498  1.00  0.00     0.010 A 
ATOM     44  C   UNL A   1      38.907  34.578  29.879  1.00  0.00     0.010 A 
ATOM     45  C   UNL A   1      39.845  33.743  30.510  1.00  0.00    -0.014 A 
BRANCH  45  46
ATOM     46  C   UNL A   1      40.889  34.341  31.369  1.00  0.00     0.031 A 
ATOM     47  C   UNL A   1      42.213  34.678  30.740  1.00  0.00     0.074 A 
ATOM     48  C   UNL A   1      40.675  34.579  32.674  1.00  0.00     0.049 A 
ATOM     49  N   UNL A   1      43.287  35.184  31.288  1.00  0.00    -0.248 NA
ATOM     50  C   UNL A   1      42.340  34.405  29.298  1.00  0.00     0.031 C 
ATOM     51  C   UNL A   1      39.427  34.324  33.391  1.00  0.00     0.029 A 
ATOM     52  N   UNL A   1      41.519  35.085  33.628  1.00  0.00    -0.354 N 
ATOM     53  C   UNL A   1      44.214  35.291  30.259  1.00  0.00     0.074 A 
ATOM     54  C   UNL A   1      43.590  34.772  29.063  1.00  0.00     0.031 C 
ATOM     55  C   UNL A   1      39.591  34.670  34.681  1.00  0.00     0.029 A 
ATOM     56  C   UNL A   1      40.960  35.144  34.880  1.00  0.00     0.049 A 
ATOM     57  H   UNL A   1      42.438  35.379  33.434  1.00  0.00     0.167 HD
ATOM     58  C   UNL A   1      45.473  35.784  30.303  1.00  0.00     0.031 A 
ATOM     59  C   UNL A   1      41.501  35.525  36.054  1.00  0.00     0.031 A 
ATOM     60  C   UNL A   1      46.108  36.273  31.495  1.00  0.00     0.049 A 
ATOM     61  C   UNL A   1      42.932  35.993  36.093  1.00  0.00     0.074 A 
ATOM     62  C   UNL A   1      47.379  36.798  31.641  1.00  0.00     0.029 A 
ATOM     63  N   UNL A   1      45.519  36.284  32.749  1.00  0.00    -0.354 N 
ATOM     64  N   UNL A   1      43.788  36.125  35.108  1.00  0.00    -0.248 NA
ATOM     65  C   UNL A   1      43.470  36.369  37.409  1.00  0.00     0.031 C 
ATOM     66  C   UNL A   1      47.577  37.083  32.997  1.00  0.00     0.029 A 
ATOM     67  C   UNL A   1      46.410  36.782  33.682  1.00  0.00     0.049 A 
ATOM     68  H   UNL A   1      44.604  35.982  32.947  1.00  0.00     0.167 HD
ATOM     69  C   UNL A   1      44.951  36.626  35.680  1.00  0.00     0.074 A 
ATOM     70  C   UNL A   1      44.689  36.782  37.095  1.00  0.00     0.031 C 
ATOM     71  C   UNL A   1      46.130  36.932  35.086  1.00  0.00     0.031 A 
BRANCH  58  72
ATOM     72  C   UNL A   1      46.252  35.781  29.021  1.00  0.00    -0.014 A 
ATOM     73  C   UNL A   1      47.023  34.669  28.644  1.00  0.00     0.009 A 
ATOM     74  C   UNL A   1      46.210  36.900  28.177  1.00  0.00     0.009 A 
ATOM     75  C   UNL A   1      47.760  34.691  27.459  1.00  0.00     0.001 A 
ATOM     76  C   UNL A   1      46.929  36.910  26.981  1.00  0.00     0.001 A 
ATOM     77  C   UNL A   1      47.709  35.810  26.627  1.00  0.00     0.000 A 
ENDBRANCH  58  72
BRANCH  59  78
ATOM     78  C   UNL A   1      40.695  35.468  37.300  1.00  0.00    -0.014 A 
ATOM     79  C   UNL A   1      39.996  36.598  37.749  1.00  0.00     0.009 A 
ATOM     80  C   UNL A   1      40.647  34.291  38.063  1.00  0.00     0.009 A 
ATOM     81  C   UNL A   1      39.285  36.557  38.952  1.00  0.00     0.001 A 
ATOM     82  C   UNL A   1      39.916  34.247  39.251  1.00  0.00     0.001 A 
ATOM     83  C   UNL A   1      39.243  35.381  39.700  1.00  0.00     0.000 A 
ENDBRANCH  59  78
BRANCH  71  84
ATOM     84  C   UNL A   1      47.214  37.499  35.957  1.00  0.00    -0.014 A 
ATOM     85  C   UNL A   1      47.312  38.878  36.194  1.00  0.00     0.009 A 
ATOM     86  C   UNL A   1      48.119  36.632  36.591  1.00  0.00     0.009 A 
ATOM     87  C   UNL A   1      48.315  39.380  37.026  1.00  0.00     0.001 A 
ATOM     88  C   UNL A   1      49.104  37.135  37.443  1.00  0.00     0.001 A 
ATOM     89  C   UNL A   1      49.205  38.509  37.654  1.00  0.00     0.000 A 
ENDBRANCH  71  84
ENDBRANCH  45  46
ENDBRANCH  38  40
ENDBRANCH  37  38
ENDBRANCH  36  37
ENDBRANCH  35  36
ENDBRANCH  34  35
ENDBRANCH  33  34
ENDBRANCH  32  33
ENDBRANCH   1  32
TORSDOF 25
ENDMDL
MODEL 3
REMARK VINA RESULT:      -8.7      5.374      9.224
REMARK SMILES CCCc1cc(OC(F)(F)F)cc2c1O[C@@H](C(F)(F)F)C(C(=O)OCCOCCOCCOCCOC(=O)c1ccc(-c3c4nc(c(-c5ccccc5)c5ccc([nH]5)c(-c5ccccc5)c5nc(c(-c6ccccc6)c6ccc3[nH]6)C=C5)C=C4)cc1)=C2
REMARK SMILES IDX 30 1 29 2 28 3 27 4 26 5 25 6 24 7 22 8 23 9 21 10 4 11 5 12
REMARK SMILES IDX 14 13 6 14 13 15 15 16 12 17 87 18 16 19 3 20 2 21 1 22 7 23
REMARK SMILES IDX 8 24 9 25 10 26 11 27 17 28 18 29 19 30 20 31 31 32 32 33
REMARK SMILES IDX 33 34 34 35 35 36 36 37 37 38 38 39 39 40 40 41 86 42 41 43
REMARK SMILES IDX 85 44 42 45 43 46 44 47 79 48 45 49 84 50 78 51 80 52 46 53
REMARK SMILES IDX 83 54 77 55 76 56 47 58 69 59 54 60 68 61 55 62 58 63 67 64
REMARK SMILES IDX 81 65 56 66 57 67 66 69 82 70 59 71 48 72 49 73 53 74 50 75
REMARK SMILES IDX 52 76 51 77 70 78 71 79 75 80 72 81 74 82 73 83 60 84 61 85
REMARK SMILES IDX 65 86 62 87 64 88 63 89
REMARK H PARENT 80 57 58 68
REMARK Flexibility Score: inf
ROOT
ATOM      1  O   UNL A   1      31.447  29.709  25.814  1.00  0.00    -0.377 OA
ENDROOT
BRANCH   1   2
ATOM      2  C   UNL A   1      31.572  29.447  24.429  1.00  0.00     0.188 C 
BRANCH   2   3
ATOM      3  C   UNL A   1      30.290  29.498  23.581  1.00  0.00     0.188 C 
BRANCH   3   4
ATOM      4  O   UNL A   1      29.899  28.241  23.035  1.00  0.00    -0.376 OA
BRANCH   4   5
ATOM      5  C   UNL A   1      28.643  27.742  23.479  1.00  0.00     0.202 C 
BRANCH   5   6
ATOM      6  C   UNL A   1      28.722  26.301  23.989  1.00  0.00     0.261 C 
BRANCH   6   7
ATOM      7  O   UNL A   1      30.067  25.837  24.184  1.00  0.00    -0.460 OA
BRANCH   7   8
ATOM      8  C   UNL A   1      30.392  25.408  25.425  1.00  0.00     0.338 C 
ATOM      9  O   UNL A   1      29.852  25.735  26.466  1.00  0.00    -0.246 OA
BRANCH   8  10
ATOM     10  C   UNL A   1      31.430  24.371  25.321  1.00  0.00     0.087 C 
ATOM     11  C   UNL A   1      34.533  21.662  24.601  1.00  0.00    -0.002 A 
ATOM     12  C   UNL A   1      34.214  20.302  24.464  1.00  0.00     0.054 A 
ATOM     13  C   UNL A   1      33.478  22.566  24.810  1.00  0.00     0.131 A 
ATOM     14  C   UNL A   1      32.883  19.866  24.467  1.00  0.00     0.130 A 
ATOM     15  C   UNL A   1      32.142  22.138  24.832  1.00  0.00     0.021 A 
ATOM     16  O   UNL A   1      33.798  23.897  24.933  1.00  0.00    -0.475 OA
ATOM     17  C   UNL A   1      31.852  20.785  24.673  1.00  0.00     0.058 A 
ATOM     18  C   UNL A   1      31.079  23.133  24.935  1.00  0.00     0.027 C 
ATOM     19  C   UNL A   1      32.854  24.673  25.721  1.00  0.00     0.316 C 
BRANCH  11  20
ATOM     20  C   UNL A   1      35.951  22.199  24.546  1.00  0.00     0.039 C 
BRANCH  20  21
ATOM     21  C   UNL A   1      36.721  22.401  25.857  1.00  0.00     0.001 C 
ATOM     22  C   UNL A   1      38.231  22.297  25.696  1.00  0.00     0.004 C 
ENDBRANCH  20  21
ENDBRANCH  11  20
BRANCH  14  23
ATOM     23  O   UNL A   1      32.476  18.573  24.288  1.00  0.00    -0.406 OA
BRANCH  23  24
ATOM     24  C   UNL A   1      32.864  17.645  25.291  1.00  0.00     0.573 C 
ATOM     25  F   UNL A   1      32.010  16.599  25.356  1.00  0.00    -0.132 F 
ATOM     26  F   UNL A   1      34.115  17.192  25.066  1.00  0.00    -0.132 F 
ATOM     27  F   UNL A   1      32.852  18.270  26.488  1.00  0.00    -0.132 F 
ENDBRANCH  23  24
ENDBRANCH  14  23
BRANCH  19  28
ATOM     28  C   UNL A   1      33.326  26.136  25.726  1.00  0.00     0.430 C 
ATOM     29  F   UNL A   1      32.642  26.874  26.632  1.00  0.00    -0.167 F 
ATOM     30  F   UNL A   1      34.629  26.203  26.109  1.00  0.00    -0.167 F 
ATOM     31  F   UNL A   1      33.233  26.730  24.522  1.00  0.00    -0.167 F 
ENDBRANCH  19  28
ENDBRANCH   8  10
ENDBRANCH   7   8
ENDBRANCH   6   7
ENDBRANCH   5   6
ENDBRANCH   4   5
ENDBRANCH   3   4
ENDBRANCH   2   3
ENDBRANCH   1   2
BRANCH   1  32
ATOM     32  C   UNL A   1      32.026  30.891  26.357  1.00  0.00     0.188 C 
BRANCH  32  33
ATOM     33  C   UNL A   1      33.286  30.851  27.248  1.00  0.00     0.188 C 
BRANCH  33  34
ATOM     34  O   UNL A   1      33.958  29.596  27.277  1.00  0.00    -0.376 OA
BRANCH  34  35
ATOM     35  C   UNL A   1      35.377  29.647  27.317  1.00  0.00     0.202 C 
BRANCH  35  36
ATOM     36  C   UNL A   1      35.918  29.791  28.742  1.00  0.00     0.261 C 
BRANCH  36  37
ATOM     37  O   UNL A   1      36.511  31.069  29.019  1.00  0.00    -0.460 OA
BRANCH  37  38
ATOM     38  C   UNL A   1      35.875  31.847  29.922  1.00  0.00     0.338 C 
ATOM     39  O   UNL A   1      34.677  31.934  30.114  1.00  0.00    -0.246 OA
BRANCH  38  40
ATOM     40  C   UNL A   1      36.900  32.468  30.779  1.00  0.00     0.060 A 
ATOM     41  C   UNL A   1      36.882  33.857  30.949  1.00  0.00     0.016 A 
ATOM     42  C   UNL A   1      37.867  31.681  31.408  1.00  0.00     0.016 A 
ATOM     43  C   UNL A   1      37.866  34.471  31.722  1.00  0.00     0.010 A 
ATOM     44  C   UNL A   1      38.862  32.297  32.165  1.00  0.00     0.010 A 
ATOM     45  C   UNL A   1      38.885  33.696  32.293  1.00  0.00    -0.014 A 
BRANCH  45  46
ATOM     46  C   UNL A   1      40.092  34.356  32.836  1.00  0.00     0.031 A 
ATOM     47  C   UNL A   1      40.077  34.781  34.278  1.00  0.00     0.074 A 
ATOM     48  C   UNL A   1      41.175  34.578  32.072  1.00  0.00     0.049 A 
ATOM     49  N   UNL A   1      40.998  35.397  34.971  1.00  0.00    -0.248 NA
ATOM     50  C   UNL A   1      38.854  34.470  35.038  1.00  0.00     0.031 C 
ATOM     51  C   UNL A   1      41.322  34.187  30.671  1.00  0.00     0.029 A 
ATOM     52  N   UNL A   1      42.358  35.200  32.378  1.00  0.00    -0.354 N 
ATOM     53  C   UNL A   1      40.468  35.544  36.246  1.00  0.00     0.074 A 
ATOM     54  C   UNL A   1      39.137  34.982  36.226  1.00  0.00     0.031 C 
ATOM     55  C   UNL A   1      42.531  34.587  30.235  1.00  0.00     0.029 A 
ATOM     56  C   UNL A   1      43.225  35.283  31.317  1.00  0.00     0.049 A 
ATOM     57  H   UNL A   1      42.565  35.554  33.273  1.00  0.00     0.167 HD
ATOM     58  C   UNL A   1      41.041  36.094  37.342  1.00  0.00     0.031 A 
ATOM     59  C   UNL A   1      44.435  35.868  31.232  1.00  0.00     0.031 A 
ATOM     60  C   UNL A   1      42.351  36.680  37.360  1.00  0.00     0.049 A 
ATOM     61  C   UNL A   1      45.018  36.546  32.444  1.00  0.00     0.074 A 
ATOM     62  C   UNL A   1      43.022  37.258  38.423  1.00  0.00     0.029 A 
ATOM     63  N   UNL A   1      43.184  36.774  36.258  1.00  0.00    -0.354 N 
ATOM     64  N   UNL A   1      44.524  36.646  33.655  1.00  0.00    -0.248 NA
ATOM     65  C   UNL A   1      46.331  37.187  32.276  1.00  0.00     0.031 C 
ATOM     66  C   UNL A   1      44.246  37.746  37.950  1.00  0.00     0.029 A 
ATOM     67  C   UNL A   1      44.354  37.424  36.606  1.00  0.00     0.049 A 
ATOM     68  H   UNL A   1      42.974  36.430  35.360  1.00  0.00     0.167 HD
ATOM     69  C   UNL A   1      45.476  37.334  34.397  1.00  0.00     0.074 A 
ATOM     70  C   UNL A   1      46.579  37.619  33.504  1.00  0.00     0.031 C 
ATOM     71  C   UNL A   1      45.441  37.697  35.703  1.00  0.00     0.031 A 
BRANCH  58  72
ATOM     72  C   UNL A   1      40.225  36.111  38.602  1.00  0.00    -0.014 A 
ATOM     73  C   UNL A   1      39.456  37.233  38.952  1.00  0.00     0.009 A 
ATOM     74  C   UNL A   1      40.221  34.991  39.445  1.00  0.00     0.009 A 
ATOM     75  C   UNL A   1      38.722  37.241  40.139  1.00  0.00     0.001 A 
ATOM     76  C   UNL A   1      39.467  34.993  40.619  1.00  0.00     0.001 A 
ATOM     77  C   UNL A   1      38.725  36.120  40.969  1.00  0.00     0.000 A 
ENDBRANCH  58  72
BRANCH  59  78
ATOM     78  C   UNL A   1      45.181  35.856  29.947  1.00  0.00    -0.014 A 
ATOM     79  C   UNL A   1      46.091  34.828  29.660  1.00  0.00     0.009 A 
ATOM     80  C   UNL A   1      45.007  36.890  29.015  1.00  0.00     0.009 A 
ATOM     81  C   UNL A   1      46.832  34.851  28.475  1.00  0.00     0.001 A 
ATOM     82  C   UNL A   1      45.731  36.897  27.821  1.00  0.00     0.001 A 
ATOM     83  C   UNL A   1      46.648  35.883  27.556  1.00  0.00     0.000 A 
ENDBRANCH  59  78
BRANCH  71  84
ATOM     84  C   UNL A   1      46.644  38.408  36.253  1.00  0.00    -0.014 A 
ATOM     85  C   UNL A   1      46.760  39.805  36.185  1.00  0.00     0.009 A 
ATOM     86  C   UNL A   1      47.651  37.671  36.897  1.00  0.00     0.009 A 
ATOM     87  C   UNL A   1      47.877  40.446  36.724  1.00  0.00     0.001 A 
ATOM     88  C   UNL A   1      48.754  38.318  37.458  1.00  0.00     0.001 A 
ATOM     89  C   UNL A   1      48.869  39.703  37.364  1.00  0.00     0.000 A 
ENDBRANCH  71  84
ENDBRANCH  45  46
ENDBRANCH  38  40
ENDBRANCH  37  38
ENDBRANCH  36  37
ENDBRANCH  35  36
ENDBRANCH  34  35
ENDBRANCH  33  34
ENDBRANCH  32  33
ENDBRANCH   1  32
TORSDOF 25
ENDMDL
