MODEL 1
REMARK VINA RESULT:      -9.3      0.000      0.000
REMARK SMILES CCc1ccc(-c2cc(Cl)cc3c2O[C@@H](C(F)(F)F)C(C(=O)OCCOCCOCCOCCOC(=O)c2ccc(-c4c5nc(c(-c6ccccc6)c6ccc([nH]6)c(-c6ccccc6)c6nc(c(-c7ccccc7)c7ccc4[nH]7)C=C6)C=C5)cc2)=C3)cc1
REMARK SMILES IDX 29 1 28 2 27 3 26 4 25 5 24 6 23 7 21 8 22 9 20 10 7 11 8 12
REMARK SMILES IDX 13 13 9 14 12 15 14 16 10 17 11 18 86 19 15 20 6 21 3 22
REMARK SMILES IDX 4 23 88 24 5 25 87 26 2 27 1 28 16 29 17 30 18 31 19 32
REMARK SMILES IDX 30 33 31 34 32 35 33 36 34 37 35 38 36 39 37 40 38 41 39 42
REMARK SMILES IDX 85 43 40 44 84 45 41 46 42 47 43 48 78 49 44 50 83 51 77 52
REMARK SMILES IDX 79 53 45 54 82 55 76 56 75 57 46 59 68 60 53 61 67 62 54 63
REMARK SMILES IDX 57 64 66 65 80 66 55 67 56 68 65 70 81 71 58 72 47 73 48 74
REMARK SMILES IDX 52 75 49 76 51 77 50 78 69 79 70 80 74 81 71 82 73 83 72 84
REMARK SMILES IDX 59 85 60 86 64 87 61 88 63 89 62 90
REMARK H PARENT 79 58 57 69
REMARK Flexibility Score: inf
ROOT
ATOM      1  O   UNL A   1      40.224  25.373  26.922  1.00  0.00    -0.377 OA
ENDROOT
BRANCH   1   2
ATOM      2  C   UNL A   1      39.081  24.750  27.473  1.00  0.00     0.188 C 
BRANCH   2   3
ATOM      3  C   UNL A   1      38.210  24.050  26.422  1.00  0.00     0.188 C 
BRANCH   3   4
ATOM      4  O   UNL A   1      38.663  22.743  26.076  1.00  0.00    -0.376 OA
BRANCH   4   5
ATOM      5  C   UNL A   1      37.765  21.909  25.344  1.00  0.00     0.202 C 
BRANCH   5   6
ATOM      6  C   UNL A   1      36.671  22.604  24.524  1.00  0.00     0.261 C 
BRANCH   6   7
ATOM      7  O   UNL A   1      35.365  22.298  25.066  1.00  0.00    -0.460 OA
BRANCH   7   8
ATOM      8  C   UNL A   1      34.325  22.897  24.464  1.00  0.00     0.338 C 
ATOM      9  O   UNL A   1      33.720  22.442  23.502  1.00  0.00    -0.246 OA
BRANCH   8  10
ATOM     10  C   UNL A   1      33.851  24.096  25.200  1.00  0.00     0.087 C 
ATOM     11  C   UNL A   1      30.965  26.345  23.242  1.00  0.00     0.026 A 
ATOM     12  C   UNL A   1      31.194  26.207  21.851  1.00  0.00     0.033 A 
ATOM     13  C   UNL A   1      31.917  25.738  24.087  1.00  0.00     0.135 A 
ATOM     14  C   UNL A   1      32.422  25.773  21.358  1.00  0.00     0.042 A 
ATOM     15  C   UNL A   1      33.218  25.535  23.596  1.00  0.00     0.019 A 
ATOM     16  O   UNL A   1      31.540  25.132  25.282  1.00  0.00    -0.475 OA
ATOM     17  Cl  UNL A   1      32.658  25.619  19.664  1.00  0.00    -0.084 Cl
ATOM     18  C   UNL A   1      33.474  25.537  22.228  1.00  0.00     0.032 A 
ATOM     19  C   UNL A   1      34.286  25.197  24.561  1.00  0.00     0.027 C 
ATOM     20  C   UNL A   1      32.563  24.291  25.980  1.00  0.00     0.316 C 
BRANCH  11  21
ATOM     21  C   UNL A   1      30.117  27.528  23.615  1.00  0.00    -0.015 A 
ATOM     22  C   UNL A   1      28.777  30.056  23.320  1.00  0.00    -0.048 A 
ATOM     23  C   UNL A   1      28.108  28.843  23.095  1.00  0.00     0.004 A 
ATOM     24  C   UNL A   1      30.086  29.987  23.801  1.00  0.00     0.004 A 
ATOM     25  C   UNL A   1      28.758  27.604  23.252  1.00  0.00     0.009 A 
ATOM     26  C   UNL A   1      30.739  28.747  23.951  1.00  0.00     0.009 A 
BRANCH  22  27
ATOM     27  C   UNL A   1      28.055  31.347  22.988  1.00  0.00     0.032 C 
ATOM     28  C   UNL A   1      28.434  32.069  21.698  1.00  0.00     0.009 C 
ENDBRANCH  22  27
ENDBRANCH  11  21
BRANCH  20  29
ATOM     29  C   UNL A   1      32.011  23.081  26.777  1.00  0.00     0.430 C 
ATOM     30  F   UNL A   1      32.926  22.704  27.711  1.00  0.00    -0.167 F 
ATOM     31  F   UNL A   1      30.884  23.405  27.453  1.00  0.00    -0.167 F 
ATOM     32  F   UNL A   1      31.737  21.980  26.062  1.00  0.00    -0.167 F 
ENDBRANCH  20  29
ENDBRANCH   8  10
ENDBRANCH   7   8
ENDBRANCH   6   7
ENDBRANCH   5   6
ENDBRANCH   4   5
ENDBRANCH   3   4
ENDBRANCH   2   3
ENDBRANCH   1   2
BRANCH   1  33
ATOM     33  C   UNL A   1      41.026  26.170  27.788  1.00  0.00     0.188 C 
BRANCH  33  34
ATOM     34  C   UNL A   1      40.569  27.570  28.261  1.00  0.00     0.188 C 
BRANCH  34  35
ATOM     35  O   UNL A   1      39.836  28.316  27.292  1.00  0.00    -0.376 OA
BRANCH  35  36
ATOM     36  C   UNL A   1      39.039  29.392  27.768  1.00  0.00     0.202 C 
BRANCH  36  37
ATOM     37  C   UNL A   1      38.180  29.037  28.989  1.00  0.00     0.261 C 
BRANCH  37  38
ATOM     38  O   UNL A   1      38.628  29.620  30.222  1.00  0.00    -0.460 OA
BRANCH  38  39
ATOM     39  C   UNL A   1      38.582  28.830  31.316  1.00  0.00     0.338 C 
ATOM     40  O   UNL A   1      38.551  27.612  31.348  1.00  0.00    -0.246 OA
BRANCH  39  41
ATOM     41  C   UNL A   1      38.777  29.681  32.505  1.00  0.00     0.060 A 
ATOM     42  C   UNL A   1      38.010  30.847  32.622  1.00  0.00     0.016 A 
ATOM     43  C   UNL A   1      39.700  29.335  33.495  1.00  0.00     0.016 A 
ATOM     44  C   UNL A   1      38.207  31.701  33.703  1.00  0.00     0.010 A 
ATOM     45  C   UNL A   1      39.911  30.201  34.570  1.00  0.00     0.010 A 
ATOM     46  C   UNL A   1      39.196  31.408  34.651  1.00  0.00    -0.014 A 
BRANCH  46  47
ATOM     47  C   UNL A   1      39.639  32.476  35.578  1.00  0.00     0.031 A 
ATOM     48  C   UNL A   1      38.976  32.555  36.927  1.00  0.00     0.074 A 
ATOM     49  C   UNL A   1      40.630  33.324  35.256  1.00  0.00     0.049 A 
ATOM     50  N   UNL A   1      39.218  33.366  37.924  1.00  0.00    -0.248 NA
ATOM     51  C   UNL A   1      37.896  31.586  37.187  1.00  0.00     0.031 C 
ATOM     52  C   UNL A   1      41.368  33.332  33.996  1.00  0.00     0.029 A 
ATOM     53  N   UNL A   1      41.185  34.349  35.981  1.00  0.00    -0.354 N 
ATOM     54  C   UNL A   1      38.326  33.004  38.925  1.00  0.00     0.074 A 
ATOM     55  C   UNL A   1      37.516  31.924  38.408  1.00  0.00     0.031 C 
ATOM     56  C   UNL A   1      42.282  34.320  34.034  1.00  0.00     0.029 A 
ATOM     57  C   UNL A   1      42.177  35.023  35.312  1.00  0.00     0.049 A 
ATOM     58  H   UNL A   1      40.900  34.579  36.895  1.00  0.00     0.167 HD
ATOM     59  C   UNL A   1      38.196  33.517  40.170  1.00  0.00     0.031 A 
ATOM     60  C   UNL A   1      42.905  36.092  35.688  1.00  0.00     0.031 A 
ATOM     61  C   UNL A   1      38.987  34.601  40.684  1.00  0.00     0.049 A 
ATOM     62  C   UNL A   1      42.693  36.689  37.056  1.00  0.00     0.074 A 
ATOM     63  C   UNL A   1      38.945  35.177  41.941  1.00  0.00     0.029 A 
ATOM     64  N   UNL A   1      39.953  35.280  39.961  1.00  0.00    -0.354 N 
ATOM     65  N   UNL A   1      41.886  36.300  38.015  1.00  0.00    -0.248 NA
ATOM     66  C   UNL A   1      43.505  37.868  37.397  1.00  0.00     0.031 C 
ATOM     67  C   UNL A   1      39.849  36.242  41.960  1.00  0.00     0.029 A 
ATOM     68  C   UNL A   1      40.494  36.292  40.734  1.00  0.00     0.049 A 
ATOM     69  H   UNL A   1      40.217  35.073  39.035  1.00  0.00     0.167 HD
ATOM     70  C   UNL A   1      42.112  37.168  39.076  1.00  0.00     0.074 A 
ATOM     71  C   UNL A   1      43.144  38.091  38.652  1.00  0.00     0.031 C 
ATOM     72  C   UNL A   1      41.520  37.200  40.296  1.00  0.00     0.031 A 
BRANCH  59  73
ATOM     73  C   UNL A   1      37.135  32.926  41.052  1.00  0.00    -0.014 A 
ATOM     74  C   UNL A   1      35.830  33.441  41.065  1.00  0.00     0.009 A 
ATOM     75  C   UNL A   1      37.440  31.819  41.859  1.00  0.00     0.009 A 
ATOM     76  C   UNL A   1      34.856  32.872  41.888  1.00  0.00     0.001 A 
ATOM     77  C   UNL A   1      36.458  31.238  42.663  1.00  0.00     0.001 A 
ATOM     78  C   UNL A   1      35.170  31.770  42.682  1.00  0.00     0.000 A 
ENDBRANCH  59  73
BRANCH  60  79
ATOM     79  C   UNL A   1      43.896  36.691  34.756  1.00  0.00    -0.014 A 
ATOM     80  C   UNL A   1      43.529  37.726  33.882  1.00  0.00     0.009 A 
ATOM     81  C   UNL A   1      45.208  36.194  34.703  1.00  0.00     0.009 A 
ATOM     82  C   UNL A   1      44.445  38.228  32.954  1.00  0.00     0.001 A 
ATOM     83  C   UNL A   1      46.130  36.717  33.795  1.00  0.00     0.001 A 
ATOM     84  C   UNL A   1      45.744  37.725  32.912  1.00  0.00     0.000 A 
ENDBRANCH  60  79
BRANCH  72  85
ATOM     85  C   UNL A   1      41.992  38.245  41.267  1.00  0.00    -0.014 A 
ATOM     86  C   UNL A   1      43.067  38.000  42.136  1.00  0.00     0.009 A 
ATOM     87  C   UNL A   1      41.384  39.510  41.275  1.00  0.00     0.009 A 
ATOM     88  C   UNL A   1      43.501  38.993  43.017  1.00  0.00     0.001 A 
ATOM     89  C   UNL A   1      41.839  40.510  42.137  1.00  0.00     0.001 A 
ATOM     90  C   UNL A   1      42.891  40.247  43.013  1.00  0.00     0.000 A 
ENDBRANCH  72  85
ENDBRANCH  46  47
ENDBRANCH  39  41
ENDBRANCH  38  39
ENDBRANCH  37  38
ENDBRANCH  36  37
ENDBRANCH  35  36
ENDBRANCH  34  35
ENDBRANCH  33  34
ENDBRANCH   1  33
TORSDOF 23
ENDMDL
MODEL 2
REMARK VINA RESULT:      -8.9      7.237     12.500
REMARK SMILES CCc1ccc(-c2cc(Cl)cc3c2O[C@@H](C(F)(F)F)C(C(=O)OCCOCCOCCOCCOC(=O)c2ccc(-c4c5nc(c(-c6ccccc6)c6ccc([nH]6)c(-c6ccccc6)c6nc(c(-c7ccccc7)c7ccc4[nH]7)C=C6)C=C5)cc2)=C3)cc1
REMARK SMILES IDX 29 1 28 2 27 3 26 4 25 5 24 6 23 7 21 8 22 9 20 10 7 11 8 12
REMARK SMILES IDX 13 13 9 14 12 15 14 16 10 17 11 18 86 19 15 20 6 21 3 22
REMARK SMILES IDX 4 23 88 24 5 25 87 26 2 27 1 28 16 29 17 30 18 31 19 32
REMARK SMILES IDX 30 33 31 34 32 35 33 36 34 37 35 38 36 39 37 40 38 41 39 42
REMARK SMILES IDX 85 43 40 44 84 45 41 46 42 47 43 48 78 49 44 50 83 51 77 52
REMARK SMILES IDX 79 53 45 54 82 55 76 56 75 57 46 59 68 60 53 61 67 62 54 63
REMARK SMILES IDX 57 64 66 65 80 66 55 67 56 68 65 70 81 71 58 72 47 73 48 74
REMARK SMILES IDX 52 75 49 76 51 77 50 78 69 79 70 80 74 81 71 82 73 83 72 84
REMARK SMILES IDX 59 85 60 86 64 87 61 88 63 89 62 90
REMARK H PARENT 79 58 57 69
REMARK Flexibility Score: inf
ROOT
ATOM      1  O   UNL A   1      34.061  33.545  28.932  1.00  0.00    -0.377 OA
ENDROOT
BRANCH   1   2
ATOM      2  C   UNL A   1      34.172  32.500  27.986  1.00  0.00     0.188 C 
BRANCH   2   3
ATOM      3  C   UNL A   1      32.821  32.079  27.392  1.00  0.00     0.188 C 
BRANCH   3   4
ATOM      4  O   UNL A   1      32.679  30.670  27.225  1.00  0.00    -0.376 OA
BRANCH   4   5
ATOM      5  C   UNL A   1      32.007  30.212  26.052  1.00  0.00     0.202 C 
BRANCH   5   6
ATOM      6  C   UNL A   1      32.799  29.311  25.096  1.00  0.00     0.261 C 
BRANCH   6   7
ATOM      7  O   UNL A   1      31.898  28.506  24.301  1.00  0.00    -0.460 OA
BRANCH   7   8
ATOM      8  C   UNL A   1      31.719  27.242  24.717  1.00  0.00     0.338 C 
ATOM      9  O   UNL A   1      30.661  26.791  25.138  1.00  0.00    -0.246 OA
BRANCH   8  10
ATOM     10  C   UNL A   1      32.893  26.377  24.441  1.00  0.00     0.087 C 
ATOM     11  C   UNL A   1      32.118  22.301  24.418  1.00  0.00     0.026 A 
ATOM     12  C   UNL A   1      31.054  22.067  25.323  1.00  0.00     0.033 A 
ATOM     13  C   UNL A   1      32.606  23.623  24.365  1.00  0.00     0.135 A 
ATOM     14  C   UNL A   1      30.721  22.997  26.306  1.00  0.00     0.042 A 
ATOM     15  C   UNL A   1      32.436  24.446  25.492  1.00  0.00     0.019 A 
ATOM     16  O   UNL A   1      33.025  24.191  23.166  1.00  0.00    -0.475 OA
ATOM     17  Cl  UNL A   1      29.424  22.676  27.384  1.00  0.00    -0.084 Cl
ATOM     18  C   UNL A   1      31.483  24.145  26.460  1.00  0.00     0.032 A 
ATOM     19  C   UNL A   1      33.208  25.705  25.562  1.00  0.00     0.027 C 
ATOM     20  C   UNL A   1      33.276  25.667  23.154  1.00  0.00     0.316 C 
BRANCH  11  21
ATOM     21  C   UNL A   1      32.919  21.076  24.077  1.00  0.00    -0.015 A 
ATOM     22  C   UNL A   1      34.025  18.437  24.373  1.00  0.00    -0.048 A 
ATOM     23  C   UNL A   1      32.864  18.663  23.619  1.00  0.00     0.004 A 
ATOM     24  C   UNL A   1      34.688  19.556  24.882  1.00  0.00     0.004 A 
ATOM     25  C   UNL A   1      32.329  19.956  23.462  1.00  0.00     0.009 A 
ATOM     26  C   UNL A   1      34.148  20.850  24.730  1.00  0.00     0.009 A 
BRANCH  22  27
ATOM     27  C   UNL A   1      34.456  17.004  24.619  1.00  0.00     0.032 C 
ATOM     28  C   UNL A   1      33.561  16.127  25.489  1.00  0.00     0.009 C 
ENDBRANCH  22  27
ENDBRANCH  11  21
BRANCH  20  29
ATOM     29  C   UNL A   1      32.981  26.390  21.816  1.00  0.00     0.430 C 
ATOM     30  F   UNL A   1      33.256  25.550  20.781  1.00  0.00    -0.167 F 
ATOM     31  F   UNL A   1      31.672  26.717  21.706  1.00  0.00    -0.167 F 
ATOM     32  F   UNL A   1      33.685  27.508  21.581  1.00  0.00    -0.167 F 
ENDBRANCH  20  29
ENDBRANCH   8  10
ENDBRANCH   7   8
ENDBRANCH   6   7
ENDBRANCH   5   6
ENDBRANCH   4   5
ENDBRANCH   3   4
ENDBRANCH   2   3
ENDBRANCH   1   2
BRANCH   1  33
ATOM     33  C   UNL A   1      35.180  33.791  29.779  1.00  0.00     0.188 C 
BRANCH  33  34
ATOM     34  C   UNL A   1      35.537  32.846  30.949  1.00  0.00     0.188 C 
BRANCH  34  35
ATOM     35  O   UNL A   1      36.337  31.723  30.585  1.00  0.00    -0.376 OA
BRANCH  35  36
ATOM     36  C   UNL A   1      36.122  30.514  31.300  1.00  0.00     0.202 C 
BRANCH  36  37
ATOM     37  C   UNL A   1      37.173  29.431  31.021  1.00  0.00     0.261 C 
BRANCH  37  38
ATOM     38  O   UNL A   1      38.216  29.345  32.003  1.00  0.00    -0.460 OA
BRANCH  38  39
ATOM     39  C   UNL A   1      39.120  30.347  32.015  1.00  0.00     0.338 C 
ATOM     40  O   UNL A   1      39.092  31.360  32.693  1.00  0.00    -0.246 OA
BRANCH  39  41
ATOM     41  C   UNL A   1      40.279  29.928  31.206  1.00  0.00     0.060 A 
ATOM     42  C   UNL A   1      41.258  29.128  31.809  1.00  0.00     0.016 A 
ATOM     43  C   UNL A   1      40.401  30.315  29.869  1.00  0.00     0.016 A 
ATOM     44  C   UNL A   1      42.392  28.760  31.091  1.00  0.00     0.010 A 
ATOM     45  C   UNL A   1      41.548  29.961  29.154  1.00  0.00     0.010 A 
ATOM     46  C   UNL A   1      42.566  29.221  29.779  1.00  0.00    -0.014 A 
BRANCH  46  47
ATOM     47  C   UNL A   1      43.908  29.130  29.160  1.00  0.00     0.031 A 
ATOM     48  C   UNL A   1      44.223  27.907  28.340  1.00  0.00     0.074 A 
ATOM     49  C   UNL A   1      44.811  30.118  29.280  1.00  0.00     0.049 A 
ATOM     50  N   UNL A   1      45.304  27.616  27.665  1.00  0.00    -0.248 NA
ATOM     51  C   UNL A   1      43.174  26.874  28.271  1.00  0.00     0.031 C 
ATOM     52  C   UNL A   1      44.617  31.362  30.021  1.00  0.00     0.029 A 
ATOM     53  N   UNL A   1      46.079  30.223  28.767  1.00  0.00    -0.354 N 
ATOM     54  C   UNL A   1      45.065  26.374  27.091  1.00  0.00     0.074 A 
ATOM     55  C   UNL A   1      43.751  25.950  27.521  1.00  0.00     0.031 C 
ATOM     56  C   UNL A   1      45.733  32.107  29.919  1.00  0.00     0.029 A 
ATOM     57  C   UNL A   1      46.722  31.383  29.121  1.00  0.00     0.049 A 
ATOM     58  H   UNL A   1      46.490  29.531  28.199  1.00  0.00     0.167 HD
ATOM     59  C   UNL A   1      45.861  25.653  26.270  1.00  0.00     0.031 A 
ATOM     60  C   UNL A   1      47.972  31.803  28.841  1.00  0.00     0.031 A 
ATOM     61  C   UNL A   1      47.173  26.061  25.852  1.00  0.00     0.049 A 
ATOM     62  C   UNL A   1      48.865  30.946  27.981  1.00  0.00     0.074 A 
ATOM     63  C   UNL A   1      48.049  25.408  25.004  1.00  0.00     0.029 A 
ATOM     64  N   UNL A   1      47.802  27.225  26.264  1.00  0.00    -0.354 N 
ATOM     65  N   UNL A   1      48.605  29.801  27.397  1.00  0.00    -0.248 NA
ATOM     66  C   UNL A   1      50.224  31.451  27.730  1.00  0.00     0.031 C 
ATOM     67  C   UNL A   1      49.232  26.151  24.947  1.00  0.00     0.029 A 
ATOM     68  C   UNL A   1      49.069  27.294  25.714  1.00  0.00     0.049 A 
ATOM     69  H   UNL A   1      47.406  27.901  26.860  1.00  0.00     0.167 HD
ATOM     70  C   UNL A   1      49.755  29.463  26.693  1.00  0.00     0.074 A 
ATOM     71  C   UNL A   1      50.707  30.533  26.906  1.00  0.00     0.031 C 
ATOM     72  C   UNL A   1      50.002  28.366  25.936  1.00  0.00     0.031 A 
BRANCH  59  73
ATOM     73  C   UNL A   1      45.341  24.327  25.795  1.00  0.00    -0.014 A 
ATOM     74  C   UNL A   1      44.412  24.244  24.746  1.00  0.00     0.009 A 
ATOM     75  C   UNL A   1      45.812  23.145  26.385  1.00  0.00     0.009 A 
ATOM     76  C   UNL A   1      43.946  23.000  24.315  1.00  0.00     0.001 A 
ATOM     77  C   UNL A   1      45.362  21.902  25.936  1.00  0.00     0.001 A 
ATOM     78  C   UNL A   1      44.425  21.832  24.907  1.00  0.00     0.000 A 
ENDBRANCH  59  73
BRANCH  60  79
ATOM     79  C   UNL A   1      48.473  33.089  29.392  1.00  0.00    -0.014 A 
ATOM     80  C   UNL A   1      49.186  33.127  30.600  1.00  0.00     0.009 A 
ATOM     81  C   UNL A   1      48.197  34.297  28.731  1.00  0.00     0.009 A 
ATOM     82  C   UNL A   1      49.583  34.348  31.151  1.00  0.00     0.001 A 
ATOM     83  C   UNL A   1      48.620  35.514  29.269  1.00  0.00     0.001 A 
ATOM     84  C   UNL A   1      49.302  35.540  30.485  1.00  0.00     0.000 A 
ENDBRANCH  60  79
BRANCH  72  85
ATOM     85  C   UNL A   1      51.341  28.280  25.259  1.00  0.00    -0.014 A 
ATOM     86  C   UNL A   1      51.535  28.777  23.961  1.00  0.00     0.009 A 
ATOM     87  C   UNL A   1      52.436  27.741  25.953  1.00  0.00     0.009 A 
ATOM     88  C   UNL A   1      52.793  28.705  23.359  1.00  0.00     0.001 A 
ATOM     89  C   UNL A   1      53.699  27.697  25.359  1.00  0.00     0.001 A 
ATOM     90  C   UNL A   1      53.874  28.170  24.059  1.00  0.00     0.000 A 
ENDBRANCH  72  85
ENDBRANCH  46  47
ENDBRANCH  39  41
ENDBRANCH  38  39
ENDBRANCH  37  38
ENDBRANCH  36  37
ENDBRANCH  35  36
ENDBRANCH  34  35
ENDBRANCH  33  34
ENDBRANCH   1  33
TORSDOF 23
ENDMDL
MODEL 3
REMARK VINA RESULT:      -8.9      2.705      5.306
REMARK SMILES CCc1ccc(-c2cc(Cl)cc3c2O[C@@H](C(F)(F)F)C(C(=O)OCCOCCOCCOCCOC(=O)c2ccc(-c4c5nc(c(-c6ccccc6)c6ccc([nH]6)c(-c6ccccc6)c6nc(c(-c7ccccc7)c7ccc4[nH]7)C=C6)C=C5)cc2)=C3)cc1
REMARK SMILES IDX 29 1 28 2 27 3 26 4 25 5 24 6 23 7 21 8 22 9 20 10 7 11 8 12
REMARK SMILES IDX 13 13 9 14 12 15 14 16 10 17 11 18 86 19 15 20 6 21 3 22
REMARK SMILES IDX 4 23 88 24 5 25 87 26 2 27 1 28 16 29 17 30 18 31 19 32
REMARK SMILES IDX 30 33 31 34 32 35 33 36 34 37 35 38 36 39 37 40 38 41 39 42
REMARK SMILES IDX 85 43 40 44 84 45 41 46 42 47 43 48 78 49 44 50 83 51 77 52
REMARK SMILES IDX 79 53 45 54 82 55 76 56 75 57 46 59 68 60 53 61 67 62 54 63
REMARK SMILES IDX 57 64 66 65 80 66 55 67 56 68 65 70 81 71 58 72 47 73 48 74
REMARK SMILES IDX 52 75 49 76 51 77 50 78 69 79 70 80 74 81 71 82 73 83 72 84
REMARK SMILES IDX 59 85 60 86 64 87 61 88 63 89 62 90
REMARK H PARENT 79 58 57 69
REMARK Flexibility Score: inf
ROOT
ATOM      1  O   UNL A   1      34.029  32.922  28.889  1.00  0.00    -0.377 OA
ENDROOT
BRANCH   1   2
ATOM      2  C   UNL A   1      33.902  31.928  27.890  1.00  0.00     0.188 C 
BRANCH   2   3
ATOM      3  C   UNL A   1      32.451  31.703  27.445  1.00  0.00     0.188 C 
BRANCH   3   4
ATOM      4  O   UNL A   1      32.170  30.361  27.054  1.00  0.00    -0.376 OA
BRANCH   4   5
ATOM      5  C   UNL A   1      31.634  30.156  25.748  1.00  0.00     0.202 C 
BRANCH   5   6
ATOM      6  C   UNL A   1      32.482  29.344  24.761  1.00  0.00     0.261 C 
BRANCH   6   7
ATOM      7  O   UNL A   1      31.636  28.502  23.945  1.00  0.00    -0.460 OA
BRANCH   7   8
ATOM      8  C   UNL A   1      31.485  27.236  24.367  1.00  0.00     0.338 C 
ATOM      9  O   UNL A   1      30.436  26.762  24.784  1.00  0.00    -0.246 OA
BRANCH   8  10
ATOM     10  C   UNL A   1      32.682  26.399  24.105  1.00  0.00     0.087 C 
ATOM     11  C   UNL A   1      32.061  22.303  24.354  1.00  0.00     0.026 A 
ATOM     12  C   UNL A   1      31.036  22.088  25.307  1.00  0.00     0.033 A 
ATOM     13  C   UNL A   1      32.497  23.636  24.205  1.00  0.00     0.135 A 
ATOM     14  C   UNL A   1      30.699  23.064  26.242  1.00  0.00     0.042 A 
ATOM     15  C   UNL A   1      32.331  24.520  25.286  1.00  0.00     0.019 A 
ATOM     16  O   UNL A   1      32.856  24.144  22.961  1.00  0.00    -0.475 OA
ATOM     17  Cl  UNL A   1      29.449  22.763  27.381  1.00  0.00    -0.084 Cl
ATOM     18  C   UNL A   1      31.421  24.245  26.301  1.00  0.00     0.032 A 
ATOM     19  C   UNL A   1      33.057  25.808  25.253  1.00  0.00     0.027 C 
ATOM     20  C   UNL A   1      33.050  25.625  22.851  1.00  0.00     0.316 C 
BRANCH  11  21
ATOM     21  C   UNL A   1      32.898  21.090  24.061  1.00  0.00    -0.015 A 
ATOM     22  C   UNL A   1      34.125  18.522  24.485  1.00  0.00    -0.048 A 
ATOM     23  C   UNL A   1      32.924  18.650  23.772  1.00  0.00     0.004 A 
ATOM     24  C   UNL A   1      34.762  19.699  24.884  1.00  0.00     0.004 A 
ATOM     25  C   UNL A   1      32.328  19.907  23.552  1.00  0.00     0.009 A 
ATOM     26  C   UNL A   1      34.162  20.958  24.670  1.00  0.00     0.009 A 
BRANCH  22  27
ATOM     27  C   UNL A   1      34.626  17.128  24.808  1.00  0.00     0.032 C 
ATOM     28  C   UNL A   1      33.810  15.940  24.307  1.00  0.00     0.009 C 
ENDBRANCH  22  27
ENDBRANCH  11  21
BRANCH  20  29
ATOM     29  C   UNL A   1      32.687  26.253  21.482  1.00  0.00     0.430 C 
ATOM     30  F   UNL A   1      33.427  27.379  21.293  1.00  0.00    -0.167 F 
ATOM     31  F   UNL A   1      32.989  25.420  20.458  1.00  0.00    -0.167 F 
ATOM     32  F   UNL A   1      31.407  26.622  21.323  1.00  0.00    -0.167 F 
ENDBRANCH  20  29
ENDBRANCH   8  10
ENDBRANCH   7   8
ENDBRANCH   6   7
ENDBRANCH   5   6
ENDBRANCH   4   5
ENDBRANCH   3   4
ENDBRANCH   2   3
ENDBRANCH   1   2
BRANCH   1  33
ATOM     33  C   UNL A   1      35.305  33.086  29.500  1.00  0.00     0.188 C 
BRANCH  33  34
ATOM     34  C   UNL A   1      36.103  31.884  30.055  1.00  0.00     0.188 C 
BRANCH  34  35
ATOM     35  O   UNL A   1      36.939  31.231  29.102  1.00  0.00    -0.376 OA
BRANCH  35  36
ATOM     36  C   UNL A   1      37.262  29.870  29.346  1.00  0.00     0.202 C 
BRANCH  36  37
ATOM     37  C   UNL A   1      38.731  29.636  29.720  1.00  0.00     0.261 C 
BRANCH  37  38
ATOM     38  O   UNL A   1      39.028  29.819  31.112  1.00  0.00    -0.460 OA
BRANCH  38  39
ATOM     39  C   UNL A   1      38.038  29.535  31.984  1.00  0.00     0.338 C 
ATOM     40  O   UNL A   1      37.168  28.689  31.865  1.00  0.00    -0.246 OA
BRANCH  39  41
ATOM     41  C   UNL A   1      38.289  30.290  33.226  1.00  0.00     0.060 A 
ATOM     42  C   UNL A   1      37.471  31.391  33.512  1.00  0.00     0.016 A 
ATOM     43  C   UNL A   1      39.313  29.918  34.100  1.00  0.00     0.016 A 
ATOM     44  C   UNL A   1      37.714  32.158  34.648  1.00  0.00     0.010 A 
ATOM     45  C   UNL A   1      39.569  30.699  35.229  1.00  0.00     0.010 A 
ATOM     46  C   UNL A   1      38.798  31.847  35.480  1.00  0.00    -0.014 A 
BRANCH  46  47
ATOM     47  C   UNL A   1      39.260  32.856  36.461  1.00  0.00     0.031 A 
ATOM     48  C   UNL A   1      38.605  32.871  37.816  1.00  0.00     0.074 A 
ATOM     49  C   UNL A   1      40.261  33.708  36.181  1.00  0.00     0.049 A 
ATOM     50  N   UNL A   1      38.863  33.623  38.855  1.00  0.00    -0.248 NA
ATOM     51  C   UNL A   1      37.513  31.904  38.029  1.00  0.00     0.031 C 
ATOM     52  C   UNL A   1      40.993  33.774  34.919  1.00  0.00     0.029 A 
ATOM     53  N   UNL A   1      40.834  34.683  36.957  1.00  0.00    -0.354 N 
ATOM     54  C   UNL A   1      37.970  33.219  39.839  1.00  0.00     0.074 A 
ATOM     55  C   UNL A   1      37.143  32.180  39.269  1.00  0.00     0.031 C 
ATOM     56  C   UNL A   1      41.920  34.746  35.005  1.00  0.00     0.029 A 
ATOM     57  C   UNL A   1      41.832  35.379  36.321  1.00  0.00     0.049 A 
ATOM     58  H   UNL A   1      40.556  34.867  37.884  1.00  0.00     0.167 HD
ATOM     59  C   UNL A   1      37.854  33.664  41.111  1.00  0.00     0.031 A 
ATOM     60  C   UNL A   1      42.577  36.416  36.751  1.00  0.00     0.031 A 
ATOM     61  C   UNL A   1      38.662  34.707  41.680  1.00  0.00     0.049 A 
ATOM     62  C   UNL A   1      42.379  36.940  38.150  1.00  0.00     0.074 A 
ATOM     63  C   UNL A   1      38.634  35.214  42.966  1.00  0.00     0.029 A 
ATOM     64  N   UNL A   1      39.635  35.412  40.989  1.00  0.00    -0.354 N 
ATOM     65  N   UNL A   1      41.572  36.511  39.091  1.00  0.00    -0.248 NA
ATOM     66  C   UNL A   1      43.209  38.087  38.550  1.00  0.00     0.031 C 
ATOM     67  C   UNL A   1      39.554  36.265  43.038  1.00  0.00     0.029 A 
ATOM     68  C   UNL A   1      40.193  36.373  41.813  1.00  0.00     0.049 A 
ATOM     69  H   UNL A   1      39.890  35.253  40.052  1.00  0.00     0.167 HD
ATOM     70  C   UNL A   1      41.815  37.316  40.197  1.00  0.00     0.074 A 
ATOM     71  C   UNL A   1      42.857  38.247  39.818  1.00  0.00     0.031 C 
ATOM     72  C   UNL A   1      41.229  37.289  41.420  1.00  0.00     0.031 A 
BRANCH  59  73
ATOM     73  C   UNL A   1      36.789  33.041  41.966  1.00  0.00    -0.014 A 
ATOM     74  C   UNL A   1      35.474  33.530  41.962  1.00  0.00     0.009 A 
ATOM     75  C   UNL A   1      37.101  31.929  42.762  1.00  0.00     0.009 A 
ATOM     76  C   UNL A   1      34.497  32.931  42.759  1.00  0.00     0.001 A 
ATOM     77  C   UNL A   1      36.117  31.317  43.540  1.00  0.00     0.001 A 
ATOM     78  C   UNL A   1      34.818  31.824  43.543  1.00  0.00     0.000 A 
ENDBRANCH  59  73
BRANCH  60  79
ATOM     79  C   UNL A   1      43.571  37.052  35.847  1.00  0.00    -0.014 A 
ATOM     80  C   UNL A   1      43.163  37.914  34.819  1.00  0.00     0.009 A 
ATOM     81  C   UNL A   1      44.938  36.759  35.981  1.00  0.00     0.009 A 
ATOM     82  C   UNL A   1      44.097  38.444  33.924  1.00  0.00     0.001 A 
ATOM     83  C   UNL A   1      45.873  37.311  35.104  1.00  0.00     0.001 A 
ATOM     84  C   UNL A   1      45.450  38.144  34.069  1.00  0.00     0.000 A 
ENDBRANCH  60  79
BRANCH  72  85
ATOM     85  C   UNL A   1      41.721  38.273  42.444  1.00  0.00    -0.014 A 
ATOM     86  C   UNL A   1      41.145  39.547  42.567  1.00  0.00     0.009 A 
ATOM     87  C   UNL A   1      42.740  37.897  43.333  1.00  0.00     0.009 A 
ATOM     88  C   UNL A   1      41.605  40.438  43.539  1.00  0.00     0.001 A 
ATOM     89  C   UNL A   1      43.178  38.780  44.323  1.00  0.00     0.001 A 
ATOM     90  C   UNL A   1      42.616  40.052  44.418  1.00  0.00     0.000 A 
ENDBRANCH  72  85
ENDBRANCH  46  47
ENDBRANCH  39  41
ENDBRANCH  38  39
ENDBRANCH  37  38
ENDBRANCH  36  37
ENDBRANCH  35  36
ENDBRANCH  34  35
ENDBRANCH  33  34
ENDBRANCH   1  33
TORSDOF 23
ENDMDL
