MODEL 1
REMARK VINA RESULT:     -10.1      0.000      0.000
REMARK SMILES O=C(Cc1ccccc1C(=O)OCCOCCOCCOCCOC(=O)c1ccc(-c2c3nc(c(-c4ccccc4)c4ccc([nH]4)c(-c4ccccc4)c4nc(c(-c5ccccc5)c5ccc2[nH]5)C=C4)C=C3)cc1)Nc1cccc(OC[C@@H]2CCCO2)c1
REMARK SMILES IDX 16 1 15 2 14 3 13 4 12 5 10 6 11 7 9 8 4 9 5 10 6 11 8 12
REMARK SMILES IDX 7 13 3 14 2 15 1 16 75 17 76 19 77 20 88 21 78 22 80 23
REMARK SMILES IDX 79 24 81 25 82 26 83 27 84 28 87 29 85 30 86 31 17 32 18 33
REMARK SMILES IDX 19 34 20 35 21 36 22 37 23 38 24 39 25 40 26 41 27 42 28 43
REMARK SMILES IDX 74 44 29 45 73 46 30 47 31 48 32 49 67 50 33 51 72 52 66 53
REMARK SMILES IDX 68 54 34 55 71 56 65 57 64 58 35 60 57 61 42 62 56 63 43 64
REMARK SMILES IDX 46 65 55 66 69 67 44 68 45 69 54 71 70 72 47 73 36 74 37 75
REMARK SMILES IDX 41 76 38 77 40 78 39 79 58 80 59 81 63 82 60 83 62 84 61 85
REMARK SMILES IDX 48 86 49 87 53 88 50 89 52 90 51 91
REMARK H PARENT 75 18 68 59 46 70
REMARK Flexibility Score: inf
ROOT
ATOM      1  C   UNL A   1      33.456  26.086  26.110  1.00  0.00     0.188 C 
ENDROOT
BRANCH   1   2
ATOM      2  O   UNL A   1      34.573  25.529  25.440  1.00  0.00    -0.376 OA
BRANCH   2   3
ATOM      3  C   UNL A   1      35.023  24.236  25.794  1.00  0.00     0.202 C 
BRANCH   3   4
ATOM      4  C   UNL A   1      35.721  23.405  24.711  1.00  0.00     0.261 C 
BRANCH   4   5
ATOM      5  O   UNL A   1      35.078  22.160  24.414  1.00  0.00    -0.460 OA
BRANCH   5   6
ATOM      6  C   UNL A   1      35.016  21.234  25.392  1.00  0.00     0.338 C 
ATOM      7  O   UNL A   1      35.228  21.431  26.575  1.00  0.00    -0.246 OA
BRANCH   6   8
ATOM      8  C   UNL A   1      34.424  19.975  24.843  1.00  0.00     0.063 A 
ATOM      9  C   UNL A   1      33.051  19.774  24.549  1.00  0.00    -0.024 A 
ATOM     10  C   UNL A   1      32.662  18.495  24.101  1.00  0.00     0.005 A 
ATOM     11  C   UNL A   1      33.583  17.457  23.950  1.00  0.00     0.000 A 
ATOM     12  C   UNL A   1      35.336  18.911  24.710  1.00  0.00     0.016 A 
ATOM     13  C   UNL A   1      34.917  17.658  24.269  1.00  0.00     0.001 A 
BRANCH   9  14
ATOM     14  C   UNL A   1      32.030  20.886  24.739  1.00  0.00     0.136 C 
BRANCH  14  15
ATOM     15  C   UNL A   1      31.958  21.954  23.665  1.00  0.00     0.228 C 
ATOM     16  O   UNL A   1      31.815  21.649  22.483  1.00  0.00    -0.274 OA
ATOM     17  N   UNL A   1      32.116  23.253  24.136  1.00  0.00    -0.326 N 
ATOM     18  H   UNL A   1      32.300  23.388  25.093  1.00  0.00     0.169 HD
BRANCH  17  19
ATOM     19  C   UNL A   1      32.022  24.380  23.298  1.00  0.00     0.044 A 
ATOM     20  C   UNL A   1      32.939  24.537  22.262  1.00  0.00     0.026 A 
ATOM     21  C   UNL A   1      31.013  25.328  23.480  1.00  0.00     0.072 A 
ATOM     22  C   UNL A   1      32.785  25.594  21.363  1.00  0.00     0.006 A 
ATOM     23  C   UNL A   1      30.853  26.389  22.593  1.00  0.00     0.121 A 
ATOM     24  C   UNL A   1      31.741  26.509  21.525  1.00  0.00     0.046 A 
BRANCH  23  25
ATOM     25  O   UNL A   1      29.862  27.332  22.639  1.00  0.00    -0.491 OA
BRANCH  25  26
ATOM     26  C   UNL A   1      30.239  28.717  22.576  1.00  0.00     0.261 C 
BRANCH  26  27
ATOM     27  C   UNL A   1      29.335  29.614  23.428  1.00  0.00     0.156 C 
ATOM     28  C   UNL A   1      27.917  29.757  22.916  1.00  0.00     0.038 C 
ATOM     29  O   UNL A   1      29.841  30.964  23.391  1.00  0.00    -0.375 OA
ATOM     30  C   UNL A   1      27.485  31.026  23.604  1.00  0.00     0.031 C 
ATOM     31  C   UNL A   1      28.751  31.856  23.626  1.00  0.00     0.161 C 
ENDBRANCH  26  27
ENDBRANCH  25  26
ENDBRANCH  23  25
ENDBRANCH  17  19
ENDBRANCH  14  15
ENDBRANCH   9  14
ENDBRANCH   6   8
ENDBRANCH   5   6
ENDBRANCH   4   5
ENDBRANCH   3   4
ENDBRANCH   2   3
ENDBRANCH   1   2
BRANCH   1  32
ATOM     32  C   UNL A   1      33.609  27.577  26.502  1.00  0.00     0.188 C 
BRANCH  32  33
ATOM     33  O   UNL A   1      33.891  28.592  25.546  1.00  0.00    -0.377 OA
BRANCH  33  34
ATOM     34  C   UNL A   1      32.984  29.666  25.355  1.00  0.00     0.188 C 
BRANCH  34  35
ATOM     35  C   UNL A   1      32.683  30.606  26.542  1.00  0.00     0.188 C 
BRANCH  35  36
ATOM     36  O   UNL A   1      31.435  31.266  26.446  1.00  0.00    -0.376 OA
BRANCH  36  37
ATOM     37  C   UNL A   1      31.392  32.659  26.698  1.00  0.00     0.202 C 
BRANCH  37  38
ATOM     38  C   UNL A   1      32.644  33.377  27.228  1.00  0.00     0.261 C 
BRANCH  38  39
ATOM     39  O   UNL A   1      32.448  34.379  28.235  1.00  0.00    -0.460 OA
BRANCH  39  40
ATOM     40  C   UNL A   1      33.523  35.065  28.668  1.00  0.00     0.338 C 
ATOM     41  O   UNL A   1      33.617  36.270  28.842  1.00  0.00    -0.246 OA
BRANCH  40  42
ATOM     42  C   UNL A   1      34.538  34.070  29.067  1.00  0.00     0.060 A 
ATOM     43  C   UNL A   1      34.180  32.991  29.890  1.00  0.00     0.016 A 
ATOM     44  C   UNL A   1      35.845  34.203  28.607  1.00  0.00     0.016 A 
ATOM     45  C   UNL A   1      35.137  32.042  30.261  1.00  0.00     0.010 A 
ATOM     46  C   UNL A   1      36.806  33.281  29.018  1.00  0.00     0.010 A 
ATOM     47  C   UNL A   1      36.465  32.200  29.853  1.00  0.00    -0.014 A 
BRANCH  47  48
ATOM     48  C   UNL A   1      37.549  31.381  30.453  1.00  0.00     0.031 A 
ATOM     49  C   UNL A   1      37.947  31.677  31.872  1.00  0.00     0.074 A 
ATOM     50  C   UNL A   1      38.190  30.418  29.764  1.00  0.00     0.049 A 
ATOM     51  N   UNL A   1      38.942  31.201  32.574  1.00  0.00    -0.248 NA
ATOM     52  C   UNL A   1      37.101  32.642  32.595  1.00  0.00     0.031 C 
ATOM     53  C   UNL A   1      37.860  29.972  28.414  1.00  0.00     0.029 A 
ATOM     54  N   UNL A   1      39.286  29.663  30.108  1.00  0.00    -0.354 N 
ATOM     55  C   UNL A   1      38.845  31.814  33.816  1.00  0.00     0.074 A 
ATOM     56  C   UNL A   1      37.726  32.728  33.758  1.00  0.00     0.031 C 
ATOM     57  C   UNL A   1      38.769  29.062  28.020  1.00  0.00     0.029 A 
ATOM     58  C   UNL A   1      39.750  28.871  29.084  1.00  0.00     0.049 A 
ATOM     59  H   UNL A   1      39.699  29.686  31.001  1.00  0.00     0.167 HD
ATOM     60  C   UNL A   1      39.611  31.626  34.916  1.00  0.00     0.031 A 
ATOM     61  C   UNL A   1      40.856  28.104  29.005  1.00  0.00     0.031 A 
ATOM     62  C   UNL A   1      40.734  30.731  34.969  1.00  0.00     0.049 A 
ATOM     63  C   UNL A   1      41.771  28.002  30.200  1.00  0.00     0.074 A 
ATOM     64  C   UNL A   1      41.565  30.458  36.040  1.00  0.00     0.029 A 
ATOM     65  N   UNL A   1      41.189  29.973  33.902  1.00  0.00    -0.354 N 
ATOM     66  N   UNL A   1      41.656  28.563  31.380  1.00  0.00    -0.248 NA
ATOM     67  C   UNL A   1      42.957  27.143  30.060  1.00  0.00     0.031 C 
ATOM     68  C   UNL A   1      42.566  29.587  35.601  1.00  0.00     0.029 A 
ATOM     69  C   UNL A   1      42.313  29.259  34.279  1.00  0.00     0.049 A 
ATOM     70  H   UNL A   1      40.775  29.948  33.010  1.00  0.00     0.167 HD
ATOM     71  C   UNL A   1      42.724  28.089  32.134  1.00  0.00     0.074 A 
ATOM     72  C   UNL A   1      43.476  27.195  31.279  1.00  0.00     0.031 C 
ATOM     73  C   UNL A   1      43.047  28.363  33.421  1.00  0.00     0.031 A 
BRANCH  60  74
ATOM     74  C   UNL A   1      39.276  32.437  36.136  1.00  0.00    -0.014 A 
ATOM     75  C   UNL A   1      39.898  33.670  36.390  1.00  0.00     0.009 A 
ATOM     76  C   UNL A   1      38.311  31.964  37.038  1.00  0.00     0.009 A 
ATOM     77  C   UNL A   1      39.587  34.394  37.542  1.00  0.00     0.001 A 
ATOM     78  C   UNL A   1      37.978  32.706  38.172  1.00  0.00     0.001 A 
ATOM     79  C   UNL A   1      38.624  33.915  38.429  1.00  0.00     0.000 A 
ENDBRANCH  60  74
BRANCH  61  80
ATOM     80  C   UNL A   1      41.178  27.374  27.748  1.00  0.00    -0.014 A 
ATOM     81  C   UNL A   1      40.735  26.057  27.552  1.00  0.00     0.009 A 
ATOM     82  C   UNL A   1      41.956  27.980  26.750  1.00  0.00     0.009 A 
ATOM     83  C   UNL A   1      41.089  25.353  26.398  1.00  0.00     0.001 A 
ATOM     84  C   UNL A   1      42.283  27.285  25.583  1.00  0.00     0.001 A 
ATOM     85  C   UNL A   1      41.858  25.969  25.413  1.00  0.00     0.000 A 
ENDBRANCH  61  80
BRANCH  73  86
ATOM     86  C   UNL A   1      44.230  27.649  34.014  1.00  0.00    -0.014 A 
ATOM     87  C   UNL A   1      44.152  26.312  34.430  1.00  0.00     0.009 A 
ATOM     88  C   UNL A   1      45.467  28.312  34.088  1.00  0.00     0.009 A 
ATOM     89  C   UNL A   1      45.282  25.662  34.931  1.00  0.00     0.001 A 
ATOM     90  C   UNL A   1      46.602  27.651  34.559  1.00  0.00     0.001 A 
ATOM     91  C   UNL A   1      46.507  26.329  34.987  1.00  0.00     0.000 A 
ENDBRANCH  73  86
ENDBRANCH  47  48
ENDBRANCH  40  42
ENDBRANCH  39  40
ENDBRANCH  38  39
ENDBRANCH  37  38
ENDBRANCH  36  37
ENDBRANCH  35  36
ENDBRANCH  34  35
ENDBRANCH  33  34
ENDBRANCH  32  33
ENDBRANCH   1  32
TORSDOF 26
ENDMDL
MODEL 2
REMARK VINA RESULT:     -10.0      0.872      5.523
REMARK SMILES O=C(Cc1ccccc1C(=O)OCCOCCOCCOCCOC(=O)c1ccc(-c2c3nc(c(-c4ccccc4)c4ccc([nH]4)c(-c4ccccc4)c4nc(c(-c5ccccc5)c5ccc2[nH]5)C=C4)C=C3)cc1)Nc1cccc(OC[C@@H]2CCCO2)c1
REMARK SMILES IDX 16 1 15 2 14 3 13 4 12 5 10 6 11 7 9 8 4 9 5 10 6 11 8 12
REMARK SMILES IDX 7 13 3 14 2 15 1 16 75 17 76 19 77 20 88 21 78 22 80 23
REMARK SMILES IDX 79 24 81 25 82 26 83 27 84 28 87 29 85 30 86 31 17 32 18 33
REMARK SMILES IDX 19 34 20 35 21 36 22 37 23 38 24 39 25 40 26 41 27 42 28 43
REMARK SMILES IDX 74 44 29 45 73 46 30 47 31 48 32 49 67 50 33 51 72 52 66 53
REMARK SMILES IDX 68 54 34 55 71 56 65 57 64 58 35 60 57 61 42 62 56 63 43 64
REMARK SMILES IDX 46 65 55 66 69 67 44 68 45 69 54 71 70 72 47 73 36 74 37 75
REMARK SMILES IDX 41 76 38 77 40 78 39 79 58 80 59 81 63 82 60 83 62 84 61 85
REMARK SMILES IDX 48 86 49 87 53 88 50 89 52 90 51 91
REMARK H PARENT 75 18 68 59 46 70
REMARK Flexibility Score: inf
ROOT
ATOM      1  C   UNL A   1      33.417  25.990  26.079  1.00  0.00     0.188 C 
ENDROOT
BRANCH   1   2
ATOM      2  O   UNL A   1      34.578  25.449  25.474  1.00  0.00    -0.376 OA
BRANCH   2   3
ATOM      3  C   UNL A   1      35.014  24.155  25.840  1.00  0.00     0.202 C 
BRANCH   3   4
ATOM      4  C   UNL A   1      35.783  23.340  24.793  1.00  0.00     0.261 C 
BRANCH   4   5
ATOM      5  O   UNL A   1      35.168  22.095  24.443  1.00  0.00    -0.460 OA
BRANCH   5   6
ATOM      6  C   UNL A   1      35.079  21.146  25.396  1.00  0.00     0.338 C 
ATOM      7  O   UNL A   1      35.237  21.319  26.592  1.00  0.00    -0.246 OA
BRANCH   6   8
ATOM      8  C   UNL A   1      34.530  19.892  24.795  1.00  0.00     0.063 A 
ATOM      9  C   UNL A   1      33.172  19.672  24.453  1.00  0.00    -0.024 A 
ATOM     10  C   UNL A   1      32.823  18.398  23.957  1.00  0.00     0.005 A 
ATOM     11  C   UNL A   1      33.770  17.383  23.807  1.00  0.00     0.000 A 
ATOM     12  C   UNL A   1      35.468  18.850  24.663  1.00  0.00     0.016 A 
ATOM     13  C   UNL A   1      35.089  17.602  24.175  1.00  0.00     0.001 A 
BRANCH   9  14
ATOM     14  C   UNL A   1      32.123  20.757  24.639  1.00  0.00     0.136 C 
BRANCH  14  15
ATOM     15  C   UNL A   1      32.064  21.855  23.594  1.00  0.00     0.228 C 
ATOM     16  O   UNL A   1      31.954  21.582  22.401  1.00  0.00    -0.274 OA
ATOM     17  N   UNL A   1      32.193  23.141  24.106  1.00  0.00    -0.326 N 
ATOM     18  H   UNL A   1      32.352  23.252  25.071  1.00  0.00     0.169 HD
BRANCH  17  19
ATOM     19  C   UNL A   1      32.107  24.291  23.298  1.00  0.00     0.044 A 
ATOM     20  C   UNL A   1      33.048  24.489  22.291  1.00  0.00     0.026 A 
ATOM     21  C   UNL A   1      31.080  25.221  23.480  1.00  0.00     0.072 A 
ATOM     22  C   UNL A   1      32.904  25.570  21.419  1.00  0.00     0.006 A 
ATOM     23  C   UNL A   1      30.929  26.304  22.619  1.00  0.00     0.121 A 
ATOM     24  C   UNL A   1      31.844  26.466  21.579  1.00  0.00     0.046 A 
BRANCH  23  25
ATOM     25  O   UNL A   1      29.924  27.232  22.664  1.00  0.00    -0.491 OA
BRANCH  25  26
ATOM     26  C   UNL A   1      30.277  28.620  22.554  1.00  0.00     0.261 C 
BRANCH  26  27
ATOM     27  C   UNL A   1      29.347  29.532  23.360  1.00  0.00     0.156 C 
ATOM     28  C   UNL A   1      27.947  29.668  22.799  1.00  0.00     0.038 C 
ATOM     29  O   UNL A   1      29.856  30.881  23.318  1.00  0.00    -0.375 OA
ATOM     30  C   UNL A   1      27.494  30.950  23.453  1.00  0.00     0.031 C 
ATOM     31  C   UNL A   1      28.760  31.778  23.503  1.00  0.00     0.161 C 
ENDBRANCH  26  27
ENDBRANCH  25  26
ENDBRANCH  23  25
ENDBRANCH  17  19
ENDBRANCH  14  15
ENDBRANCH   9  14
ENDBRANCH   6   8
ENDBRANCH   5   6
ENDBRANCH   4   5
ENDBRANCH   3   4
ENDBRANCH   2   3
ENDBRANCH   1   2
BRANCH   1  32
ATOM     32  C   UNL A   1      33.522  27.487  26.464  1.00  0.00     0.188 C 
BRANCH  32  33
ATOM     33  O   UNL A   1      33.886  28.493  25.526  1.00  0.00    -0.377 OA
BRANCH  33  34
ATOM     34  C   UNL A   1      33.004  29.572  25.256  1.00  0.00     0.188 C 
BRANCH  34  35
ATOM     35  C   UNL A   1      32.626  30.529  26.407  1.00  0.00     0.188 C 
BRANCH  35  36
ATOM     36  O   UNL A   1      31.357  31.136  26.251  1.00  0.00    -0.376 OA
BRANCH  36  37
ATOM     37  C   UNL A   1      31.235  32.518  26.537  1.00  0.00     0.202 C 
BRANCH  37  38
ATOM     38  C   UNL A   1      32.432  33.282  27.126  1.00  0.00     0.261 C 
BRANCH  38  39
ATOM     39  O   UNL A   1      32.156  34.232  28.164  1.00  0.00    -0.460 OA
BRANCH  39  40
ATOM     40  C   UNL A   1      33.110  35.132  28.474  1.00  0.00     0.338 C 
ATOM     41  O   UNL A   1      33.026  36.350  28.434  1.00  0.00    -0.246 OA
BRANCH  40  42
ATOM     42  C   UNL A   1      34.244  34.379  29.045  1.00  0.00     0.060 A 
ATOM     43  C   UNL A   1      34.030  33.473  30.095  1.00  0.00     0.016 A 
ATOM     44  C   UNL A   1      35.521  34.563  28.521  1.00  0.00     0.016 A 
ATOM     45  C   UNL A   1      35.101  32.751  30.631  1.00  0.00     0.010 A 
ATOM     46  C   UNL A   1      36.592  33.877  29.090  1.00  0.00     0.010 A 
ATOM     47  C   UNL A   1      36.396  32.974  30.152  1.00  0.00    -0.014 A 
BRANCH  47  48
ATOM     48  C   UNL A   1      37.578  32.444  30.878  1.00  0.00     0.031 A 
ATOM     49  C   UNL A   1      38.300  31.270  30.278  1.00  0.00     0.074 A 
ATOM     50  C   UNL A   1      37.995  32.960  32.050  1.00  0.00     0.049 A 
ATOM     51  N   UNL A   1      39.269  30.546  30.776  1.00  0.00    -0.248 NA
ATOM     52  C   UNL A   1      37.868  30.863  28.930  1.00  0.00     0.031 C 
ATOM     53  C   UNL A   1      37.441  34.141  32.706  1.00  0.00     0.029 A 
ATOM     54  N   UNL A   1      38.971  32.523  32.913  1.00  0.00    -0.354 N 
ATOM     55  C   UNL A   1      39.555  29.594  29.805  1.00  0.00     0.074 A 
ATOM     56  C   UNL A   1      38.631  29.803  28.713  1.00  0.00     0.031 C 
ATOM     57  C   UNL A   1      38.046  34.303  33.897  1.00  0.00     0.029 A 
ATOM     58  C   UNL A   1      39.018  33.231  34.091  1.00  0.00     0.049 A 
ATOM     59  H   UNL A   1      39.577  31.776  32.709  1.00  0.00     0.167 HD
ATOM     60  C   UNL A   1      40.511  28.637  29.814  1.00  0.00     0.031 A 
ATOM     61  C   UNL A   1      39.743  33.019  35.208  1.00  0.00     0.031 A 
ATOM     62  C   UNL A   1      41.419  28.418  30.907  1.00  0.00     0.049 A 
ATOM     63  C   UNL A   1      40.718  31.870  35.250  1.00  0.00     0.074 A 
ATOM     64  C   UNL A   1      42.433  27.484  31.007  1.00  0.00     0.029 A 
ATOM     65  N   UNL A   1      41.412  29.135  32.093  1.00  0.00    -0.354 N 
ATOM     66  N   UNL A   1      41.002  30.993  34.318  1.00  0.00    -0.248 NA
ATOM     67  C   UNL A   1      41.487  31.694  36.491  1.00  0.00     0.031 C 
ATOM     68  C   UNL A   1      42.996  27.590  32.282  1.00  0.00     0.029 A 
ATOM     69  C   UNL A   1      42.383  28.640  32.946  1.00  0.00     0.049 A 
ATOM     70  H   UNL A   1      40.807  29.884  32.297  1.00  0.00     0.167 HD
ATOM     71  C   UNL A   1      42.013  30.194  34.841  1.00  0.00     0.074 A 
ATOM     72  C   UNL A   1      42.293  30.690  36.171  1.00  0.00     0.031 C 
ATOM     73  C   UNL A   1      42.658  29.150  34.266  1.00  0.00     0.031 A 
BRANCH  60  74
ATOM     74  C   UNL A   1      40.593  27.734  28.616  1.00  0.00    -0.014 A 
ATOM     75  C   UNL A   1      41.209  28.150  27.425  1.00  0.00     0.009 A 
ATOM     76  C   UNL A   1      40.057  26.439  28.689  1.00  0.00     0.009 A 
ATOM     77  C   UNL A   1      41.251  27.300  26.318  1.00  0.00     0.001 A 
ATOM     78  C   UNL A   1      40.132  25.580  27.591  1.00  0.00     0.001 A 
ATOM     79  C   UNL A   1      40.718  26.015  26.403  1.00  0.00     0.000 A 
ENDBRANCH  60  74
BRANCH  61  80
ATOM     80  C   UNL A   1      39.574  33.905  36.393  1.00  0.00    -0.014 A 
ATOM     81  C   UNL A   1      40.093  35.209  36.391  1.00  0.00     0.009 A 
ATOM     82  C   UNL A   1      38.920  33.441  37.545  1.00  0.00     0.009 A 
ATOM     83  C   UNL A   1      39.987  36.018  37.526  1.00  0.00     0.001 A 
ATOM     84  C   UNL A   1      38.789  34.261  38.668  1.00  0.00     0.001 A 
ATOM     85  C   UNL A   1      39.331  35.545  38.662  1.00  0.00     0.000 A 
ENDBRANCH  61  80
BRANCH  73  86
ATOM     86  C   UNL A   1      43.773  28.501  35.040  1.00  0.00    -0.014 A 
ATOM     87  C   UNL A   1      45.109  28.893  34.876  1.00  0.00     0.009 A 
ATOM     88  C   UNL A   1      43.464  27.530  36.007  1.00  0.00     0.009 A 
ATOM     89  C   UNL A   1      46.116  28.306  35.646  1.00  0.00     0.001 A 
ATOM     90  C   UNL A   1      44.467  26.968  36.798  1.00  0.00     0.001 A 
ATOM     91  C   UNL A   1      45.793  27.351  36.611  1.00  0.00     0.000 A 
ENDBRANCH  73  86
ENDBRANCH  47  48
ENDBRANCH  40  42
ENDBRANCH  39  40
ENDBRANCH  38  39
ENDBRANCH  37  38
ENDBRANCH  36  37
ENDBRANCH  35  36
ENDBRANCH  34  35
ENDBRANCH  33  34
ENDBRANCH  32  33
ENDBRANCH   1  32
TORSDOF 26
ENDMDL
MODEL 3
REMARK VINA RESULT:      -9.4      3.336      9.328
REMARK SMILES O=C(Cc1ccccc1C(=O)OCCOCCOCCOCCOC(=O)c1ccc(-c2c3nc(c(-c4ccccc4)c4ccc([nH]4)c(-c4ccccc4)c4nc(c(-c5ccccc5)c5ccc2[nH]5)C=C4)C=C3)cc1)Nc1cccc(OC[C@@H]2CCCO2)c1
REMARK SMILES IDX 16 1 15 2 14 3 13 4 12 5 10 6 11 7 9 8 4 9 5 10 6 11 8 12
REMARK SMILES IDX 7 13 3 14 2 15 1 16 75 17 76 19 77 20 88 21 78 22 80 23
REMARK SMILES IDX 79 24 81 25 82 26 83 27 84 28 87 29 85 30 86 31 17 32 18 33
REMARK SMILES IDX 19 34 20 35 21 36 22 37 23 38 24 39 25 40 26 41 27 42 28 43
REMARK SMILES IDX 74 44 29 45 73 46 30 47 31 48 32 49 67 50 33 51 72 52 66 53
REMARK SMILES IDX 68 54 34 55 71 56 65 57 64 58 35 60 57 61 42 62 56 63 43 64
REMARK SMILES IDX 46 65 55 66 69 67 44 68 45 69 54 71 70 72 47 73 36 74 37 75
REMARK SMILES IDX 41 76 38 77 40 78 39 79 58 80 59 81 63 82 60 83 62 84 61 85
REMARK SMILES IDX 48 86 49 87 53 88 50 89 52 90 51 91
REMARK H PARENT 75 18 68 59 46 70
REMARK Flexibility Score: inf
ROOT
ATOM      1  C   UNL A   1      33.471  21.272  24.156  1.00  0.00     0.188 C 
ENDROOT
BRANCH   1   2
ATOM      2  O   UNL A   1      33.480  20.581  25.393  1.00  0.00    -0.376 OA
BRANCH   2   3
ATOM      3  C   UNL A   1      33.981  21.226  26.547  1.00  0.00     0.202 C 
BRANCH   3   4
ATOM      4  C   UNL A   1      35.339  21.928  26.437  1.00  0.00     0.261 C 
BRANCH   4   5
ATOM      5  O   UNL A   1      36.312  21.217  25.663  1.00  0.00    -0.460 OA
BRANCH   5   6
ATOM      6  C   UNL A   1      37.176  21.938  24.921  1.00  0.00     0.338 C 
ATOM      7  O   UNL A   1      37.085  22.150  23.725  1.00  0.00    -0.246 OA
BRANCH   6   8
ATOM      8  C   UNL A   1      38.142  22.635  25.826  1.00  0.00     0.063 A 
ATOM      9  C   UNL A   1      39.297  22.047  26.401  1.00  0.00    -0.024 A 
ATOM     10  C   UNL A   1      40.057  22.838  27.288  1.00  0.00     0.005 A 
ATOM     11  C   UNL A   1      39.694  24.150  27.598  1.00  0.00     0.000 A 
ATOM     12  C   UNL A   1      37.775  23.950  26.169  1.00  0.00     0.016 A 
ATOM     13  C   UNL A   1      38.545  24.702  27.052  1.00  0.00     0.001 A 
BRANCH   9  14
ATOM     14  C   UNL A   1      39.688  20.609  26.098  1.00  0.00     0.136 C 
BRANCH  14  15
ATOM     15  C   UNL A   1      41.158  20.250  26.208  1.00  0.00     0.228 C 
ATOM     16  O   UNL A   1      41.520  19.279  26.869  1.00  0.00    -0.274 OA
ATOM     17  N   UNL A   1      42.014  21.129  25.553  1.00  0.00    -0.326 N 
ATOM     18  H   UNL A   1      41.630  21.921  25.113  1.00  0.00     0.169 HD
BRANCH  17  19
ATOM     19  C   UNL A   1      43.406  20.929  25.495  1.00  0.00     0.044 A 
ATOM     20  C   UNL A   1      43.901  19.663  25.193  1.00  0.00     0.026 A 
ATOM     21  C   UNL A   1      44.292  21.986  25.716  1.00  0.00     0.072 A 
ATOM     22  C   UNL A   1      45.276  19.485  25.027  1.00  0.00     0.006 A 
ATOM     23  C   UNL A   1      45.665  21.819  25.557  1.00  0.00     0.121 A 
ATOM     24  C   UNL A   1      46.150  20.561  25.200  1.00  0.00     0.046 A 
BRANCH  23  25
ATOM     25  O   UNL A   1      46.613  22.799  25.681  1.00  0.00    -0.491 OA
BRANCH  25  26
ATOM     26  C   UNL A   1      46.202  24.165  25.517  1.00  0.00     0.261 C 
BRANCH  26  27
ATOM     27  C   UNL A   1      46.646  25.060  26.678  1.00  0.00     0.156 C 
ATOM     28  C   UNL A   1      47.971  24.676  27.305  1.00  0.00     0.038 C 
ATOM     29  O   UNL A   1      45.709  24.922  27.766  1.00  0.00    -0.375 OA
ATOM     30  C   UNL A   1      47.862  25.350  28.650  1.00  0.00     0.031 C 
ATOM     31  C   UNL A   1      46.392  25.221  28.984  1.00  0.00     0.161 C 
ENDBRANCH  26  27
ENDBRANCH  25  26
ENDBRANCH  23  25
ENDBRANCH  17  19
ENDBRANCH  14  15
ENDBRANCH   9  14
ENDBRANCH   6   8
ENDBRANCH   5   6
ENDBRANCH   4   5
ENDBRANCH   3   4
ENDBRANCH   2   3
ENDBRANCH   1   2
BRANCH   1  32
ATOM     32  C   UNL A   1      32.386  22.371  24.033  1.00  0.00     0.188 C 
BRANCH  32  33
ATOM     33  O   UNL A   1      32.710  23.750  23.897  1.00  0.00    -0.377 OA
BRANCH  33  34
ATOM     34  C   UNL A   1      32.203  24.499  22.804  1.00  0.00     0.188 C 
BRANCH  34  35
ATOM     35  C   UNL A   1      32.689  25.952  22.609  1.00  0.00     0.188 C 
BRANCH  35  36
ATOM     36  O   UNL A   1      32.837  26.672  23.819  1.00  0.00    -0.376 OA
BRANCH  36  37
ATOM     37  C   UNL A   1      32.476  28.041  23.832  1.00  0.00     0.202 C 
BRANCH  37  38
ATOM     38  C   UNL A   1      32.308  28.772  25.174  1.00  0.00     0.261 C 
BRANCH  38  39
ATOM     39  O   UNL A   1      33.392  29.606  25.606  1.00  0.00    -0.460 OA
BRANCH  39  40
ATOM     40  C   UNL A   1      33.134  30.567  26.514  1.00  0.00     0.338 C 
ATOM     41  O   UNL A   1      32.094  31.189  26.664  1.00  0.00    -0.246 OA
BRANCH  40  42
ATOM     42  C   UNL A   1      34.294  30.622  27.425  1.00  0.00     0.060 A 
ATOM     43  C   UNL A   1      34.972  31.833  27.629  1.00  0.00     0.016 A 
ATOM     44  C   UNL A   1      34.696  29.467  28.092  1.00  0.00     0.016 A 
ATOM     45  C   UNL A   1      36.065  31.891  28.499  1.00  0.00     0.010 A 
ATOM     46  C   UNL A   1      35.815  29.519  28.922  1.00  0.00     0.010 A 
ATOM     47  C   UNL A   1      36.513  30.724  29.127  1.00  0.00    -0.014 A 
BRANCH  47  48
ATOM     48  C   UNL A   1      37.823  30.690  29.825  1.00  0.00     0.031 A 
ATOM     49  C   UNL A   1      38.940  29.917  29.181  1.00  0.00     0.074 A 
ATOM     50  C   UNL A   1      38.025  31.300  31.009  1.00  0.00     0.049 A 
ATOM     51  N   UNL A   1      40.127  29.625  29.646  1.00  0.00    -0.248 NA
ATOM     52  C   UNL A   1      38.677  29.406  27.825  1.00  0.00     0.031 C 
ATOM     53  C   UNL A   1      37.062  32.145  31.707  1.00  0.00     0.029 A 
ATOM     54  N   UNL A   1      39.113  31.265  31.849  1.00  0.00    -0.354 N 
ATOM     55  C   UNL A   1      40.747  28.891  28.644  1.00  0.00     0.074 A 
ATOM     56  C   UNL A   1      39.794  28.743  27.567  1.00  0.00     0.031 C 
ATOM     57  C   UNL A   1      37.577  32.503  32.897  1.00  0.00     0.029 A 
ATOM     58  C   UNL A   1      38.900  31.903  33.048  1.00  0.00     0.049 A 
ATOM     59  H   UNL A   1      39.961  30.827  31.615  1.00  0.00     0.167 HD
ATOM     60  C   UNL A   1      42.005  28.394  28.613  1.00  0.00     0.031 A 
ATOM     61  C   UNL A   1      39.672  31.968  34.151  1.00  0.00     0.031 A 
ATOM     62  C   UNL A   1      42.948  28.526  29.690  1.00  0.00     0.049 A 
ATOM     63  C   UNL A   1      41.024  31.301  34.147  1.00  0.00     0.074 A 
ATOM     64  C   UNL A   1      44.252  28.071  29.751  1.00  0.00     0.029 A 
ATOM     65  N   UNL A   1      42.682  29.150  30.898  1.00  0.00    -0.354 N 
ATOM     66  N   UNL A   1      41.614  30.634  33.185  1.00  0.00    -0.248 NA
ATOM     67  C   UNL A   1      41.827  31.414  35.375  1.00  0.00     0.031 C 
ATOM     68  C   UNL A   1      44.753  28.359  31.024  1.00  0.00     0.029 A 
ATOM     69  C   UNL A   1      43.787  29.061  31.726  1.00  0.00     0.049 A 
ATOM     70  H   UNL A   1      41.833  29.591  31.132  1.00  0.00     0.167 HD
ATOM     71  C   UNL A   1      42.870  30.290  33.673  1.00  0.00     0.074 A 
ATOM     72  C   UNL A   1      42.957  30.822  35.016  1.00  0.00     0.031 C 
ATOM     73  C   UNL A   1      43.865  29.604  33.059  1.00  0.00     0.031 A 
BRANCH  60  74
ATOM     74  C   UNL A   1      42.414  27.629  27.387  1.00  0.00    -0.014 A 
ATOM     75  C   UNL A   1      42.382  26.225  27.354  1.00  0.00     0.009 A 
ATOM     76  C   UNL A   1      42.824  28.325  26.240  1.00  0.00     0.009 A 
ATOM     77  C   UNL A   1      42.788  25.535  26.211  1.00  0.00     0.001 A 
ATOM     78  C   UNL A   1      43.197  27.634  25.087  1.00  0.00     0.001 A 
ATOM     79  C   UNL A   1      43.190  26.239  25.077  1.00  0.00     0.000 A 
ENDBRANCH  60  74
BRANCH  61  80
ATOM     80  C   UNL A   1      39.190  32.683  35.365  1.00  0.00    -0.014 A 
ATOM     81  C   UNL A   1      39.457  34.049  35.545  1.00  0.00     0.009 A 
ATOM     82  C   UNL A   1      38.487  31.996  36.367  1.00  0.00     0.009 A 
ATOM     83  C   UNL A   1      39.057  34.704  36.712  1.00  0.00     0.001 A 
ATOM     84  C   UNL A   1      38.061  32.660  37.520  1.00  0.00     0.001 A 
ATOM     85  C   UNL A   1      38.355  34.010  37.697  1.00  0.00     0.000 A 
ENDBRANCH  61  80
BRANCH  73  86
ATOM     86  C   UNL A   1      45.161  29.433  33.802  1.00  0.00    -0.014 A 
ATOM     87  C   UNL A   1      46.208  30.358  33.680  1.00  0.00     0.009 A 
ATOM     88  C   UNL A   1      45.304  28.361  34.699  1.00  0.00     0.009 A 
ATOM     89  C   UNL A   1      47.381  30.198  34.422  1.00  0.00     0.001 A 
ATOM     90  C   UNL A   1      46.463  28.221  35.463  1.00  0.00     0.001 A 
ATOM     91  C   UNL A   1      47.504  29.136  35.318  1.00  0.00     0.000 A 
ENDBRANCH  73  86
ENDBRANCH  47  48
ENDBRANCH  40  42
ENDBRANCH  39  40
ENDBRANCH  38  39
ENDBRANCH  37  38
ENDBRANCH  36  37
ENDBRANCH  35  36
ENDBRANCH  34  35
ENDBRANCH  33  34
ENDBRANCH  32  33
ENDBRANCH   1  32
TORSDOF 26
ENDMDL
