MODEL 1
REMARK VINA RESULT:      -9.2      0.000      0.000
REMARK SMILES O=C(OCCOCCOCCOCCOC(=O)c1ccc(F)cc1-c1ccc(F)c(Cl)c1)c1ccc(-c2c3nc(c(-c4ccccc4)c4ccc([nH]4)c(-c4ccccc4)c4nc(c(-c5ccccc5)c5ccc2[nH]5)C=C4)C=C3)cc1
REMARK SMILES IDX 8 1 7 2 6 3 5 4 4 5 3 6 2 7 1 8 33 9 34 10 80 11 35 12 79 13
REMARK SMILES IDX 36 14 37 15 38 16 73 17 39 18 78 19 72 20 74 21 40 22 77 23
REMARK SMILES IDX 71 24 70 25 41 27 63 28 48 29 62 30 49 31 52 32 61 33 75 34
REMARK SMILES IDX 50 35 51 36 60 38 76 39 53 40 42 41 43 42 47 43 44 44 46 45
REMARK SMILES IDX 45 46 64 47 65 48 69 49 66 50 68 51 67 52 54 53 55 54 59 55
REMARK SMILES IDX 56 56 58 57 57 58 9 59 10 60 11 61 12 62 13 63 14 64 15 65
REMARK SMILES IDX 16 66 17 67 18 68 19 69 24 70 20 71 23 72 21 73 22 74 25 75
REMARK SMILES IDX 26 76 32 77 27 78 30 79 28 80 31 81 29 82
REMARK H PARENT 74 26 52 37
REMARK Flexibility Score: inf
ROOT
ATOM      1  C   UNL A   1      36.878  21.825  24.893  1.00  0.00     0.188 C 
ENDROOT
BRANCH   1   2
ATOM      2  C   UNL A   1      37.875  20.830  25.496  1.00  0.00     0.188 C 
BRANCH   2   3
ATOM      3  O   UNL A   1      39.162  21.421  25.443  1.00  0.00    -0.376 OA
BRANCH   3   4
ATOM      4  C   UNL A   1      40.056  21.329  26.532  1.00  0.00     0.202 C 
BRANCH   4   5
ATOM      5  C   UNL A   1      41.530  21.528  26.209  1.00  0.00     0.261 C 
BRANCH   5   6
ATOM      6  O   UNL A   1      41.817  22.719  25.458  1.00  0.00    -0.460 OA
BRANCH   6   7
ATOM      7  C   UNL A   1      42.720  23.686  25.752  1.00  0.00     0.338 C 
ATOM      8  O   UNL A   1      43.776  23.750  25.129  1.00  0.00    -0.246 OA
BRANCH   7   9
ATOM      9  C   UNL A   1      42.450  24.721  26.777  1.00  0.00     0.060 A 
ATOM     10  C   UNL A   1      43.040  25.979  26.766  1.00  0.00     0.016 A 
ATOM     11  C   UNL A   1      41.440  24.475  27.707  1.00  0.00     0.016 A 
ATOM     12  C   UNL A   1      42.810  26.903  27.764  1.00  0.00     0.010 A 
ATOM     13  C   UNL A   1      41.077  25.469  28.621  1.00  0.00     0.010 A 
ATOM     14  C   UNL A   1      41.788  26.679  28.672  1.00  0.00    -0.014 A 
BRANCH  14  15
ATOM     15  C   UNL A   1      41.511  27.710  29.690  1.00  0.00     0.031 A 
ATOM     16  C   UNL A   1      42.396  27.759  30.896  1.00  0.00     0.074 A 
ATOM     17  C   UNL A   1      40.534  28.617  29.491  1.00  0.00     0.049 A 
ATOM     18  N   UNL A   1      42.230  28.410  32.012  1.00  0.00    -0.248 NA
ATOM     19  C   UNL A   1      43.627  26.948  30.845  1.00  0.00     0.031 C 
ATOM     20  C   UNL A   1      39.700  28.731  28.286  1.00  0.00     0.029 A 
ATOM     21  N   UNL A   1      40.086  29.636  30.289  1.00  0.00    -0.354 N 
ATOM     22  C   UNL A   1      43.290  28.027  32.823  1.00  0.00     0.074 A 
ATOM     23  C   UNL A   1      44.101  27.100  32.071  1.00  0.00     0.031 C 
ATOM     24  C   UNL A   1      38.879  29.784  28.411  1.00  0.00     0.029 A 
ATOM     25  C   UNL A   1      39.034  30.336  29.747  1.00  0.00     0.049 A 
ATOM     26  H   UNL A   1      40.480  29.847  31.168  1.00  0.00     0.167 HD
ATOM     27  C   UNL A   1      43.536  28.411  34.094  1.00  0.00     0.031 A 
ATOM     28  C   UNL A   1      38.239  31.269  30.302  1.00  0.00     0.031 A 
ATOM     29  C   UNL A   1      42.717  29.361  34.792  1.00  0.00     0.049 A 
ATOM     30  C   UNL A   1      38.489  31.617  31.743  1.00  0.00     0.074 A 
ATOM     31  C   UNL A   1      42.835  29.818  36.090  1.00  0.00     0.029 A 
ATOM     32  N   UNL A   1      41.627  30.012  34.228  1.00  0.00    -0.354 N 
ATOM     33  N   UNL A   1      39.444  31.195  32.540  1.00  0.00    -0.248 NA
ATOM     34  C   UNL A   1      37.541  32.542  32.371  1.00  0.00     0.031 C 
ATOM     35  C   UNL A   1      41.780  30.705  36.329  1.00  0.00     0.029 A 
ATOM     36  C   UNL A   1      41.045  30.847  35.161  1.00  0.00     0.049 A 
ATOM     37  H   UNL A   1      41.315  29.894  33.302  1.00  0.00     0.167 HD
ATOM     38  C   UNL A   1      39.218  31.811  33.760  1.00  0.00     0.074 A 
ATOM     39  C   UNL A   1      38.056  32.661  33.587  1.00  0.00     0.031 C 
ATOM     40  C   UNL A   1      39.893  31.680  34.929  1.00  0.00     0.031 A 
BRANCH  27  41
ATOM     41  C   UNL A   1      44.667  27.738  34.815  1.00  0.00    -0.014 A 
ATOM     42  C   UNL A   1      44.507  26.509  35.473  1.00  0.00     0.009 A 
ATOM     43  C   UNL A   1      45.925  28.361  34.837  1.00  0.00     0.009 A 
ATOM     44  C   UNL A   1      45.578  25.932  36.159  1.00  0.00     0.001 A 
ATOM     45  C   UNL A   1      47.001  27.770  35.499  1.00  0.00     0.001 A 
ATOM     46  C   UNL A   1      46.824  26.559  36.168  1.00  0.00     0.000 A 
ENDBRANCH  27  41
BRANCH  28  47
ATOM     47  C   UNL A   1      37.081  31.837  29.555  1.00  0.00    -0.014 A 
ATOM     48  C   UNL A   1      35.825  31.212  29.582  1.00  0.00     0.009 A 
ATOM     49  C   UNL A   1      37.236  32.992  28.769  1.00  0.00     0.009 A 
ATOM     50  C   UNL A   1      34.768  31.705  28.810  1.00  0.00     0.001 A 
ATOM     51  C   UNL A   1      36.169  33.507  28.030  1.00  0.00     0.001 A 
ATOM     52  C   UNL A   1      34.939  32.853  28.038  1.00  0.00     0.000 A 
ENDBRANCH  28  47
BRANCH  40  53
ATOM     53  C   UNL A   1      39.405  32.508  36.080  1.00  0.00    -0.014 A 
ATOM     54  C   UNL A   1      39.899  33.801  36.304  1.00  0.00     0.009 A 
ATOM     55  C   UNL A   1      38.403  31.997  36.918  1.00  0.00     0.009 A 
ATOM     56  C   UNL A   1      39.418  34.557  37.372  1.00  0.00     0.001 A 
ATOM     57  C   UNL A   1      37.899  32.770  37.962  1.00  0.00     0.001 A 
ATOM     58  C   UNL A   1      38.414  34.044  38.193  1.00  0.00     0.000 A 
ENDBRANCH  40  53
ENDBRANCH  14  15
ENDBRANCH   7   9
ENDBRANCH   6   7
ENDBRANCH   5   6
ENDBRANCH   4   5
ENDBRANCH   3   4
ENDBRANCH   2   3
ENDBRANCH   1   2
BRANCH   1  59
ATOM     59  O   UNL A   1      36.677  23.003  25.673  1.00  0.00    -0.377 OA
BRANCH  59  60
ATOM     60  C   UNL A   1      35.324  23.382  25.900  1.00  0.00     0.188 C 
BRANCH  60  61
ATOM     61  C   UNL A   1      34.504  22.617  26.971  1.00  0.00     0.188 C 
BRANCH  61  62
ATOM     62  O   UNL A   1      33.228  22.176  26.535  1.00  0.00    -0.376 OA
BRANCH  62  63
ATOM     63  C   UNL A   1      32.182  22.379  27.483  1.00  0.00     0.202 C 
BRANCH  63  64
ATOM     64  C   UNL A   1      31.139  23.422  27.067  1.00  0.00     0.261 C 
BRANCH  64  65
ATOM     65  O   UNL A   1      31.621  24.764  26.827  1.00  0.00    -0.460 OA
BRANCH  65  66
ATOM     66  C   UNL A   1      30.788  25.770  26.472  1.00  0.00     0.338 C 
ATOM     67  O   UNL A   1      29.576  25.717  26.368  1.00  0.00    -0.246 OA
BRANCH  66  68
ATOM     68  C   UNL A   1      31.626  26.997  26.314  1.00  0.00     0.068 A 
ATOM     69  C   UNL A   1      31.453  27.988  27.307  1.00  0.00     0.019 A 
ATOM     70  C   UNL A   1      32.454  27.259  25.190  1.00  0.00    -0.001 A 
ATOM     71  C   UNL A   1      32.108  29.214  27.218  1.00  0.00     0.040 A 
ATOM     72  C   UNL A   1      33.148  28.491  25.167  1.00  0.00     0.048 A 
ATOM     73  C   UNL A   1      32.966  29.446  26.159  1.00  0.00     0.123 A 
ATOM     74  F   UNL A   1      33.599  30.622  26.062  1.00  0.00    -0.207 F 
BRANCH  70  75
ATOM     75  C   UNL A   1      32.541  26.450  23.950  1.00  0.00    -0.016 A 
ATOM     76  C   UNL A   1      31.881  26.908  22.782  1.00  0.00     0.012 A 
ATOM     77  C   UNL A   1      33.327  25.296  23.842  1.00  0.00     0.032 A 
ATOM     78  C   UNL A   1      31.976  26.231  21.566  1.00  0.00     0.041 A 
ATOM     79  C   UNL A   1      33.443  24.628  22.613  1.00  0.00     0.077 A 
ATOM     80  C   UNL A   1      32.764  25.093  21.487  1.00  0.00     0.141 A 
ATOM     81  Cl  UNL A   1      34.464  23.246  22.492  1.00  0.00    -0.081 Cl
ATOM     82  F   UNL A   1      32.865  24.467  20.306  1.00  0.00    -0.205 F 
ENDBRANCH  70  75
ENDBRANCH  66  68
ENDBRANCH  65  66
ENDBRANCH  64  65
ENDBRANCH  63  64
ENDBRANCH  62  63
ENDBRANCH  61  62
ENDBRANCH  60  61
ENDBRANCH  59  60
ENDBRANCH   1  59
TORSDOF 21
ENDMDL
MODEL 2
REMARK VINA RESULT:      -9.2      2.794      8.055
REMARK SMILES O=C(OCCOCCOCCOCCOC(=O)c1ccc(F)cc1-c1ccc(F)c(Cl)c1)c1ccc(-c2c3nc(c(-c4ccccc4)c4ccc([nH]4)c(-c4ccccc4)c4nc(c(-c5ccccc5)c5ccc2[nH]5)C=C4)C=C3)cc1
REMARK SMILES IDX 8 1 7 2 6 3 5 4 4 5 3 6 2 7 1 8 33 9 34 10 80 11 35 12 79 13
REMARK SMILES IDX 36 14 37 15 38 16 73 17 39 18 78 19 72 20 74 21 40 22 77 23
REMARK SMILES IDX 71 24 70 25 41 27 63 28 48 29 62 30 49 31 52 32 61 33 75 34
REMARK SMILES IDX 50 35 51 36 60 38 76 39 53 40 42 41 43 42 47 43 44 44 46 45
REMARK SMILES IDX 45 46 64 47 65 48 69 49 66 50 68 51 67 52 54 53 55 54 59 55
REMARK SMILES IDX 56 56 58 57 57 58 9 59 10 60 11 61 12 62 13 63 14 64 15 65
REMARK SMILES IDX 16 66 17 67 18 68 19 69 24 70 20 71 23 72 21 73 22 74 25 75
REMARK SMILES IDX 26 76 32 77 27 78 30 79 28 80 31 81 29 82
REMARK H PARENT 74 26 52 37
REMARK Flexibility Score: inf
ROOT
ATOM      1  C   UNL A   1      31.612  27.828  24.688  1.00  0.00     0.188 C 
ENDROOT
BRANCH   1   2
ATOM      2  C   UNL A   1      31.119  29.212  24.253  1.00  0.00     0.188 C 
BRANCH   2   3
ATOM      3  O   UNL A   1      31.935  30.182  24.887  1.00  0.00    -0.376 OA
BRANCH   3   4
ATOM      4  C   UNL A   1      31.472  30.913  26.003  1.00  0.00     0.202 C 
BRANCH   4   5
ATOM      5  C   UNL A   1      32.317  30.816  27.266  1.00  0.00     0.261 C 
BRANCH   5   6
ATOM      6  O   UNL A   1      33.733  30.768  27.029  1.00  0.00    -0.460 OA
BRANCH   6   7
ATOM      7  C   UNL A   1      34.700  31.490  27.645  1.00  0.00     0.338 C 
ATOM      8  O   UNL A   1      34.570  32.704  27.776  1.00  0.00    -0.246 OA
BRANCH   7   9
ATOM      9  C   UNL A   1      35.903  30.849  28.226  1.00  0.00     0.060 A 
ATOM     10  C   UNL A   1      35.982  29.491  28.512  1.00  0.00     0.016 A 
ATOM     11  C   UNL A   1      37.061  31.617  28.347  1.00  0.00     0.016 A 
ATOM     12  C   UNL A   1      37.097  28.933  29.103  1.00  0.00     0.010 A 
ATOM     13  C   UNL A   1      38.249  31.022  28.786  1.00  0.00     0.010 A 
ATOM     14  C   UNL A   1      38.260  29.680  29.198  1.00  0.00    -0.014 A 
BRANCH  14  15
ATOM     15  C   UNL A   1      39.461  29.044  29.769  1.00  0.00     0.031 A 
ATOM     16  C   UNL A   1      39.975  29.564  31.075  1.00  0.00     0.074 A 
ATOM     17  C   UNL A   1      40.024  27.983  29.159  1.00  0.00     0.049 A 
ATOM     18  N   UNL A   1      41.114  29.330  31.663  1.00  0.00    -0.248 NA
ATOM     19  C   UNL A   1      39.093  30.489  31.810  1.00  0.00     0.031 C 
ATOM     20  C   UNL A   1      39.519  27.321  27.947  1.00  0.00     0.029 A 
ATOM     21  N   UNL A   1      41.137  27.253  29.483  1.00  0.00    -0.354 N 
ATOM     22  C   UNL A   1      41.118  30.137  32.792  1.00  0.00     0.074 A 
ATOM     23  C   UNL A   1      39.867  30.856  32.819  1.00  0.00     0.031 C 
ATOM     24  C   UNL A   1      40.293  26.263  27.662  1.00  0.00     0.029 A 
ATOM     25  C   UNL A   1      41.416  26.249  28.585  1.00  0.00     0.049 A 
ATOM     26  H   UNL A   1      41.685  27.429  30.283  1.00  0.00     0.167 HD
ATOM     27  C   UNL A   1      42.104  30.269  33.707  1.00  0.00     0.031 A 
ATOM     28  C   UNL A   1      42.499  25.458  28.482  1.00  0.00     0.031 A 
ATOM     29  C   UNL A   1      43.320  29.508  33.656  1.00  0.00     0.049 A 
ATOM     30  C   UNL A   1      43.612  25.684  29.467  1.00  0.00     0.074 A 
ATOM     31  C   UNL A   1      44.411  29.563  34.501  1.00  0.00     0.029 A 
ATOM     32  N   UNL A   1      43.591  28.537  32.701  1.00  0.00    -0.354 N 
ATOM     33  N   UNL A   1      43.653  26.505  30.491  1.00  0.00    -0.248 NA
ATOM     34  C   UNL A   1      44.836  24.901  29.269  1.00  0.00     0.031 C 
ATOM     35  C   UNL A   1      45.368  28.662  34.022  1.00  0.00     0.029 A 
ATOM     36  C   UNL A   1      44.845  28.003  32.918  1.00  0.00     0.049 A 
ATOM     37  H   UNL A   1      42.980  28.270  31.976  1.00  0.00     0.167 HD
ATOM     38  C   UNL A   1      44.902  26.331  31.067  1.00  0.00     0.074 A 
ATOM     39  C   UNL A   1      45.573  25.301  30.296  1.00  0.00     0.031 C 
ATOM     40  C   UNL A   1      45.459  26.969  32.124  1.00  0.00     0.031 A 
BRANCH  27  41
ATOM     41  C   UNL A   1      41.934  31.323  34.761  1.00  0.00    -0.014 A 
ATOM     42  C   UNL A   1      41.325  31.053  35.996  1.00  0.00     0.009 A 
ATOM     43  C   UNL A   1      42.395  32.624  34.502  1.00  0.00     0.009 A 
ATOM     44  C   UNL A   1      41.159  32.072  36.938  1.00  0.00     0.001 A 
ATOM     45  C   UNL A   1      42.252  33.633  35.454  1.00  0.00     0.001 A 
ATOM     46  C   UNL A   1      41.627  33.358  36.669  1.00  0.00     0.000 A 
ENDBRANCH  27  41
BRANCH  28  47
ATOM     47  C   UNL A   1      42.641  24.486  27.360  1.00  0.00    -0.014 A 
ATOM     48  C   UNL A   1      42.241  23.149  27.506  1.00  0.00     0.009 A 
ATOM     49  C   UNL A   1      43.221  24.882  26.143  1.00  0.00     0.009 A 
ATOM     50  C   UNL A   1      42.456  22.227  26.477  1.00  0.00     0.001 A 
ATOM     51  C   UNL A   1      43.399  23.969  25.101  1.00  0.00     0.001 A 
ATOM     52  C   UNL A   1      43.031  22.637  25.275  1.00  0.00     0.000 A 
ENDBRANCH  28  47
BRANCH  40  53
ATOM     53  C   UNL A   1      46.839  26.534  32.517  1.00  0.00    -0.014 A 
ATOM     54  C   UNL A   1      47.038  25.439  33.371  1.00  0.00     0.009 A 
ATOM     55  C   UNL A   1      47.950  27.205  31.985  1.00  0.00     0.009 A 
ATOM     56  C   UNL A   1      48.332  25.043  33.709  1.00  0.00     0.001 A 
ATOM     57  C   UNL A   1      49.241  26.784  32.297  1.00  0.00     0.001 A 
ATOM     58  C   UNL A   1      49.429  25.710  33.166  1.00  0.00     0.000 A 
ENDBRANCH  40  53
ENDBRANCH  14  15
ENDBRANCH   7   9
ENDBRANCH   6   7
ENDBRANCH   5   6
ENDBRANCH   4   5
ENDBRANCH   3   4
ENDBRANCH   2   3
ENDBRANCH   1   2
BRANCH   1  59
ATOM     59  O   UNL A   1      32.932  27.817  25.229  1.00  0.00    -0.377 OA
BRANCH  59  60
ATOM     60  C   UNL A   1      33.615  26.569  25.194  1.00  0.00     0.188 C 
BRANCH  60  61
ATOM     61  C   UNL A   1      33.454  25.596  26.389  1.00  0.00     0.188 C 
BRANCH  61  62
ATOM     62  O   UNL A   1      33.416  24.222  26.033  1.00  0.00    -0.376 OA
BRANCH  62  63
ATOM     63  C   UNL A   1      32.712  23.397  26.957  1.00  0.00     0.202 C 
BRANCH  63  64
ATOM     64  C   UNL A   1      33.544  22.256  27.554  1.00  0.00     0.261 C 
BRANCH  64  65
ATOM     65  O   UNL A   1      33.684  21.064  26.749  1.00  0.00    -0.460 OA
BRANCH  65  66
ATOM     66  C   UNL A   1      34.386  21.062  25.591  1.00  0.00     0.338 C 
ATOM     67  O   UNL A   1      35.474  21.574  25.391  1.00  0.00    -0.246 OA
BRANCH  66  68
ATOM     68  C   UNL A   1      33.617  20.234  24.613  1.00  0.00     0.068 A 
ATOM     69  C   UNL A   1      33.889  18.847  24.639  1.00  0.00     0.019 A 
ATOM     70  C   UNL A   1      32.760  20.769  23.614  1.00  0.00    -0.001 A 
ATOM     71  C   UNL A   1      33.305  17.985  23.714  1.00  0.00     0.040 A 
ATOM     72  C   UNL A   1      32.140  19.854  22.732  1.00  0.00     0.048 A 
ATOM     73  C   UNL A   1      32.419  18.494  22.782  1.00  0.00     0.123 A 
ATOM     74  F   UNL A   1      31.854  17.675  21.886  1.00  0.00    -0.207 F 
BRANCH  70  75
ATOM     75  C   UNL A   1      32.575  22.203  23.286  1.00  0.00    -0.016 A 
ATOM     76  C   UNL A   1      33.583  22.877  22.551  1.00  0.00     0.012 A 
ATOM     77  C   UNL A   1      31.403  22.911  23.581  1.00  0.00     0.032 A 
ATOM     78  C   UNL A   1      33.442  24.206  22.152  1.00  0.00     0.041 A 
ATOM     79  C   UNL A   1      31.251  24.241  23.159  1.00  0.00     0.077 A 
ATOM     80  C   UNL A   1      32.271  24.882  22.455  1.00  0.00     0.141 A 
ATOM     81  Cl  UNL A   1      29.777  25.070  23.483  1.00  0.00    -0.081 Cl
ATOM     82  F   UNL A   1      32.140  26.151  22.044  1.00  0.00    -0.205 F 
ENDBRANCH  70  75
ENDBRANCH  66  68
ENDBRANCH  65  66
ENDBRANCH  64  65
ENDBRANCH  63  64
ENDBRANCH  62  63
ENDBRANCH  61  62
ENDBRANCH  60  61
ENDBRANCH  59  60
ENDBRANCH   1  59
TORSDOF 21
ENDMDL
MODEL 3
REMARK VINA RESULT:      -9.1      2.662      8.068
REMARK SMILES O=C(OCCOCCOCCOCCOC(=O)c1ccc(F)cc1-c1ccc(F)c(Cl)c1)c1ccc(-c2c3nc(c(-c4ccccc4)c4ccc([nH]4)c(-c4ccccc4)c4nc(c(-c5ccccc5)c5ccc2[nH]5)C=C4)C=C3)cc1
REMARK SMILES IDX 8 1 7 2 6 3 5 4 4 5 3 6 2 7 1 8 33 9 34 10 80 11 35 12 79 13
REMARK SMILES IDX 36 14 37 15 38 16 73 17 39 18 78 19 72 20 74 21 40 22 77 23
REMARK SMILES IDX 71 24 70 25 41 27 63 28 48 29 62 30 49 31 52 32 61 33 75 34
REMARK SMILES IDX 50 35 51 36 60 38 76 39 53 40 42 41 43 42 47 43 44 44 46 45
REMARK SMILES IDX 45 46 64 47 65 48 69 49 66 50 68 51 67 52 54 53 55 54 59 55
REMARK SMILES IDX 56 56 58 57 57 58 9 59 10 60 11 61 12 62 13 63 14 64 15 65
REMARK SMILES IDX 16 66 17 67 18 68 19 69 24 70 20 71 23 72 21 73 22 74 25 75
REMARK SMILES IDX 26 76 32 77 27 78 30 79 28 80 31 81 29 82
REMARK H PARENT 74 26 52 37
REMARK Flexibility Score: inf
ROOT
ATOM      1  C   UNL A   1      31.734  27.746  24.796  1.00  0.00     0.188 C 
ENDROOT
BRANCH   1   2
ATOM      2  C   UNL A   1      31.260  29.124  24.322  1.00  0.00     0.188 C 
BRANCH   2   3
ATOM      3  O   UNL A   1      32.051  30.102  24.975  1.00  0.00    -0.376 OA
BRANCH   3   4
ATOM      4  C   UNL A   1      31.572  30.792  26.111  1.00  0.00     0.202 C 
BRANCH   4   5
ATOM      5  C   UNL A   1      32.441  30.715  27.358  1.00  0.00     0.261 C 
BRANCH   5   6
ATOM      6  O   UNL A   1      33.853  30.756  27.100  1.00  0.00    -0.460 OA
BRANCH   6   7
ATOM      7  C   UNL A   1      34.767  31.606  27.629  1.00  0.00     0.338 C 
ATOM      8  O   UNL A   1      34.534  32.811  27.668  1.00  0.00    -0.246 OA
BRANCH   7   9
ATOM      9  C   UNL A   1      36.034  31.120  28.223  1.00  0.00     0.060 A 
ATOM     10  C   UNL A   1      37.114  31.950  28.503  1.00  0.00     0.016 A 
ATOM     11  C   UNL A   1      36.087  29.798  28.664  1.00  0.00     0.016 A 
ATOM     12  C   UNL A   1      38.301  31.459  29.007  1.00  0.00     0.010 A 
ATOM     13  C   UNL A   1      37.225  29.331  29.330  1.00  0.00     0.010 A 
ATOM     14  C   UNL A   1      38.351  30.156  29.474  1.00  0.00    -0.014 A 
BRANCH  14  15
ATOM     15  C   UNL A   1      39.609  29.670  30.072  1.00  0.00     0.031 A 
ATOM     16  C   UNL A   1      40.341  28.572  29.368  1.00  0.00     0.074 A 
ATOM     17  C   UNL A   1      40.106  30.257  31.179  1.00  0.00     0.049 A 
ATOM     18  N   UNL A   1      41.328  27.836  29.795  1.00  0.00    -0.248 NA
ATOM     19  C   UNL A   1      39.888  28.245  28.004  1.00  0.00     0.031 C 
ATOM     20  C   UNL A   1      39.530  31.421  31.867  1.00  0.00     0.029 A 
ATOM     21  N   UNL A   1      41.225  29.971  31.915  1.00  0.00    -0.354 N 
ATOM     22  C   UNL A   1      41.560  26.910  28.786  1.00  0.00     0.074 A 
ATOM     23  C   UNL A   1      40.625  27.183  27.721  1.00  0.00     0.031 C 
ATOM     24  C   UNL A   1      40.322  31.771  32.891  1.00  0.00     0.029 A 
ATOM     25  C   UNL A   1      41.384  30.785  33.012  1.00  0.00     0.049 A 
ATOM     26  H   UNL A   1      41.856  29.251  31.681  1.00  0.00     0.167 HD
ATOM     27  C   UNL A   1      42.467  25.910  28.778  1.00  0.00     0.031 A 
ATOM     28  C   UNL A   1      42.248  30.693  34.039  1.00  0.00     0.031 A 
ATOM     29  C   UNL A   1      43.400  25.696  29.848  1.00  0.00     0.049 A 
ATOM     30  C   UNL A   1      43.193  29.524  34.040  1.00  0.00     0.074 A 
ATOM     31  C   UNL A   1      44.352  24.706  29.983  1.00  0.00     0.029 A 
ATOM     32  N   UNL A   1      43.497  26.511  30.970  1.00  0.00    -0.354 N 
ATOM     33  N   UNL A   1      43.361  28.598  33.125  1.00  0.00    -0.248 NA
ATOM     34  C   UNL A   1      44.045  29.366  35.223  1.00  0.00     0.031 C 
ATOM     35  C   UNL A   1      44.989  24.888  31.215  1.00  0.00     0.029 A 
ATOM     36  C   UNL A   1      44.475  26.029  31.816  1.00  0.00     0.049 A 
ATOM     37  H   UNL A   1      42.948  27.310  31.138  1.00  0.00     0.167 HD
ATOM     38  C   UNL A   1      44.344  27.753  33.615  1.00  0.00     0.074 A 
ATOM     39  C   UNL A   1      44.758  28.298  34.894  1.00  0.00     0.031 C 
ATOM     40  C   UNL A   1      44.854  26.620  33.074  1.00  0.00     0.031 A 
BRANCH  27  41
ATOM     41  C   UNL A   1      42.423  24.943  27.632  1.00  0.00    -0.014 A 
ATOM     42  C   UNL A   1      43.142  25.156  26.446  1.00  0.00     0.009 A 
ATOM     43  C   UNL A   1      41.632  23.788  27.748  1.00  0.00     0.009 A 
ATOM     44  C   UNL A   1      43.048  24.245  25.391  1.00  0.00     0.001 A 
ATOM     45  C   UNL A   1      41.561  22.866  26.703  1.00  0.00     0.001 A 
ATOM     46  C   UNL A   1      42.263  23.100  25.522  1.00  0.00     0.000 A 
ENDBRANCH  27  41
BRANCH  28  47
ATOM     47  C   UNL A   1      42.184  31.641  35.188  1.00  0.00    -0.014 A 
ATOM     48  C   UNL A   1      42.985  32.792  35.223  1.00  0.00     0.009 A 
ATOM     49  C   UNL A   1      41.348  31.374  36.286  1.00  0.00     0.009 A 
ATOM     50  C   UNL A   1      42.980  33.629  36.343  1.00  0.00     0.001 A 
ATOM     51  C   UNL A   1      41.313  32.233  37.388  1.00  0.00     0.001 A 
ATOM     52  C   UNL A   1      42.142  33.351  37.422  1.00  0.00     0.000 A 
ENDBRANCH  28  47
BRANCH  40  53
ATOM     53  C   UNL A   1      45.935  25.934  33.854  1.00  0.00    -0.014 A 
ATOM     54  C   UNL A   1      47.285  26.270  33.671  1.00  0.00     0.009 A 
ATOM     55  C   UNL A   1      45.587  24.974  34.815  1.00  0.00     0.009 A 
ATOM     56  C   UNL A   1      48.272  25.629  34.419  1.00  0.00     0.001 A 
ATOM     57  C   UNL A   1      46.574  24.363  35.587  1.00  0.00     0.001 A 
ATOM     58  C   UNL A   1      47.914  24.684  35.381  1.00  0.00     0.000 A 
ENDBRANCH  40  53
ENDBRANCH  14  15
ENDBRANCH   7   9
ENDBRANCH   6   7
ENDBRANCH   5   6
ENDBRANCH   4   5
ENDBRANCH   3   4
ENDBRANCH   2   3
ENDBRANCH   1   2
BRANCH   1  59
ATOM     59  O   UNL A   1      33.066  27.725  25.305  1.00  0.00    -0.377 OA
BRANCH  59  60
ATOM     60  C   UNL A   1      33.669  26.442  25.434  1.00  0.00     0.188 C 
BRANCH  60  61
ATOM     61  C   UNL A   1      33.132  25.471  26.516  1.00  0.00     0.188 C 
BRANCH  61  62
ATOM     62  O   UNL A   1      33.149  24.101  26.144  1.00  0.00    -0.376 OA
BRANCH  62  63
ATOM     63  C   UNL A   1      32.558  23.226  27.101  1.00  0.00     0.202 C 
BRANCH  63  64
ATOM     64  C   UNL A   1      33.491  22.127  27.621  1.00  0.00     0.261 C 
BRANCH  64  65
ATOM     65  O   UNL A   1      33.658  20.964  26.778  1.00  0.00    -0.460 OA
BRANCH  65  66
ATOM     66  C   UNL A   1      34.356  21.017  25.619  1.00  0.00     0.338 C 
ATOM     67  O   UNL A   1      35.431  21.558  25.433  1.00  0.00    -0.246 OA
BRANCH  66  68
ATOM     68  C   UNL A   1      33.601  20.207  24.615  1.00  0.00     0.068 A 
ATOM     69  C   UNL A   1      33.863  18.818  24.629  1.00  0.00     0.019 A 
ATOM     70  C   UNL A   1      32.767  20.760  23.607  1.00  0.00    -0.001 A 
ATOM     71  C   UNL A   1      33.291  17.971  23.682  1.00  0.00     0.040 A 
ATOM     72  C   UNL A   1      32.158  19.860  22.701  1.00  0.00     0.048 A 
ATOM     73  C   UNL A   1      32.427  18.497  22.740  1.00  0.00     0.123 A 
ATOM     74  F   UNL A   1      31.874  17.694  21.823  1.00  0.00    -0.207 F 
BRANCH  70  75
ATOM     75  C   UNL A   1      32.598  22.199  23.293  1.00  0.00    -0.016 A 
ATOM     76  C   UNL A   1      33.625  22.875  22.587  1.00  0.00     0.012 A 
ATOM     77  C   UNL A   1      31.425  22.911  23.573  1.00  0.00     0.032 A 
ATOM     78  C   UNL A   1      33.501  24.210  22.202  1.00  0.00     0.041 A 
ATOM     79  C   UNL A   1      31.290  24.247  23.165  1.00  0.00     0.077 A 
ATOM     80  C   UNL A   1      32.328  24.890  22.490  1.00  0.00     0.141 A 
ATOM     81  Cl  UNL A   1      29.815  25.083  23.470  1.00  0.00    -0.081 Cl
ATOM     82  F   UNL A   1      32.214  26.165  22.093  1.00  0.00    -0.205 F 
ENDBRANCH  70  75
ENDBRANCH  66  68
ENDBRANCH  65  66
ENDBRANCH  64  65
ENDBRANCH  63  64
ENDBRANCH  62  63
ENDBRANCH  61  62
ENDBRANCH  60  61
ENDBRANCH  59  60
ENDBRANCH   1  59
TORSDOF 21
ENDMDL
