MODEL 1
REMARK VINA RESULT:      -6.6      0.000      0.000
REMARK SMILES O=C(OCCOCCOCCOCCOC(=O)c1cc(NC(=O)c2cc([N+](=O)[O-])ccc2N2CCCC2)ccc1Cl)c1ccc(-c2c3nc(c(-c4ccccc4)c4ccc([nH]4)c(-c4ccccc4)c4nc(c(-c5ccccc5)c5ccc2[nH]5)C=C4)C=C3)cc1
REMARK SMILES IDX 10 1 9 2 8 3 7 4 6 5 5 6 4 7 3 8 2 9 1 10 42 11 43 12 89 13
REMARK SMILES IDX 44 14 88 15 45 16 46 17 47 18 82 19 48 20 87 21 81 22 83 23
REMARK SMILES IDX 49 24 86 25 80 26 79 27 50 29 72 30 57 31 71 32 58 33 61 34
REMARK SMILES IDX 70 35 84 36 59 37 60 38 69 40 85 41 62 42 51 43 52 44 56 45
REMARK SMILES IDX 53 46 55 47 54 48 73 49 74 50 78 51 75 52 77 53 76 54 63 55
REMARK SMILES IDX 64 56 68 57 65 58 67 59 66 60 11 61 12 62 13 63 14 64 15 65
REMARK SMILES IDX 16 66 17 67 18 68 19 69 40 70 20 71 39 72 41 73 38 74 21 75
REMARK SMILES IDX 22 76 23 78 24 79 25 80 32 81 26 82 31 83 30 84 33 85 34 86
REMARK SMILES IDX 37 87 35 88 36 89 27 90 28 91 29 92
REMARK H PARENT 83 28 61 39 21 77
REMARK Flexibility Score: inf
ROOT
ATOM      1  C   UNL A   1      39.045  27.130  29.202  1.00  0.00     0.188 C 
ENDROOT
BRANCH   1   2
ATOM      2  O   UNL A   1      39.875  26.010  28.939  1.00  0.00    -0.377 OA
BRANCH   2   3
ATOM      3  C   UNL A   1      39.819  25.467  27.618  1.00  0.00     0.188 C 
BRANCH   3   4
ATOM      4  C   UNL A   1      39.499  23.973  27.376  1.00  0.00     0.188 C 
BRANCH   4   5
ATOM      5  O   UNL A   1      40.622  23.102  27.473  1.00  0.00    -0.376 OA
BRANCH   5   6
ATOM      6  C   UNL A   1      40.812  22.158  26.416  1.00  0.00     0.202 C 
BRANCH   6   7
ATOM      7  C   UNL A   1      42.133  21.393  26.467  1.00  0.00     0.261 C 
BRANCH   7   8
ATOM      8  O   UNL A   1      42.869  21.623  25.259  1.00  0.00    -0.460 OA
BRANCH   8   9
ATOM      9  C   UNL A   1      43.578  22.715  24.911  1.00  0.00     0.338 C 
ATOM     10  O   UNL A   1      43.784  22.927  23.717  1.00  0.00    -0.246 OA
BRANCH   9  11
ATOM     11  C   UNL A   1      44.103  23.713  25.889  1.00  0.00     0.060 A 
ATOM     12  C   UNL A   1      45.337  23.654  26.549  1.00  0.00     0.016 A 
ATOM     13  C   UNL A   1      43.316  24.864  26.048  1.00  0.00     0.016 A 
ATOM     14  C   UNL A   1      45.750  24.682  27.399  1.00  0.00     0.010 A 
ATOM     15  C   UNL A   1      43.739  25.910  26.865  1.00  0.00     0.010 A 
ATOM     16  C   UNL A   1      44.946  25.809  27.567  1.00  0.00    -0.014 A 
BRANCH  16  17
ATOM     17  C   UNL A   1      45.282  26.823  28.584  1.00  0.00     0.031 A 
ATOM     18  C   UNL A   1      44.821  26.579  29.991  1.00  0.00     0.074 A 
ATOM     19  C   UNL A   1      45.985  27.921  28.257  1.00  0.00     0.049 A 
ATOM     20  N   UNL A   1      44.853  27.372  31.027  1.00  0.00    -0.248 NA
ATOM     21  C   UNL A   1      44.235  25.254  30.260  1.00  0.00     0.031 C 
ATOM     22  C   UNL A   1      46.556  28.204  26.940  1.00  0.00     0.029 A 
ATOM     23  N   UNL A   1      46.337  29.006  29.016  1.00  0.00    -0.354 N 
ATOM     24  C   UNL A   1      44.263  26.656  32.060  1.00  0.00     0.074 A 
ATOM     25  C   UNL A   1      43.865  25.374  31.524  1.00  0.00     0.031 C 
ATOM     26  C   UNL A   1      47.193  29.387  26.985  1.00  0.00     0.029 A 
ATOM     27  C   UNL A   1      47.018  29.969  28.312  1.00  0.00     0.049 A 
ATOM     28  H   UNL A   1      46.122  29.089  29.973  1.00  0.00     0.167 HD
ATOM     29  C   UNL A   1      44.068  27.040  33.342  1.00  0.00     0.031 A 
ATOM     30  C   UNL A   1      47.418  31.197  28.696  1.00  0.00     0.031 A 
ATOM     31  C   UNL A   1      44.460  28.327  33.845  1.00  0.00     0.049 A 
ATOM     32  C   UNL A   1      47.104  31.640  30.103  1.00  0.00     0.074 A 
ATOM     33  C   UNL A   1      44.287  28.852  35.112  1.00  0.00     0.029 A 
ATOM     34  N   UNL A   1      45.108  29.295  33.091  1.00  0.00    -0.354 N 
ATOM     35  N   UNL A   1      46.511  30.975  31.067  1.00  0.00    -0.248 NA
ATOM     36  C   UNL A   1      47.508  33.003  30.472  1.00  0.00     0.031 C 
ATOM     37  C   UNL A   1      44.781  30.161  35.107  1.00  0.00     0.029 A 
ATOM     38  C   UNL A   1      45.323  30.425  33.857  1.00  0.00     0.049 A 
ATOM     39  H   UNL A   1      45.376  29.192  32.149  1.00  0.00     0.167 HD
ATOM     40  C   UNL A   1      46.497  31.827  32.165  1.00  0.00     0.074 A 
ATOM     41  C   UNL A   1      47.156  33.049  31.749  1.00  0.00     0.031 C 
ATOM     42  C   UNL A   1      45.986  31.622  33.405  1.00  0.00     0.031 A 
BRANCH  29  43
ATOM     43  C   UNL A   1      43.343  26.079  34.242  1.00  0.00    -0.014 A 
ATOM     44  C   UNL A   1      43.896  24.837  34.595  1.00  0.00     0.009 A 
ATOM     45  C   UNL A   1      42.065  26.410  34.718  1.00  0.00     0.009 A 
ATOM     46  C   UNL A   1      43.165  23.930  35.367  1.00  0.00     0.001 A 
ATOM     47  C   UNL A   1      41.349  25.515  35.515  1.00  0.00     0.001 A 
ATOM     48  C   UNL A   1      41.893  24.270  35.827  1.00  0.00     0.000 A 
ENDBRANCH  29  43
BRANCH  30  49
ATOM     49  C   UNL A   1      48.109  32.105  27.739  1.00  0.00    -0.014 A 
ATOM     50  C   UNL A   1      49.502  32.060  27.581  1.00  0.00     0.009 A 
ATOM     51  C   UNL A   1      47.377  33.043  26.991  1.00  0.00     0.009 A 
ATOM     52  C   UNL A   1      50.149  32.950  26.718  1.00  0.00     0.001 A 
ATOM     53  C   UNL A   1      48.023  33.908  26.103  1.00  0.00     0.001 A 
ATOM     54  C   UNL A   1      49.409  33.869  25.977  1.00  0.00     0.000 A 
ENDBRANCH  30  49
BRANCH  42  55
ATOM     55  C   UNL A   1      46.163  32.729  34.406  1.00  0.00    -0.014 A 
ATOM     56  C   UNL A   1      45.200  33.738  34.559  1.00  0.00     0.009 A 
ATOM     57  C   UNL A   1      47.287  32.724  35.246  1.00  0.00     0.009 A 
ATOM     58  C   UNL A   1      45.377  34.739  35.515  1.00  0.00     0.001 A 
ATOM     59  C   UNL A   1      47.444  33.705  36.223  1.00  0.00     0.001 A 
ATOM     60  C   UNL A   1      46.495  34.718  36.350  1.00  0.00     0.000 A 
ENDBRANCH  42  55
ENDBRANCH  16  17
ENDBRANCH   9  11
ENDBRANCH   8   9
ENDBRANCH   7   8
ENDBRANCH   6   7
ENDBRANCH   5   6
ENDBRANCH   4   5
ENDBRANCH   3   4
ENDBRANCH   2   3
ENDBRANCH   1   2
BRANCH   1  61
ATOM     61  C   UNL A   1      39.058  28.259  28.169  1.00  0.00     0.188 C 
BRANCH  61  62
ATOM     62  O   UNL A   1      38.486  29.490  28.585  1.00  0.00    -0.376 OA
BRANCH  62  63
ATOM     63  C   UNL A   1      39.412  30.504  28.961  1.00  0.00     0.202 C 
BRANCH  63  64
ATOM     64  C   UNL A   1      40.854  30.058  29.269  1.00  0.00     0.261 C 
BRANCH  64  65
ATOM     65  O   UNL A   1      41.756  31.088  29.738  1.00  0.00    -0.460 OA
BRANCH  65  66
ATOM     66  C   UNL A   1      42.589  30.762  30.755  1.00  0.00     0.339 C 
ATOM     67  O   UNL A   1      43.615  30.086  30.683  1.00  0.00    -0.246 OA
BRANCH  66  68
ATOM     68  C   UNL A   1      42.143  31.362  32.027  1.00  0.00     0.080 A 
ATOM     69  C   UNL A   1      41.276  30.641  32.893  1.00  0.00     0.043 A 
ATOM     70  C   UNL A   1      42.492  32.685  32.318  1.00  0.00     0.055 A 
ATOM     71  C   UNL A   1      40.774  31.255  34.049  1.00  0.00     0.042 A 
ATOM     72  C   UNL A   1      41.958  33.302  33.446  1.00  0.00     0.023 A 
ATOM     73  Cl  UNL A   1      43.534  33.632  31.318  1.00  0.00    -0.083 Cl
ATOM     74  C   UNL A   1      41.092  32.600  34.286  1.00  0.00     0.028 A 
BRANCH  71  75
ATOM     75  N   UNL A   1      39.954  30.671  35.033  1.00  0.00    -0.322 N 
ATOM     76  C   UNL A   1      38.694  30.911  35.522  1.00  0.00     0.258 C 
ATOM     77  H   UNL A   1      40.388  29.908  35.478  1.00  0.00     0.170 HD
ATOM     78  O   UNL A   1      38.292  30.250  36.482  1.00  0.00    -0.269 OA
BRANCH  76  79
ATOM     79  C   UNL A   1      37.755  31.867  34.922  1.00  0.00     0.070 A 
ATOM     80  C   UNL A   1      37.110  31.430  33.745  1.00  0.00     0.101 A 
ATOM     81  C   UNL A   1      37.590  33.172  35.423  1.00  0.00     0.050 A 
ATOM     82  C   UNL A   1      36.182  32.260  33.120  1.00  0.00     0.270 A 
ATOM     83  C   UNL A   1      36.657  33.963  34.742  1.00  0.00     0.034 A 
ATOM     84  C   UNL A   1      35.918  33.520  33.641  1.00  0.00     0.088 A 
BRANCH  81  85
ATOM     85  N   UNL A   1      38.323  33.683  36.465  1.00  0.00    -0.371 N 
ATOM     86  C   UNL A   1      39.222  34.814  36.303  1.00  0.00     0.116 C 
ATOM     87  C   UNL A   1      38.159  33.369  37.880  1.00  0.00     0.116 C 
ATOM     88  C   UNL A   1      40.221  34.598  37.430  1.00  0.00     0.023 C 
ATOM     89  C   UNL A   1      39.411  33.947  38.549  1.00  0.00     0.023 C 
ENDBRANCH  81  85
BRANCH  82  90
ATOM     90  N   UNL A   1      35.503  31.832  31.894  1.00  0.00     0.062 N 
ATOM     91  O   UNL A   1      36.022  30.919  31.239  1.00  0.00    -0.258 OA
ATOM     92  O   UNL A   1      34.460  32.424  31.584  1.00  0.00    -0.258 OA
ENDBRANCH  82  90
ENDBRANCH  76  79
ENDBRANCH  71  75
ENDBRANCH  66  68
ENDBRANCH  65  66
ENDBRANCH  64  65
ENDBRANCH  63  64
ENDBRANCH  62  63
ENDBRANCH  61  62
ENDBRANCH   1  61
TORSDOF 24
ENDMDL
MODEL 2
REMARK VINA RESULT:      -6.4      4.558      9.371
REMARK SMILES O=C(OCCOCCOCCOCCOC(=O)c1cc(NC(=O)c2cc([N+](=O)[O-])ccc2N2CCCC2)ccc1Cl)c1ccc(-c2c3nc(c(-c4ccccc4)c4ccc([nH]4)c(-c4ccccc4)c4nc(c(-c5ccccc5)c5ccc2[nH]5)C=C4)C=C3)cc1
REMARK SMILES IDX 10 1 9 2 8 3 7 4 6 5 5 6 4 7 3 8 2 9 1 10 42 11 43 12 89 13
REMARK SMILES IDX 44 14 88 15 45 16 46 17 47 18 82 19 48 20 87 21 81 22 83 23
REMARK SMILES IDX 49 24 86 25 80 26 79 27 50 29 72 30 57 31 71 32 58 33 61 34
REMARK SMILES IDX 70 35 84 36 59 37 60 38 69 40 85 41 62 42 51 43 52 44 56 45
REMARK SMILES IDX 53 46 55 47 54 48 73 49 74 50 78 51 75 52 77 53 76 54 63 55
REMARK SMILES IDX 64 56 68 57 65 58 67 59 66 60 11 61 12 62 13 63 14 64 15 65
REMARK SMILES IDX 16 66 17 67 18 68 19 69 40 70 20 71 39 72 41 73 38 74 21 75
REMARK SMILES IDX 22 76 23 78 24 79 25 80 32 81 26 82 31 83 30 84 33 85 34 86
REMARK SMILES IDX 37 87 35 88 36 89 27 90 28 91 29 92
REMARK H PARENT 83 28 61 39 21 77
REMARK Flexibility Score: inf
ROOT
ATOM      1  C   UNL A   1      41.511  34.011  35.060  1.00  0.00     0.188 C 
ENDROOT
BRANCH   1   2
ATOM      2  O   UNL A   1      40.919  33.648  33.823  1.00  0.00    -0.377 OA
BRANCH   2   3
ATOM      3  C   UNL A   1      39.513  33.868  33.697  1.00  0.00     0.188 C 
BRANCH   3   4
ATOM      4  C   UNL A   1      38.494  32.740  33.984  1.00  0.00     0.188 C 
BRANCH   4   5
ATOM      5  O   UNL A   1      37.135  33.163  34.026  1.00  0.00    -0.376 OA
BRANCH   5   6
ATOM      6  C   UNL A   1      36.559  33.638  32.807  1.00  0.00     0.202 C 
BRANCH   6   7
ATOM      7  C   UNL A   1      37.224  33.114  31.536  1.00  0.00     0.261 C 
BRANCH   7   8
ATOM      8  O   UNL A   1      36.471  32.010  31.019  1.00  0.00    -0.460 OA
BRANCH   8   9
ATOM      9  C   UNL A   1      36.832  30.712  30.957  1.00  0.00     0.338 C 
ATOM     10  O   UNL A   1      36.009  29.857  31.279  1.00  0.00    -0.246 OA
BRANCH   9  11
ATOM     11  C   UNL A   1      38.165  30.241  30.481  1.00  0.00     0.060 A 
ATOM     12  C   UNL A   1      39.198  29.736  31.282  1.00  0.00     0.016 A 
ATOM     13  C   UNL A   1      38.323  30.201  29.087  1.00  0.00     0.016 A 
ATOM     14  C   UNL A   1      40.384  29.265  30.717  1.00  0.00     0.010 A 
ATOM     15  C   UNL A   1      39.488  29.698  28.515  1.00  0.00     0.010 A 
ATOM     16  C   UNL A   1      40.536  29.254  29.331  1.00  0.00    -0.014 A 
BRANCH  16  17
ATOM     17  C   UNL A   1      41.839  28.921  28.723  1.00  0.00     0.031 A 
ATOM     18  C   UNL A   1      42.061  27.505  28.282  1.00  0.00     0.074 A 
ATOM     19  C   UNL A   1      42.786  29.862  28.564  1.00  0.00     0.049 A 
ATOM     20  N   UNL A   1      43.152  26.924  27.864  1.00  0.00    -0.248 NA
ATOM     21  C   UNL A   1      40.883  26.620  28.329  1.00  0.00     0.031 C 
ATOM     22  C   UNL A   1      42.633  31.283  28.875  1.00  0.00     0.029 A 
ATOM     23  N   UNL A   1      44.070  29.756  28.099  1.00  0.00    -0.354 N 
ATOM     24  C   UNL A   1      42.801  25.601  27.629  1.00  0.00     0.074 A 
ATOM     25  C   UNL A   1      41.404  25.458  27.969  1.00  0.00     0.031 C 
ATOM     26  C   UNL A   1      43.781  31.919  28.587  1.00  0.00     0.029 A 
ATOM     27  C   UNL A   1      44.765  30.941  28.134  1.00  0.00     0.049 A 
ATOM     28  H   UNL A   1      44.458  28.912  27.772  1.00  0.00     0.167 HD
ATOM     29  C   UNL A   1      43.582  24.595  27.174  1.00  0.00     0.031 A 
ATOM     30  C   UNL A   1      46.061  31.188  27.863  1.00  0.00     0.031 A 
ATOM     31  C   UNL A   1      44.974  24.761  26.858  1.00  0.00     0.049 A 
ATOM     32  C   UNL A   1      46.935  30.031  27.449  1.00  0.00     0.074 A 
ATOM     33  C   UNL A   1      45.883  23.815  26.423  1.00  0.00     0.029 A 
ATOM     34  N   UNL A   1      45.655  25.967  26.948  1.00  0.00    -0.354 N 
ATOM     35  N   UNL A   1      46.610  28.772  27.265  1.00  0.00    -0.248 NA
ATOM     36  C   UNL A   1      48.354  30.327  27.212  1.00  0.00     0.031 C 
ATOM     37  C   UNL A   1      47.129  24.438  26.304  1.00  0.00     0.029 A 
ATOM     38  C   UNL A   1      46.981  25.786  26.599  1.00  0.00     0.049 A 
ATOM     39  H   UNL A   1      45.254  26.824  27.219  1.00  0.00     0.167 HD
ATOM     40  C   UNL A   1      47.776  28.132  26.863  1.00  0.00     0.074 A 
ATOM     41  C   UNL A   1      48.810  29.147  26.816  1.00  0.00     0.031 C 
ATOM     42  C   UNL A   1      47.979  26.825  26.561  1.00  0.00     0.031 A 
BRANCH  29  43
ATOM     43  C   UNL A   1      42.953  23.234  27.069  1.00  0.00    -0.014 A 
ATOM     44  C   UNL A   1      42.835  22.387  28.184  1.00  0.00     0.009 A 
ATOM     45  C   UNL A   1      42.502  22.776  25.821  1.00  0.00     0.009 A 
ATOM     46  C   UNL A   1      42.321  21.096  28.040  1.00  0.00     0.001 A 
ATOM     47  C   UNL A   1      41.959  21.497  25.686  1.00  0.00     0.001 A 
ATOM     48  C   UNL A   1      41.882  20.653  26.792  1.00  0.00     0.000 A 
ENDBRANCH  29  43
BRANCH  30  49
ATOM     49  C   UNL A   1      46.621  32.559  28.015  1.00  0.00    -0.014 A 
ATOM     50  C   UNL A   1      46.975  33.057  29.278  1.00  0.00     0.009 A 
ATOM     51  C   UNL A   1      46.785  33.392  26.894  1.00  0.00     0.009 A 
ATOM     52  C   UNL A   1      47.453  34.364  29.419  1.00  0.00     0.001 A 
ATOM     53  C   UNL A   1      47.295  34.685  27.034  1.00  0.00     0.001 A 
ATOM     54  C   UNL A   1      47.616  35.175  28.297  1.00  0.00     0.000 A 
ENDBRANCH  30  49
BRANCH  42  55
ATOM     55  C   UNL A   1      49.359  26.436  26.112  1.00  0.00    -0.014 A 
ATOM     56  C   UNL A   1      49.860  26.831  24.862  1.00  0.00     0.009 A 
ATOM     57  C   UNL A   1      50.188  25.712  26.983  1.00  0.00     0.009 A 
ATOM     58  C   UNL A   1      51.155  26.478  24.481  1.00  0.00     0.001 A 
ATOM     59  C   UNL A   1      51.493  25.391  26.613  1.00  0.00     0.001 A 
ATOM     60  C   UNL A   1      51.972  25.765  25.358  1.00  0.00     0.000 A 
ENDBRANCH  42  55
ENDBRANCH  16  17
ENDBRANCH   9  11
ENDBRANCH   8   9
ENDBRANCH   7   8
ENDBRANCH   6   7
ENDBRANCH   5   6
ENDBRANCH   4   5
ENDBRANCH   3   4
ENDBRANCH   2   3
ENDBRANCH   1   2
BRANCH   1  61
ATOM     61  C   UNL A   1      42.902  33.446  35.355  1.00  0.00     0.188 C 
BRANCH  61  62
ATOM     62  O   UNL A   1      43.926  33.805  34.440  1.00  0.00    -0.376 OA
BRANCH  62  63
ATOM     63  C   UNL A   1      44.358  32.770  33.562  1.00  0.00     0.202 C 
BRANCH  63  64
ATOM     64  C   UNL A   1      43.721  32.727  32.160  1.00  0.00     0.261 C 
BRANCH  64  65
ATOM     65  O   UNL A   1      44.122  33.771  31.243  1.00  0.00    -0.460 OA
BRANCH  65  66
ATOM     66  C   UNL A   1      43.388  34.910  31.243  1.00  0.00     0.339 C 
ATOM     67  O   UNL A   1      43.011  35.546  32.226  1.00  0.00    -0.246 OA
BRANCH  66  68
ATOM     68  C   UNL A   1      43.096  35.361  29.869  1.00  0.00     0.080 A 
ATOM     69  C   UNL A   1      44.085  36.052  29.118  1.00  0.00     0.043 A 
ATOM     70  C   UNL A   1      41.803  35.202  29.358  1.00  0.00     0.055 A 
ATOM     71  C   UNL A   1      43.769  36.568  27.853  1.00  0.00     0.042 A 
ATOM     72  C   UNL A   1      41.484  35.752  28.119  1.00  0.00     0.023 A 
ATOM     73  Cl  UNL A   1      40.543  34.382  30.207  1.00  0.00    -0.083 Cl
ATOM     74  C   UNL A   1      42.451  36.446  27.390  1.00  0.00     0.028 A 
BRANCH  71  75
ATOM     75  N   UNL A   1      44.637  37.227  26.962  1.00  0.00    -0.322 N 
ATOM     76  C   UNL A   1      45.258  38.450  26.927  1.00  0.00     0.258 C 
ATOM     77  H   UNL A   1      44.850  36.678  26.173  1.00  0.00     0.170 HD
ATOM     78  O   UNL A   1      45.903  38.763  25.924  1.00  0.00    -0.269 OA
BRANCH  76  79
ATOM     79  C   UNL A   1      45.262  39.394  28.052  1.00  0.00     0.070 A 
ATOM     80  C   UNL A   1      46.225  39.143  29.054  1.00  0.00     0.101 A 
ATOM     81  C   UNL A   1      44.302  40.414  28.180  1.00  0.00     0.050 A 
ATOM     82  C   UNL A   1      46.322  40.002  30.147  1.00  0.00     0.270 A 
ATOM     83  C   UNL A   1      44.441  41.233  29.307  1.00  0.00     0.034 A 
ATOM     84  C   UNL A   1      45.454  41.079  30.258  1.00  0.00     0.088 A 
BRANCH  81  85
ATOM     85  N   UNL A   1      43.254  40.583  27.309  1.00  0.00    -0.371 N 
ATOM     86  C   UNL A   1      41.924  40.064  27.585  1.00  0.00     0.116 C 
ATOM     87  C   UNL A   1      43.220  41.464  26.148  1.00  0.00     0.116 C 
ATOM     88  C   UNL A   1      41.344  39.901  26.187  1.00  0.00     0.023 C 
ATOM     89  C   UNL A   1      41.973  41.027  25.371  1.00  0.00     0.023 C 
ENDBRANCH  81  85
BRANCH  82  90
ATOM     90  N   UNL A   1      47.308  39.760  31.202  1.00  0.00     0.062 N 
ATOM     91  O   UNL A   1      48.503  39.923  30.921  1.00  0.00    -0.258 OA
ATOM     92  O   UNL A   1      46.883  39.393  32.306  1.00  0.00    -0.258 OA
ENDBRANCH  82  90
ENDBRANCH  76  79
ENDBRANCH  71  75
ENDBRANCH  66  68
ENDBRANCH  65  66
ENDBRANCH  64  65
ENDBRANCH  63  64
ENDBRANCH  62  63
ENDBRANCH  61  62
ENDBRANCH   1  61
TORSDOF 24
ENDMDL
MODEL 3
REMARK VINA RESULT:      -6.1      6.857     10.501
REMARK SMILES O=C(OCCOCCOCCOCCOC(=O)c1cc(NC(=O)c2cc([N+](=O)[O-])ccc2N2CCCC2)ccc1Cl)c1ccc(-c2c3nc(c(-c4ccccc4)c4ccc([nH]4)c(-c4ccccc4)c4nc(c(-c5ccccc5)c5ccc2[nH]5)C=C4)C=C3)cc1
REMARK SMILES IDX 10 1 9 2 8 3 7 4 6 5 5 6 4 7 3 8 2 9 1 10 42 11 43 12 89 13
REMARK SMILES IDX 44 14 88 15 45 16 46 17 47 18 82 19 48 20 87 21 81 22 83 23
REMARK SMILES IDX 49 24 86 25 80 26 79 27 50 29 72 30 57 31 71 32 58 33 61 34
REMARK SMILES IDX 70 35 84 36 59 37 60 38 69 40 85 41 62 42 51 43 52 44 56 45
REMARK SMILES IDX 53 46 55 47 54 48 73 49 74 50 78 51 75 52 77 53 76 54 63 55
REMARK SMILES IDX 64 56 68 57 65 58 67 59 66 60 11 61 12 62 13 63 14 64 15 65
REMARK SMILES IDX 16 66 17 67 18 68 19 69 40 70 20 71 39 72 41 73 38 74 21 75
REMARK SMILES IDX 22 76 23 78 24 79 25 80 32 81 26 82 31 83 30 84 33 85 34 86
REMARK SMILES IDX 37 87 35 88 36 89 27 90 28 91 29 92
REMARK H PARENT 83 28 61 39 21 77
REMARK Flexibility Score: inf
ROOT
ATOM      1  C   UNL A   1      45.812  29.186  27.681  1.00  0.00     0.188 C 
ENDROOT
BRANCH   1   2
ATOM      2  O   UNL A   1      44.669  28.429  28.046  1.00  0.00    -0.377 OA
BRANCH   2   3
ATOM      3  C   UNL A   1      43.633  28.321  27.068  1.00  0.00     0.188 C 
BRANCH   3   4
ATOM      4  C   UNL A   1      42.314  27.574  27.374  1.00  0.00     0.188 C 
BRANCH   4   5
ATOM      5  O   UNL A   1      42.467  26.185  27.648  1.00  0.00    -0.376 OA
BRANCH   5   6
ATOM      6  C   UNL A   1      41.496  25.296  27.090  1.00  0.00     0.202 C 
BRANCH   6   7
ATOM      7  C   UNL A   1      42.042  23.935  26.662  1.00  0.00     0.261 C 
BRANCH   7   8
ATOM      8  O   UNL A   1      42.457  23.993  25.292  1.00  0.00    -0.460 OA
BRANCH   8   9
ATOM      9  C   UNL A   1      43.561  23.457  24.733  1.00  0.00     0.338 C 
ATOM     10  O   UNL A   1      43.443  22.430  24.067  1.00  0.00    -0.246 OA
BRANCH   9  11
ATOM     11  C   UNL A   1      44.923  24.057  24.840  1.00  0.00     0.060 A 
ATOM     12  C   UNL A   1      46.128  23.444  24.475  1.00  0.00     0.016 A 
ATOM     13  C   UNL A   1      44.953  25.404  25.232  1.00  0.00     0.016 A 
ATOM     14  C   UNL A   1      47.341  24.129  24.561  1.00  0.00     0.010 A 
ATOM     15  C   UNL A   1      46.155  26.105  25.285  1.00  0.00     0.010 A 
ATOM     16  C   UNL A   1      47.359  25.460  24.977  1.00  0.00    -0.014 A 
BRANCH  16  17
ATOM     17  C   UNL A   1      48.638  26.146  25.236  1.00  0.00     0.031 A 
ATOM     18  C   UNL A   1      49.179  26.108  26.634  1.00  0.00     0.074 A 
ATOM     19  C   UNL A   1      49.296  26.775  24.246  1.00  0.00     0.049 A 
ATOM     20  N   UNL A   1      50.190  26.749  27.154  1.00  0.00    -0.248 NA
ATOM     21  C   UNL A   1      48.470  25.227  27.580  1.00  0.00     0.031 C 
ATOM     22  C   UNL A   1      48.900  26.790  22.838  1.00  0.00     0.029 A 
ATOM     23  N   UNL A   1      50.442  27.525  24.282  1.00  0.00    -0.354 N 
ATOM     24  C   UNL A   1      50.220  26.374  28.491  1.00  0.00     0.074 A 
ATOM     25  C   UNL A   1      49.116  25.468  28.709  1.00  0.00     0.031 C 
ATOM     26  C   UNL A   1      49.795  27.512  22.141  1.00  0.00     0.029 A 
ATOM     27  C   UNL A   1      50.784  28.059  23.063  1.00  0.00     0.049 A 
ATOM     28  H   UNL A   1      50.969  27.668  25.101  1.00  0.00     0.167 HD
ATOM     29  C   UNL A   1      51.091  26.760  29.451  1.00  0.00     0.031 A 
ATOM     30  C   UNL A   1      51.768  28.923  22.747  1.00  0.00     0.031 A 
ATOM     31  C   UNL A   1      52.171  27.676  29.211  1.00  0.00     0.049 A 
ATOM     32  C   UNL A   1      52.668  29.413  23.853  1.00  0.00     0.074 A 
ATOM     33  C   UNL A   1      53.100  28.174  30.104  1.00  0.00     0.029 A 
ATOM     34  N   UNL A   1      52.461  28.232  27.972  1.00  0.00    -0.354 N 
ATOM     35  N   UNL A   1      52.670  29.088  25.125  1.00  0.00    -0.248 NA
ATOM     36  C   UNL A   1      53.697  30.394  23.482  1.00  0.00     0.031 C 
ATOM     37  C   UNL A   1      53.918  29.077  29.416  1.00  0.00     0.029 A 
ATOM     38  C   UNL A   1      53.541  29.088  28.081  1.00  0.00     0.049 A 
ATOM     39  H   UNL A   1      51.970  28.045  27.140  1.00  0.00     0.167 HD
ATOM     40  C   UNL A   1      53.715  29.800  25.700  1.00  0.00     0.074 A 
ATOM     41  C   UNL A   1      54.333  30.562  24.632  1.00  0.00     0.031 C 
ATOM     42  C   UNL A   1      54.129  29.826  26.991  1.00  0.00     0.031 A 
BRANCH  29  43
ATOM     43  C   UNL A   1      50.851  26.242  30.841  1.00  0.00    -0.014 A 
ATOM     44  C   UNL A   1      51.330  24.988  31.255  1.00  0.00     0.009 A 
ATOM     45  C   UNL A   1      50.100  27.011  31.744  1.00  0.00     0.009 A 
ATOM     46  C   UNL A   1      51.022  24.497  32.527  1.00  0.00     0.001 A 
ATOM     47  C   UNL A   1      49.820  26.532  33.025  1.00  0.00     0.001 A 
ATOM     48  C   UNL A   1      50.269  25.270  33.411  1.00  0.00     0.000 A 
ENDBRANCH  29  43
BRANCH  30  49
ATOM     49  C   UNL A   1      51.928  29.414  21.350  1.00  0.00    -0.014 A 
ATOM     50  C   UNL A   1      52.685  28.692  20.415  1.00  0.00     0.009 A 
ATOM     51  C   UNL A   1      51.340  30.625  20.947  1.00  0.00     0.009 A 
ATOM     52  C   UNL A   1      52.873  29.184  19.119  1.00  0.00     0.001 A 
ATOM     53  C   UNL A   1      51.501  31.097  19.641  1.00  0.00     0.001 A 
ATOM     54  C   UNL A   1      52.277  30.383  18.733  1.00  0.00     0.000 A 
ENDBRANCH  30  49
BRANCH  42  55
ATOM     55  C   UNL A   1      55.331  30.672  27.304  1.00  0.00    -0.014 A 
ATOM     56  C   UNL A   1      56.629  30.142  27.265  1.00  0.00     0.009 A 
ATOM     57  C   UNL A   1      55.158  32.036  27.585  1.00  0.00     0.009 A 
ATOM     58  C   UNL A   1      57.729  30.956  27.535  1.00  0.00     0.001 A 
ATOM     59  C   UNL A   1      56.261  32.855  27.819  1.00  0.00     0.001 A 
ATOM     60  C   UNL A   1      57.545  32.313  27.804  1.00  0.00     0.000 A 
ENDBRANCH  42  55
ENDBRANCH  16  17
ENDBRANCH   9  11
ENDBRANCH   8   9
ENDBRANCH   7   8
ENDBRANCH   6   7
ENDBRANCH   5   6
ENDBRANCH   4   5
ENDBRANCH   3   4
ENDBRANCH   2   3
ENDBRANCH   1   2
BRANCH   1  61
ATOM     61  C   UNL A   1      46.087  29.348  26.184  1.00  0.00     0.188 C 
BRANCH  61  62
ATOM     62  O   UNL A   1      46.344  30.671  25.738  1.00  0.00    -0.376 OA
BRANCH  62  63
ATOM     63  C   UNL A   1      45.939  31.709  26.624  1.00  0.00     0.202 C 
BRANCH  63  64
ATOM     64  C   UNL A   1      45.006  32.795  26.054  1.00  0.00     0.261 C 
BRANCH  64  65
ATOM     65  O   UNL A   1      45.652  33.935  25.440  1.00  0.00    -0.460 OA
BRANCH  65  66
ATOM     66  C   UNL A   1      46.057  34.932  26.262  1.00  0.00     0.339 C 
ATOM     67  O   UNL A   1      45.499  35.316  27.289  1.00  0.00    -0.246 OA
BRANCH  66  68
ATOM     68  C   UNL A   1      47.327  35.525  25.801  1.00  0.00     0.080 A 
ATOM     69  C   UNL A   1      48.413  34.689  25.425  1.00  0.00     0.043 A 
ATOM     70  C   UNL A   1      47.487  36.915  25.845  1.00  0.00     0.055 A 
ATOM     71  C   UNL A   1      49.649  35.258  25.087  1.00  0.00     0.042 A 
ATOM     72  C   UNL A   1      48.729  37.470  25.547  1.00  0.00     0.023 A 
ATOM     73  Cl  UNL A   1      46.222  38.001  26.296  1.00  0.00    -0.083 Cl
ATOM     74  C   UNL A   1      49.799  36.647  25.196  1.00  0.00     0.028 A 
BRANCH  71  75
ATOM     75  N   UNL A   1      50.803  34.583  24.645  1.00  0.00    -0.322 N 
ATOM     76  C   UNL A   1      51.927  34.074  25.245  1.00  0.00     0.258 C 
ATOM     77  H   UNL A   1      50.804  34.443  23.670  1.00  0.00     0.170 HD
ATOM     78  O   UNL A   1      52.822  33.608  24.536  1.00  0.00    -0.269 OA
BRANCH  76  79
ATOM     79  C   UNL A   1      52.103  33.982  26.699  1.00  0.00     0.070 A 
ATOM     80  C   UNL A   1      51.502  32.863  27.316  1.00  0.00     0.101 A 
ATOM     81  C   UNL A   1      52.734  34.995  27.444  1.00  0.00     0.050 A 
ATOM     82  C   UNL A   1      51.640  32.678  28.691  1.00  0.00     0.270 A 
ATOM     83  C   UNL A   1      52.827  34.760  28.821  1.00  0.00     0.034 A 
ATOM     84  C   UNL A   1      52.341  33.608  29.447  1.00  0.00     0.088 A 
BRANCH  81  85
ATOM     85  N   UNL A   1      53.184  36.171  26.897  1.00  0.00    -0.371 N 
ATOM     86  C   UNL A   1      52.677  37.468  27.318  1.00  0.00     0.116 C 
ATOM     87  C   UNL A   1      54.346  36.341  26.033  1.00  0.00     0.116 C 
ATOM     88  C   UNL A   1      52.927  38.328  26.087  1.00  0.00     0.023 C 
ATOM     89  C   UNL A   1      54.198  37.756  25.464  1.00  0.00     0.023 C 
ENDBRANCH  81  85
BRANCH  82  90
ATOM     90  N   UNL A   1      51.021  31.529  29.356  1.00  0.00     0.062 N 
ATOM     91  O   UNL A   1      50.055  30.993  28.797  1.00  0.00    -0.258 OA
ATOM     92  O   UNL A   1      51.496  31.177  30.444  1.00  0.00    -0.258 OA
ENDBRANCH  82  90
ENDBRANCH  76  79
ENDBRANCH  71  75
ENDBRANCH  66  68
ENDBRANCH  65  66
ENDBRANCH  64  65
ENDBRANCH  63  64
ENDBRANCH  62  63
ENDBRANCH  61  62
ENDBRANCH   1  61
TORSDOF 24
ENDMDL
