MODEL 1
REMARK VINA RESULT:      -7.7      0.000      0.000
REMARK SMILES COc1cccc([C@H]2[NH2+][C@@](CC(C)C)(C(=O)OCCOCCOCCOCCOC(=O)c3ccc(-c4c5nc(c(-c6ccccc6)c6ccc([nH]6)c(-c6ccccc6)c6nc(c(-c7ccccc7)c7ccc4[nH]7)C=C6)C=C5)cc3)[C@H]3C(=O)N(C(C)C)C(=O)[C@H]23)c1O
REMARK SMILES IDX 23 1 22 2 21 3 20 4 19 5 18 6 17 7 15 8 16 9 10 10 8 11 9 12
REMARK SMILES IDX 89 13 80 16 87 17 81 18 83 19 88 20 82 21 7 22 3 23 4 24
REMARK SMILES IDX 90 25 5 26 6 27 2 28 1 29 91 30 11 32 12 33 13 34 14 35
REMARK SMILES IDX 84 36 85 37 86 38 24 39 25 40 26 41 27 42 28 43 29 44 30 45
REMARK SMILES IDX 31 46 32 47 33 48 79 49 34 50 78 51 35 52 36 53 37 54 72 55
REMARK SMILES IDX 38 56 77 57 71 58 73 59 39 60 76 61 70 62 69 63 40 65 62 66
REMARK SMILES IDX 47 67 61 68 48 69 51 70 60 71 74 72 49 73 50 74 59 76 75 77
REMARK SMILES IDX 52 78 41 79 42 80 46 81 43 82 45 83 44 84 63 85 64 86 68 87
REMARK SMILES IDX 65 88 67 89 66 90 53 91 54 92 58 93 55 94 57 95 56 96
REMARK H PARENT 9 14 9 15 91 31 73 64 51 75
REMARK Flexibility Score: inf
ROOT
ATOM      1  O   UNL A   1      40.726  27.427  27.842  1.00  0.00    -0.377 OA
ENDROOT
BRANCH   1   2
ATOM      2  C   UNL A   1      41.023  26.173  27.274  1.00  0.00     0.188 C 
BRANCH   2   3
ATOM      3  C   UNL A   1      41.087  25.979  25.760  1.00  0.00     0.188 C 
BRANCH   3   4
ATOM      4  O   UNL A   1      42.192  26.595  25.145  1.00  0.00    -0.376 OA
BRANCH   4   5
ATOM      5  C   UNL A   1      43.533  26.340  25.497  1.00  0.00     0.202 C 
BRANCH   5   6
ATOM      6  C   UNL A   1      44.709  27.334  25.469  1.00  0.00     0.261 C 
BRANCH   6   7
ATOM      7  O   UNL A   1      45.629  27.321  24.373  1.00  0.00    -0.459 OA
BRANCH   7   8
ATOM      8  C   UNL A   1      46.842  27.904  24.615  1.00  0.00     0.369 C 
ATOM      9  O   UNL A   1      46.973  28.908  25.310  1.00  0.00    -0.245 OA
BRANCH   8  10
ATOM     10  C   UNL A   1      48.055  27.144  23.941  1.00  0.00     0.207 C 
ATOM     11  C   UNL A   1      48.000  24.944  25.070  1.00  0.00     0.232 C 
ATOM     12  N   UNL A   1      47.574  25.704  23.834  1.00  0.00    -0.324 N 
ATOM     13  C   UNL A   1      48.734  25.985  25.880  1.00  0.00     0.161 C 
ATOM     14  H   UNL A   1      46.557  25.689  23.758  1.00  0.00     0.347 HD
ATOM     15  H   UNL A   1      47.981  25.268  23.006  1.00  0.00     0.347 HD
ATOM     16  C   UNL A   1      49.268  26.877  24.782  1.00  0.00     0.171 C 
ATOM     17  C   UNL A   1      50.010  25.763  26.639  1.00  0.00     0.240 C 
ATOM     18  C   UNL A   1      50.143  27.786  25.581  1.00  0.00     0.240 C 
ATOM     19  N   UNL A   1      50.685  26.973  26.561  1.00  0.00    -0.279 N 
ATOM     20  O   UNL A   1      50.345  24.749  27.221  1.00  0.00    -0.274 OA
ATOM     21  O   UNL A   1      50.449  28.931  25.315  1.00  0.00    -0.274 OA
BRANCH  11  22
ATOM     22  C   UNL A   1      46.806  24.208  25.655  1.00  0.00     0.056 A 
ATOM     23  C   UNL A   1      44.776  22.833  25.578  1.00  0.00     0.161 A 
ATOM     24  C   UNL A   1      44.636  22.958  26.962  1.00  0.00     0.050 A 
ATOM     25  C   UNL A   1      45.879  23.430  24.940  1.00  0.00     0.166 A 
ATOM     26  C   UNL A   1      45.559  23.688  27.701  1.00  0.00     0.005 A 
ATOM     27  C   UNL A   1      46.620  24.316  27.052  1.00  0.00     0.014 A 
BRANCH  23  28
ATOM     28  O   UNL A   1      43.819  22.045  24.994  1.00  0.00    -0.493 OA
ATOM     29  C   UNL A   1      42.493  22.094  25.509  1.00  0.00     0.278 C 
ENDBRANCH  23  28
BRANCH  25  30
ATOM     30  O   UNL A   1      46.106  23.177  23.617  1.00  0.00    -0.504 OA
ATOM     31  H   UNL A   1      46.432  22.341  23.348  1.00  0.00     0.293 HD
ENDBRANCH  25  30
ENDBRANCH  11  22
BRANCH  10  32
ATOM     32  C   UNL A   1      48.303  27.713  22.498  1.00  0.00     0.085 C 
BRANCH  32  33
ATOM     33  C   UNL A   1      49.538  27.253  21.666  1.00  0.00    -0.011 C 
ATOM     34  C   UNL A   1      49.209  26.305  20.510  1.00  0.00     0.007 C 
ATOM     35  C   UNL A   1      50.251  28.476  21.056  1.00  0.00     0.007 C 
ENDBRANCH  32  33
ENDBRANCH  10  32
BRANCH  19  36
ATOM     36  C   UNL A   1      51.891  27.341  27.298  1.00  0.00     0.087 C 
ATOM     37  C   UNL A   1      53.143  26.750  26.658  1.00  0.00     0.031 C 
ATOM     38  C   UNL A   1      52.003  28.855  27.472  1.00  0.00     0.031 C 
ENDBRANCH  19  36
ENDBRANCH   8  10
ENDBRANCH   7   8
ENDBRANCH   6   7
ENDBRANCH   5   6
ENDBRANCH   4   5
ENDBRANCH   3   4
ENDBRANCH   2   3
ENDBRANCH   1   2
BRANCH   1  39
ATOM     39  C   UNL A   1      39.405  27.647  28.273  1.00  0.00     0.188 C 
BRANCH  39  40
ATOM     40  C   UNL A   1      39.108  29.138  28.499  1.00  0.00     0.188 C 
BRANCH  40  41
ATOM     41  O   UNL A   1      37.943  29.782  27.980  1.00  0.00    -0.376 OA
BRANCH  41  42
ATOM     42  C   UNL A   1      36.656  29.563  28.533  1.00  0.00     0.202 C 
BRANCH  42  43
ATOM     43  C   UNL A   1      36.444  29.864  30.027  1.00  0.00     0.261 C 
BRANCH  43  44
ATOM     44  O   UNL A   1      37.145  30.993  30.560  1.00  0.00    -0.460 OA
BRANCH  44  45
ATOM     45  C   UNL A   1      36.441  31.776  31.407  1.00  0.00     0.338 C 
ATOM     46  O   UNL A   1      35.230  31.851  31.530  1.00  0.00    -0.246 OA
BRANCH  45  47
ATOM     47  C   UNL A   1      37.393  32.493  32.277  1.00  0.00     0.060 A 
ATOM     48  C   UNL A   1      38.573  31.847  32.671  1.00  0.00     0.016 A 
ATOM     49  C   UNL A   1      37.107  33.783  32.727  1.00  0.00     0.016 A 
ATOM     50  C   UNL A   1      39.468  32.482  33.528  1.00  0.00     0.010 A 
ATOM     51  C   UNL A   1      37.981  34.403  33.620  1.00  0.00     0.010 A 
ATOM     52  C   UNL A   1      39.147  33.741  34.046  1.00  0.00    -0.014 A 
BRANCH  52  53
ATOM     53  C   UNL A   1      39.883  34.265  35.215  1.00  0.00     0.031 A 
ATOM     54  C   UNL A   1      39.361  33.913  36.580  1.00  0.00     0.074 A 
ATOM     55  C   UNL A   1      40.963  35.051  35.071  1.00  0.00     0.049 A 
ATOM     56  N   UNL A   1      39.723  34.370  37.750  1.00  0.00    -0.248 NA
ATOM     57  C   UNL A   1      38.275  32.918  36.628  1.00  0.00     0.031 C 
ATOM     58  C   UNL A   1      41.596  35.402  33.802  1.00  0.00     0.029 A 
ATOM     59  N   UNL A   1      41.703  35.717  36.015  1.00  0.00    -0.354 N 
ATOM     60  C   UNL A   1      38.890  33.739  38.666  1.00  0.00     0.074 A 
ATOM     61  C   UNL A   1      38.004  32.876  37.923  1.00  0.00     0.031 C 
ATOM     62  C   UNL A   1      42.614  36.248  34.045  1.00  0.00     0.029 A 
ATOM     63  C   UNL A   1      42.669  36.530  35.478  1.00  0.00     0.049 A 
ATOM     64  H   UNL A   1      41.554  35.621  36.984  1.00  0.00     0.167 HD
ATOM     65  C   UNL A   1      38.864  33.880  40.012  1.00  0.00     0.031 A 
ATOM     66  C   UNL A   1      43.471  37.433  36.077  1.00  0.00     0.031 A 
ATOM     67  C   UNL A   1      39.740  34.753  40.740  1.00  0.00     0.049 A 
ATOM     68  C   UNL A   1      43.366  37.633  37.569  1.00  0.00     0.074 A 
ATOM     69  C   UNL A   1      39.806  34.961  42.106  1.00  0.00     0.029 A 
ATOM     70  N   UNL A   1      40.698  35.568  40.158  1.00  0.00    -0.354 N 
ATOM     71  N   UNL A   1      42.590  37.022  38.432  1.00  0.00    -0.248 NA
ATOM     72  C   UNL A   1      44.247  38.646  38.169  1.00  0.00     0.031 C 
ATOM     73  C   UNL A   1      40.763  35.950  42.346  1.00  0.00     0.029 A 
ATOM     74  C   UNL A   1      41.341  36.304  41.136  1.00  0.00     0.049 A 
ATOM     75  H   UNL A   1      40.891  35.616  39.194  1.00  0.00     0.167 HD
ATOM     76  C   UNL A   1      42.916  37.549  39.677  1.00  0.00     0.074 A 
ATOM     77  C   UNL A   1      43.962  38.524  39.458  1.00  0.00     0.031 C 
ATOM     78  C   UNL A   1      42.397  37.253  40.894  1.00  0.00     0.031 A 
BRANCH  65  79
ATOM     79  C   UNL A   1      37.820  33.115  40.772  1.00  0.00    -0.014 A 
ATOM     80  C   UNL A   1      36.562  33.671  41.055  1.00  0.00     0.009 A 
ATOM     81  C   UNL A   1      38.089  31.798  41.179  1.00  0.00     0.009 A 
ATOM     82  C   UNL A   1      35.604  32.929  41.750  1.00  0.00     0.001 A 
ATOM     83  C   UNL A   1      37.119  31.050  41.847  1.00  0.00     0.001 A 
ATOM     84  C   UNL A   1      35.880  31.618  42.139  1.00  0.00     0.000 A 
ENDBRANCH  65  79
BRANCH  66  85
ATOM     85  C   UNL A   1      44.408  38.260  35.269  1.00  0.00    -0.014 A 
ATOM     86  C   UNL A   1      43.986  39.467  34.692  1.00  0.00     0.009 A 
ATOM     87  C   UNL A   1      45.722  37.824  35.037  1.00  0.00     0.009 A 
ATOM     88  C   UNL A   1      44.849  40.202  33.875  1.00  0.00     0.001 A 
ATOM     89  C   UNL A   1      46.593  38.577  34.247  1.00  0.00     0.001 A 
ATOM     90  C   UNL A   1      46.152  39.758  33.656  1.00  0.00     0.000 A 
ENDBRANCH  66  85
BRANCH  78  91
ATOM     91  C   UNL A   1      42.990  37.936  42.094  1.00  0.00    -0.014 A 
ATOM     92  C   UNL A   1      44.035  37.356  42.826  1.00  0.00     0.009 A 
ATOM     93  C   UNL A   1      42.549  39.226  42.436  1.00  0.00     0.009 A 
ATOM     94  C   UNL A   1      44.616  38.048  43.892  1.00  0.00     0.001 A 
ATOM     95  C   UNL A   1      43.152  39.927  43.481  1.00  0.00     0.001 A 
ATOM     96  C   UNL A   1      44.180  39.335  44.212  1.00  0.00     0.000 A 
ENDBRANCH  78  91
ENDBRANCH  52  53
ENDBRANCH  45  47
ENDBRANCH  44  45
ENDBRANCH  43  44
ENDBRANCH  42  43
ENDBRANCH  41  42
ENDBRANCH  40  41
ENDBRANCH  39  40
ENDBRANCH   1  39
TORSDOF 26
ENDMDL
MODEL 2
REMARK VINA RESULT:      -7.5      4.402      8.900
REMARK SMILES COc1cccc([C@H]2[NH2+][C@@](CC(C)C)(C(=O)OCCOCCOCCOCCOC(=O)c3ccc(-c4c5nc(c(-c6ccccc6)c6ccc([nH]6)c(-c6ccccc6)c6nc(c(-c7ccccc7)c7ccc4[nH]7)C=C6)C=C5)cc3)[C@H]3C(=O)N(C(C)C)C(=O)[C@H]23)c1O
REMARK SMILES IDX 23 1 22 2 21 3 20 4 19 5 18 6 17 7 15 8 16 9 10 10 8 11 9 12
REMARK SMILES IDX 89 13 80 16 87 17 81 18 83 19 88 20 82 21 7 22 3 23 4 24
REMARK SMILES IDX 90 25 5 26 6 27 2 28 1 29 91 30 11 32 12 33 13 34 14 35
REMARK SMILES IDX 84 36 85 37 86 38 24 39 25 40 26 41 27 42 28 43 29 44 30 45
REMARK SMILES IDX 31 46 32 47 33 48 79 49 34 50 78 51 35 52 36 53 37 54 72 55
REMARK SMILES IDX 38 56 77 57 71 58 73 59 39 60 76 61 70 62 69 63 40 65 62 66
REMARK SMILES IDX 47 67 61 68 48 69 51 70 60 71 74 72 49 73 50 74 59 76 75 77
REMARK SMILES IDX 52 78 41 79 42 80 46 81 43 82 45 83 44 84 63 85 64 86 68 87
REMARK SMILES IDX 65 88 67 89 66 90 53 91 54 92 58 93 55 94 57 95 56 96
REMARK H PARENT 9 14 9 15 91 31 73 64 51 75
REMARK Flexibility Score: inf
ROOT
ATOM      1  O   UNL A   1      46.874  26.691  35.046  1.00  0.00    -0.377 OA
ENDROOT
BRANCH   1   2
ATOM      2  C   UNL A   1      46.989  26.499  33.655  1.00  0.00     0.188 C 
BRANCH   2   3
ATOM      3  C   UNL A   1      46.412  27.507  32.662  1.00  0.00     0.188 C 
BRANCH   3   4
ATOM      4  O   UNL A   1      45.834  26.925  31.519  1.00  0.00    -0.376 OA
BRANCH   4   5
ATOM      5  C   UNL A   1      45.869  25.545  31.234  1.00  0.00     0.202 C 
BRANCH   5   6
ATOM      6  C   UNL A   1      44.732  24.685  30.651  1.00  0.00     0.261 C 
BRANCH   6   7
ATOM      7  O   UNL A   1      43.685  25.302  29.896  1.00  0.00    -0.459 OA
BRANCH   7   8
ATOM      8  C   UNL A   1      43.152  24.540  28.894  1.00  0.00     0.369 C 
ATOM      9  O   UNL A   1      43.349  23.332  28.798  1.00  0.00    -0.245 OA
BRANCH   8  10
ATOM     10  C   UNL A   1      42.237  25.359  27.895  1.00  0.00     0.207 C 
ATOM     11  C   UNL A   1      43.373  25.016  25.725  1.00  0.00     0.232 C 
ATOM     12  N   UNL A   1      42.253  24.531  26.618  1.00  0.00    -0.324 N 
ATOM     13  C   UNL A   1      43.992  26.137  26.525  1.00  0.00     0.161 C 
ATOM     14  H   UNL A   1      42.402  23.549  26.850  1.00  0.00     0.347 HD
ATOM     15  H   UNL A   1      41.361  24.632  26.134  1.00  0.00     0.347 HD
ATOM     16  C   UNL A   1      42.795  26.622  27.310  1.00  0.00     0.171 C 
ATOM     17  C   UNL A   1      44.455  27.453  25.971  1.00  0.00     0.240 C 
ATOM     18  C   UNL A   1      43.373  27.842  27.948  1.00  0.00     0.240 C 
ATOM     19  N   UNL A   1      44.219  28.368  26.988  1.00  0.00    -0.279 N 
ATOM     20  O   UNL A   1      44.961  27.649  24.882  1.00  0.00    -0.274 OA
ATOM     21  O   UNL A   1      43.035  28.353  28.997  1.00  0.00    -0.274 OA
BRANCH  11  22
ATOM     22  C   UNL A   1      44.214  23.833  25.271  1.00  0.00     0.056 A 
ATOM     23  C   UNL A   1      44.634  21.487  24.690  1.00  0.00     0.161 A 
ATOM     24  C   UNL A   1      45.978  21.784  24.458  1.00  0.00     0.050 A 
ATOM     25  C   UNL A   1      43.755  22.522  25.061  1.00  0.00     0.166 A 
ATOM     26  C   UNL A   1      46.454  23.080  24.619  1.00  0.00     0.005 A 
ATOM     27  C   UNL A   1      45.584  24.085  25.035  1.00  0.00     0.014 A 
BRANCH  23  28
ATOM     28  O   UNL A   1      44.305  20.180  24.443  1.00  0.00    -0.493 OA
ATOM     29  C   UNL A   1      44.975  19.499  23.388  1.00  0.00     0.278 C 
ENDBRANCH  23  28
BRANCH  25  30
ATOM     30  O   UNL A   1      42.414  22.268  25.133  1.00  0.00    -0.504 OA
ATOM     31  H   UNL A   1      41.802  22.977  25.143  1.00  0.00     0.293 HD
ENDBRANCH  25  30
ENDBRANCH  11  22
BRANCH  10  32
ATOM     32  C   UNL A   1      40.769  25.421  28.450  1.00  0.00     0.085 C 
BRANCH  32  33
ATOM     33  C   UNL A   1      39.600  25.915  27.547  1.00  0.00    -0.011 C 
ATOM     34  C   UNL A   1      38.461  24.907  27.372  1.00  0.00     0.007 C 
ATOM     35  C   UNL A   1      38.979  27.197  28.135  1.00  0.00     0.007 C 
ENDBRANCH  32  33
ENDBRANCH  10  32
BRANCH  19  36
ATOM     36  C   UNL A   1      44.670  29.757  27.024  1.00  0.00     0.087 C 
ATOM     37  C   UNL A   1      46.035  29.922  26.365  1.00  0.00     0.031 C 
ATOM     38  C   UNL A   1      43.630  30.701  26.421  1.00  0.00     0.031 C 
ENDBRANCH  19  36
ENDBRANCH   8  10
ENDBRANCH   7   8
ENDBRANCH   6   7
ENDBRANCH   5   6
ENDBRANCH   4   5
ENDBRANCH   3   4
ENDBRANCH   2   3
ENDBRANCH   1   2
BRANCH   1  39
ATOM     39  C   UNL A   1      46.775  25.543  35.852  1.00  0.00     0.188 C 
BRANCH  39  40
ATOM     40  C   UNL A   1      45.755  25.718  36.989  1.00  0.00     0.188 C 
BRANCH  40  41
ATOM     41  O   UNL A   1      44.359  25.465  36.821  1.00  0.00    -0.376 OA
BRANCH  41  42
ATOM     42  C   UNL A   1      43.879  24.449  35.956  1.00  0.00     0.202 C 
BRANCH  42  43
ATOM     43  C   UNL A   1      43.346  24.863  34.573  1.00  0.00     0.261 C 
BRANCH  43  44
ATOM     44  O   UNL A   1      43.333  26.265  34.283  1.00  0.00    -0.460 OA
BRANCH  44  45
ATOM     45  C   UNL A   1      42.138  26.883  34.416  1.00  0.00     0.338 C 
ATOM     46  O   UNL A   1      41.130  26.460  34.956  1.00  0.00    -0.246 OA
BRANCH  45  47
ATOM     47  C   UNL A   1      42.260  28.251  33.877  1.00  0.00     0.060 A 
ATOM     48  C   UNL A   1      43.523  28.858  33.841  1.00  0.00     0.016 A 
ATOM     49  C   UNL A   1      41.128  28.941  33.438  1.00  0.00     0.016 A 
ATOM     50  C   UNL A   1      43.661  30.164  33.379  1.00  0.00     0.010 A 
ATOM     51  C   UNL A   1      41.259  30.265  33.017  1.00  0.00     0.010 A 
ATOM     52  C   UNL A   1      42.520  30.888  33.016  1.00  0.00    -0.014 A 
BRANCH  52  53
ATOM     53  C   UNL A   1      42.594  32.357  32.877  1.00  0.00     0.031 A 
ATOM     54  C   UNL A   1      42.875  32.913  31.509  1.00  0.00     0.074 A 
ATOM     55  C   UNL A   1      42.446  33.172  33.936  1.00  0.00     0.049 A 
ATOM     56  N   UNL A   1      43.145  34.140  31.152  1.00  0.00    -0.248 NA
ATOM     57  C   UNL A   1      42.858  31.947  30.396  1.00  0.00     0.031 C 
ATOM     58  C   UNL A   1      42.106  32.749  35.292  1.00  0.00     0.029 A 
ATOM     59  N   UNL A   1      42.590  34.533  34.029  1.00  0.00    -0.354 N 
ATOM     60  C   UNL A   1      43.358  34.087  29.780  1.00  0.00     0.074 A 
ATOM     61  C   UNL A   1      43.193  32.713  29.369  1.00  0.00     0.031 C 
ATOM     62  C   UNL A   1      42.099  33.830  36.093  1.00  0.00     0.029 A 
ATOM     63  C   UNL A   1      42.480  35.006  35.313  1.00  0.00     0.049 A 
ATOM     64  H   UNL A   1      42.757  35.113  33.252  1.00  0.00     0.167 HD
ATOM     65  C   UNL A   1      43.675  35.099  28.939  1.00  0.00     0.031 A 
ATOM     66  C   UNL A   1      42.708  36.241  35.802  1.00  0.00     0.031 A 
ATOM     67  C   UNL A   1      43.851  36.461  29.360  1.00  0.00     0.049 A 
ATOM     68  C   UNL A   1      43.141  37.336  34.858  1.00  0.00     0.074 A 
ATOM     69  C   UNL A   1      44.161  37.566  28.589  1.00  0.00     0.029 A 
ATOM     70  N   UNL A   1      43.741  36.897  30.671  1.00  0.00    -0.354 N 
ATOM     71  N   UNL A   1      43.324  37.284  33.560  1.00  0.00    -0.248 NA
ATOM     72  C   UNL A   1      43.400  38.659  35.446  1.00  0.00     0.031 C 
ATOM     73  C   UNL A   1      44.299  38.663  29.443  1.00  0.00     0.029 A 
ATOM     74  C   UNL A   1      44.005  38.252  30.735  1.00  0.00     0.049 A 
ATOM     75  H   UNL A   1      43.510  36.329  31.440  1.00  0.00     0.167 HD
ATOM     76  C   UNL A   1      43.682  38.572  33.175  1.00  0.00     0.074 A 
ATOM     77  C   UNL A   1      43.684  39.382  34.373  1.00  0.00     0.031 C 
ATOM     78  C   UNL A   1      43.979  39.043  31.939  1.00  0.00     0.031 A 
BRANCH  65  79
ATOM     79  C   UNL A   1      43.905  34.761  27.495  1.00  0.00    -0.014 A 
ATOM     80  C   UNL A   1      45.130  34.243  27.048  1.00  0.00     0.009 A 
ATOM     81  C   UNL A   1      42.860  34.928  26.572  1.00  0.00     0.009 A 
ATOM     82  C   UNL A   1      45.310  33.920  25.701  1.00  0.00     0.001 A 
ATOM     83  C   UNL A   1      43.032  34.578  25.233  1.00  0.00     0.001 A 
ATOM     84  C   UNL A   1      44.260  34.081  24.797  1.00  0.00     0.000 A 
ENDBRANCH  65  79
BRANCH  66  85
ATOM     85  C   UNL A   1      42.588  36.506  37.261  1.00  0.00    -0.014 A 
ATOM     86  C   UNL A   1      43.604  36.121  38.148  1.00  0.00     0.009 A 
ATOM     87  C   UNL A   1      41.433  37.114  37.781  1.00  0.00     0.009 A 
ATOM     88  C   UNL A   1      43.453  36.308  39.525  1.00  0.00     0.001 A 
ATOM     89  C   UNL A   1      41.298  37.329  39.154  1.00  0.00     0.001 A 
ATOM     90  C   UNL A   1      42.302  36.914  40.026  1.00  0.00     0.000 A 
ENDBRANCH  66  85
BRANCH  78  91
ATOM     91  C   UNL A   1      44.270  40.511  31.799  1.00  0.00    -0.014 A 
ATOM     92  C   UNL A   1      45.579  41.008  31.856  1.00  0.00     0.009 A 
ATOM     93  C   UNL A   1      43.215  41.394  31.513  1.00  0.00     0.009 A 
ATOM     94  C   UNL A   1      45.825  42.367  31.648  1.00  0.00     0.001 A 
ATOM     95  C   UNL A   1      43.467  42.745  31.276  1.00  0.00     0.001 A 
ATOM     96  C   UNL A   1      44.771  43.232  31.350  1.00  0.00     0.000 A 
ENDBRANCH  78  91
ENDBRANCH  52  53
ENDBRANCH  45  47
ENDBRANCH  44  45
ENDBRANCH  43  44
ENDBRANCH  42  43
ENDBRANCH  41  42
ENDBRANCH  40  41
ENDBRANCH  39  40
ENDBRANCH   1  39
TORSDOF 26
ENDMDL
MODEL 3
REMARK VINA RESULT:      -7.5      5.800     13.308
REMARK SMILES COc1cccc([C@H]2[NH2+][C@@](CC(C)C)(C(=O)OCCOCCOCCOCCOC(=O)c3ccc(-c4c5nc(c(-c6ccccc6)c6ccc([nH]6)c(-c6ccccc6)c6nc(c(-c7ccccc7)c7ccc4[nH]7)C=C6)C=C5)cc3)[C@H]3C(=O)N(C(C)C)C(=O)[C@H]23)c1O
REMARK SMILES IDX 23 1 22 2 21 3 20 4 19 5 18 6 17 7 15 8 16 9 10 10 8 11 9 12
REMARK SMILES IDX 89 13 80 16 87 17 81 18 83 19 88 20 82 21 7 22 3 23 4 24
REMARK SMILES IDX 90 25 5 26 6 27 2 28 1 29 91 30 11 32 12 33 13 34 14 35
REMARK SMILES IDX 84 36 85 37 86 38 24 39 25 40 26 41 27 42 28 43 29 44 30 45
REMARK SMILES IDX 31 46 32 47 33 48 79 49 34 50 78 51 35 52 36 53 37 54 72 55
REMARK SMILES IDX 38 56 77 57 71 58 73 59 39 60 76 61 70 62 69 63 40 65 62 66
REMARK SMILES IDX 47 67 61 68 48 69 51 70 60 71 74 72 49 73 50 74 59 76 75 77
REMARK SMILES IDX 52 78 41 79 42 80 46 81 43 82 45 83 44 84 63 85 64 86 68 87
REMARK SMILES IDX 65 88 67 89 66 90 53 91 54 92 58 93 55 94 57 95 56 96
REMARK H PARENT 9 14 9 15 91 31 73 64 51 75
REMARK Flexibility Score: inf
ROOT
ATOM      1  O   UNL A   1      45.128  40.162  38.896  1.00  0.00    -0.377 OA
ENDROOT
BRANCH   1   2
ATOM      2  C   UNL A   1      45.835  40.447  37.712  1.00  0.00     0.188 C 
BRANCH   2   3
ATOM      3  C   UNL A   1      45.134  40.476  36.354  1.00  0.00     0.188 C 
BRANCH   3   4
ATOM      4  O   UNL A   1      44.686  39.219  35.909  1.00  0.00    -0.376 OA
BRANCH   4   5
ATOM      5  C   UNL A   1      44.866  38.737  34.597  1.00  0.00     0.202 C 
BRANCH   5   6
ATOM      6  C   UNL A   1      44.272  39.320  33.301  1.00  0.00     0.261 C 
BRANCH   6   7
ATOM      7  O   UNL A   1      43.954  38.453  32.208  1.00  0.00    -0.459 OA
BRANCH   7   8
ATOM      8  C   UNL A   1      44.500  38.797  31.003  1.00  0.00     0.369 C 
ATOM      9  O   UNL A   1      44.519  39.951  30.585  1.00  0.00    -0.245 OA
BRANCH   8  10
ATOM     10  C   UNL A   1      45.129  37.574  30.221  1.00  0.00     0.207 C 
ATOM     11  C   UNL A   1      43.908  37.629  28.071  1.00  0.00     0.232 C 
ATOM     12  N   UNL A   1      45.179  38.047  28.776  1.00  0.00    -0.324 N 
ATOM     13  C   UNL A   1      43.137  36.907  29.149  1.00  0.00     0.161 C 
ATOM     14  H   UNL A   1      45.264  39.063  28.752  1.00  0.00     0.347 HD
ATOM     15  H   UNL A   1      45.984  37.631  28.307  1.00  0.00     0.347 HD
ATOM     16  C   UNL A   1      44.266  36.368  29.997  1.00  0.00     0.171 C 
ATOM     17  C   UNL A   1      42.357  35.638  28.966  1.00  0.00     0.240 C 
ATOM     18  C   UNL A   1      43.499  35.505  30.944  1.00  0.00     0.240 C 
ATOM     19  N   UNL A   1      42.481  34.968  30.176  1.00  0.00    -0.279 N 
ATOM     20  O   UNL A   1      41.729  35.303  27.980  1.00  0.00    -0.274 OA
ATOM     21  O   UNL A   1      43.810  35.202  32.078  1.00  0.00    -0.274 OA
BRANCH  11  22
ATOM     22  C   UNL A   1      43.303  38.824  27.354  1.00  0.00     0.056 A 
ATOM     23  C   UNL A   1      43.294  40.729  25.808  1.00  0.00     0.161 A 
ATOM     24  C   UNL A   1      41.984  41.031  26.184  1.00  0.00     0.050 A 
ATOM     25  C   UNL A   1      43.931  39.607  26.370  1.00  0.00     0.166 A 
ATOM     26  C   UNL A   1      41.322  40.252  27.126  1.00  0.00     0.005 A 
ATOM     27  C   UNL A   1      41.981  39.173  27.712  1.00  0.00     0.014 A 
BRANCH  23  28
ATOM     28  O   UNL A   1      43.795  41.555  24.837  1.00  0.00    -0.493 OA
ATOM     29  C   UNL A   1      44.697  42.587  25.222  1.00  0.00     0.278 C 
ENDBRANCH  23  28
BRANCH  25  30
ATOM     30  O   UNL A   1      45.148  39.216  25.889  1.00  0.00    -0.504 OA
ATOM     31  H   UNL A   1      45.724  38.707  26.425  1.00  0.00     0.293 HD
ENDBRANCH  25  30
ENDBRANCH  11  22
BRANCH  10  32
ATOM     32  C   UNL A   1      46.592  37.315  30.729  1.00  0.00     0.085 C 
BRANCH  32  33
ATOM     33  C   UNL A   1      46.930  36.041  31.561  1.00  0.00    -0.011 C 
ATOM     34  C   UNL A   1      48.042  35.171  30.970  1.00  0.00     0.007 C 
ATOM     35  C   UNL A   1      47.375  36.438  32.982  1.00  0.00     0.007 C 
ENDBRANCH  32  33
ENDBRANCH  10  32
BRANCH  19  36
ATOM     36  C   UNL A   1      41.749  33.771  30.581  1.00  0.00     0.087 C 
ATOM     37  C   UNL A   1      40.240  33.981  30.507  1.00  0.00     0.031 C 
ATOM     38  C   UNL A   1      42.192  32.545  29.783  1.00  0.00     0.031 C 
ENDBRANCH  19  36
ENDBRANCH   8  10
ENDBRANCH   7   8
ENDBRANCH   6   7
ENDBRANCH   5   6
ENDBRANCH   4   5
ENDBRANCH   3   4
ENDBRANCH   2   3
ENDBRANCH   1   2
BRANCH   1  39
ATOM     39  C   UNL A   1      45.305  38.889  39.466  1.00  0.00     0.188 C 
BRANCH  39  40
ATOM     40  C   UNL A   1      44.274  38.597  40.569  1.00  0.00     0.188 C 
BRANCH  40  41
ATOM     41  O   UNL A   1      43.640  37.325  40.718  1.00  0.00    -0.376 OA
BRANCH  41  42
ATOM     42  C   UNL A   1      42.638  36.876  39.822  1.00  0.00     0.202 C 
BRANCH  42  43
ATOM     43  C   UNL A   1      41.331  37.682  39.727  1.00  0.00     0.261 C 
BRANCH  43  44
ATOM     44  O   UNL A   1      40.400  37.280  38.717  1.00  0.00    -0.460 OA
BRANCH  44  45
ATOM     45  C   UNL A   1      39.582  36.255  39.045  1.00  0.00     0.338 C 
ATOM     46  O   UNL A   1      39.047  36.035  40.118  1.00  0.00    -0.246 OA
BRANCH  45  47
ATOM     47  C   UNL A   1      39.335  35.452  37.832  1.00  0.00     0.060 A 
ATOM     48  C   UNL A   1      38.583  34.273  37.939  1.00  0.00     0.016 A 
ATOM     49  C   UNL A   1      39.869  35.843  36.603  1.00  0.00     0.016 A 
ATOM     50  C   UNL A   1      38.371  33.472  36.821  1.00  0.00     0.010 A 
ATOM     51  C   UNL A   1      39.695  35.018  35.491  1.00  0.00     0.010 A 
ATOM     52  C   UNL A   1      38.972  33.816  35.606  1.00  0.00    -0.014 A 
BRANCH  52  53
ATOM     53  C   UNL A   1      39.068  32.816  34.522  1.00  0.00     0.031 A 
ATOM     54  C   UNL A   1      40.194  31.822  34.590  1.00  0.00     0.074 A 
ATOM     55  C   UNL A   1      38.201  32.806  33.496  1.00  0.00     0.049 A 
ATOM     56  N   UNL A   1      40.591  30.956  33.697  1.00  0.00    -0.248 NA
ATOM     57  C   UNL A   1      40.985  31.816  35.834  1.00  0.00     0.031 C 
ATOM     58  C   UNL A   1      37.035  33.676  33.360  1.00  0.00     0.029 A 
ATOM     59  N   UNL A   1      38.191  32.043  32.356  1.00  0.00    -0.354 N 
ATOM     60  C   UNL A   1      41.693  30.323  34.260  1.00  0.00     0.074 A 
ATOM     61  C   UNL A   1      41.908  30.906  35.563  1.00  0.00     0.031 C 
ATOM     62  C   UNL A   1      36.438  33.418  32.182  1.00  0.00     0.029 A 
ATOM     63  C   UNL A   1      37.208  32.402  31.467  1.00  0.00     0.049 A 
ATOM     64  H   UNL A   1      38.827  31.309  32.191  1.00  0.00     0.167 HD
ATOM     65  C   UNL A   1      42.465  29.348  33.727  1.00  0.00     0.031 A 
ATOM     66  C   UNL A   1      36.991  31.986  30.204  1.00  0.00     0.031 A 
ATOM     67  C   UNL A   1      42.252  28.786  32.423  1.00  0.00     0.049 A 
ATOM     68  C   UNL A   1      37.915  30.958  29.600  1.00  0.00     0.074 A 
ATOM     69  C   UNL A   1      42.968  27.785  31.790  1.00  0.00     0.029 A 
ATOM     70  N   UNL A   1      41.253  29.185  31.549  1.00  0.00    -0.354 N 
ATOM     71  N   UNL A   1      38.945  30.352  30.142  1.00  0.00    -0.248 NA
ATOM     72  C   UNL A   1      37.648  30.556  28.210  1.00  0.00     0.031 C 
ATOM     73  C   UNL A   1      42.438  27.621  30.508  1.00  0.00     0.029 A 
ATOM     74  C   UNL A   1      41.350  28.469  30.371  1.00  0.00     0.049 A 
ATOM     75  H   UNL A   1      40.576  29.873  31.739  1.00  0.00     0.167 HD
ATOM     76  C   UNL A   1      39.422  29.473  29.174  1.00  0.00     0.074 A 
ATOM     77  C   UNL A   1      38.567  29.622  28.016  1.00  0.00     0.031 C 
ATOM     78  C   UNL A   1      40.472  28.619  29.239  1.00  0.00     0.031 A 
BRANCH  65  79
ATOM     79  C   UNL A   1      43.640  28.870  34.530  1.00  0.00    -0.014 A 
ATOM     80  C   UNL A   1      43.491  27.929  35.560  1.00  0.00     0.009 A 
ATOM     81  C   UNL A   1      44.925  29.343  34.220  1.00  0.00     0.009 A 
ATOM     82  C   UNL A   1      44.604  27.489  36.280  1.00  0.00     0.001 A 
ATOM     83  C   UNL A   1      46.039  28.880  34.920  1.00  0.00     0.001 A 
ATOM     84  C   UNL A   1      45.877  27.959  35.955  1.00  0.00     0.000 A 
ENDBRANCH  65  79
BRANCH  66  85
ATOM     85  C   UNL A   1      35.888  32.576  29.397  1.00  0.00    -0.014 A 
ATOM     86  C   UNL A   1      34.663  31.906  29.256  1.00  0.00     0.009 A 
ATOM     87  C   UNL A   1      36.069  33.799  28.731  1.00  0.00     0.009 A 
ATOM     88  C   UNL A   1      33.659  32.430  28.438  1.00  0.00     0.001 A 
ATOM     89  C   UNL A   1      35.051  34.337  27.941  1.00  0.00     0.001 A 
ATOM     90  C   UNL A   1      33.852  33.646  27.785  1.00  0.00     0.000 A 
ENDBRANCH  66  85
BRANCH  78  91
ATOM     91  C   UNL A   1      40.725  27.728  28.055  1.00  0.00    -0.014 A 
ATOM     92  C   UNL A   1      40.242  26.413  28.011  1.00  0.00     0.009 A 
ATOM     93  C   UNL A   1      41.381  28.254  26.929  1.00  0.00     0.009 A 
ATOM     94  C   UNL A   1      40.429  25.634  26.867  1.00  0.00     0.001 A 
ATOM     95  C   UNL A   1      41.538  27.484  25.777  1.00  0.00     0.001 A 
ATOM     96  C   UNL A   1      41.067  26.172  25.749  1.00  0.00     0.000 A 
ENDBRANCH  78  91
ENDBRANCH  52  53
ENDBRANCH  45  47
ENDBRANCH  44  45
ENDBRANCH  43  44
ENDBRANCH  42  43
ENDBRANCH  41  42
ENDBRANCH  40  41
ENDBRANCH  39  40
ENDBRANCH   1  39
TORSDOF 26
ENDMDL
