MODEL 1
REMARK VINA RESULT:     -10.7      0.000      0.000
REMARK SMILES Cc1cc(S(F)(F)(F)(F)F)cc2c1O[C@H](C(F)(F)F)C(C(=O)OCCOCCOCCOCCOC(=O)c1ccc(-c3c4nc(c(-c5ccccc5)c5ccc([nH]5)c(-c5ccccc5)c5nc(c(-c6ccccc6)c6ccc3[nH]6)C=C5)C=C4)cc1)=C2
REMARK SMILES IDX 30 1 29 2 28 3 27 4 26 5 25 6 24 7 23 8 21 9 22 10 20 11
REMARK SMILES IDX 1 12 2 13 3 14 13 15 4 16 12 17 14 18 11 19 86 20 15 21 5 22
REMARK SMILES IDX 6 23 7 24 8 25 9 26 10 27 16 28 17 29 18 30 19 31 31 32
REMARK SMILES IDX 32 33 33 34 34 35 35 36 36 37 37 38 38 39 39 40 85 41 40 42
REMARK SMILES IDX 84 43 41 44 42 45 43 46 78 47 44 48 83 49 77 50 79 51 45 52
REMARK SMILES IDX 82 53 76 54 75 55 46 57 68 58 53 59 67 60 54 61 57 62 66 63
REMARK SMILES IDX 80 64 55 65 56 66 65 68 81 69 58 70 47 71 48 72 52 73 49 74
REMARK SMILES IDX 51 75 50 76 69 77 70 78 74 79 71 80 73 81 72 82 59 83 60 84
REMARK SMILES IDX 64 85 61 86 63 87 62 88
REMARK H PARENT 79 56 57 67
REMARK Flexibility Score: inf
ROOT
ATOM      1  C   UNL A   1      32.374  28.648  25.364  1.00  0.00     0.188 C 
ENDROOT
BRANCH   1   2
ATOM      2  O   UNL A   1      31.050  28.769  24.867  1.00  0.00    -0.377 OA
BRANCH   2   3
ATOM      3  C   UNL A   1      31.074  28.762  23.447  1.00  0.00     0.188 C 
BRANCH   3   4
ATOM      4  C   UNL A   1      32.512  28.639  22.966  1.00  0.00     0.188 C 
BRANCH   4   5
ATOM      5  O   UNL A   1      32.704  27.365  22.370  1.00  0.00    -0.376 OA
BRANCH   5   6
ATOM      6  C   UNL A   1      31.456  26.860  21.919  1.00  0.00     0.202 C 
BRANCH   6   7
ATOM      7  C   UNL A   1      31.149  25.554  22.632  1.00  0.00     0.261 C 
BRANCH   7   8
ATOM      8  O   UNL A   1      32.289  25.137  23.368  1.00  0.00    -0.460 OA
BRANCH   8   9
ATOM      9  C   UNL A   1      32.153  24.174  24.403  1.00  0.00     0.338 C 
ATOM     10  O   UNL A   1      31.210  24.278  25.248  1.00  0.00    -0.246 OA
BRANCH   9  11
ATOM     11  C   UNL A   1      33.135  23.018  24.499  1.00  0.00     0.087 C 
ATOM     12  C   UNL A   1      37.368  20.088  24.902  1.00  0.00     0.048 C 
ATOM     13  C   UNL A   1      35.871  19.864  24.766  1.00  0.00    -0.007 A 
ATOM     14  C   UNL A   1      35.392  18.571  24.746  1.00  0.00     0.031 A 
ATOM     15  C   UNL A   1      34.975  20.927  24.679  1.00  0.00     0.130 A 
ATOM     16  C   UNL A   1      34.031  18.322  24.634  1.00  0.00     0.108 A 
ATOM     17  C   UNL A   1      33.590  20.668  24.571  1.00  0.00     0.019 A 
ATOM     18  O   UNL A   1      35.423  22.326  24.694  1.00  0.00    -0.475 OA
ATOM     19  C   UNL A   1      33.133  19.350  24.554  1.00  0.00     0.036 A 
ATOM     20  C   UNL A   1      32.672  21.804  24.480  1.00  0.00     0.027 C 
ATOM     21  C   UNL A   1      34.496  23.304  24.605  1.00  0.00     0.316 C 
BRANCH  16  22
ATOM     22  S   UNL A   1      33.437  16.612  24.596  1.00  0.00     0.310 S 
ATOM     23  F   UNL A   1      34.923  16.062  24.555  1.00  0.00    -0.094 F 
ATOM     24  F   UNL A   1      33.504  16.713  23.025  1.00  0.00    -0.094 F 
ATOM     25  F   UNL A   1      32.953  15.137  24.509  1.00  0.00    -0.094 F 
ATOM     26  F   UNL A   1      33.511  16.486  26.169  1.00  0.00    -0.094 F 
ATOM     27  F   UNL A   1      34.035  18.072  24.699  1.00  0.00    -0.094 F 
ENDBRANCH  16  22
BRANCH  21  28
ATOM     28  C   UNL A   1      34.585  23.957  25.975  1.00  0.00     0.430 C 
ATOM     29  F   UNL A   1      34.194  25.225  25.887  1.00  0.00    -0.167 F 
ATOM     30  F   UNL A   1      33.796  23.307  26.827  1.00  0.00    -0.167 F 
ATOM     31  F   UNL A   1      35.841  23.908  26.408  1.00  0.00    -0.167 F 
ENDBRANCH  21  28
ENDBRANCH   9  11
ENDBRANCH   8   9
ENDBRANCH   7   8
ENDBRANCH   6   7
ENDBRANCH   5   6
ENDBRANCH   4   5
ENDBRANCH   3   4
ENDBRANCH   2   3
ENDBRANCH   1   2
BRANCH   1  32
ATOM     32  C   UNL A   1      32.353  28.721  26.882  1.00  0.00     0.188 C 
BRANCH  32  33
ATOM     33  O   UNL A   1      31.666  29.894  27.289  1.00  0.00    -0.376 OA
BRANCH  33  34
ATOM     34  C   UNL A   1      32.330  31.037  26.769  1.00  0.00     0.202 C 
BRANCH  34  35
ATOM     35  C   UNL A   1      31.563  32.289  27.160  1.00  0.00     0.261 C 
BRANCH  35  36
ATOM     36  O   UNL A   1      32.411  33.422  27.039  1.00  0.00    -0.460 OA
BRANCH  36  37
ATOM     37  C   UNL A   1      33.024  33.974  28.194  1.00  0.00     0.338 C 
ATOM     38  O   UNL A   1      32.469  34.936  28.812  1.00  0.00    -0.246 OA
BRANCH  37  39
ATOM     39  C   UNL A   1      34.348  33.414  28.693  1.00  0.00     0.060 A 
ATOM     40  C   UNL A   1      35.451  33.401  27.847  1.00  0.00     0.016 A 
ATOM     41  C   UNL A   1      34.486  32.934  29.909  1.00  0.00     0.016 A 
ATOM     42  C   UNL A   1      36.721  33.361  28.467  1.00  0.00     0.010 A 
ATOM     43  C   UNL A   1      35.712  32.414  30.339  1.00  0.00     0.010 A 
ATOM     44  C   UNL A   1      36.811  32.618  29.643  1.00  0.00    -0.014 A 
BRANCH  44  45
ATOM     45  C   UNL A   1      38.144  32.057  30.109  1.00  0.00     0.031 A 
ATOM     46  C   UNL A   1      38.499  30.809  29.596  1.00  0.00     0.074 A 
ATOM     47  C   UNL A   1      38.915  32.771  31.008  1.00  0.00     0.049 A 
ATOM     48  N   UNL A   1      39.614  30.117  29.837  1.00  0.00    -0.248 NA
ATOM     49  C   UNL A   1      37.665  30.031  28.666  1.00  0.00     0.031 C 
ATOM     50  C   UNL A   1      38.568  34.036  31.525  1.00  0.00     0.029 A 
ATOM     51  N   UNL A   1      40.126  32.411  31.559  1.00  0.00    -0.354 N 
ATOM     52  C   UNL A   1      39.606  28.973  29.149  1.00  0.00     0.074 A 
ATOM     53  C   UNL A   1      38.350  28.899  28.392  1.00  0.00     0.031 C 
ATOM     54  C   UNL A   1      39.547  34.425  32.382  1.00  0.00     0.029 A 
ATOM     55  C   UNL A   1      40.524  33.412  32.416  1.00  0.00     0.049 A 
ATOM     56  H   UNL A   1      40.620  31.580  31.372  1.00  0.00     0.167 HD
ATOM     57  C   UNL A   1      40.597  27.991  29.122  1.00  0.00     0.031 A 
ATOM     58  C   UNL A   1      41.671  33.457  33.193  1.00  0.00     0.031 A 
ATOM     59  C   UNL A   1      41.764  28.056  29.867  1.00  0.00     0.049 A 
ATOM     60  C   UNL A   1      42.635  32.447  33.211  1.00  0.00     0.074 A 
ATOM     61  C   UNL A   1      42.777  27.078  29.846  1.00  0.00     0.029 A 
ATOM     62  N   UNL A   1      42.152  29.046  30.743  1.00  0.00    -0.354 N 
ATOM     63  N   UNL A   1      42.645  31.323  32.493  1.00  0.00    -0.248 NA
ATOM     64  C   UNL A   1      43.837  32.469  34.054  1.00  0.00     0.031 C 
ATOM     65  C   UNL A   1      43.757  27.468  30.704  1.00  0.00     0.029 A 
ATOM     66  C   UNL A   1      43.373  28.696  31.275  1.00  0.00     0.049 A 
ATOM     67  H   UNL A   1      41.644  29.864  30.951  1.00  0.00     0.167 HD
ATOM     68  C   UNL A   1      43.741  30.612  32.767  1.00  0.00     0.074 A 
ATOM     69  C   UNL A   1      44.520  31.336  33.780  1.00  0.00     0.031 C 
ATOM     70  C   UNL A   1      44.124  29.391  32.209  1.00  0.00     0.031 A 
BRANCH  57  71
ATOM     71  C   UNL A   1      40.384  26.781  28.227  1.00  0.00    -0.014 A 
ATOM     72  C   UNL A   1      39.701  25.656  28.679  1.00  0.00     0.009 A 
ATOM     73  C   UNL A   1      40.822  26.790  26.987  1.00  0.00     0.009 A 
ATOM     74  C   UNL A   1      39.091  24.850  27.693  1.00  0.00     0.001 A 
ATOM     75  C   UNL A   1      40.615  25.690  26.146  1.00  0.00     0.001 A 
ATOM     76  C   UNL A   1      39.770  24.737  26.480  1.00  0.00     0.000 A 
ENDBRANCH  57  71
BRANCH  58  77
ATOM     77  C   UNL A   1      41.892  34.675  34.076  1.00  0.00    -0.014 A 
ATOM     78  C   UNL A   1      41.254  34.800  35.304  1.00  0.00     0.009 A 
ATOM     79  C   UNL A   1      42.673  35.655  33.674  1.00  0.00     0.009 A 
ATOM     80  C   UNL A   1      41.850  35.676  36.239  1.00  0.00     0.001 A 
ATOM     81  C   UNL A   1      42.849  36.798  34.461  1.00  0.00     0.001 A 
ATOM     82  C   UNL A   1      42.453  36.819  35.715  1.00  0.00     0.000 A 
ENDBRANCH  58  77
BRANCH  70  83
ATOM     83  C   UNL A   1      45.447  28.788  32.653  1.00  0.00    -0.014 A 
ATOM     84  C   UNL A   1      46.623  29.137  31.998  1.00  0.00     0.009 A 
ATOM     85  C   UNL A   1      45.518  27.932  33.650  1.00  0.00     0.009 A 
ATOM     86  C   UNL A   1      47.823  28.973  32.723  1.00  0.00     0.001 A 
ATOM     87  C   UNL A   1      46.745  27.379  34.034  1.00  0.00     0.001 A 
ATOM     88  C   UNL A   1      47.877  27.881  33.589  1.00  0.00     0.000 A 
ENDBRANCH  70  83
ENDBRANCH  44  45
ENDBRANCH  37  39
ENDBRANCH  36  37
ENDBRANCH  35  36
ENDBRANCH  34  35
ENDBRANCH  33  34
ENDBRANCH  32  33
ENDBRANCH   1  32
TORSDOF 22
ENDMDL
MODEL 2
REMARK VINA RESULT:     -10.6      3.711      5.091
REMARK SMILES Cc1cc(S(F)(F)(F)(F)F)cc2c1O[C@H](C(F)(F)F)C(C(=O)OCCOCCOCCOCCOC(=O)c1ccc(-c3c4nc(c(-c5ccccc5)c5ccc([nH]5)c(-c5ccccc5)c5nc(c(-c6ccccc6)c6ccc3[nH]6)C=C5)C=C4)cc1)=C2
REMARK SMILES IDX 30 1 29 2 28 3 27 4 26 5 25 6 24 7 23 8 21 9 22 10 20 11
REMARK SMILES IDX 1 12 2 13 3 14 13 15 4 16 12 17 14 18 11 19 86 20 15 21 5 22
REMARK SMILES IDX 6 23 7 24 8 25 9 26 10 27 16 28 17 29 18 30 19 31 31 32
REMARK SMILES IDX 32 33 33 34 34 35 35 36 36 37 37 38 38 39 39 40 85 41 40 42
REMARK SMILES IDX 84 43 41 44 42 45 43 46 78 47 44 48 83 49 77 50 79 51 45 52
REMARK SMILES IDX 82 53 76 54 75 55 46 57 68 58 53 59 67 60 54 61 57 62 66 63
REMARK SMILES IDX 80 64 55 65 56 66 65 68 81 69 58 70 47 71 48 72 52 73 49 74
REMARK SMILES IDX 51 75 50 76 69 77 70 78 74 79 71 80 73 81 72 82 59 83 60 84
REMARK SMILES IDX 64 85 61 86 63 87 62 88
REMARK H PARENT 79 56 57 67
REMARK Flexibility Score: inf
ROOT
ATOM      1  C   UNL A   1      32.029  30.517  26.478  1.00  0.00     0.188 C 
ENDROOT
BRANCH   1   2
ATOM      2  O   UNL A   1      31.722  29.259  27.061  1.00  0.00    -0.377 OA
BRANCH   2   3
ATOM      3  C   UNL A   1      31.746  28.254  26.058  1.00  0.00     0.188 C 
BRANCH   3   4
ATOM      4  C   UNL A   1      31.635  28.903  24.687  1.00  0.00     0.188 C 
BRANCH   4   5
ATOM      5  O   UNL A   1      32.214  28.050  23.711  1.00  0.00    -0.376 OA
BRANCH   5   6
ATOM      6  C   UNL A   1      31.212  27.627  22.799  1.00  0.00     0.202 C 
BRANCH   6   7
ATOM      7  C   UNL A   1      31.297  26.120  22.615  1.00  0.00     0.261 C 
BRANCH   7   8
ATOM      8  O   UNL A   1      32.115  25.565  23.633  1.00  0.00    -0.460 OA
BRANCH   8   9
ATOM      9  C   UNL A   1      31.746  24.340  24.251  1.00  0.00     0.338 C 
ATOM     10  O   UNL A   1      30.560  24.175  24.675  1.00  0.00    -0.246 OA
BRANCH   9  11
ATOM     11  C   UNL A   1      32.769  23.226  24.403  1.00  0.00     0.087 C 
ATOM     12  C   UNL A   1      37.093  20.480  25.058  1.00  0.00     0.048 C 
ATOM     13  C   UNL A   1      35.618  20.192  24.826  1.00  0.00    -0.007 A 
ATOM     14  C   UNL A   1      35.199  18.880  24.769  1.00  0.00     0.031 A 
ATOM     15  C   UNL A   1      34.683  21.216  24.688  1.00  0.00     0.130 A 
ATOM     16  C   UNL A   1      33.859  18.573  24.569  1.00  0.00     0.108 A 
ATOM     17  C   UNL A   1      33.321  20.899  24.491  1.00  0.00     0.019 A 
ATOM     18  O   UNL A   1      35.068  22.633  24.739  1.00  0.00    -0.475 OA
ATOM     19  C   UNL A   1      32.924  19.561  24.437  1.00  0.00     0.036 A 
ATOM     20  C   UNL A   1      32.362  21.994  24.348  1.00  0.00     0.027 C 
ATOM     21  C   UNL A   1      34.107  23.570  24.596  1.00  0.00     0.316 C 
BRANCH  16  22
ATOM     22  S   UNL A   1      33.344  16.840  24.484  1.00  0.00     0.310 S 
ATOM     23  F   UNL A   1      34.850  16.365  24.340  1.00  0.00    -0.094 F 
ATOM     24  F   UNL A   1      33.321  17.011  22.918  1.00  0.00    -0.094 F 
ATOM     25  F   UNL A   1      32.925  15.347  24.355  1.00  0.00    -0.094 F 
ATOM     26  F   UNL A   1      33.509  16.650  26.043  1.00  0.00    -0.094 F 
ATOM     27  F   UNL A   1      33.879  18.321  24.622  1.00  0.00    -0.094 F 
ENDBRANCH  16  22
BRANCH  21  28
ATOM     28  C   UNL A   1      34.080  24.216  25.973  1.00  0.00     0.430 C 
ATOM     29  F   UNL A   1      35.149  23.832  26.663  1.00  0.00    -0.167 F 
ATOM     30  F   UNL A   1      34.089  25.540  25.840  1.00  0.00    -0.167 F 
ATOM     31  F   UNL A   1      32.978  23.842  26.615  1.00  0.00    -0.167 F 
ENDBRANCH  21  28
ENDBRANCH   9  11
ENDBRANCH   8   9
ENDBRANCH   7   8
ENDBRANCH   6   7
ENDBRANCH   5   6
ENDBRANCH   4   5
ENDBRANCH   3   4
ENDBRANCH   2   3
ENDBRANCH   1   2
BRANCH   1  32
ATOM     32  C   UNL A   1      33.008  31.262  27.370  1.00  0.00     0.188 C 
BRANCH  32  33
ATOM     33  O   UNL A   1      34.313  30.736  27.184  1.00  0.00    -0.376 OA
BRANCH  33  34
ATOM     34  C   UNL A   1      35.265  31.609  27.775  1.00  0.00     0.202 C 
BRANCH  34  35
ATOM     35  C   UNL A   1      34.827  31.953  29.189  1.00  0.00     0.261 C 
BRANCH  35  36
ATOM     36  O   UNL A   1      35.964  32.010  30.037  1.00  0.00    -0.460 OA
BRANCH  36  37
ATOM     37  C   UNL A   1      36.529  30.811  30.546  1.00  0.00     0.338 C 
ATOM     38  O   UNL A   1      35.893  30.121  31.403  1.00  0.00    -0.246 OA
BRANCH  37  39
ATOM     39  C   UNL A   1      37.898  30.352  30.066  1.00  0.00     0.060 A 
ATOM     40  C   UNL A   1      38.959  30.298  30.963  1.00  0.00     0.016 A 
ATOM     41  C   UNL A   1      38.116  30.003  28.817  1.00  0.00     0.016 A 
ATOM     42  C   UNL A   1      40.021  29.426  30.632  1.00  0.00     0.010 A 
ATOM     43  C   UNL A   1      39.388  29.596  28.399  1.00  0.00     0.010 A 
ATOM     44  C   UNL A   1      40.326  29.310  29.277  1.00  0.00    -0.014 A 
BRANCH  44  45
ATOM     45  C   UNL A   1      41.706  28.864  28.825  1.00  0.00     0.031 A 
ATOM     46  C   UNL A   1      41.835  27.517  28.480  1.00  0.00     0.074 A 
ATOM     47  C   UNL A   1      42.748  29.773  28.794  1.00  0.00     0.049 A 
ATOM     48  N   UNL A   1      42.928  26.890  28.043  1.00  0.00    -0.248 NA
ATOM     49  C   UNL A   1      40.737  26.541  28.545  1.00  0.00     0.031 C 
ATOM     50  C   UNL A   1      42.625  31.136  29.132  1.00  0.00     0.029 A 
ATOM     51  N   UNL A   1      44.061  29.545  28.443  1.00  0.00    -0.354 N 
ATOM     52  C   UNL A   1      42.657  25.606  27.798  1.00  0.00     0.074 A 
ATOM     53  C   UNL A   1      41.246  25.362  28.123  1.00  0.00     0.031 C 
ATOM     54  C   UNL A   1      43.846  31.715  28.998  1.00  0.00     0.029 A 
ATOM     55  C   UNL A   1      44.753  30.727  28.573  1.00  0.00     0.049 A 
ATOM     56  H   UNL A   1      44.438  28.684  28.149  1.00  0.00     0.167 HD
ATOM     57  C   UNL A   1      43.530  24.631  27.314  1.00  0.00     0.031 A 
ATOM     58  C   UNL A   1      46.102  30.951  28.342  1.00  0.00     0.031 A 
ATOM     59  C   UNL A   1      44.869  24.865  27.041  1.00  0.00     0.049 A 
ATOM     60  C   UNL A   1      46.989  29.961  27.914  1.00  0.00     0.074 A 
ATOM     61  C   UNL A   1      45.762  23.895  26.546  1.00  0.00     0.029 A 
ATOM     62  N   UNL A   1      45.568  26.043  27.195  1.00  0.00    -0.354 N 
ATOM     63  N   UNL A   1      46.709  28.688  27.631  1.00  0.00    -0.248 NA
ATOM     64  C   UNL A   1      48.425  30.179  27.696  1.00  0.00     0.031 C 
ATOM     65  C   UNL A   1      46.984  24.476  26.412  1.00  0.00     0.029 A 
ATOM     66  C   UNL A   1      46.875  25.819  26.822  1.00  0.00     0.049 A 
ATOM     67  H   UNL A   1      45.197  26.897  27.516  1.00  0.00     0.167 HD
ATOM     68  C   UNL A   1      47.813  28.052  27.234  1.00  0.00     0.074 A 
ATOM     69  C   UNL A   1      48.934  29.000  27.276  1.00  0.00     0.031 C 
ATOM     70  C   UNL A   1      47.928  26.720  26.833  1.00  0.00     0.031 A 
BRANCH  57  71
ATOM     71  C   UNL A   1      42.984  23.234  27.074  1.00  0.00    -0.014 A 
ATOM     72  C   UNL A   1      42.668  22.788  25.794  1.00  0.00     0.009 A 
ATOM     73  C   UNL A   1      42.825  22.403  28.081  1.00  0.00     0.009 A 
ATOM     74  C   UNL A   1      42.695  21.392  25.588  1.00  0.00     0.001 A 
ATOM     75  C   UNL A   1      42.343  21.106  27.871  1.00  0.00     0.001 A 
ATOM     76  C   UNL A   1      42.276  20.601  26.657  1.00  0.00     0.000 A 
ENDBRANCH  57  71
BRANCH  58  77
ATOM     77  C   UNL A   1      46.645  32.353  28.566  1.00  0.00    -0.014 A 
ATOM     78  C   UNL A   1      47.144  32.744  29.803  1.00  0.00     0.009 A 
ATOM     79  C   UNL A   1      46.624  33.238  27.592  1.00  0.00     0.009 A 
ATOM     80  C   UNL A   1      48.033  33.842  29.807  1.00  0.00     0.001 A 
ATOM     81  C   UNL A   1      47.083  34.543  27.802  1.00  0.00     0.001 A 
ATOM     82  C   UNL A   1      47.774  34.849  28.879  1.00  0.00     0.000 A 
ENDBRANCH  58  77
BRANCH  70  83
ATOM     83  C   UNL A   1      49.293  26.226  26.380  1.00  0.00    -0.014 A 
ATOM     84  C   UNL A   1      49.688  26.396  25.058  1.00  0.00     0.009 A 
ATOM     85  C   UNL A   1      50.125  25.634  27.211  1.00  0.00     0.009 A 
ATOM     86  C   UNL A   1      51.079  26.399  24.810  1.00  0.00     0.001 A 
ATOM     87  C   UNL A   1      51.372  25.176  26.769  1.00  0.00     0.001 A 
ATOM     88  C   UNL A   1      51.849  25.545  25.599  1.00  0.00     0.000 A 
ENDBRANCH  70  83
ENDBRANCH  44  45
ENDBRANCH  37  39
ENDBRANCH  36  37
ENDBRANCH  35  36
ENDBRANCH  34  35
ENDBRANCH  33  34
ENDBRANCH  32  33
ENDBRANCH   1  32
TORSDOF 22
ENDMDL
MODEL 3
REMARK VINA RESULT:     -10.3      3.437      6.872
REMARK SMILES Cc1cc(S(F)(F)(F)(F)F)cc2c1O[C@H](C(F)(F)F)C(C(=O)OCCOCCOCCOCCOC(=O)c1ccc(-c3c4nc(c(-c5ccccc5)c5ccc([nH]5)c(-c5ccccc5)c5nc(c(-c6ccccc6)c6ccc3[nH]6)C=C5)C=C4)cc1)=C2
REMARK SMILES IDX 30 1 29 2 28 3 27 4 26 5 25 6 24 7 23 8 21 9 22 10 20 11
REMARK SMILES IDX 1 12 2 13 3 14 13 15 4 16 12 17 14 18 11 19 86 20 15 21 5 22
REMARK SMILES IDX 6 23 7 24 8 25 9 26 10 27 16 28 17 29 18 30 19 31 31 32
REMARK SMILES IDX 32 33 33 34 34 35 35 36 36 37 37 38 38 39 39 40 85 41 40 42
REMARK SMILES IDX 84 43 41 44 42 45 43 46 78 47 44 48 83 49 77 50 79 51 45 52
REMARK SMILES IDX 82 53 76 54 75 55 46 57 68 58 53 59 67 60 54 61 57 62 66 63
REMARK SMILES IDX 80 64 55 65 56 66 65 68 81 69 58 70 47 71 48 72 52 73 49 74
REMARK SMILES IDX 51 75 50 76 69 77 70 78 74 79 71 80 73 81 72 82 59 83 60 84
REMARK SMILES IDX 64 85 61 86 63 87 62 88
REMARK H PARENT 79 56 57 67
REMARK Flexibility Score: inf
ROOT
ATOM      1  C   UNL A   1      32.386  30.065  25.775  1.00  0.00     0.188 C 
ENDROOT
BRANCH   1   2
ATOM      2  O   UNL A   1      32.318  28.793  25.148  1.00  0.00    -0.377 OA
BRANCH   2   3
ATOM      3  C   UNL A   1      31.788  28.938  23.839  1.00  0.00     0.188 C 
BRANCH   3   4
ATOM      4  C   UNL A   1      32.904  28.770  22.820  1.00  0.00     0.188 C 
BRANCH   4   5
ATOM      5  O   UNL A   1      33.559  27.529  23.035  1.00  0.00    -0.376 OA
BRANCH   5   6
ATOM      6  C   UNL A   1      33.425  26.717  21.878  1.00  0.00     0.202 C 
BRANCH   6   7
ATOM      7  C   UNL A   1      32.164  25.876  21.992  1.00  0.00     0.261 C 
BRANCH   7   8
ATOM      8  O   UNL A   1      31.865  25.654  23.361  1.00  0.00    -0.460 OA
BRANCH   8   9
ATOM      9  C   UNL A   1      31.524  24.350  23.811  1.00  0.00     0.338 C 
ATOM     10  O   UNL A   1      30.305  24.033  23.974  1.00  0.00    -0.246 OA
BRANCH   9  11
ATOM     11  C   UNL A   1      32.618  23.333  24.096  1.00  0.00     0.087 C 
ATOM     12  C   UNL A   1      37.068  20.990  25.269  1.00  0.00     0.048 C 
ATOM     13  C   UNL A   1      35.658  20.569  24.886  1.00  0.00    -0.007 A 
ATOM     14  C   UNL A   1      35.363  19.225  24.812  1.00  0.00     0.031 A 
ATOM     15  C   UNL A   1      34.658  21.505  24.627  1.00  0.00     0.130 A 
ATOM     16  C   UNL A   1      34.085  18.797  24.476  1.00  0.00     0.108 A 
ATOM     17  C   UNL A   1      33.358  21.065  24.291  1.00  0.00     0.019 A 
ATOM     18  O   UNL A   1      34.910  22.950  24.689  1.00  0.00    -0.475 OA
ATOM     19  C   UNL A   1      33.088  19.697  24.224  1.00  0.00     0.036 A 
ATOM     20  C   UNL A   1      32.328  22.069  24.023  1.00  0.00     0.027 C 
ATOM     21  C   UNL A   1      33.892  23.797  24.424  1.00  0.00     0.316 C 
BRANCH  16  22
ATOM     22  S   UNL A   1      33.735  17.024  24.372  1.00  0.00     0.310 S 
ATOM     23  F   UNL A   1      32.494  17.291  23.422  1.00  0.00    -0.094 F 
ATOM     24  F   UNL A   1      32.759  17.231  25.592  1.00  0.00    -0.094 F 
ATOM     25  F   UNL A   1      33.382  15.511  24.309  1.00  0.00    -0.094 F 
ATOM     26  F   UNL A   1      34.609  16.866  23.066  1.00  0.00    -0.094 F 
ATOM     27  F   UNL A   1      34.017  18.580  24.354  1.00  0.00    -0.094 F 
ENDBRANCH  16  22
BRANCH  21  28
ATOM     28  C   UNL A   1      33.659  24.453  25.776  1.00  0.00     0.430 C 
ATOM     29  F   UNL A   1      33.747  25.774  25.648  1.00  0.00    -0.167 F 
ATOM     30  F   UNL A   1      32.448  24.130  26.222  1.00  0.00    -0.167 F 
ATOM     31  F   UNL A   1      34.577  24.028  26.638  1.00  0.00    -0.167 F 
ENDBRANCH  21  28
ENDBRANCH   9  11
ENDBRANCH   8   9
ENDBRANCH   7   8
ENDBRANCH   6   7
ENDBRANCH   5   6
ENDBRANCH   4   5
ENDBRANCH   3   4
ENDBRANCH   2   3
ENDBRANCH   1   2
BRANCH   1  32
ATOM     32  C   UNL A   1      33.570  30.098  26.727  1.00  0.00     0.188 C 
BRANCH  32  33
ATOM     33  O   UNL A   1      33.272  30.948  27.824  1.00  0.00    -0.376 OA
BRANCH  33  34
ATOM     34  C   UNL A   1      34.044  32.136  27.726  1.00  0.00     0.202 C 
BRANCH  34  35
ATOM     35  C   UNL A   1      34.723  32.409  29.058  1.00  0.00     0.261 C 
BRANCH  35  36
ATOM     36  O   UNL A   1      34.992  31.178  29.714  1.00  0.00    -0.460 OA
BRANCH  36  37
ATOM     37  C   UNL A   1      36.027  31.103  30.682  1.00  0.00     0.338 C 
ATOM     38  O   UNL A   1      35.821  31.510  31.868  1.00  0.00    -0.246 OA
BRANCH  37  39
ATOM     39  C   UNL A   1      37.386  30.535  30.300  1.00  0.00     0.060 A 
ATOM     40  C   UNL A   1      37.604  30.090  29.001  1.00  0.00     0.016 A 
ATOM     41  C   UNL A   1      38.372  30.446  31.166  1.00  0.00     0.016 A 
ATOM     42  C   UNL A   1      38.947  30.055  28.563  1.00  0.00     0.010 A 
ATOM     43  C   UNL A   1      39.608  29.909  30.790  1.00  0.00     0.010 A 
ATOM     44  C   UNL A   1      39.901  29.715  29.522  1.00  0.00    -0.014 A 
BRANCH  44  45
ATOM     45  C   UNL A   1      41.244  29.135  29.112  1.00  0.00     0.031 A 
ATOM     46  C   UNL A   1      42.320  30.024  29.100  1.00  0.00     0.074 A 
ATOM     47  C   UNL A   1      41.340  27.801  28.760  1.00  0.00     0.049 A 
ATOM     48  N   UNL A   1      43.591  29.760  28.795  1.00  0.00    -0.248 NA
ATOM     49  C   UNL A   1      42.214  31.451  29.441  1.00  0.00     0.031 C 
ATOM     50  C   UNL A   1      40.262  26.894  28.777  1.00  0.00     0.029 A 
ATOM     51  N   UNL A   1      42.459  27.114  28.339  1.00  0.00    -0.354 N 
ATOM     52  C   UNL A   1      44.334  30.862  28.916  1.00  0.00     0.074 A 
ATOM     53  C   UNL A   1      43.458  31.966  29.327  1.00  0.00     0.031 C 
ATOM     54  C   UNL A   1      40.720  25.685  28.362  1.00  0.00     0.029 A 
ATOM     55  C   UNL A   1      42.092  25.813  28.079  1.00  0.00     0.049 A 
ATOM     56  H   UNL A   1      43.363  27.490  28.241  1.00  0.00     0.167 HD
ATOM     57  C   UNL A   1      45.707  30.988  28.702  1.00  0.00     0.031 A 
ATOM     58  C   UNL A   1      42.896  24.782  27.618  1.00  0.00     0.031 A 
ATOM     59  C   UNL A   1      46.519  29.946  28.282  1.00  0.00     0.049 A 
ATOM     60  C   UNL A   1      44.258  24.922  27.347  1.00  0.00     0.074 A 
ATOM     61  C   UNL A   1      47.907  30.055  28.069  1.00  0.00     0.029 A 
ATOM     62  N   UNL A   1      46.149  28.650  27.998  1.00  0.00    -0.354 N 
ATOM     63  N   UNL A   1      45.008  26.014  27.506  1.00  0.00    -0.248 NA
ATOM     64  C   UNL A   1      45.112  23.846  26.828  1.00  0.00     0.031 C 
ATOM     65  C   UNL A   1      48.365  28.844  27.653  1.00  0.00     0.029 A 
ATOM     66  C   UNL A   1      47.272  27.959  27.599  1.00  0.00     0.049 A 
ATOM     67  H   UNL A   1      45.238  28.281  28.069  1.00  0.00     0.167 HD
ATOM     68  C   UNL A   1      46.272  25.759  27.160  1.00  0.00     0.074 A 
ATOM     69  C   UNL A   1      46.355  24.363  26.712  1.00  0.00     0.031 C 
ATOM     70  C   UNL A   1      47.359  26.633  27.205  1.00  0.00     0.031 A 
BRANCH  57  71
ATOM     71  C   UNL A   1      46.349  32.345  28.941  1.00  0.00    -0.014 A 
ATOM     72  C   UNL A   1      46.879  32.688  30.181  1.00  0.00     0.009 A 
ATOM     73  C   UNL A   1      46.442  33.216  27.960  1.00  0.00     0.009 A 
ATOM     74  C   UNL A   1      47.890  33.674  30.184  1.00  0.00     0.001 A 
ATOM     75  C   UNL A   1      47.049  34.461  28.162  1.00  0.00     0.001 A 
ATOM     76  C   UNL A   1      47.761  34.695  29.244  1.00  0.00     0.000 A 
ENDBRANCH  57  71
BRANCH  58  77
ATOM     77  C   UNL A   1      42.257  23.420  27.394  1.00  0.00    -0.014 A 
ATOM     78  C   UNL A   1      42.384  22.402  28.332  1.00  0.00     0.009 A 
ATOM     79  C   UNL A   1      41.593  23.171  26.286  1.00  0.00     0.009 A 
ATOM     80  C   UNL A   1      41.410  21.379  28.289  1.00  0.00     0.001 A 
ATOM     81  C   UNL A   1      41.038  21.908  26.053  1.00  0.00     0.001 A 
ATOM     82  C   UNL A   1      40.942  21.025  27.024  1.00  0.00     0.000 A 
ENDBRANCH  58  77
BRANCH  70  83
ATOM     83  C   UNL A   1      48.722  26.099  26.795  1.00  0.00    -0.014 A 
ATOM     84  C   UNL A   1      49.122  26.167  25.465  1.00  0.00     0.009 A 
ATOM     85  C   UNL A   1      49.547  25.564  27.670  1.00  0.00     0.009 A 
ATOM     86  C   UNL A   1      50.513  26.142  25.222  1.00  0.00     0.001 A 
ATOM     87  C   UNL A   1      50.792  25.067  27.268  1.00  0.00     0.001 A 
ATOM     88  C   UNL A   1      51.275  25.345  26.076  1.00  0.00     0.000 A 
ENDBRANCH  70  83
ENDBRANCH  44  45
ENDBRANCH  37  39
ENDBRANCH  36  37
ENDBRANCH  35  36
ENDBRANCH  34  35
ENDBRANCH  33  34
ENDBRANCH  32  33
ENDBRANCH   1  32
TORSDOF 22
ENDMDL
