MODEL 1
REMARK VINA RESULT:     -10.7      0.000      0.000
REMARK SMILES CC1=C(C)C[C@@H](C(=O)OCCOCCOCCOCCOC(=O)c2ccc(-c3c4nc(c(-c5ccccc5)c5ccc([nH]5)c(-c5ccccc5)c5nc(c(-c6ccccc6)c6ccc3[nH]6)C=C5)C=C4)cc2)[C@@H](C(=O)N2CCN(c3cccc(C(F)(F)F)c3)CC2)C1
REMARK SMILES IDX 14 1 13 2 12 3 11 4 10 5 9 6 7 7 8 8 6 9 1 10 2 11 3 12
REMARK SMILES IDX 91 13 4 14 5 15 72 16 73 17 74 18 75 19 76 20 90 21 77 22
REMARK SMILES IDX 89 23 78 24 79 25 80 26 88 27 81 28 83 29 82 30 84 31 85 32
REMARK SMILES IDX 86 33 87 34 15 35 16 36 17 37 18 38 19 39 20 40 21 41 22 42
REMARK SMILES IDX 23 43 24 44 25 45 71 46 26 47 70 48 27 49 28 50 29 51 64 52
REMARK SMILES IDX 30 53 69 54 63 55 65 56 31 57 68 58 62 59 61 60 32 62 54 63
REMARK SMILES IDX 39 64 53 65 40 66 43 67 52 68 66 69 41 70 42 71 51 73 67 74
REMARK SMILES IDX 44 75 33 76 34 77 38 78 35 79 37 80 36 81 55 82 56 83 60 84
REMARK SMILES IDX 57 85 59 86 58 87 45 88 46 89 50 90 47 91 49 92 48 93
REMARK H PARENT 65 61 43 72
REMARK Flexibility Score: inf
ROOT
ATOM      1  C   UNL A   1      39.585  20.993  26.051  1.00  0.00     0.188 C 
ENDROOT
BRANCH   1   2
ATOM      2  C   UNL A   1      38.686  20.155  25.141  1.00  0.00     0.188 C 
BRANCH   2   3
ATOM      3  O   UNL A   1      37.284  20.336  25.293  1.00  0.00    -0.376 OA
BRANCH   3   4
ATOM      4  C   UNL A   1      36.822  21.680  25.279  1.00  0.00     0.202 C 
BRANCH   4   5
ATOM      5  C   UNL A   1      35.459  21.877  25.958  1.00  0.00     0.261 C 
BRANCH   5   6
ATOM      6  O   UNL A   1      34.521  22.654  25.173  1.00  0.00    -0.463 OA
BRANCH   6   7
ATOM      7  C   UNL A   1      33.305  22.886  25.722  1.00  0.00     0.310 C 
ATOM      8  O   UNL A   1      33.132  23.454  26.796  1.00  0.00    -0.252 OA
BRANCH   7   9
ATOM      9  C   UNL A   1      32.157  22.228  24.971  1.00  0.00     0.116 C 
ATOM     10  C   UNL A   1      32.316  19.624  21.370  1.00  0.00     0.039 C 
ATOM     11  C   UNL A   1      32.142  20.381  22.659  1.00  0.00    -0.074 C 
ATOM     12  C   UNL A   1      32.571  19.929  23.853  1.00  0.00    -0.073 C 
ATOM     13  C   UNL A   1      31.320  21.637  22.587  1.00  0.00     0.045 C 
ATOM     14  C   UNL A   1      33.228  18.591  24.069  1.00  0.00     0.039 C 
ATOM     15  C   UNL A   1      32.296  20.701  25.117  1.00  0.00     0.046 C 
ATOM     16  C   UNL A   1      31.715  22.738  23.582  1.00  0.00     0.097 C 
BRANCH  16  17
ATOM     17  C   UNL A   1      32.489  23.887  22.929  1.00  0.00     0.227 C 
ATOM     18  O   UNL A   1      33.509  23.652  22.282  1.00  0.00    -0.275 OA
ATOM     19  N   UNL A   1      32.083  25.176  23.221  1.00  0.00    -0.339 N 
ATOM     20  C   UNL A   1      31.486  26.005  22.180  1.00  0.00     0.141 C 
ATOM     21  C   UNL A   1      32.935  25.983  24.096  1.00  0.00     0.141 C 
ATOM     22  C   UNL A   1      30.603  27.103  22.765  1.00  0.00     0.138 C 
ATOM     23  C   UNL A   1      32.131  27.128  24.742  1.00  0.00     0.138 C 
ATOM     24  N   UNL A   1      31.383  27.897  23.725  1.00  0.00    -0.368 N 
BRANCH  24  25
ATOM     25  C   UNL A   1      30.928  29.152  24.089  1.00  0.00     0.037 A 
ATOM     26  C   UNL A   1      31.484  29.878  25.144  1.00  0.00     0.026 A 
ATOM     27  C   UNL A   1      29.854  29.727  23.399  1.00  0.00     0.039 A 
ATOM     28  C   UNL A   1      31.001  31.141  25.482  1.00  0.00     0.003 A 
ATOM     29  C   UNL A   1      29.329  30.982  23.746  1.00  0.00     0.058 A 
ATOM     30  C   UNL A   1      29.918  31.688  24.797  1.00  0.00     0.013 A 
BRANCH  29  31
ATOM     31  C   UNL A   1      28.137  31.544  23.018  1.00  0.00     0.416 C 
ATOM     32  F   UNL A   1      27.069  31.752  23.830  1.00  0.00    -0.166 F 
ATOM     33  F   UNL A   1      28.403  32.739  22.424  1.00  0.00    -0.166 F 
ATOM     34  F   UNL A   1      27.685  30.729  22.019  1.00  0.00    -0.166 F 
ENDBRANCH  29  31
ENDBRANCH  24  25
ENDBRANCH  16  17
ENDBRANCH   7   9
ENDBRANCH   6   7
ENDBRANCH   5   6
ENDBRANCH   4   5
ENDBRANCH   3   4
ENDBRANCH   2   3
ENDBRANCH   1   2
BRANCH   1  35
ATOM     35  O   UNL A   1      40.640  20.310  26.725  1.00  0.00    -0.377 OA
BRANCH  35  36
ATOM     36  C   UNL A   1      41.272  19.290  25.956  1.00  0.00     0.188 C 
BRANCH  36  37
ATOM     37  C   UNL A   1      42.593  18.815  26.566  1.00  0.00     0.188 C 
BRANCH  37  38
ATOM     38  O   UNL A   1      43.513  18.451  25.538  1.00  0.00    -0.376 OA
BRANCH  38  39
ATOM     39  C   UNL A   1      44.568  19.390  25.332  1.00  0.00     0.202 C 
BRANCH  39  40
ATOM     40  C   UNL A   1      44.135  20.837  25.017  1.00  0.00     0.261 C 
BRANCH  40  41
ATOM     41  O   UNL A   1      44.107  21.743  26.137  1.00  0.00    -0.460 OA
BRANCH  41  42
ATOM     42  C   UNL A   1      44.798  22.893  25.993  1.00  0.00     0.338 C 
ATOM     43  O   UNL A   1      45.922  23.019  25.541  1.00  0.00    -0.246 OA
BRANCH  42  44
ATOM     44  C   UNL A   1      44.027  24.024  26.551  1.00  0.00     0.060 A 
ATOM     45  C   UNL A   1      44.440  25.350  26.372  1.00  0.00     0.016 A 
ATOM     46  C   UNL A   1      42.984  23.731  27.429  1.00  0.00     0.016 A 
ATOM     47  C   UNL A   1      43.858  26.379  27.134  1.00  0.00     0.010 A 
ATOM     48  C   UNL A   1      42.397  24.759  28.171  1.00  0.00     0.010 A 
ATOM     49  C   UNL A   1      42.857  26.086  28.072  1.00  0.00    -0.014 A 
BRANCH  49  50
ATOM     50  C   UNL A   1      42.400  27.072  29.097  1.00  0.00     0.031 A 
ATOM     51  C   UNL A   1      43.063  27.060  30.456  1.00  0.00     0.074 A 
ATOM     52  C   UNL A   1      41.371  27.918  28.885  1.00  0.00     0.049 A 
ATOM     53  N   UNL A   1      42.723  27.677  31.560  1.00  0.00    -0.248 NA
ATOM     54  C   UNL A   1      44.268  26.223  30.584  1.00  0.00     0.031 C 
ATOM     55  C   UNL A   1      40.642  28.085  27.632  1.00  0.00     0.029 A 
ATOM     56  N   UNL A   1      40.724  28.759  29.765  1.00  0.00    -0.354 N 
ATOM     57  C   UNL A   1      43.656  27.287  32.514  1.00  0.00     0.074 A 
ATOM     58  C   UNL A   1      44.550  26.349  31.872  1.00  0.00     0.031 C 
ATOM     59  C   UNL A   1      39.614  28.930  27.835  1.00  0.00     0.029 A 
ATOM     60  C   UNL A   1      39.589  29.329  29.240  1.00  0.00     0.049 A 
ATOM     61  H   UNL A   1      41.044  28.935  30.680  1.00  0.00     0.167 HD
ATOM     62  C   UNL A   1      43.779  27.683  33.805  1.00  0.00     0.031 A 
ATOM     63  C   UNL A   1      38.606  30.034  29.836  1.00  0.00     0.031 A 
ATOM     64  C   UNL A   1      42.894  28.607  34.460  1.00  0.00     0.049 A 
ATOM     65  C   UNL A   1      38.672  30.342  31.304  1.00  0.00     0.074 A 
ATOM     66  C   UNL A   1      43.001  29.157  35.726  1.00  0.00     0.029 A 
ATOM     67  N   UNL A   1      41.725  29.099  33.906  1.00  0.00    -0.354 N 
ATOM     68  N   UNL A   1      39.571  29.985  32.186  1.00  0.00    -0.248 NA
ATOM     69  C   UNL A   1      37.583  31.168  31.851  1.00  0.00     0.031 C 
ATOM     70  C   UNL A   1      41.866  29.942  35.959  1.00  0.00     0.029 A 
ATOM     71  C   UNL A   1      41.082  29.922  34.816  1.00  0.00     0.049 A 
ATOM     72  H   UNL A   1      41.397  28.893  33.001  1.00  0.00     0.167 HD
ATOM     73  C   UNL A   1      39.188  30.588  33.377  1.00  0.00     0.074 A 
ATOM     74  C   UNL A   1      37.950  31.292  33.118  1.00  0.00     0.031 C 
ATOM     75  C   UNL A   1      39.837  30.596  34.567  1.00  0.00     0.031 A 
BRANCH  62  76
ATOM     76  C   UNL A   1      44.920  27.105  34.595  1.00  0.00    -0.014 A 
ATOM     77  C   UNL A   1      46.199  27.684  34.552  1.00  0.00     0.009 A 
ATOM     78  C   UNL A   1      44.711  25.979  35.404  1.00  0.00     0.009 A 
ATOM     79  C   UNL A   1      47.258  27.116  35.263  1.00  0.00     0.001 A 
ATOM     80  C   UNL A   1      45.765  25.429  36.138  1.00  0.00     0.001 A 
ATOM     81  C   UNL A   1      47.039  25.989  36.057  1.00  0.00     0.000 A 
ENDBRANCH  62  76
BRANCH  63  82
ATOM     82  C   UNL A   1      37.412  30.464  29.065  1.00  0.00    -0.014 A 
ATOM     83  C   UNL A   1      37.210  31.809  28.738  1.00  0.00     0.009 A 
ATOM     84  C   UNL A   1      36.436  29.521  28.709  1.00  0.00     0.009 A 
ATOM     85  C   UNL A   1      36.055  32.198  28.051  1.00  0.00     0.001 A 
ATOM     86  C   UNL A   1      35.296  29.908  28.003  1.00  0.00     0.001 A 
ATOM     87  C   UNL A   1      35.106  31.248  27.676  1.00  0.00     0.000 A 
ENDBRANCH  63  82
BRANCH  75  88
ATOM     88  C   UNL A   1      39.261  31.454  35.655  1.00  0.00    -0.014 A 
ATOM     89  C   UNL A   1      38.186  31.025  36.446  1.00  0.00     0.009 A 
ATOM     90  C   UNL A   1      39.826  32.716  35.898  1.00  0.00     0.009 A 
ATOM     91  C   UNL A   1      37.672  31.857  37.444  1.00  0.00     0.001 A 
ATOM     92  C   UNL A   1      39.327  33.534  36.911  1.00  0.00     0.001 A 
ATOM     93  C   UNL A   1      38.245  33.109  37.678  1.00  0.00     0.000 A 
ENDBRANCH  75  88
ENDBRANCH  49  50
ENDBRANCH  42  44
ENDBRANCH  41  42
ENDBRANCH  40  41
ENDBRANCH  39  40
ENDBRANCH  38  39
ENDBRANCH  37  38
ENDBRANCH  36  37
ENDBRANCH  35  36
ENDBRANCH   1  35
TORSDOF 23
ENDMDL
MODEL 2
REMARK VINA RESULT:      -9.7      6.130     10.026
REMARK SMILES CC1=C(C)C[C@@H](C(=O)OCCOCCOCCOCCOC(=O)c2ccc(-c3c4nc(c(-c5ccccc5)c5ccc([nH]5)c(-c5ccccc5)c5nc(c(-c6ccccc6)c6ccc3[nH]6)C=C5)C=C4)cc2)[C@@H](C(=O)N2CCN(c3cccc(C(F)(F)F)c3)CC2)C1
REMARK SMILES IDX 14 1 13 2 12 3 11 4 10 5 9 6 7 7 8 8 6 9 1 10 2 11 3 12
REMARK SMILES IDX 91 13 4 14 5 15 72 16 73 17 74 18 75 19 76 20 90 21 77 22
REMARK SMILES IDX 89 23 78 24 79 25 80 26 88 27 81 28 83 29 82 30 84 31 85 32
REMARK SMILES IDX 86 33 87 34 15 35 16 36 17 37 18 38 19 39 20 40 21 41 22 42
REMARK SMILES IDX 23 43 24 44 25 45 71 46 26 47 70 48 27 49 28 50 29 51 64 52
REMARK SMILES IDX 30 53 69 54 63 55 65 56 31 57 68 58 62 59 61 60 32 62 54 63
REMARK SMILES IDX 39 64 53 65 40 66 43 67 52 68 66 69 41 70 42 71 51 73 67 74
REMARK SMILES IDX 44 75 33 76 34 77 38 78 35 79 37 80 36 81 55 82 56 83 60 84
REMARK SMILES IDX 57 85 59 86 58 87 45 88 46 89 50 90 47 91 49 92 48 93
REMARK H PARENT 65 61 43 72
REMARK Flexibility Score: inf
ROOT
ATOM      1  C   UNL A   1      34.181  20.233  25.074  1.00  0.00     0.188 C 
ENDROOT
BRANCH   1   2
ATOM      2  C   UNL A   1      33.249  20.800  24.002  1.00  0.00     0.188 C 
BRANCH   2   3
ATOM      3  O   UNL A   1      33.104  22.215  23.970  1.00  0.00    -0.376 OA
BRANCH   3   4
ATOM      4  C   UNL A   1      33.878  22.900  22.995  1.00  0.00     0.202 C 
BRANCH   4   5
ATOM      5  C   UNL A   1      34.919  23.860  23.590  1.00  0.00     0.261 C 
BRANCH   5   6
ATOM      6  O   UNL A   1      34.356  25.105  24.076  1.00  0.00    -0.463 OA
BRANCH   6   7
ATOM      7  C   UNL A   1      34.323  25.280  25.418  1.00  0.00     0.310 C 
ATOM      8  O   UNL A   1      35.255  25.012  26.171  1.00  0.00    -0.252 OA
BRANCH   7   9
ATOM      9  C   UNL A   1      32.957  25.688  25.951  1.00  0.00     0.116 C 
ATOM     10  C   UNL A   1      29.491  27.366  23.729  1.00  0.00     0.039 C 
ATOM     11  C   UNL A   1      30.541  26.686  24.564  1.00  0.00    -0.074 C 
ATOM     12  C   UNL A   1      30.895  25.395  24.411  1.00  0.00    -0.073 C 
ATOM     13  C   UNL A   1      31.100  27.484  25.709  1.00  0.00     0.045 C 
ATOM     14  C   UNL A   1      30.256  24.449  23.430  1.00  0.00     0.039 C 
ATOM     15  C   UNL A   1      31.900  24.754  25.334  1.00  0.00     0.046 C 
ATOM     16  C   UNL A   1      32.559  27.176  26.073  1.00  0.00     0.097 C 
BRANCH  16  17
ATOM     17  C   UNL A   1      33.538  28.250  25.591  1.00  0.00     0.227 C 
ATOM     18  O   UNL A   1      33.949  28.232  24.432  1.00  0.00    -0.275 OA
ATOM     19  N   UNL A   1      34.039  29.126  26.536  1.00  0.00    -0.339 N 
ATOM     20  C   UNL A   1      33.665  30.536  26.494  1.00  0.00     0.141 C 
ATOM     21  C   UNL A   1      35.438  28.978  26.938  1.00  0.00     0.141 C 
ATOM     22  C   UNL A   1      33.805  31.203  27.859  1.00  0.00     0.138 C 
ATOM     23  C   UNL A   1      35.686  29.622  28.315  1.00  0.00     0.138 C 
ATOM     24  N   UNL A   1      35.174  31.008  28.358  1.00  0.00    -0.368 N 
BRANCH  24  25
ATOM     25  C   UNL A   1      35.645  31.826  29.371  1.00  0.00     0.037 A 
ATOM     26  C   UNL A   1      36.964  31.777  29.826  1.00  0.00     0.026 A 
ATOM     27  C   UNL A   1      34.775  32.731  29.991  1.00  0.00     0.039 A 
ATOM     28  C   UNL A   1      37.403  32.618  30.847  1.00  0.00     0.003 A 
ATOM     29  C   UNL A   1      35.188  33.561  31.045  1.00  0.00     0.058 A 
ATOM     30  C   UNL A   1      36.519  33.497  31.467  1.00  0.00     0.013 A 
BRANCH  29  31
ATOM     31  C   UNL A   1      34.212  34.481  31.726  1.00  0.00     0.416 C 
ATOM     32  F   UNL A   1      33.600  33.908  32.795  1.00  0.00    -0.166 F 
ATOM     33  F   UNL A   1      34.800  35.619  32.188  1.00  0.00    -0.166 F 
ATOM     34  F   UNL A   1      33.202  34.896  30.905  1.00  0.00    -0.166 F 
ENDBRANCH  29  31
ENDBRANCH  24  25
ENDBRANCH  16  17
ENDBRANCH   7   9
ENDBRANCH   6   7
ENDBRANCH   5   6
ENDBRANCH   4   5
ENDBRANCH   3   4
ENDBRANCH   2   3
ENDBRANCH   1   2
BRANCH   1  35
ATOM     35  O   UNL A   1      35.583  20.345  24.838  1.00  0.00    -0.377 OA
BRANCH  35  36
ATOM     36  C   UNL A   1      36.269  21.207  25.741  1.00  0.00     0.188 C 
BRANCH  36  37
ATOM     37  C   UNL A   1      37.693  21.536  25.287  1.00  0.00     0.188 C 
BRANCH  37  38
ATOM     38  O   UNL A   1      37.917  22.945  25.332  1.00  0.00    -0.376 OA
BRANCH  38  39
ATOM     39  C   UNL A   1      38.409  23.423  26.583  1.00  0.00     0.202 C 
BRANCH  39  40
ATOM     40  C   UNL A   1      39.823  22.949  26.980  1.00  0.00     0.261 C 
BRANCH  40  41
ATOM     41  O   UNL A   1      40.910  23.505  26.215  1.00  0.00    -0.460 OA
BRANCH  41  42
ATOM     42  C   UNL A   1      42.137  23.417  26.768  1.00  0.00     0.338 C 
ATOM     43  O   UNL A   1      42.642  22.431  27.274  1.00  0.00    -0.246 OA
BRANCH  42  44
ATOM     44  C   UNL A   1      42.796  24.740  26.761  1.00  0.00     0.060 A 
ATOM     45  C   UNL A   1      43.234  25.333  25.571  1.00  0.00     0.016 A 
ATOM     46  C   UNL A   1      43.152  25.297  27.989  1.00  0.00     0.016 A 
ATOM     47  C   UNL A   1      44.095  26.444  25.612  1.00  0.00     0.010 A 
ATOM     48  C   UNL A   1      43.993  26.412  28.025  1.00  0.00     0.010 A 
ATOM     49  C   UNL A   1      44.516  26.969  26.843  1.00  0.00    -0.014 A 
BRANCH  49  50
ATOM     50  C   UNL A   1      45.632  27.956  26.959  1.00  0.00     0.031 A 
ATOM     51  C   UNL A   1      45.294  29.430  26.965  1.00  0.00     0.074 A 
ATOM     52  C   UNL A   1      46.929  27.588  26.983  1.00  0.00     0.049 A 
ATOM     53  N   UNL A   1      46.083  30.471  26.867  1.00  0.00    -0.248 NA
ATOM     54  C   UNL A   1      43.866  29.768  27.084  1.00  0.00     0.031 C 
ATOM     55  C   UNL A   1      47.432  26.218  27.016  1.00  0.00     0.029 A 
ATOM     56  N   UNL A   1      48.067  28.363  26.920  1.00  0.00    -0.354 N 
ATOM     57  C   UNL A   1      45.247  31.582  26.890  1.00  0.00     0.074 A 
ATOM     58  C   UNL A   1      43.890  31.088  26.970  1.00  0.00     0.031 C 
ATOM     59  C   UNL A   1      48.774  26.244  26.917  1.00  0.00     0.029 A 
ATOM     60  C   UNL A   1      49.220  27.628  26.771  1.00  0.00     0.049 A 
ATOM     61  H   UNL A   1      48.057  29.346  26.976  1.00  0.00     0.167 HD
ATOM     62  C   UNL A   1      45.571  32.898  26.870  1.00  0.00     0.031 A 
ATOM     63  C   UNL A   1      50.478  28.019  26.483  1.00  0.00     0.031 A 
ATOM     64  C   UNL A   1      46.913  33.405  26.783  1.00  0.00     0.049 A 
ATOM     65  C   UNL A   1      50.802  29.475  26.311  1.00  0.00     0.074 A 
ATOM     66  C   UNL A   1      47.350  34.716  26.871  1.00  0.00     0.029 A 
ATOM     67  N   UNL A   1      48.033  32.622  26.565  1.00  0.00    -0.354 N 
ATOM     68  N   UNL A   1      50.006  30.513  26.357  1.00  0.00    -0.248 NA
ATOM     69  C   UNL A   1      52.214  29.808  26.057  1.00  0.00     0.031 C 
ATOM     70  C   UNL A   1      48.732  34.731  26.652  1.00  0.00     0.029 A 
ATOM     71  C   UNL A   1      49.159  33.424  26.483  1.00  0.00     0.049 A 
ATOM     72  H   UNL A   1      48.030  31.641  26.480  1.00  0.00     0.167 HD
ATOM     73  C   UNL A   1      50.826  31.623  26.197  1.00  0.00     0.074 A 
ATOM     74  C   UNL A   1      52.172  31.131  26.001  1.00  0.00     0.031 C 
ATOM     75  C   UNL A   1      50.493  32.934  26.258  1.00  0.00     0.031 A 
BRANCH  62  76
ATOM     76  C   UNL A   1      44.438  33.885  26.938  1.00  0.00    -0.014 A 
ATOM     77  C   UNL A   1      43.817  34.359  25.771  1.00  0.00     0.009 A 
ATOM     78  C   UNL A   1      43.975  34.333  28.184  1.00  0.00     0.009 A 
ATOM     79  C   UNL A   1      42.790  35.301  25.848  1.00  0.00     0.001 A 
ATOM     80  C   UNL A   1      42.928  35.254  28.260  1.00  0.00     0.001 A 
ATOM     81  C   UNL A   1      42.345  35.747  27.093  1.00  0.00     0.000 A 
ENDBRANCH  62  76
BRANCH  63  82
ATOM     82  C   UNL A   1      51.550  27.014  26.269  1.00  0.00    -0.014 A 
ATOM     83  C   UNL A   1      51.726  26.401  25.024  1.00  0.00     0.009 A 
ATOM     84  C   UNL A   1      52.362  26.622  27.344  1.00  0.00     0.009 A 
ATOM     85  C   UNL A   1      52.712  25.423  24.857  1.00  0.00     0.001 A 
ATOM     86  C   UNL A   1      53.360  25.662  27.169  1.00  0.00     0.001 A 
ATOM     87  C   UNL A   1      53.533  25.063  25.925  1.00  0.00     0.000 A 
ENDBRANCH  63  82
BRANCH  75  88
ATOM     88  C   UNL A   1      51.615  33.930  26.190  1.00  0.00    -0.014 A 
ATOM     89  C   UNL A   1      51.884  34.663  25.026  1.00  0.00     0.009 A 
ATOM     90  C   UNL A   1      52.406  34.143  27.330  1.00  0.00     0.009 A 
ATOM     91  C   UNL A   1      52.943  35.574  24.999  1.00  0.00     0.001 A 
ATOM     92  C   UNL A   1      53.447  35.069  27.308  1.00  0.00     0.001 A 
ATOM     93  C   UNL A   1      53.721  35.779  26.140  1.00  0.00     0.000 A 
ENDBRANCH  75  88
ENDBRANCH  49  50
ENDBRANCH  42  44
ENDBRANCH  41  42
ENDBRANCH  40  41
ENDBRANCH  39  40
ENDBRANCH  38  39
ENDBRANCH  37  38
ENDBRANCH  36  37
ENDBRANCH  35  36
ENDBRANCH   1  35
TORSDOF 23
ENDMDL
MODEL 3
REMARK VINA RESULT:      -9.4      4.889      7.340
REMARK SMILES CC1=C(C)C[C@@H](C(=O)OCCOCCOCCOCCOC(=O)c2ccc(-c3c4nc(c(-c5ccccc5)c5ccc([nH]5)c(-c5ccccc5)c5nc(c(-c6ccccc6)c6ccc3[nH]6)C=C5)C=C4)cc2)[C@@H](C(=O)N2CCN(c3cccc(C(F)(F)F)c3)CC2)C1
REMARK SMILES IDX 14 1 13 2 12 3 11 4 10 5 9 6 7 7 8 8 6 9 1 10 2 11 3 12
REMARK SMILES IDX 91 13 4 14 5 15 72 16 73 17 74 18 75 19 76 20 90 21 77 22
REMARK SMILES IDX 89 23 78 24 79 25 80 26 88 27 81 28 83 29 82 30 84 31 85 32
REMARK SMILES IDX 86 33 87 34 15 35 16 36 17 37 18 38 19 39 20 40 21 41 22 42
REMARK SMILES IDX 23 43 24 44 25 45 71 46 26 47 70 48 27 49 28 50 29 51 64 52
REMARK SMILES IDX 30 53 69 54 63 55 65 56 31 57 68 58 62 59 61 60 32 62 54 63
REMARK SMILES IDX 39 64 53 65 40 66 43 67 52 68 66 69 41 70 42 71 51 73 67 74
REMARK SMILES IDX 44 75 33 76 34 77 38 78 35 79 37 80 36 81 55 82 56 83 60 84
REMARK SMILES IDX 57 85 59 86 58 87 45 88 46 89 50 90 47 91 49 92 48 93
REMARK H PARENT 65 61 43 72
REMARK Flexibility Score: inf
ROOT
ATOM      1  C   UNL A   1      35.985  21.008  25.538  1.00  0.00     0.188 C 
ENDROOT
BRANCH   1   2
ATOM      2  C   UNL A   1      34.759  21.876  25.248  1.00  0.00     0.188 C 
BRANCH   2   3
ATOM      3  O   UNL A   1      34.071  21.618  24.031  1.00  0.00    -0.376 OA
BRANCH   3   4
ATOM      4  C   UNL A   1      33.869  22.736  23.178  1.00  0.00     0.202 C 
BRANCH   4   5
ATOM      5  C   UNL A   1      34.850  23.891  23.424  1.00  0.00     0.261 C 
BRANCH   5   6
ATOM      6  O   UNL A   1      34.215  25.111  23.882  1.00  0.00    -0.463 OA
BRANCH   6   7
ATOM      7  C   UNL A   1      34.202  25.332  25.218  1.00  0.00     0.310 C 
ATOM      8  O   UNL A   1      35.175  25.182  25.950  1.00  0.00    -0.252 OA
BRANCH   7   9
ATOM      9  C   UNL A   1      32.817  25.626  25.778  1.00  0.00     0.116 C 
ATOM     10  C   UNL A   1      29.173  26.981  23.622  1.00  0.00     0.039 C 
ATOM     11  C   UNL A   1      30.295  26.401  24.438  1.00  0.00    -0.074 C 
ATOM     12  C   UNL A   1      30.755  25.144  24.287  1.00  0.00    -0.073 C 
ATOM     13  C   UNL A   1      30.808  27.254  25.565  1.00  0.00     0.045 C 
ATOM     14  C   UNL A   1      30.179  24.138  23.327  1.00  0.00     0.039 C 
ATOM     15  C   UNL A   1      31.831  24.600  25.191  1.00  0.00     0.046 C 
ATOM     16  C   UNL A   1      32.296  27.076  25.899  1.00  0.00     0.097 C 
BRANCH  16  17
ATOM     17  C   UNL A   1      33.168  28.225  25.387  1.00  0.00     0.227 C 
ATOM     18  O   UNL A   1      33.562  28.228  24.222  1.00  0.00    -0.275 OA
ATOM     19  N   UNL A   1      33.602  29.156  26.313  1.00  0.00    -0.339 N 
ATOM     20  C   UNL A   1      33.104  30.526  26.259  1.00  0.00     0.141 C 
ATOM     21  C   UNL A   1      35.015  29.138  26.695  1.00  0.00     0.141 C 
ATOM     22  C   UNL A   1      33.204  31.223  27.612  1.00  0.00     0.138 C 
ATOM     23  C   UNL A   1      35.224  29.821  28.060  1.00  0.00     0.138 C 
ATOM     24  N   UNL A   1      34.592  31.157  28.092  1.00  0.00    -0.368 N 
BRANCH  24  25
ATOM     25  C   UNL A   1      35.003  32.028  29.087  1.00  0.00     0.037 A 
ATOM     26  C   UNL A   1      34.294  33.185  29.415  1.00  0.00     0.026 A 
ATOM     27  C   UNL A   1      36.184  31.766  29.791  1.00  0.00     0.039 A 
ATOM     28  C   UNL A   1      34.737  34.037  30.424  1.00  0.00     0.003 A 
ATOM     29  C   UNL A   1      36.667  32.630  30.787  1.00  0.00     0.058 A 
ATOM     30  C   UNL A   1      35.926  33.773  31.100  1.00  0.00     0.013 A 
BRANCH  29  31
ATOM     31  C   UNL A   1      37.970  32.347  31.483  1.00  0.00     0.416 C 
ATOM     32  F   UNL A   1      38.103  31.047  31.853  1.00  0.00    -0.166 F 
ATOM     33  F   UNL A   1      39.051  32.637  30.708  1.00  0.00    -0.166 F 
ATOM     34  F   UNL A   1      38.135  33.073  32.629  1.00  0.00    -0.166 F 
ENDBRANCH  29  31
ENDBRANCH  24  25
ENDBRANCH  16  17
ENDBRANCH   7   9
ENDBRANCH   6   7
ENDBRANCH   5   6
ENDBRANCH   4   5
ENDBRANCH   3   4
ENDBRANCH   2   3
ENDBRANCH   1   2
BRANCH   1  35
ATOM     35  O   UNL A   1      37.012  20.989  24.549  1.00  0.00    -0.377 OA
BRANCH  35  36
ATOM     36  C   UNL A   1      38.248  20.434  24.990  1.00  0.00     0.188 C 
BRANCH  36  37
ATOM     37  C   UNL A   1      38.992  21.339  25.975  1.00  0.00     0.188 C 
BRANCH  37  38
ATOM     38  O   UNL A   1      40.195  20.711  26.417  1.00  0.00    -0.376 OA
BRANCH  38  39
ATOM     39  C   UNL A   1      41.378  21.198  25.785  1.00  0.00     0.202 C 
BRANCH  39  40
ATOM     40  C   UNL A   1      42.713  20.794  26.444  1.00  0.00     0.261 C 
BRANCH  40  41
ATOM     41  O   UNL A   1      43.447  19.742  25.786  1.00  0.00    -0.460 OA
BRANCH  41  42
ATOM     42  C   UNL A   1      44.207  20.110  24.735  1.00  0.00     0.338 C 
ATOM     43  O   UNL A   1      44.438  19.454  23.735  1.00  0.00    -0.246 OA
BRANCH  42  44
ATOM     44  C   UNL A   1      44.822  21.430  24.986  1.00  0.00     0.060 A 
ATOM     45  C   UNL A   1      45.388  21.750  26.226  1.00  0.00     0.016 A 
ATOM     46  C   UNL A   1      44.649  22.424  24.022  1.00  0.00     0.016 A 
ATOM     47  C   UNL A   1      45.711  23.084  26.531  1.00  0.00     0.010 A 
ATOM     48  C   UNL A   1      44.989  23.744  24.323  1.00  0.00     0.010 A 
ATOM     49  C   UNL A   1      45.476  24.102  25.595  1.00  0.00    -0.014 A 
BRANCH  49  50
ATOM     50  C   UNL A   1      45.534  25.552  25.949  1.00  0.00     0.031 A 
ATOM     51  C   UNL A   1      46.885  26.231  25.987  1.00  0.00     0.074 A 
ATOM     52  C   UNL A   1      44.443  26.258  26.309  1.00  0.00     0.049 A 
ATOM     53  N   UNL A   1      47.215  27.414  26.442  1.00  0.00    -0.248 NA
ATOM     54  C   UNL A   1      48.016  25.458  25.447  1.00  0.00     0.031 C 
ATOM     55  C   UNL A   1      43.066  25.774  26.298  1.00  0.00     0.029 A 
ATOM     56  N   UNL A   1      44.347  27.535  26.817  1.00  0.00    -0.354 N 
ATOM     57  C   UNL A   1      48.591  27.516  26.264  1.00  0.00     0.074 A 
ATOM     58  C   UNL A   1      49.038  26.262  25.699  1.00  0.00     0.031 C 
ATOM     59  C   UNL A   1      42.268  26.719  26.829  1.00  0.00     0.029 A 
ATOM     60  C   UNL A   1      43.083  27.855  27.254  1.00  0.00     0.049 A 
ATOM     61  H   UNL A   1      45.108  28.159  26.862  1.00  0.00     0.167 HD
ATOM     62  C   UNL A   1      49.413  28.562  26.524  1.00  0.00     0.031 A 
ATOM     63  C   UNL A   1      42.644  28.908  27.973  1.00  0.00     0.031 A 
ATOM     64  C   UNL A   1      48.986  29.811  27.093  1.00  0.00     0.049 A 
ATOM     65  C   UNL A   1      43.593  29.993  28.390  1.00  0.00     0.074 A 
ATOM     66  C   UNL A   1      49.719  30.969  27.288  1.00  0.00     0.029 A 
ATOM     67  N   UNL A   1      47.713  30.056  27.579  1.00  0.00    -0.354 N 
ATOM     68  N   UNL A   1      44.884  30.086  28.196  1.00  0.00    -0.248 NA
ATOM     69  C   UNL A   1      43.009  31.131  29.120  1.00  0.00     0.031 C 
ATOM     70  C   UNL A   1      48.903  31.898  27.943  1.00  0.00     0.029 A 
ATOM     71  C   UNL A   1      47.648  31.336  28.105  1.00  0.00     0.049 A 
ATOM     72  H   UNL A   1      46.966  29.415  27.557  1.00  0.00     0.167 HD
ATOM     73  C   UNL A   1      45.257  31.314  28.727  1.00  0.00     0.074 A 
ATOM     74  C   UNL A   1      44.067  31.909  29.297  1.00  0.00     0.031 C 
ATOM     75  C   UNL A   1      46.472  31.913  28.698  1.00  0.00     0.031 A 
BRANCH  62  76
ATOM     76  C   UNL A   1      50.870  28.389  26.195  1.00  0.00    -0.014 A 
ATOM     77  C   UNL A   1      51.773  27.882  27.144  1.00  0.00     0.009 A 
ATOM     78  C   UNL A   1      51.343  28.721  24.917  1.00  0.00     0.009 A 
ATOM     79  C   UNL A   1      53.129  27.759  26.836  1.00  0.00     0.001 A 
ATOM     80  C   UNL A   1      52.695  28.570  24.602  1.00  0.00     0.001 A 
ATOM     81  C   UNL A   1      53.589  28.102  25.565  1.00  0.00     0.000 A 
ENDBRANCH  62  76
BRANCH  63  82
ATOM     82  C   UNL A   1      41.229  28.980  28.417  1.00  0.00    -0.014 A 
ATOM     83  C   UNL A   1      40.861  28.618  29.717  1.00  0.00     0.009 A 
ATOM     84  C   UNL A   1      40.231  29.357  27.505  1.00  0.00     0.009 A 
ATOM     85  C   UNL A   1      39.517  28.650  30.101  1.00  0.00     0.001 A 
ATOM     86  C   UNL A   1      38.892  29.410  27.897  1.00  0.00     0.001 A 
ATOM     87  C   UNL A   1      38.536  29.055  29.195  1.00  0.00     0.000 A 
ENDBRANCH  63  82
BRANCH  75  88
ATOM     88  C   UNL A   1      46.557  33.315  29.228  1.00  0.00    -0.014 A 
ATOM     89  C   UNL A   1      46.917  33.583  30.556  1.00  0.00     0.009 A 
ATOM     90  C   UNL A   1      46.284  34.387  28.364  1.00  0.00     0.009 A 
ATOM     91  C   UNL A   1      46.976  34.902  31.015  1.00  0.00     0.001 A 
ATOM     92  C   UNL A   1      46.368  35.703  28.818  1.00  0.00     0.001 A 
ATOM     93  C   UNL A   1      46.706  35.960  30.145  1.00  0.00     0.000 A 
ENDBRANCH  75  88
ENDBRANCH  49  50
ENDBRANCH  42  44
ENDBRANCH  41  42
ENDBRANCH  40  41
ENDBRANCH  39  40
ENDBRANCH  38  39
ENDBRANCH  37  38
ENDBRANCH  36  37
ENDBRANCH  35  36
ENDBRANCH   1  35
TORSDOF 23
ENDMDL
