MODEL 1
REMARK VINA RESULT:      -8.8      0.000      0.000
REMARK SMILES CN(CCC(F)(F)F)C(=O)c1cccn1CC(=O)OCCOCCOCCOCCOC(=O)c1ccc(-c2c3nc(c(-c4ccccc4)c4ccc([nH]4)c(-c4ccccc4)c4nc(c(-c5ccccc5)c5ccc2[nH]5)C=C4)C=C3)cc1
REMARK SMILES IDX 23 1 22 2 21 3 20 4 19 5 17 6 18 7 16 8 15 9 11 10 12 11
REMARK SMILES IDX 13 12 14 13 9 14 10 15 2 16 1 17 3 18 4 19 5 20 6 21 7 22
REMARK SMILES IDX 8 23 24 24 25 25 26 26 27 27 28 28 29 29 30 30 31 31 32 32
REMARK SMILES IDX 33 33 34 34 35 35 81 36 36 37 80 38 37 39 38 40 39 41 74 42
REMARK SMILES IDX 40 43 79 44 73 45 75 46 41 47 78 48 72 49 71 50 42 52 64 53
REMARK SMILES IDX 49 54 63 55 50 56 53 57 62 58 76 59 51 60 52 61 61 63 77 64
REMARK SMILES IDX 54 65 43 66 44 67 48 68 45 69 47 70 46 71 65 72 66 73 70 74
REMARK SMILES IDX 67 75 69 76 68 77 55 78 56 79 60 80 57 81 59 82 58 83
REMARK H PARENT 75 51 53 62
REMARK Flexibility Score: inf
ROOT
ATOM      1  C   UNL A   1      32.216  26.926  23.054  1.00  0.00     0.188 C 
ENDROOT
BRANCH   1   2
ATOM      2  O   UNL A   1      30.919  26.512  23.463  1.00  0.00    -0.376 OA
BRANCH   2   3
ATOM      3  C   UNL A   1      30.489  25.195  23.178  1.00  0.00     0.202 C 
BRANCH   3   4
ATOM      4  C   UNL A   1      31.327  24.013  23.698  1.00  0.00     0.261 C 
BRANCH   4   5
ATOM      5  O   UNL A   1      31.974  23.190  22.708  1.00  0.00    -0.462 OA
BRANCH   5   6
ATOM      6  C   UNL A   1      33.288  23.459  22.490  1.00  0.00     0.326 C 
ATOM      7  O   UNL A   1      33.685  24.356  21.751  1.00  0.00    -0.250 OA
BRANCH   6   8
ATOM      8  C   UNL A   1      34.247  22.520  23.183  1.00  0.00     0.244 C 
BRANCH   8   9
ATOM      9  N   UNL A   1      35.295  23.094  24.037  1.00  0.00    -0.332 N 
ATOM     10  C   UNL A   1      35.169  23.478  25.368  1.00  0.00     0.107 A 
ATOM     11  C   UNL A   1      36.457  23.715  25.829  1.00  0.00     0.033 A 
ATOM     12  C   UNL A   1      37.368  23.521  24.772  1.00  0.00     0.020 A 
ATOM     13  C   UNL A   1      36.633  23.096  23.694  1.00  0.00     0.087 A 
BRANCH  10  14
ATOM     14  C   UNL A   1      33.938  23.449  26.137  1.00  0.00     0.270 C 
ATOM     15  O   UNL A   1      33.307  24.486  26.344  1.00  0.00    -0.267 OA
BRANCH  14  16
ATOM     16  N   UNL A   1      33.476  22.224  26.651  1.00  0.00    -0.340 N 
ATOM     17  C   UNL A   1      33.123  22.246  28.066  1.00  0.00     0.147 C 
BRANCH  16  18
ATOM     18  C   UNL A   1      33.713  20.913  26.036  1.00  0.00     0.129 C 
BRANCH  18  19
ATOM     19  C   UNL A   1      32.472  20.223  25.466  1.00  0.00     0.137 C 
BRANCH  19  20
ATOM     20  C   UNL A   1      32.787  19.206  24.399  1.00  0.00     0.390 C 
ATOM     21  F   UNL A   1      32.071  18.074  24.567  1.00  0.00    -0.171 F 
ATOM     22  F   UNL A   1      32.471  19.699  23.178  1.00  0.00    -0.171 F 
ATOM     23  F   UNL A   1      34.095  18.886  24.373  1.00  0.00    -0.171 F 
ENDBRANCH  19  20
ENDBRANCH  18  19
ENDBRANCH  16  18
ENDBRANCH  14  16
ENDBRANCH  10  14
ENDBRANCH   8   9
ENDBRANCH   6   8
ENDBRANCH   5   6
ENDBRANCH   4   5
ENDBRANCH   3   4
ENDBRANCH   2   3
ENDBRANCH   1   2
BRANCH   1  24
ATOM     24  C   UNL A   1      33.341  27.134  24.091  1.00  0.00     0.188 C 
BRANCH  24  25
ATOM     25  O   UNL A   1      32.905  27.738  25.302  1.00  0.00    -0.377 OA
BRANCH  25  26
ATOM     26  C   UNL A   1      33.926  28.042  26.241  1.00  0.00     0.188 C 
BRANCH  26  27
ATOM     27  C   UNL A   1      33.530  28.928  27.436  1.00  0.00     0.188 C 
BRANCH  27  28
ATOM     28  O   UNL A   1      32.330  29.667  27.236  1.00  0.00    -0.376 OA
BRANCH  28  29
ATOM     29  C   UNL A   1      32.414  31.051  26.930  1.00  0.00     0.202 C 
BRANCH  29  30
ATOM     30  C   UNL A   1      33.584  31.727  27.656  1.00  0.00     0.261 C 
BRANCH  30  31
ATOM     31  O   UNL A   1      33.828  33.063  27.218  1.00  0.00    -0.460 OA
BRANCH  31  32
ATOM     32  C   UNL A   1      33.385  33.984  28.081  1.00  0.00     0.338 C 
ATOM     33  O   UNL A   1      32.303  34.569  28.081  1.00  0.00    -0.246 OA
BRANCH  32  34
ATOM     34  C   UNL A   1      34.406  34.310  29.057  1.00  0.00     0.060 A 
ATOM     35  C   UNL A   1      35.700  34.423  28.536  1.00  0.00     0.016 A 
ATOM     36  C   UNL A   1      34.128  33.912  30.365  1.00  0.00     0.016 A 
ATOM     37  C   UNL A   1      36.721  33.853  29.248  1.00  0.00     0.010 A 
ATOM     38  C   UNL A   1      35.144  33.304  31.058  1.00  0.00     0.010 A 
ATOM     39  C   UNL A   1      36.403  33.207  30.447  1.00  0.00    -0.014 A 
BRANCH  39  40
ATOM     40  C   UNL A   1      37.449  32.413  31.081  1.00  0.00     0.031 A 
ATOM     41  C   UNL A   1      37.657  31.100  30.360  1.00  0.00     0.074 A 
ATOM     42  C   UNL A   1      38.004  32.967  32.197  1.00  0.00     0.049 A 
ATOM     43  N   UNL A   1      38.271  30.035  30.757  1.00  0.00    -0.248 NA
ATOM     44  C   UNL A   1      37.066  30.925  29.002  1.00  0.00     0.031 C 
ATOM     45  C   UNL A   1      37.638  34.292  32.754  1.00  0.00     0.029 A 
ATOM     46  N   UNL A   1      38.962  32.547  33.091  1.00  0.00    -0.354 N 
ATOM     47  C   UNL A   1      38.304  29.154  29.666  1.00  0.00     0.074 A 
ATOM     48  C   UNL A   1      37.474  29.711  28.644  1.00  0.00     0.031 C 
ATOM     49  C   UNL A   1      38.301  34.527  33.904  1.00  0.00     0.029 A 
ATOM     50  C   UNL A   1      39.168  33.404  34.197  1.00  0.00     0.049 A 
ATOM     51  H   UNL A   1      39.466  31.710  32.969  1.00  0.00     0.167 HD
ATOM     52  C   UNL A   1      39.116  28.067  29.613  1.00  0.00     0.031 A 
ATOM     53  C   UNL A   1      39.961  33.212  35.292  1.00  0.00     0.031 A 
ATOM     54  C   UNL A   1      39.759  27.834  30.861  1.00  0.00     0.049 A 
ATOM     55  C   UNL A   1      40.721  31.977  35.043  1.00  0.00     0.074 A 
ATOM     56  C   UNL A   1      39.302  27.365  32.066  1.00  0.00     0.029 A 
ATOM     57  N   UNL A   1      40.980  28.432  31.062  1.00  0.00    -0.354 N 
ATOM     58  N   UNL A   1      41.682  31.866  34.177  1.00  0.00    -0.248 NA
ATOM     59  C   UNL A   1      40.349  30.744  35.744  1.00  0.00     0.031 C 
ATOM     60  C   UNL A   1      40.069  28.062  33.031  1.00  0.00     0.029 A 
ATOM     61  C   UNL A   1      41.016  28.851  32.374  1.00  0.00     0.049 A 
ATOM     62  H   UNL A   1      41.695  28.541  30.393  1.00  0.00     0.167 HD
ATOM     63  C   UNL A   1      41.736  30.511  33.953  1.00  0.00     0.074 A 
ATOM     64  C   UNL A   1      41.150  29.884  35.118  1.00  0.00     0.031 C 
ATOM     65  C   UNL A   1      41.783  30.039  32.679  1.00  0.00     0.031 A 
BRANCH  52  66
ATOM     66  C   UNL A   1      39.519  27.278  28.412  1.00  0.00    -0.014 A 
ATOM     67  C   UNL A   1      39.392  25.877  28.471  1.00  0.00     0.009 A 
ATOM     68  C   UNL A   1      40.262  27.821  27.354  1.00  0.00     0.009 A 
ATOM     69  C   UNL A   1      40.037  25.048  27.555  1.00  0.00     0.001 A 
ATOM     70  C   UNL A   1      40.883  26.991  26.414  1.00  0.00     0.001 A 
ATOM     71  C   UNL A   1      40.793  25.607  26.531  1.00  0.00     0.000 A 
ENDBRANCH  52  66
BRANCH  53  72
ATOM     72  C   UNL A   1      40.178  33.883  36.620  1.00  0.00    -0.014 A 
ATOM     73  C   UNL A   1      39.361  33.746  37.746  1.00  0.00     0.009 A 
ATOM     74  C   UNL A   1      41.352  34.661  36.802  1.00  0.00     0.009 A 
ATOM     75  C   UNL A   1      39.736  34.288  38.992  1.00  0.00     0.001 A 
ATOM     76  C   UNL A   1      41.748  35.167  38.044  1.00  0.00     0.001 A 
ATOM     77  C   UNL A   1      40.941  34.969  39.148  1.00  0.00     0.000 A 
ENDBRANCH  53  72
BRANCH  65  78
ATOM     78  C   UNL A   1      42.224  31.072  31.648  1.00  0.00    -0.014 A 
ATOM     79  C   UNL A   1      41.280  31.843  30.953  1.00  0.00     0.009 A 
ATOM     80  C   UNL A   1      43.567  31.195  31.246  1.00  0.00     0.009 A 
ATOM     81  C   UNL A   1      41.660  32.671  29.887  1.00  0.00     0.001 A 
ATOM     82  C   UNL A   1      43.954  32.027  30.189  1.00  0.00     0.001 A 
ATOM     83  C   UNL A   1      42.996  32.760  29.502  1.00  0.00     0.000 A 
ENDBRANCH  65  78
ENDBRANCH  39  40
ENDBRANCH  32  34
ENDBRANCH  31  32
ENDBRANCH  30  31
ENDBRANCH  29  30
ENDBRANCH  28  29
ENDBRANCH  27  28
ENDBRANCH  26  27
ENDBRANCH  25  26
ENDBRANCH  24  25
ENDBRANCH   1  24
TORSDOF 26
ENDMDL
MODEL 2
REMARK VINA RESULT:      -8.8      4.108      8.518
REMARK SMILES CN(CCC(F)(F)F)C(=O)c1cccn1CC(=O)OCCOCCOCCOCCOC(=O)c1ccc(-c2c3nc(c(-c4ccccc4)c4ccc([nH]4)c(-c4ccccc4)c4nc(c(-c5ccccc5)c5ccc2[nH]5)C=C4)C=C3)cc1
REMARK SMILES IDX 23 1 22 2 21 3 20 4 19 5 17 6 18 7 16 8 15 9 11 10 12 11
REMARK SMILES IDX 13 12 14 13 9 14 10 15 2 16 1 17 3 18 4 19 5 20 6 21 7 22
REMARK SMILES IDX 8 23 24 24 25 25 26 26 27 27 28 28 29 29 30 30 31 31 32 32
REMARK SMILES IDX 33 33 34 34 35 35 81 36 36 37 80 38 37 39 38 40 39 41 74 42
REMARK SMILES IDX 40 43 79 44 73 45 75 46 41 47 78 48 72 49 71 50 42 52 64 53
REMARK SMILES IDX 49 54 63 55 50 56 53 57 62 58 76 59 51 60 52 61 61 63 77 64
REMARK SMILES IDX 54 65 43 66 44 67 48 68 45 69 47 70 46 71 65 72 66 73 70 74
REMARK SMILES IDX 67 75 69 76 68 77 55 78 56 79 60 80 57 81 59 82 58 83
REMARK H PARENT 75 51 53 62
REMARK Flexibility Score: inf
ROOT
ATOM      1  C   UNL A   1      40.970  20.642  27.355  1.00  0.00     0.188 C 
ENDROOT
BRANCH   1   2
ATOM      2  O   UNL A   1      39.951  20.894  26.395  1.00  0.00    -0.376 OA
BRANCH   2   3
ATOM      3  C   UNL A   1      39.693  22.225  25.992  1.00  0.00     0.202 C 
BRANCH   3   4
ATOM      4  C   UNL A   1      38.266  22.781  26.140  1.00  0.00     0.261 C 
BRANCH   4   5
ATOM      5  O   UNL A   1      37.499  22.934  24.930  1.00  0.00    -0.462 OA
BRANCH   5   6
ATOM      6  C   UNL A   1      36.477  22.054  24.769  1.00  0.00     0.326 C 
ATOM      7  O   UNL A   1      36.412  20.974  25.351  1.00  0.00    -0.250 OA
BRANCH   6   8
ATOM      8  C   UNL A   1      35.435  22.475  23.760  1.00  0.00     0.244 C 
BRANCH   8   9
ATOM      9  N   UNL A   1      34.212  23.127  24.245  1.00  0.00    -0.332 N 
ATOM     10  C   UNL A   1      32.933  22.583  24.275  1.00  0.00     0.107 A 
ATOM     11  C   UNL A   1      32.160  23.446  25.041  1.00  0.00     0.033 A 
ATOM     12  C   UNL A   1      32.951  24.540  25.443  1.00  0.00     0.020 A 
ATOM     13  C   UNL A   1      34.220  24.297  24.980  1.00  0.00     0.087 A 
BRANCH  10  14
ATOM     14  C   UNL A   1      32.562  21.280  23.751  1.00  0.00     0.270 C 
ATOM     15  O   UNL A   1      32.165  21.164  22.591  1.00  0.00    -0.267 OA
BRANCH  14  16
ATOM     16  N   UNL A   1      32.652  20.152  24.585  1.00  0.00    -0.340 N 
ATOM     17  C   UNL A   1      33.101  20.428  25.944  1.00  0.00     0.147 C 
BRANCH  16  18
ATOM     18  C   UNL A   1      32.742  18.765  24.115  1.00  0.00     0.129 C 
BRANCH  18  19
ATOM     19  C   UNL A   1      34.122  18.118  24.240  1.00  0.00     0.137 C 
BRANCH  19  20
ATOM     20  C   UNL A   1      34.138  16.658  23.864  1.00  0.00     0.390 C 
ATOM     21  F   UNL A   1      32.930  16.085  24.053  1.00  0.00    -0.171 F 
ATOM     22  F   UNL A   1      34.442  16.519  22.552  1.00  0.00    -0.171 F 
ATOM     23  F   UNL A   1      35.056  15.964  24.561  1.00  0.00    -0.171 F 
ENDBRANCH  19  20
ENDBRANCH  18  19
ENDBRANCH  16  18
ENDBRANCH  14  16
ENDBRANCH  10  14
ENDBRANCH   8   9
ENDBRANCH   6   8
ENDBRANCH   5   6
ENDBRANCH   4   5
ENDBRANCH   3   4
ENDBRANCH   2   3
ENDBRANCH   1   2
BRANCH   1  24
ATOM     24  C   UNL A   1      42.040  19.558  27.102  1.00  0.00     0.188 C 
BRANCH  24  25
ATOM     25  O   UNL A   1      42.150  19.162  25.740  1.00  0.00    -0.377 OA
BRANCH  25  26
ATOM     26  C   UNL A   1      43.457  19.209  25.188  1.00  0.00     0.188 C 
BRANCH  26  27
ATOM     27  C   UNL A   1      44.171  20.573  25.207  1.00  0.00     0.188 C 
BRANCH  27  28
ATOM     28  O   UNL A   1      44.484  21.079  23.913  1.00  0.00    -0.376 OA
BRANCH  28  29
ATOM     29  C   UNL A   1      44.884  22.434  23.780  1.00  0.00     0.202 C 
BRANCH  29  30
ATOM     30  C   UNL A   1      45.898  22.840  24.857  1.00  0.00     0.261 C 
BRANCH  30  31
ATOM     31  O   UNL A   1      45.437  23.894  25.703  1.00  0.00    -0.460 OA
BRANCH  31  32
ATOM     32  C   UNL A   1      45.516  25.098  25.126  1.00  0.00     0.338 C 
ATOM     33  O   UNL A   1      46.475  25.600  24.539  1.00  0.00    -0.246 OA
BRANCH  32  34
ATOM     34  C   UNL A   1      44.294  25.849  25.331  1.00  0.00     0.060 A 
ATOM     35  C   UNL A   1      44.468  27.234  25.436  1.00  0.00     0.016 A 
ATOM     36  C   UNL A   1      43.259  25.147  25.951  1.00  0.00     0.016 A 
ATOM     37  C   UNL A   1      43.764  27.887  26.411  1.00  0.00     0.010 A 
ATOM     38  C   UNL A   1      42.586  25.794  26.955  1.00  0.00     0.010 A 
ATOM     39  C   UNL A   1      42.915  27.130  27.226  1.00  0.00    -0.014 A 
BRANCH  39  40
ATOM     40  C   UNL A   1      42.347  27.787  28.398  1.00  0.00     0.031 A 
ATOM     41  C   UNL A   1      43.196  27.552  29.626  1.00  0.00     0.074 A 
ATOM     42  C   UNL A   1      41.169  28.440  28.184  1.00  0.00     0.049 A 
ATOM     43  N   UNL A   1      42.899  27.722  30.873  1.00  0.00    -0.248 NA
ATOM     44  C   UNL A   1      44.576  27.014  29.454  1.00  0.00     0.031 C 
ATOM     45  C   UNL A   1      40.485  28.541  26.872  1.00  0.00     0.029 A 
ATOM     46  N   UNL A   1      40.304  29.133  29.000  1.00  0.00    -0.354 N 
ATOM     47  C   UNL A   1      44.075  27.499  31.604  1.00  0.00     0.074 A 
ATOM     48  C   UNL A   1      45.050  26.980  30.696  1.00  0.00     0.031 C 
ATOM     49  C   UNL A   1      39.303  29.178  26.996  1.00  0.00     0.029 A 
ATOM     50  C   UNL A   1      39.111  29.570  28.378  1.00  0.00     0.049 A 
ATOM     51  H   UNL A   1      40.502  29.311  29.947  1.00  0.00     0.167 HD
ATOM     52  C   UNL A   1      44.225  27.871  32.901  1.00  0.00     0.031 A 
ATOM     53  C   UNL A   1      38.027  30.179  28.940  1.00  0.00     0.031 A 
ATOM     54  C   UNL A   1      42.995  28.318  33.462  1.00  0.00     0.049 A 
ATOM     55  C   UNL A   1      38.388  30.461  30.339  1.00  0.00     0.074 A 
ATOM     56  C   UNL A   1      41.855  27.656  33.840  1.00  0.00     0.029 A 
ATOM     57  N   UNL A   1      42.709  29.659  33.366  1.00  0.00    -0.354 N 
ATOM     58  N   UNL A   1      39.241  31.365  30.711  1.00  0.00    -0.248 NA
ATOM     59  C   UNL A   1      37.826  29.635  31.412  1.00  0.00     0.031 C 
ATOM     60  C   UNL A   1      40.807  28.566  33.557  1.00  0.00     0.029 A 
ATOM     61  C   UNL A   1      41.361  29.768  33.107  1.00  0.00     0.049 A 
ATOM     62  H   UNL A   1      43.349  30.401  33.463  1.00  0.00     0.167 HD
ATOM     63  C   UNL A   1      39.603  30.944  31.969  1.00  0.00     0.074 A 
ATOM     64  C   UNL A   1      38.522  30.109  32.443  1.00  0.00     0.031 C 
ATOM     65  C   UNL A   1      40.918  30.890  32.309  1.00  0.00     0.031 A 
BRANCH  52  66
ATOM     66  C   UNL A   1      45.492  28.031  33.671  1.00  0.00    -0.014 A 
ATOM     67  C   UNL A   1      46.259  29.191  33.444  1.00  0.00     0.009 A 
ATOM     68  C   UNL A   1      46.091  26.985  34.387  1.00  0.00     0.009 A 
ATOM     69  C   UNL A   1      47.590  29.275  33.852  1.00  0.00     0.001 A 
ATOM     70  C   UNL A   1      47.416  27.081  34.826  1.00  0.00     0.001 A 
ATOM     71  C   UNL A   1      48.172  28.214  34.534  1.00  0.00     0.000 A 
ENDBRANCH  52  66
BRANCH  53  72
ATOM     72  C   UNL A   1      36.633  30.548  28.515  1.00  0.00    -0.014 A 
ATOM     73  C   UNL A   1      36.125  31.847  28.424  1.00  0.00     0.009 A 
ATOM     74  C   UNL A   1      35.760  29.514  28.081  1.00  0.00     0.009 A 
ATOM     75  C   UNL A   1      34.857  32.099  27.861  1.00  0.00     0.001 A 
ATOM     76  C   UNL A   1      34.519  29.760  27.488  1.00  0.00     0.001 A 
ATOM     77  C   UNL A   1      34.070  31.061  27.366  1.00  0.00     0.000 A 
ENDBRANCH  53  72
BRANCH  65  78
ATOM     78  C   UNL A   1      41.828  31.728  31.417  1.00  0.00    -0.014 A 
ATOM     79  C   UNL A   1      41.938  33.115  31.603  1.00  0.00     0.009 A 
ATOM     80  C   UNL A   1      42.475  31.183  30.293  1.00  0.00     0.009 A 
ATOM     81  C   UNL A   1      42.635  33.917  30.688  1.00  0.00     0.001 A 
ATOM     82  C   UNL A   1      43.181  31.978  29.382  1.00  0.00     0.001 A 
ATOM     83  C   UNL A   1      43.253  33.350  29.576  1.00  0.00     0.000 A 
ENDBRANCH  65  78
ENDBRANCH  39  40
ENDBRANCH  32  34
ENDBRANCH  31  32
ENDBRANCH  30  31
ENDBRANCH  29  30
ENDBRANCH  28  29
ENDBRANCH  27  28
ENDBRANCH  26  27
ENDBRANCH  25  26
ENDBRANCH  24  25
ENDBRANCH   1  24
TORSDOF 26
ENDMDL
MODEL 3
REMARK VINA RESULT:      -8.6      1.365      2.540
REMARK SMILES CN(CCC(F)(F)F)C(=O)c1cccn1CC(=O)OCCOCCOCCOCCOC(=O)c1ccc(-c2c3nc(c(-c4ccccc4)c4ccc([nH]4)c(-c4ccccc4)c4nc(c(-c5ccccc5)c5ccc2[nH]5)C=C4)C=C3)cc1
REMARK SMILES IDX 23 1 22 2 21 3 20 4 19 5 17 6 18 7 16 8 15 9 11 10 12 11
REMARK SMILES IDX 13 12 14 13 9 14 10 15 2 16 1 17 3 18 4 19 5 20 6 21 7 22
REMARK SMILES IDX 8 23 24 24 25 25 26 26 27 27 28 28 29 29 30 30 31 31 32 32
REMARK SMILES IDX 33 33 34 34 35 35 81 36 36 37 80 38 37 39 38 40 39 41 74 42
REMARK SMILES IDX 40 43 79 44 73 45 75 46 41 47 78 48 72 49 71 50 42 52 64 53
REMARK SMILES IDX 49 54 63 55 50 56 53 57 62 58 76 59 51 60 52 61 61 63 77 64
REMARK SMILES IDX 54 65 43 66 44 67 48 68 45 69 47 70 46 71 65 72 66 73 70 74
REMARK SMILES IDX 67 75 69 76 68 77 55 78 56 79 60 80 57 81 59 82 58 83
REMARK H PARENT 75 51 53 62
REMARK Flexibility Score: inf
ROOT
ATOM      1  C   UNL A   1      32.101  26.452  23.555  1.00  0.00     0.188 C 
ENDROOT
BRANCH   1   2
ATOM      2  O   UNL A   1      30.772  26.446  24.059  1.00  0.00    -0.376 OA
BRANCH   2   3
ATOM      3  C   UNL A   1      30.280  25.287  24.704  1.00  0.00     0.202 C 
BRANCH   3   4
ATOM      4  C   UNL A   1      30.111  25.304  26.233  1.00  0.00     0.261 C 
BRANCH   4   5
ATOM      5  O   UNL A   1      30.987  24.449  26.993  1.00  0.00    -0.462 OA
BRANCH   5   6
ATOM      6  C   UNL A   1      31.050  23.157  26.580  1.00  0.00     0.326 C 
ATOM      7  O   UNL A   1      30.061  22.443  26.430  1.00  0.00    -0.250 OA
BRANCH   6   8
ATOM      8  C   UNL A   1      32.449  22.627  26.372  1.00  0.00     0.244 C 
BRANCH   8   9
ATOM      9  N   UNL A   1      32.625  21.413  25.565  1.00  0.00    -0.332 N 
ATOM     10  C   UNL A   1      32.643  21.329  24.178  1.00  0.00     0.107 A 
ATOM     11  C   UNL A   1      33.090  20.051  23.871  1.00  0.00     0.033 A 
ATOM     12  C   UNL A   1      33.303  19.336  25.066  1.00  0.00     0.020 A 
ATOM     13  C   UNL A   1      33.054  20.211  26.094  1.00  0.00     0.087 A 
BRANCH  10  14
ATOM     14  C   UNL A   1      32.410  22.435  23.266  1.00  0.00     0.270 C 
ATOM     15  O   UNL A   1      31.262  22.770  22.973  1.00  0.00    -0.267 OA
BRANCH  14  16
ATOM     16  N   UNL A   1      33.509  23.116  22.715  1.00  0.00    -0.340 N 
ATOM     17  C   UNL A   1      33.280  23.680  21.390  1.00  0.00     0.147 C 
BRANCH  16  18
ATOM     18  C   UNL A   1      34.903  22.947  23.144  1.00  0.00     0.129 C 
BRANCH  18  19
ATOM     19  C   UNL A   1      35.342  23.837  24.308  1.00  0.00     0.137 C 
BRANCH  19  20
ATOM     20  C   UNL A   1      36.297  23.158  25.256  1.00  0.00     0.390 C 
ATOM     21  F   UNL A   1      37.112  22.299  24.608  1.00  0.00    -0.171 F 
ATOM     22  F   UNL A   1      37.087  24.077  25.860  1.00  0.00    -0.171 F 
ATOM     23  F   UNL A   1      35.653  22.486  26.230  1.00  0.00    -0.171 F 
ENDBRANCH  19  20
ENDBRANCH  18  19
ENDBRANCH  16  18
ENDBRANCH  14  16
ENDBRANCH  10  14
ENDBRANCH   8   9
ENDBRANCH   6   8
ENDBRANCH   5   6
ENDBRANCH   4   5
ENDBRANCH   3   4
ENDBRANCH   2   3
ENDBRANCH   1   2
BRANCH   1  24
ATOM     24  C   UNL A   1      33.290  26.817  24.471  1.00  0.00     0.188 C 
BRANCH  24  25
ATOM     25  O   UNL A   1      32.964  27.748  25.497  1.00  0.00    -0.377 OA
BRANCH  25  26
ATOM     26  C   UNL A   1      34.040  28.142  26.335  1.00  0.00     0.188 C 
BRANCH  26  27
ATOM     27  C   UNL A   1      33.704  29.097  27.494  1.00  0.00     0.188 C 
BRANCH  27  28
ATOM     28  O   UNL A   1      32.461  29.775  27.344  1.00  0.00    -0.376 OA
BRANCH  28  29
ATOM     29  C   UNL A   1      32.462  31.147  26.979  1.00  0.00     0.202 C 
BRANCH  29  30
ATOM     30  C   UNL A   1      33.646  31.901  27.596  1.00  0.00     0.261 C 
BRANCH  30  31
ATOM     31  O   UNL A   1      33.741  33.259  27.165  1.00  0.00    -0.460 OA
BRANCH  31  32
ATOM     32  C   UNL A   1      33.247  34.125  28.056  1.00  0.00     0.338 C 
ATOM     33  O   UNL A   1      32.147  34.676  28.054  1.00  0.00    -0.246 OA
BRANCH  32  34
ATOM     34  C   UNL A   1      34.232  34.437  29.073  1.00  0.00     0.060 A 
ATOM     35  C   UNL A   1      35.541  34.572  28.600  1.00  0.00     0.016 A 
ATOM     36  C   UNL A   1      33.913  34.009  30.363  1.00  0.00     0.016 A 
ATOM     37  C   UNL A   1      36.542  33.994  29.333  1.00  0.00     0.010 A 
ATOM     38  C   UNL A   1      34.910  33.393  31.076  1.00  0.00     0.010 A 
ATOM     39  C   UNL A   1      36.189  33.320  30.507  1.00  0.00    -0.014 A 
BRANCH  39  40
ATOM     40  C   UNL A   1      37.220  32.520  31.158  1.00  0.00     0.031 A 
ATOM     41  C   UNL A   1      37.471  31.230  30.410  1.00  0.00     0.074 A 
ATOM     42  C   UNL A   1      37.726  33.049  32.309  1.00  0.00     0.049 A 
ATOM     43  N   UNL A   1      38.082  30.161  30.802  1.00  0.00    -0.248 NA
ATOM     44  C   UNL A   1      36.934  31.086  29.026  1.00  0.00     0.031 C 
ATOM     45  C   UNL A   1      37.322  34.354  32.887  1.00  0.00     0.029 A 
ATOM     46  N   UNL A   1      38.653  32.615  33.228  1.00  0.00    -0.354 N 
ATOM     47  C   UNL A   1      38.167  29.311  29.689  1.00  0.00     0.074 A 
ATOM     48  C   UNL A   1      37.370  29.886  28.651  1.00  0.00     0.031 C 
ATOM     49  C   UNL A   1      37.938  34.564  34.068  1.00  0.00     0.029 A 
ATOM     50  C   UNL A   1      38.807  33.444  34.364  1.00  0.00     0.049 A 
ATOM     51  H   UNL A   1      39.172  31.788  33.103  1.00  0.00     0.167 HD
ATOM     52  C   UNL A   1      38.994  28.235  29.638  1.00  0.00     0.031 A 
ATOM     53  C   UNL A   1      39.560  33.230  35.483  1.00  0.00     0.031 A 
ATOM     54  C   UNL A   1      39.592  27.975  30.903  1.00  0.00     0.049 A 
ATOM     55  C   UNL A   1      40.344  32.011  35.229  1.00  0.00     0.074 A 
ATOM     56  C   UNL A   1      39.095  27.467  32.076  1.00  0.00     0.029 A 
ATOM     57  N   UNL A   1      40.797  28.580  31.167  1.00  0.00    -0.354 N 
ATOM     58  N   UNL A   1      41.338  31.934  34.399  1.00  0.00    -0.248 NA
ATOM     59  C   UNL A   1      39.961  30.755  35.882  1.00  0.00     0.031 C 
ATOM     60  C   UNL A   1      39.816  28.146  33.089  1.00  0.00     0.029 A 
ATOM     61  C   UNL A   1      40.778  28.963  32.490  1.00  0.00     0.049 A 
ATOM     62  H   UNL A   1      41.536  28.715  30.529  1.00  0.00     0.167 HD
ATOM     63  C   UNL A   1      41.417  30.586  34.140  1.00  0.00     0.074 A 
ATOM     64  C   UNL A   1      40.795  29.921  35.264  1.00  0.00     0.031 C 
ATOM     65  C   UNL A   1      41.518  30.151  32.857  1.00  0.00     0.031 A 
BRANCH  52  66
ATOM     66  C   UNL A   1      39.452  27.484  28.433  1.00  0.00    -0.014 A 
ATOM     67  C   UNL A   1      39.313  26.082  28.437  1.00  0.00     0.009 A 
ATOM     68  C   UNL A   1      40.251  28.056  27.432  1.00  0.00     0.009 A 
ATOM     69  C   UNL A   1      39.998  25.279  27.526  1.00  0.00     0.001 A 
ATOM     70  C   UNL A   1      40.913  27.254  26.496  1.00  0.00     0.001 A 
ATOM     71  C   UNL A   1      40.808  25.867  26.562  1.00  0.00     0.000 A 
ENDBRANCH  52  66
BRANCH  53  72
ATOM     72  C   UNL A   1      39.719  33.867  36.835  1.00  0.00    -0.014 A 
ATOM     73  C   UNL A   1      40.494  34.995  37.120  1.00  0.00     0.009 A 
ATOM     74  C   UNL A   1      38.961  33.352  37.921  1.00  0.00     0.009 A 
ATOM     75  C   UNL A   1      40.451  35.611  38.387  1.00  0.00     0.001 A 
ATOM     76  C   UNL A   1      38.885  33.980  39.167  1.00  0.00     0.001 A 
ATOM     77  C   UNL A   1      39.625  35.124  39.397  1.00  0.00     0.000 A 
ENDBRANCH  53  72
BRANCH  65  78
ATOM     78  C   UNL A   1      41.986  31.217  31.871  1.00  0.00    -0.014 A 
ATOM     79  C   UNL A   1      41.109  31.741  30.910  1.00  0.00     0.009 A 
ATOM     80  C   UNL A   1      43.334  31.610  31.786  1.00  0.00     0.009 A 
ATOM     81  C   UNL A   1      41.568  32.593  29.895  1.00  0.00     0.001 A 
ATOM     82  C   UNL A   1      43.797  32.467  30.781  1.00  0.00     0.001 A 
ATOM     83  C   UNL A   1      42.913  32.952  29.827  1.00  0.00     0.000 A 
ENDBRANCH  65  78
ENDBRANCH  39  40
ENDBRANCH  32  34
ENDBRANCH  31  32
ENDBRANCH  30  31
ENDBRANCH  29  30
ENDBRANCH  28  29
ENDBRANCH  27  28
ENDBRANCH  26  27
ENDBRANCH  25  26
ENDBRANCH  24  25
ENDBRANCH   1  24
TORSDOF 26
ENDMDL
