MODEL 1
REMARK VINA RESULT:      -8.3      0.000      0.000
REMARK SMILES O=C(OCCOCCOCCOCCOC(=O)c1sc2ccccc2c1CSC[C@H](O)CO)c1ccc(-c2c3nc(c(-c4ccccc4)c4ccc([nH]4)c(-c4ccccc4)c4nc(c(-c5ccccc5)c5ccc2[nH]5)C=C4)C=C3)cc1
REMARK SMILES IDX 11 1 10 2 9 3 8 4 7 5 6 6 5 7 4 8 3 9 2 10 1 11 34 12 35 13
REMARK SMILES IDX 81 14 36 15 80 16 37 17 38 18 39 19 74 20 40 21 79 22 73 23
REMARK SMILES IDX 75 24 41 25 78 26 72 27 71 28 42 30 64 31 49 32 63 33 50 34
REMARK SMILES IDX 53 35 62 36 76 37 51 38 52 39 61 41 77 42 54 43 43 44 44 45
REMARK SMILES IDX 48 46 45 47 47 48 46 49 65 50 66 51 70 52 67 53 69 54 68 55
REMARK SMILES IDX 55 56 56 57 60 58 57 59 59 60 58 61 12 62 13 63 14 64 15 65
REMARK SMILES IDX 16 66 17 67 18 68 19 69 26 70 20 71 25 72 21 73 24 74 22 75
REMARK SMILES IDX 23 76 27 77 28 78 29 79 30 80 32 81 33 82 31 84
REMARK H PARENT 75 29 53 40 33 83 31 85
REMARK Flexibility Score: inf
ROOT
ATOM      1  C   UNL A   1      33.138  29.276  27.192  1.00  0.00     0.188 C 
ENDROOT
BRANCH   1   2
ATOM      2  C   UNL A   1      32.803  30.781  27.135  1.00  0.00     0.188 C 
BRANCH   2   3
ATOM      3  O   UNL A   1      33.891  31.688  27.267  1.00  0.00    -0.377 OA
BRANCH   3   4
ATOM      4  C   UNL A   1      33.849  32.548  28.402  1.00  0.00     0.188 C 
BRANCH   4   5
ATOM      5  C   UNL A   1      33.395  33.964  28.057  1.00  0.00     0.188 C 
BRANCH   5   6
ATOM      6  O   UNL A   1      32.692  34.523  29.173  1.00  0.00    -0.376 OA
BRANCH   6   7
ATOM      7  C   UNL A   1      33.221  35.749  29.670  1.00  0.00     0.202 C 
BRANCH   7   8
ATOM      8  C   UNL A   1      33.114  35.885  31.190  1.00  0.00     0.261 C 
BRANCH   8   9
ATOM      9  O   UNL A   1      34.253  35.331  31.864  1.00  0.00    -0.460 OA
BRANCH   9  10
ATOM     10  C   UNL A   1      34.571  34.024  32.035  1.00  0.00     0.338 C 
ATOM     11  O   UNL A   1      33.717  33.283  32.521  1.00  0.00    -0.246 OA
BRANCH  10  12
ATOM     12  C   UNL A   1      35.881  33.404  31.647  1.00  0.00     0.060 A 
ATOM     13  C   UNL A   1      36.613  32.480  32.398  1.00  0.00     0.016 A 
ATOM     14  C   UNL A   1      36.381  33.748  30.376  1.00  0.00     0.016 A 
ATOM     15  C   UNL A   1      37.821  31.961  31.945  1.00  0.00     0.010 A 
ATOM     16  C   UNL A   1      37.582  33.215  29.901  1.00  0.00     0.010 A 
ATOM     17  C   UNL A   1      38.318  32.336  30.701  1.00  0.00    -0.014 A 
BRANCH  17  18
ATOM     18  C   UNL A   1      39.679  31.914  30.333  1.00  0.00     0.031 A 
ATOM     19  C   UNL A   1      39.841  30.592  29.645  1.00  0.00     0.074 A 
ATOM     20  C   UNL A   1      40.719  32.747  30.514  1.00  0.00     0.049 A 
ATOM     21  N   UNL A   1      40.933  29.967  29.297  1.00  0.00    -0.248 NA
ATOM     22  C   UNL A   1      38.599  29.882  29.286  1.00  0.00     0.031 C 
ATOM     23  C   UNL A   1      40.631  34.106  31.052  1.00  0.00     0.029 A 
ATOM     24  N   UNL A   1      42.051  32.579  30.244  1.00  0.00    -0.354 N 
ATOM     25  C   UNL A   1      40.511  28.779  28.717  1.00  0.00     0.074 A 
ATOM     26  C   UNL A   1      39.068  28.769  28.745  1.00  0.00     0.031 C 
ATOM     27  C   UNL A   1      41.859  34.652  31.065  1.00  0.00     0.029 A 
ATOM     28  C   UNL A   1      42.823  33.659  30.603  1.00  0.00     0.049 A 
ATOM     29  H   UNL A   1      42.421  31.765  29.832  1.00  0.00     0.167 HD
ATOM     30  C   UNL A   1      41.273  27.778  28.221  1.00  0.00     0.031 A 
ATOM     31  C   UNL A   1      44.162  33.796  30.600  1.00  0.00     0.031 A 
ATOM     32  C   UNL A   1      42.708  27.812  28.213  1.00  0.00     0.049 A 
ATOM     33  C   UNL A   1      44.988  32.622  30.142  1.00  0.00     0.074 A 
ATOM     34  C   UNL A   1      43.597  26.840  27.793  1.00  0.00     0.029 A 
ATOM     35  N   UNL A   1      43.462  28.891  28.654  1.00  0.00    -0.354 N 
ATOM     36  N   UNL A   1      44.589  31.473  29.648  1.00  0.00    -0.248 NA
ATOM     37  C   UNL A   1      46.446  32.753  30.263  1.00  0.00     0.031 C 
ATOM     38  C   UNL A   1      44.891  27.314  28.027  1.00  0.00     0.029 A 
ATOM     39  C   UNL A   1      44.808  28.600  28.543  1.00  0.00     0.049 A 
ATOM     40  H   UNL A   1      43.092  29.737  28.994  1.00  0.00     0.167 HD
ATOM     41  C   UNL A   1      45.744  30.748  29.393  1.00  0.00     0.074 A 
ATOM     42  C   UNL A   1      46.859  31.599  29.757  1.00  0.00     0.031 C 
ATOM     43  C   UNL A   1      45.879  29.486  28.915  1.00  0.00     0.031 A 
BRANCH  30  44
ATOM     44  C   UNL A   1      40.562  26.545  27.744  1.00  0.00    -0.014 A 
ATOM     45  C   UNL A   1      39.795  25.752  28.610  1.00  0.00     0.009 A 
ATOM     46  C   UNL A   1      40.679  26.165  26.398  1.00  0.00     0.009 A 
ATOM     47  C   UNL A   1      39.182  24.587  28.141  1.00  0.00     0.001 A 
ATOM     48  C   UNL A   1      40.048  25.013  25.928  1.00  0.00     0.001 A 
ATOM     49  C   UNL A   1      39.307  24.220  26.801  1.00  0.00     0.000 A 
ENDBRANCH  30  44
BRANCH  31  50
ATOM     50  C   UNL A   1      44.805  35.030  31.128  1.00  0.00    -0.014 A 
ATOM     51  C   UNL A   1      45.074  35.181  32.497  1.00  0.00     0.009 A 
ATOM     52  C   UNL A   1      45.114  36.094  30.263  1.00  0.00     0.009 A 
ATOM     53  C   UNL A   1      45.607  36.378  32.989  1.00  0.00     0.001 A 
ATOM     54  C   UNL A   1      45.678  37.275  30.751  1.00  0.00     0.001 A 
ATOM     55  C   UNL A   1      45.911  37.422  32.116  1.00  0.00     0.000 A 
ENDBRANCH  31  50
BRANCH  43  56
ATOM     56  C   UNL A   1      47.280  28.975  28.746  1.00  0.00    -0.014 A 
ATOM     57  C   UNL A   1      47.976  29.166  27.544  1.00  0.00     0.009 A 
ATOM     58  C   UNL A   1      47.923  28.348  29.824  1.00  0.00     0.009 A 
ATOM     59  C   UNL A   1      49.288  28.710  27.415  1.00  0.00     0.001 A 
ATOM     60  C   UNL A   1      49.244  27.920  29.700  1.00  0.00     0.001 A 
ATOM     61  C   UNL A   1      49.922  28.095  28.494  1.00  0.00     0.000 A 
ENDBRANCH  43  56
ENDBRANCH  17  18
ENDBRANCH  10  12
ENDBRANCH   9  10
ENDBRANCH   8   9
ENDBRANCH   7   8
ENDBRANCH   6   7
ENDBRANCH   5   6
ENDBRANCH   4   5
ENDBRANCH   3   4
ENDBRANCH   2   3
ENDBRANCH   1   2
BRANCH   1  62
ATOM     62  O   UNL A   1      32.878  28.600  25.967  1.00  0.00    -0.376 OA
BRANCH  62  63
ATOM     63  C   UNL A   1      34.038  28.089  25.319  1.00  0.00     0.202 C 
BRANCH  63  64
ATOM     64  C   UNL A   1      33.989  28.236  23.797  1.00  0.00     0.261 C 
BRANCH  64  65
ATOM     65  O   UNL A   1      32.930  27.507  23.145  1.00  0.00    -0.459 OA
BRANCH  65  66
ATOM     66  C   UNL A   1      33.223  26.420  22.381  1.00  0.00     0.348 C 
ATOM     67  O   UNL A   1      33.640  26.470  21.232  1.00  0.00    -0.245 OA
BRANCH  66  68
ATOM     68  C   UNL A   1      33.023  25.222  23.184  1.00  0.00     0.117 A 
ATOM     69  S   UNL A   1      34.108  23.929  22.908  1.00  0.00    -0.128 S 
ATOM     70  C   UNL A   1      32.055  24.901  24.138  1.00  0.00    -0.005 A 
ATOM     71  C   UNL A   1      33.264  22.868  23.951  1.00  0.00     0.035 A 
ATOM     72  C   UNL A   1      32.172  23.500  24.547  1.00  0.00    -0.003 A 
ATOM     73  C   UNL A   1      33.574  21.516  24.209  1.00  0.00     0.019 A 
ATOM     74  C   UNL A   1      31.361  22.711  25.409  1.00  0.00     0.010 A 
ATOM     75  C   UNL A   1      32.770  20.785  25.084  1.00  0.00     0.001 A 
ATOM     76  C   UNL A   1      31.669  21.375  25.679  1.00  0.00     0.001 A 
BRANCH  70  77
ATOM     77  C   UNL A   1      30.915  25.759  24.622  1.00  0.00     0.107 C 
BRANCH  77  78
ATOM     78  S   UNL A   1      29.526  25.999  23.499  1.00  0.00    -0.154 SA
BRANCH  78  79
ATOM     79  C   UNL A   1      29.138  27.761  23.739  1.00  0.00     0.104 C 
BRANCH  79  80
ATOM     80  C   UNL A   1      30.143  28.758  23.142  1.00  0.00     0.149 C 
BRANCH  80  81
ATOM     81  C   UNL A   1      29.527  29.787  22.192  1.00  0.00     0.188 C 
BRANCH  81  82
ATOM     82  O   UNL A   1      30.476  30.166  21.196  1.00  0.00    -0.394 OA
ATOM     83  H   UNL A   1      30.888  31.008  21.445  1.00  0.00     0.210 HD
ENDBRANCH  81  82
ENDBRANCH  80  81
BRANCH  80  84
ATOM     84  O   UNL A   1      30.764  29.503  24.211  1.00  0.00    -0.390 OA
ATOM     85  H   UNL A   1      30.374  30.390  24.256  1.00  0.00     0.211 HD
ENDBRANCH  80  84
ENDBRANCH  79  80
ENDBRANCH  78  79
ENDBRANCH  77  78
ENDBRANCH  70  77
ENDBRANCH  66  68
ENDBRANCH  65  66
ENDBRANCH  64  65
ENDBRANCH  63  64
ENDBRANCH  62  63
ENDBRANCH   1  62
TORSDOF 27
ENDMDL
MODEL 2
REMARK VINA RESULT:      -7.9      3.239      4.735
REMARK SMILES O=C(OCCOCCOCCOCCOC(=O)c1sc2ccccc2c1CSC[C@H](O)CO)c1ccc(-c2c3nc(c(-c4ccccc4)c4ccc([nH]4)c(-c4ccccc4)c4nc(c(-c5ccccc5)c5ccc2[nH]5)C=C4)C=C3)cc1
REMARK SMILES IDX 11 1 10 2 9 3 8 4 7 5 6 6 5 7 4 8 3 9 2 10 1 11 34 12 35 13
REMARK SMILES IDX 81 14 36 15 80 16 37 17 38 18 39 19 74 20 40 21 79 22 73 23
REMARK SMILES IDX 75 24 41 25 78 26 72 27 71 28 42 30 64 31 49 32 63 33 50 34
REMARK SMILES IDX 53 35 62 36 76 37 51 38 52 39 61 41 77 42 54 43 43 44 44 45
REMARK SMILES IDX 48 46 45 47 47 48 46 49 65 50 66 51 70 52 67 53 69 54 68 55
REMARK SMILES IDX 55 56 56 57 60 58 57 59 59 60 58 61 12 62 13 63 14 64 15 65
REMARK SMILES IDX 16 66 17 67 18 68 19 69 26 70 20 71 25 72 21 73 24 74 22 75
REMARK SMILES IDX 23 76 27 77 28 78 29 79 30 80 32 81 33 82 31 84
REMARK H PARENT 75 29 53 40 33 83 31 85
REMARK Flexibility Score: inf
ROOT
ATOM      1  C   UNL A   1      31.934  29.236  27.334  1.00  0.00     0.188 C 
ENDROOT
BRANCH   1   2
ATOM      2  C   UNL A   1      32.813  29.835  26.215  1.00  0.00     0.188 C 
BRANCH   2   3
ATOM      3  O   UNL A   1      33.475  31.060  26.505  1.00  0.00    -0.377 OA
BRANCH   3   4
ATOM      4  C   UNL A   1      33.484  31.454  27.875  1.00  0.00     0.188 C 
BRANCH   4   5
ATOM      5  C   UNL A   1      33.947  32.895  28.075  1.00  0.00     0.188 C 
BRANCH   5   6
ATOM      6  O   UNL A   1      32.862  33.676  28.589  1.00  0.00    -0.376 OA
BRANCH   6   7
ATOM      7  C   UNL A   1      33.198  35.009  28.966  1.00  0.00     0.202 C 
BRANCH   7   8
ATOM      8  C   UNL A   1      33.291  35.207  30.480  1.00  0.00     0.261 C 
BRANCH   8   9
ATOM      9  O   UNL A   1      34.540  34.745  31.012  1.00  0.00    -0.460 OA
BRANCH   9  10
ATOM     10  C   UNL A   1      34.797  33.578  31.653  1.00  0.00     0.338 C 
ATOM     11  O   UNL A   1      33.839  32.933  32.079  1.00  0.00    -0.246 OA
BRANCH  10  12
ATOM     12  C   UNL A   1      36.165  32.998  31.859  1.00  0.00     0.060 A 
ATOM     13  C   UNL A   1      37.360  33.489  31.326  1.00  0.00     0.016 A 
ATOM     14  C   UNL A   1      36.248  31.889  32.723  1.00  0.00     0.016 A 
ATOM     15  C   UNL A   1      38.583  32.877  31.581  1.00  0.00     0.010 A 
ATOM     16  C   UNL A   1      37.474  31.280  33.006  1.00  0.00     0.010 A 
ATOM     17  C   UNL A   1      38.643  31.762  32.411  1.00  0.00    -0.014 A 
BRANCH  17  18
ATOM     18  C   UNL A   1      39.918  31.032  32.514  1.00  0.00     0.031 A 
ATOM     19  C   UNL A   1      40.236  30.023  31.452  1.00  0.00     0.074 A 
ATOM     20  C   UNL A   1      40.806  31.352  33.472  1.00  0.00     0.049 A 
ATOM     21  N   UNL A   1      41.246  29.202  31.366  1.00  0.00    -0.248 NA
ATOM     22  C   UNL A   1      39.291  29.939  30.323  1.00  0.00     0.031 C 
ATOM     23  C   UNL A   1      40.635  32.416  34.464  1.00  0.00     0.029 A 
ATOM     24  N   UNL A   1      42.039  30.827  33.754  1.00  0.00    -0.354 N 
ATOM     25  C   UNL A   1      41.037  28.479  30.199  1.00  0.00     0.074 A 
ATOM     26  C   UNL A   1      39.815  28.962  29.601  1.00  0.00     0.031 C 
ATOM     27  C   UNL A   1      41.730  32.468  35.242  1.00  0.00     0.029 A 
ATOM     28  C   UNL A   1      42.642  31.401  34.847  1.00  0.00     0.049 A 
ATOM     29  H   UNL A   1      42.453  30.107  33.224  1.00  0.00     0.167 HD
ATOM     30  C   UNL A   1      41.798  27.485  29.688  1.00  0.00     0.031 A 
ATOM     31  C   UNL A   1      43.781  31.059  35.478  1.00  0.00     0.031 A 
ATOM     32  C   UNL A   1      43.006  27.021  30.309  1.00  0.00     0.049 A 
ATOM     33  C   UNL A   1      44.552  29.878  34.947  1.00  0.00     0.074 A 
ATOM     34  C   UNL A   1      43.837  25.985  29.925  1.00  0.00     0.029 A 
ATOM     35  N   UNL A   1      43.551  27.576  31.459  1.00  0.00    -0.354 N 
ATOM     36  N   UNL A   1      44.322  29.156  33.875  1.00  0.00    -0.248 NA
ATOM     37  C   UNL A   1      45.723  29.451  35.722  1.00  0.00     0.031 C 
ATOM     38  C   UNL A   1      44.860  25.882  30.873  1.00  0.00     0.029 A 
ATOM     39  C   UNL A   1      44.694  26.886  31.817  1.00  0.00     0.049 A 
ATOM     40  H   UNL A   1      43.178  28.345  31.947  1.00  0.00     0.167 HD
ATOM     41  C   UNL A   1      45.321  28.194  33.844  1.00  0.00     0.074 A 
ATOM     42  C   UNL A   1      46.177  28.446  34.986  1.00  0.00     0.031 C 
ATOM     43  C   UNL A   1      45.513  27.181  32.963  1.00  0.00     0.031 A 
BRANCH  30  44
ATOM     44  C   UNL A   1      41.288  26.792  28.459  1.00  0.00    -0.014 A 
ATOM     45  C   UNL A   1      40.413  25.698  28.537  1.00  0.00     0.009 A 
ATOM     46  C   UNL A   1      41.708  27.238  27.196  1.00  0.00     0.009 A 
ATOM     47  C   UNL A   1      39.991  25.048  27.374  1.00  0.00     0.001 A 
ATOM     48  C   UNL A   1      41.268  26.600  26.035  1.00  0.00     0.001 A 
ATOM     49  C   UNL A   1      40.417  25.502  26.125  1.00  0.00     0.000 A 
ENDBRANCH  30  44
BRANCH  31  50
ATOM     50  C   UNL A   1      44.208  31.762  36.719  1.00  0.00    -0.014 A 
ATOM     51  C   UNL A   1      43.774  31.335  37.983  1.00  0.00     0.009 A 
ATOM     52  C   UNL A   1      45.025  32.903  36.641  1.00  0.00     0.009 A 
ATOM     53  C   UNL A   1      44.120  32.052  39.133  1.00  0.00     0.001 A 
ATOM     54  C   UNL A   1      45.398  33.598  37.793  1.00  0.00     0.001 A 
ATOM     55  C   UNL A   1      44.935  33.180  39.038  1.00  0.00     0.000 A 
ENDBRANCH  31  50
BRANCH  43  56
ATOM     56  C   UNL A   1      46.702  26.297  33.200  1.00  0.00    -0.014 A 
ATOM     57  C   UNL A   1      46.587  25.121  33.955  1.00  0.00     0.009 A 
ATOM     58  C   UNL A   1      47.934  26.621  32.612  1.00  0.00     0.009 A 
ATOM     59  C   UNL A   1      47.697  24.296  34.140  1.00  0.00     0.001 A 
ATOM     60  C   UNL A   1      49.033  25.779  32.775  1.00  0.00     0.001 A 
ATOM     61  C   UNL A   1      48.915  24.622  33.545  1.00  0.00     0.000 A 
ENDBRANCH  43  56
ENDBRANCH  17  18
ENDBRANCH  10  12
ENDBRANCH   9  10
ENDBRANCH   8   9
ENDBRANCH   7   8
ENDBRANCH   6   7
ENDBRANCH   5   6
ENDBRANCH   4   5
ENDBRANCH   3   4
ENDBRANCH   2   3
ENDBRANCH   1   2
BRANCH   1  62
ATOM     62  O   UNL A   1      31.500  27.910  27.051  1.00  0.00    -0.376 OA
BRANCH  62  63
ATOM     63  C   UNL A   1      32.555  26.979  26.836  1.00  0.00     0.202 C 
BRANCH  63  64
ATOM     64  C   UNL A   1      32.058  25.543  26.649  1.00  0.00     0.261 C 
BRANCH  64  65
ATOM     65  O   UNL A   1      30.708  25.422  26.158  1.00  0.00    -0.459 OA
BRANCH  65  66
ATOM     66  C   UNL A   1      30.484  25.176  24.839  1.00  0.00     0.348 C 
ATOM     67  O   UNL A   1      30.537  24.070  24.318  1.00  0.00    -0.245 OA
BRANCH  66  68
ATOM     68  C   UNL A   1      30.112  26.427  24.192  1.00  0.00     0.117 A 
ATOM     69  S   UNL A   1      28.435  26.734  24.036  1.00  0.00    -0.128 S 
ATOM     70  C   UNL A   1      30.886  27.437  23.619  1.00  0.00    -0.005 A 
ATOM     71  C   UNL A   1      28.682  28.149  23.105  1.00  0.00     0.035 A 
ATOM     72  C   UNL A   1      30.040  28.419  22.938  1.00  0.00    -0.003 A 
ATOM     73  C   UNL A   1      27.684  28.971  22.542  1.00  0.00     0.019 A 
ATOM     74  C   UNL A   1      30.381  29.550  22.145  1.00  0.00     0.010 A 
ATOM     75  C   UNL A   1      28.059  30.088  21.795  1.00  0.00     0.001 A 
ATOM     76  C   UNL A   1      29.398  30.376  21.594  1.00  0.00     0.001 A 
BRANCH  70  77
ATOM     77  C   UNL A   1      32.388  27.508  23.526  1.00  0.00     0.107 C 
BRANCH  77  78
ATOM     78  S   UNL A   1      33.151  26.937  21.996  1.00  0.00    -0.154 SA
BRANCH  78  79
ATOM     79  C   UNL A   1      32.364  25.313  21.758  1.00  0.00     0.104 C 
BRANCH  79  80
ATOM     80  C   UNL A   1      33.238  24.090  22.075  1.00  0.00     0.149 C 
BRANCH  80  81
ATOM     81  C   UNL A   1      33.854  24.097  23.476  1.00  0.00     0.188 C 
BRANCH  81  82
ATOM     82  O   UNL A   1      33.286  23.053  24.267  1.00  0.00    -0.394 OA
ATOM     83  H   UNL A   1      32.564  22.631  23.776  1.00  0.00     0.210 HD
ENDBRANCH  81  82
ENDBRANCH  80  81
BRANCH  80  84
ATOM     84  O   UNL A   1      32.433  22.895  21.984  1.00  0.00    -0.390 OA
ATOM     85  H   UNL A   1      32.777  22.326  21.279  1.00  0.00     0.211 HD
ENDBRANCH  80  84
ENDBRANCH  79  80
ENDBRANCH  78  79
ENDBRANCH  77  78
ENDBRANCH  70  77
ENDBRANCH  66  68
ENDBRANCH  65  66
ENDBRANCH  64  65
ENDBRANCH  63  64
ENDBRANCH  62  63
ENDBRANCH   1  62
TORSDOF 27
ENDMDL
MODEL 3
REMARK VINA RESULT:      -7.9      2.907      4.480
REMARK SMILES O=C(OCCOCCOCCOCCOC(=O)c1sc2ccccc2c1CSC[C@H](O)CO)c1ccc(-c2c3nc(c(-c4ccccc4)c4ccc([nH]4)c(-c4ccccc4)c4nc(c(-c5ccccc5)c5ccc2[nH]5)C=C4)C=C3)cc1
REMARK SMILES IDX 11 1 10 2 9 3 8 4 7 5 6 6 5 7 4 8 3 9 2 10 1 11 34 12 35 13
REMARK SMILES IDX 81 14 36 15 80 16 37 17 38 18 39 19 74 20 40 21 79 22 73 23
REMARK SMILES IDX 75 24 41 25 78 26 72 27 71 28 42 30 64 31 49 32 63 33 50 34
REMARK SMILES IDX 53 35 62 36 76 37 51 38 52 39 61 41 77 42 54 43 43 44 44 45
REMARK SMILES IDX 48 46 45 47 47 48 46 49 65 50 66 51 70 52 67 53 69 54 68 55
REMARK SMILES IDX 55 56 56 57 60 58 57 59 59 60 58 61 12 62 13 63 14 64 15 65
REMARK SMILES IDX 16 66 17 67 18 68 19 69 26 70 20 71 25 72 21 73 24 74 22 75
REMARK SMILES IDX 23 76 27 77 28 78 29 79 30 80 32 81 33 82 31 84
REMARK H PARENT 75 29 53 40 33 83 31 85
REMARK Flexibility Score: inf
ROOT
ATOM      1  C   UNL A   1      33.403  28.873  27.156  1.00  0.00     0.188 C 
ENDROOT
BRANCH   1   2
ATOM      2  C   UNL A   1      33.666  30.382  26.972  1.00  0.00     0.188 C 
BRANCH   2   3
ATOM      3  O   UNL A   1      34.965  30.854  27.308  1.00  0.00    -0.377 OA
BRANCH   3   4
ATOM      4  C   UNL A   1      35.252  30.946  28.701  1.00  0.00     0.188 C 
BRANCH   4   5
ATOM      5  C   UNL A   1      35.198  32.379  29.225  1.00  0.00     0.188 C 
BRANCH   5   6
ATOM      6  O   UNL A   1      34.484  32.405  30.466  1.00  0.00    -0.376 OA
BRANCH   6   7
ATOM      7  C   UNL A   1      35.011  33.290  31.451  1.00  0.00     0.202 C 
BRANCH   7   8
ATOM      8  C   UNL A   1      34.878  32.760  32.879  1.00  0.00     0.261 C 
BRANCH   8   9
ATOM      9  O   UNL A   1      36.083  32.133  33.339  1.00  0.00    -0.460 OA
BRANCH   9  10
ATOM     10  C   UNL A   1      36.869  31.246  32.680  1.00  0.00     0.338 C 
ATOM     11  O   UNL A   1      36.473  30.084  32.587  1.00  0.00    -0.246 OA
BRANCH  10  12
ATOM     12  C   UNL A   1      38.178  31.582  32.028  1.00  0.00     0.060 A 
ATOM     13  C   UNL A   1      39.351  31.971  32.681  1.00  0.00     0.016 A 
ATOM     14  C   UNL A   1      38.236  31.428  30.630  1.00  0.00     0.016 A 
ATOM     15  C   UNL A   1      40.518  32.259  31.981  1.00  0.00     0.010 A 
ATOM     16  C   UNL A   1      39.409  31.691  29.918  1.00  0.00     0.010 A 
ATOM     17  C   UNL A   1      40.549  32.133  30.596  1.00  0.00    -0.014 A 
BRANCH  17  18
ATOM     18  C   UNL A   1      41.736  32.618  29.874  1.00  0.00     0.031 A 
ATOM     19  C   UNL A   1      42.829  31.635  29.580  1.00  0.00     0.074 A 
ATOM     20  C   UNL A   1      41.775  33.877  29.402  1.00  0.00     0.049 A 
ATOM     21  N   UNL A   1      43.997  31.833  29.036  1.00  0.00    -0.248 NA
ATOM     22  C   UNL A   1      42.559  30.229  29.937  1.00  0.00     0.031 C 
ATOM     23  C   UNL A   1      40.696  34.861  29.525  1.00  0.00     0.029 A 
ATOM     24  N   UNL A   1      42.752  34.537  28.705  1.00  0.00    -0.354 N 
ATOM     25  C   UNL A   1      44.616  30.590  29.021  1.00  0.00     0.074 A 
ATOM     26  C   UNL A   1      43.695  29.639  29.598  1.00  0.00     0.031 C 
ATOM     27  C   UNL A   1      41.071  35.998  28.915  1.00  0.00     0.029 A 
ATOM     28  C   UNL A   1      42.435  35.844  28.423  1.00  0.00     0.049 A 
ATOM     29  H   UNL A   1      43.599  34.116  28.433  1.00  0.00     0.167 HD
ATOM     30  C   UNL A   1      45.856  30.282  28.579  1.00  0.00     0.031 A 
ATOM     31  C   UNL A   1      43.192  36.811  27.872  1.00  0.00     0.031 A 
ATOM     32  C   UNL A   1      46.753  31.250  28.016  1.00  0.00     0.049 A 
ATOM     33  C   UNL A   1      44.607  36.463  27.487  1.00  0.00     0.074 A 
ATOM     34  C   UNL A   1      48.054  31.079  27.583  1.00  0.00     0.029 A 
ATOM     35  N   UNL A   1      46.428  32.584  27.812  1.00  0.00    -0.354 N 
ATOM     36  N   UNL A   1      45.212  35.299  27.529  1.00  0.00    -0.248 NA
ATOM     37  C   UNL A   1      45.450  37.563  27.002  1.00  0.00     0.031 C 
ATOM     38  C   UNL A   1      48.533  32.324  27.163  1.00  0.00     0.029 A 
ATOM     39  C   UNL A   1      47.513  33.257  27.285  1.00  0.00     0.049 A 
ATOM     40  H   UNL A   1      45.554  32.990  28.013  1.00  0.00     0.167 HD
ATOM     41  C   UNL A   1      46.502  35.525  27.070  1.00  0.00     0.074 A 
ATOM     42  C   UNL A   1      46.582  36.931  26.726  1.00  0.00     0.031 C 
ATOM     43  C   UNL A   1      47.539  34.658  26.955  1.00  0.00     0.031 A 
BRANCH  30  44
ATOM     44  C   UNL A   1      46.324  28.870  28.777  1.00  0.00    -0.014 A 
ATOM     45  C   UNL A   1      46.971  28.464  29.954  1.00  0.00     0.009 A 
ATOM     46  C   UNL A   1      46.126  27.932  27.752  1.00  0.00     0.009 A 
ATOM     47  C   UNL A   1      47.433  27.152  30.088  1.00  0.00     0.001 A 
ATOM     48  C   UNL A   1      46.570  26.617  27.897  1.00  0.00     0.001 A 
ATOM     49  C   UNL A   1      47.230  26.230  29.061  1.00  0.00     0.000 A 
ENDBRANCH  30  44
BRANCH  31  50
ATOM     50  C   UNL A   1      42.680  38.203  27.744  1.00  0.00    -0.014 A 
ATOM     51  C   UNL A   1      41.988  38.621  26.597  1.00  0.00     0.009 A 
ATOM     52  C   UNL A   1      42.924  39.144  28.759  1.00  0.00     0.009 A 
ATOM     53  C   UNL A   1      41.582  39.952  26.457  1.00  0.00     0.001 A 
ATOM     54  C   UNL A   1      42.487  40.464  28.634  1.00  0.00     0.001 A 
ATOM     55  C   UNL A   1      41.829  40.872  27.476  1.00  0.00     0.000 A 
ENDBRANCH  31  50
BRANCH  43  56
ATOM     56  C   UNL A   1      48.825  35.212  26.418  1.00  0.00    -0.014 A 
ATOM     57  C   UNL A   1      49.056  35.290  25.037  1.00  0.00     0.009 A 
ATOM     58  C   UNL A   1      49.789  35.710  27.307  1.00  0.00     0.009 A 
ATOM     59  C   UNL A   1      50.245  35.835  24.555  1.00  0.00     0.001 A 
ATOM     60  C   UNL A   1      50.964  36.281  26.821  1.00  0.00     0.001 A 
ATOM     61  C   UNL A   1      51.194  36.336  25.447  1.00  0.00     0.000 A 
ENDBRANCH  43  56
ENDBRANCH  17  18
ENDBRANCH  10  12
ENDBRANCH   9  10
ENDBRANCH   8   9
ENDBRANCH   7   8
ENDBRANCH   6   7
ENDBRANCH   5   6
ENDBRANCH   4   5
ENDBRANCH   3   4
ENDBRANCH   2   3
ENDBRANCH   1   2
BRANCH   1  62
ATOM     62  O   UNL A   1      33.255  28.179  25.923  1.00  0.00    -0.376 OA
BRANCH  62  63
ATOM     63  C   UNL A   1      34.227  28.512  24.938  1.00  0.00     0.202 C 
BRANCH  63  64
ATOM     64  C   UNL A   1      33.609  28.965  23.613  1.00  0.00     0.261 C 
BRANCH  64  65
ATOM     65  O   UNL A   1      32.629  28.065  23.056  1.00  0.00    -0.459 OA
BRANCH  65  66
ATOM     66  C   UNL A   1      33.031  26.932  22.421  1.00  0.00     0.348 C 
ATOM     67  O   UNL A   1      33.642  26.907  21.361  1.00  0.00    -0.245 OA
BRANCH  66  68
ATOM     68  C   UNL A   1      32.671  25.787  23.246  1.00  0.00     0.117 A 
ATOM     69  S   UNL A   1      33.588  24.361  23.013  1.00  0.00    -0.128 S 
ATOM     70  C   UNL A   1      31.659  25.612  24.192  1.00  0.00    -0.005 A 
ATOM     71  C   UNL A   1      32.604  23.439  24.067  1.00  0.00     0.035 A 
ATOM     72  C   UNL A   1      31.594  24.217  24.633  1.00  0.00    -0.003 A 
ATOM     73  C   UNL A   1      32.737  22.066  24.358  1.00  0.00     0.019 A 
ATOM     74  C   UNL A   1      30.678  23.557  25.499  1.00  0.00     0.010 A 
ATOM     75  C   UNL A   1      31.837  21.462  25.236  1.00  0.00     0.001 A 
ATOM     76  C   UNL A   1      30.812  22.199  25.802  1.00  0.00     0.001 A 
BRANCH  70  77
ATOM     77  C   UNL A   1      30.631  26.618  24.641  1.00  0.00     0.107 C 
BRANCH  77  78
ATOM     78  S   UNL A   1      29.377  27.109  23.444  1.00  0.00    -0.154 SA
BRANCH  78  79
ATOM     79  C   UNL A   1      29.509  28.924  23.472  1.00  0.00     0.104 C 
BRANCH  79  80
ATOM     80  C   UNL A   1      29.380  29.629  22.113  1.00  0.00     0.149 C 
BRANCH  80  81
ATOM     81  C   UNL A   1      28.641  30.969  22.161  1.00  0.00     0.188 C 
BRANCH  81  82
ATOM     82  O   UNL A   1      28.861  31.694  20.952  1.00  0.00    -0.394 OA
ATOM     83  H   UNL A   1      29.037  32.624  21.160  1.00  0.00     0.210 HD
ENDBRANCH  81  82
ENDBRANCH  80  81
BRANCH  80  84
ATOM     84  O   UNL A   1      30.698  29.903  21.593  1.00  0.00    -0.390 OA
ATOM     85  H   UNL A   1      31.339  29.905  22.321  1.00  0.00     0.211 HD
ENDBRANCH  80  84
ENDBRANCH  79  80
ENDBRANCH  78  79
ENDBRANCH  77  78
ENDBRANCH  70  77
ENDBRANCH  66  68
ENDBRANCH  65  66
ENDBRANCH  64  65
ENDBRANCH  63  64
ENDBRANCH  62  63
ENDBRANCH   1  62
TORSDOF 27
ENDMDL
