MODEL 1
REMARK VINA RESULT:      -9.8      0.000      0.000
REMARK SMILES O=C(OCCOCCOCCOCCOC(=O)[C@@H]1CN(C(=O)CCC(F)(F)F)C[C@H]1c1ccc2c(c1)OCO2)c1ccc(-c2c3nc(c(-c4ccccc4)c4ccc([nH]4)c(-c4ccccc4)c4nc(c(-c5ccccc5)c5ccc2[nH]5)C=C4)C=C3)cc1
REMARK SMILES IDX 10 1 9 2 8 3 7 4 6 5 5 6 4 7 3 8 2 9 1 10 40 11 41 12 87 13
REMARK SMILES IDX 42 14 86 15 43 16 44 17 45 18 80 19 46 20 85 21 79 22 81 23
REMARK SMILES IDX 47 24 84 25 78 26 77 27 48 29 70 30 55 31 69 32 56 33 59 34
REMARK SMILES IDX 68 35 82 36 57 37 58 38 67 40 83 41 60 42 49 43 50 44 54 45
REMARK SMILES IDX 51 46 53 47 52 48 71 49 72 50 76 51 73 52 75 53 74 54 61 55
REMARK SMILES IDX 62 56 66 57 63 58 65 59 64 60 11 61 12 62 13 63 14 64 15 65
REMARK SMILES IDX 16 66 17 67 18 68 19 69 30 70 20 71 29 72 31 73 32 74 36 75
REMARK SMILES IDX 33 76 35 77 34 78 37 79 39 80 38 81 21 82 22 83 23 84 24 85
REMARK SMILES IDX 25 86 26 87 27 88 28 89
REMARK H PARENT 81 28 59 39
REMARK Flexibility Score: inf
ROOT
ATOM      1  C   UNL A   1      34.361  34.484  28.327  1.00  0.00     0.188 C 
ENDROOT
BRANCH   1   2
ATOM      2  O   UNL A   1      33.644  35.536  28.965  1.00  0.00    -0.377 OA
BRANCH   2   3
ATOM      3  C   UNL A   1      33.174  35.292  30.285  1.00  0.00     0.188 C 
BRANCH   3   4
ATOM      4  C   UNL A   1      33.650  36.306  31.315  1.00  0.00     0.188 C 
BRANCH   4   5
ATOM      5  O   UNL A   1      34.329  35.603  32.340  1.00  0.00    -0.376 OA
BRANCH   5   6
ATOM      6  C   UNL A   1      34.993  34.392  32.021  1.00  0.00     0.202 C 
BRANCH   6   7
ATOM      7  C   UNL A   1      34.338  33.124  32.546  1.00  0.00     0.261 C 
BRANCH   7   8
ATOM      8  O   UNL A   1      35.231  32.031  32.831  1.00  0.00    -0.460 OA
BRANCH   8   9
ATOM      9  C   UNL A   1      36.534  32.004  33.187  1.00  0.00     0.338 C 
ATOM     10  O   UNL A   1      36.834  32.315  34.339  1.00  0.00    -0.246 OA
BRANCH   9  11
ATOM     11  C   UNL A   1      37.647  31.613  32.280  1.00  0.00     0.060 A 
ATOM     12  C   UNL A   1      37.888  32.175  31.033  1.00  0.00     0.016 A 
ATOM     13  C   UNL A   1      38.615  30.736  32.789  1.00  0.00     0.016 A 
ATOM     14  C   UNL A   1      38.972  31.833  30.256  1.00  0.00     0.010 A 
ATOM     15  C   UNL A   1      39.759  30.428  32.046  1.00  0.00     0.010 A 
ATOM     16  C   UNL A   1      39.924  30.971  30.766  1.00  0.00    -0.014 A 
BRANCH  16  17
ATOM     17  C   UNL A   1      41.005  30.575  29.858  1.00  0.00     0.031 A 
ATOM     18  C   UNL A   1      40.859  29.270  29.150  1.00  0.00     0.074 A 
ATOM     19  C   UNL A   1      41.985  31.450  29.565  1.00  0.00     0.049 A 
ATOM     20  N   UNL A   1      41.715  28.644  28.396  1.00  0.00    -0.248 NA
ATOM     21  C   UNL A   1      39.564  28.578  29.302  1.00  0.00     0.031 C 
ATOM     22  C   UNL A   1      42.080  32.825  30.075  1.00  0.00     0.029 A 
ATOM     23  N   UNL A   1      43.069  31.328  28.743  1.00  0.00    -0.354 N 
ATOM     24  C   UNL A   1      41.090  27.458  28.040  1.00  0.00     0.074 A 
ATOM     25  C   UNL A   1      39.773  27.457  28.631  1.00  0.00     0.031 C 
ATOM     26  C   UNL A   1      43.161  33.417  29.541  1.00  0.00     0.029 A 
ATOM     27  C   UNL A   1      43.881  32.437  28.742  1.00  0.00     0.049 A 
ATOM     28  H   UNL A   1      43.251  30.524  28.203  1.00  0.00     0.167 HD
ATOM     29  C   UNL A   1      41.603  26.450  27.303  1.00  0.00     0.031 A 
ATOM     30  C   UNL A   1      45.105  32.599  28.208  1.00  0.00     0.031 A 
ATOM     31  C   UNL A   1      42.919  26.503  26.733  1.00  0.00     0.049 A 
ATOM     32  C   UNL A   1      45.703  31.413  27.500  1.00  0.00     0.074 A 
ATOM     33  C   UNL A   1      43.594  25.535  26.018  1.00  0.00     0.029 A 
ATOM     34  N   UNL A   1      43.759  27.606  26.826  1.00  0.00    -0.354 N 
ATOM     35  N   UNL A   1      45.152  30.252  27.229  1.00  0.00    -0.248 NA
ATOM     36  C   UNL A   1      47.095  31.541  27.057  1.00  0.00     0.031 C 
ATOM     37  C   UNL A   1      44.868  26.032  25.728  1.00  0.00     0.029 A 
ATOM     38  C   UNL A   1      44.964  27.330  26.212  1.00  0.00     0.049 A 
ATOM     39  H   UNL A   1      43.529  28.457  27.263  1.00  0.00     0.167 HD
ATOM     40  C   UNL A   1      46.127  29.511  26.578  1.00  0.00     0.074 A 
ATOM     41  C   UNL A   1      47.291  30.371  26.466  1.00  0.00     0.031 C 
ATOM     42  C   UNL A   1      46.083  28.233  26.128  1.00  0.00     0.031 A 
BRANCH  29  43
ATOM     43  C   UNL A   1      40.790  25.197  27.189  1.00  0.00    -0.014 A 
ATOM     44  C   UNL A   1      41.161  24.006  27.831  1.00  0.00     0.009 A 
ATOM     45  C   UNL A   1      39.632  25.210  26.397  1.00  0.00     0.009 A 
ATOM     46  C   UNL A   1      40.398  22.847  27.661  1.00  0.00     0.001 A 
ATOM     47  C   UNL A   1      38.859  24.060  26.248  1.00  0.00     0.001 A 
ATOM     48  C   UNL A   1      39.246  22.877  26.874  1.00  0.00     0.000 A 
ENDBRANCH  29  43
BRANCH  30  49
ATOM     49  C   UNL A   1      45.886  33.847  28.434  1.00  0.00    -0.014 A 
ATOM     50  C   UNL A   1      45.743  34.958  27.593  1.00  0.00     0.009 A 
ATOM     51  C   UNL A   1      46.828  33.912  29.477  1.00  0.00     0.009 A 
ATOM     52  C   UNL A   1      46.549  36.088  27.764  1.00  0.00     0.001 A 
ATOM     53  C   UNL A   1      47.606  35.056  29.670  1.00  0.00     0.001 A 
ATOM     54  C   UNL A   1      47.478  36.137  28.803  1.00  0.00     0.000 A 
ENDBRANCH  30  49
BRANCH  42  55
ATOM     55  C   UNL A   1      47.320  27.717  25.459  1.00  0.00    -0.014 A 
ATOM     56  C   UNL A   1      48.322  27.073  26.198  1.00  0.00     0.009 A 
ATOM     57  C   UNL A   1      47.448  27.823  24.067  1.00  0.00     0.009 A 
ATOM     58  C   UNL A   1      49.447  26.562  25.552  1.00  0.00     0.001 A 
ATOM     59  C   UNL A   1      48.556  27.282  23.421  1.00  0.00     0.001 A 
ATOM     60  C   UNL A   1      49.559  26.660  24.165  1.00  0.00     0.000 A 
ENDBRANCH  42  55
ENDBRANCH  16  17
ENDBRANCH   9  11
ENDBRANCH   8   9
ENDBRANCH   7   8
ENDBRANCH   6   7
ENDBRANCH   5   6
ENDBRANCH   4   5
ENDBRANCH   3   4
ENDBRANCH   2   3
ENDBRANCH   1   2
BRANCH   1  61
ATOM     61  C   UNL A   1      33.603  33.221  27.891  1.00  0.00     0.188 C 
BRANCH  61  62
ATOM     62  O   UNL A   1      34.116  32.021  28.421  1.00  0.00    -0.376 OA
BRANCH  62  63
ATOM     63  C   UNL A   1      34.479  30.983  27.520  1.00  0.00     0.202 C 
BRANCH  63  64
ATOM     64  C   UNL A   1      33.883  29.549  27.527  1.00  0.00     0.261 C 
BRANCH  64  65
ATOM     65  O   UNL A   1      32.722  29.308  26.710  1.00  0.00    -0.463 OA
BRANCH  65  66
ATOM     66  C   UNL A   1      31.968  28.212  26.992  1.00  0.00     0.311 C 
ATOM     67  O   UNL A   1      31.295  28.098  27.996  1.00  0.00    -0.252 OA
BRANCH  66  68
ATOM     68  C   UNL A   1      31.956  27.163  25.878  1.00  0.00     0.128 C 
ATOM     69  C   UNL A   1      33.047  26.091  25.918  1.00  0.00     0.135 C 
ATOM     70  C   UNL A   1      32.047  27.786  24.464  1.00  0.00     0.055 C 
ATOM     71  N   UNL A   1      33.371  25.797  24.521  1.00  0.00    -0.341 N 
ATOM     72  C   UNL A   1      32.658  26.673  23.604  1.00  0.00     0.128 C 
BRANCH  70  73
ATOM     73  C   UNL A   1      30.728  28.382  24.034  1.00  0.00    -0.038 A 
ATOM     74  C   UNL A   1      29.639  27.499  23.814  1.00  0.00     0.008 A 
ATOM     75  C   UNL A   1      30.587  29.736  23.712  1.00  0.00     0.054 A 
ATOM     76  C   UNL A   1      28.461  27.933  23.207  1.00  0.00     0.051 A 
ATOM     77  C   UNL A   1      29.415  30.134  23.109  1.00  0.00     0.166 A 
ATOM     78  C   UNL A   1      28.391  29.256  22.845  1.00  0.00     0.165 A 
ATOM     79  O   UNL A   1      29.154  31.389  22.657  1.00  0.00    -0.454 OA
ATOM     80  O   UNL A   1      27.367  29.844  22.174  1.00  0.00    -0.454 OA
ATOM     81  C   UNL A   1      27.910  31.164  21.965  1.00  0.00     0.468 C 
ENDBRANCH  70  73
BRANCH  71  82
ATOM     82  C   UNL A   1      34.216  24.834  24.018  1.00  0.00     0.222 C 
ATOM     83  O   UNL A   1      34.411  24.713  22.806  1.00  0.00    -0.275 OA
BRANCH  82  84
ATOM     84  C   UNL A   1      34.927  23.904  24.982  1.00  0.00     0.109 C 
BRANCH  84  85
ATOM     85  C   UNL A   1      35.326  22.602  24.291  1.00  0.00     0.125 C 
BRANCH  85  86
ATOM     86  C   UNL A   1      35.844  21.593  25.278  1.00  0.00     0.389 C 
ATOM     87  F   UNL A   1      37.020  21.082  24.858  1.00  0.00    -0.171 F 
ATOM     88  F   UNL A   1      36.063  22.168  26.482  1.00  0.00    -0.171 F 
ATOM     89  F   UNL A   1      34.976  20.581  25.470  1.00  0.00    -0.171 F 
ENDBRANCH  85  86
ENDBRANCH  84  85
ENDBRANCH  82  84
ENDBRANCH  71  82
ENDBRANCH  66  68
ENDBRANCH  65  66
ENDBRANCH  64  65
ENDBRANCH  63  64
ENDBRANCH  62  63
ENDBRANCH  61  62
ENDBRANCH   1  61
TORSDOF 25
ENDMDL
MODEL 2
REMARK VINA RESULT:      -9.7      3.761      9.778
REMARK SMILES O=C(OCCOCCOCCOCCOC(=O)[C@@H]1CN(C(=O)CCC(F)(F)F)C[C@H]1c1ccc2c(c1)OCO2)c1ccc(-c2c3nc(c(-c4ccccc4)c4ccc([nH]4)c(-c4ccccc4)c4nc(c(-c5ccccc5)c5ccc2[nH]5)C=C4)C=C3)cc1
REMARK SMILES IDX 10 1 9 2 8 3 7 4 6 5 5 6 4 7 3 8 2 9 1 10 40 11 41 12 87 13
REMARK SMILES IDX 42 14 86 15 43 16 44 17 45 18 80 19 46 20 85 21 79 22 81 23
REMARK SMILES IDX 47 24 84 25 78 26 77 27 48 29 70 30 55 31 69 32 56 33 59 34
REMARK SMILES IDX 68 35 82 36 57 37 58 38 67 40 83 41 60 42 49 43 50 44 54 45
REMARK SMILES IDX 51 46 53 47 52 48 71 49 72 50 76 51 73 52 75 53 74 54 61 55
REMARK SMILES IDX 62 56 66 57 63 58 65 59 64 60 11 61 12 62 13 63 14 64 15 65
REMARK SMILES IDX 16 66 17 67 18 68 19 69 30 70 20 71 29 72 31 73 32 74 36 75
REMARK SMILES IDX 33 76 35 77 34 78 37 79 39 80 38 81 21 82 22 83 23 84 24 85
REMARK SMILES IDX 25 86 26 87 27 88 28 89
REMARK H PARENT 81 28 59 39
REMARK Flexibility Score: inf
ROOT
ATOM      1  C   UNL A   1      32.574  19.349  23.784  1.00  0.00     0.188 C 
ENDROOT
BRANCH   1   2
ATOM      2  O   UNL A   1      32.912  18.132  24.441  1.00  0.00    -0.377 OA
BRANCH   2   3
ATOM      3  C   UNL A   1      34.287  17.911  24.729  1.00  0.00     0.188 C 
BRANCH   3   4
ATOM      4  C   UNL A   1      35.108  19.185  24.871  1.00  0.00     0.188 C 
BRANCH   4   5
ATOM      5  O   UNL A   1      36.418  18.915  24.404  1.00  0.00    -0.376 OA
BRANCH   5   6
ATOM      6  C   UNL A   1      37.517  19.547  25.036  1.00  0.00     0.202 C 
BRANCH   6   7
ATOM      7  C   UNL A   1      37.336  21.024  25.352  1.00  0.00     0.261 C 
BRANCH   7   8
ATOM      8  O   UNL A   1      38.545  21.803  25.418  1.00  0.00    -0.460 OA
BRANCH   8   9
ATOM      9  C   UNL A   1      39.429  22.007  26.419  1.00  0.00     0.338 C 
ATOM     10  O   UNL A   1      39.914  21.027  26.983  1.00  0.00    -0.246 OA
BRANCH   9  11
ATOM     11  C   UNL A   1      39.873  23.347  26.890  1.00  0.00     0.060 A 
ATOM     12  C   UNL A   1      40.610  23.577  28.045  1.00  0.00     0.016 A 
ATOM     13  C   UNL A   1      39.679  24.432  26.024  1.00  0.00     0.016 A 
ATOM     14  C   UNL A   1      41.062  24.826  28.408  1.00  0.00     0.010 A 
ATOM     15  C   UNL A   1      40.190  25.696  26.339  1.00  0.00     0.010 A 
ATOM     16  C   UNL A   1      40.870  25.890  27.547  1.00  0.00    -0.014 A 
BRANCH  16  17
ATOM     17  C   UNL A   1      41.292  27.208  28.028  1.00  0.00     0.031 A 
ATOM     18  C   UNL A   1      42.739  27.551  27.903  1.00  0.00     0.074 A 
ATOM     19  C   UNL A   1      40.366  28.112  28.400  1.00  0.00     0.049 A 
ATOM     20  N   UNL A   1      43.380  28.590  28.354  1.00  0.00    -0.248 NA
ATOM     21  C   UNL A   1      43.579  26.596  27.154  1.00  0.00     0.031 C 
ATOM     22  C   UNL A   1      38.911  27.907  28.358  1.00  0.00     0.029 A 
ATOM     23  N   UNL A   1      40.506  29.393  28.852  1.00  0.00    -0.354 N 
ATOM     24  C   UNL A   1      44.706  28.381  28.003  1.00  0.00     0.074 A 
ATOM     25  C   UNL A   1      44.781  27.137  27.278  1.00  0.00     0.031 C 
ATOM     26  C   UNL A   1      38.298  29.032  28.761  1.00  0.00     0.029 A 
ATOM     27  C   UNL A   1      39.311  29.989  29.180  1.00  0.00     0.049 A 
ATOM     28  H   UNL A   1      41.376  29.846  28.934  1.00  0.00     0.167 HD
ATOM     29  C   UNL A   1      45.764  29.165  28.301  1.00  0.00     0.031 A 
ATOM     30  C   UNL A   1      39.083  31.151  29.817  1.00  0.00     0.031 A 
ATOM     31  C   UNL A   1      45.634  30.398  29.023  1.00  0.00     0.049 A 
ATOM     32  C   UNL A   1      40.290  31.941  30.248  1.00  0.00     0.074 A 
ATOM     33  C   UNL A   1      46.622  31.262  29.448  1.00  0.00     0.029 A 
ATOM     34  N   UNL A   1      44.417  30.934  29.426  1.00  0.00    -0.354 N 
ATOM     35  N   UNL A   1      41.558  31.712  29.996  1.00  0.00    -0.248 NA
ATOM     36  C   UNL A   1      40.043  33.125  31.078  1.00  0.00     0.031 C 
ATOM     37  C   UNL A   1      46.004  32.294  30.162  1.00  0.00     0.029 A 
ATOM     38  C   UNL A   1      44.630  32.102  30.130  1.00  0.00     0.049 A 
ATOM     39  H   UNL A   1      43.535  30.540  29.237  1.00  0.00     0.167 HD
ATOM     40  C   UNL A   1      42.262  32.724  30.629  1.00  0.00     0.074 A 
ATOM     41  C   UNL A   1      41.274  33.588  31.248  1.00  0.00     0.031 C 
ATOM     42  C   UNL A   1      43.600  32.922  30.715  1.00  0.00     0.031 A 
BRANCH  29  43
ATOM     43  C   UNL A   1      47.125  28.644  27.951  1.00  0.00    -0.014 A 
ATOM     44  C   UNL A   1      47.734  28.918  26.717  1.00  0.00     0.009 A 
ATOM     45  C   UNL A   1      47.802  27.839  28.879  1.00  0.00     0.009 A 
ATOM     46  C   UNL A   1      48.986  28.375  26.414  1.00  0.00     0.001 A 
ATOM     47  C   UNL A   1      49.060  27.317  28.584  1.00  0.00     0.001 A 
ATOM     48  C   UNL A   1      49.649  27.580  27.349  1.00  0.00     0.000 A 
ENDBRANCH  29  43
BRANCH  30  49
ATOM     49  C   UNL A   1      37.704  31.561  30.204  1.00  0.00    -0.014 A 
ATOM     50  C   UNL A   1      37.125  31.126  31.404  1.00  0.00     0.009 A 
ATOM     51  C   UNL A   1      36.934  32.358  29.338  1.00  0.00     0.009 A 
ATOM     52  C   UNL A   1      35.798  31.446  31.710  1.00  0.00     0.001 A 
ATOM     53  C   UNL A   1      35.621  32.707  29.662  1.00  0.00     0.001 A 
ATOM     54  C   UNL A   1      35.048  32.236  30.840  1.00  0.00     0.000 A 
ENDBRANCH  30  49
BRANCH  42  55
ATOM     55  C   UNL A   1      44.050  34.127  31.484  1.00  0.00    -0.014 A 
ATOM     56  C   UNL A   1      44.117  35.386  30.871  1.00  0.00     0.009 A 
ATOM     57  C   UNL A   1      44.344  34.004  32.849  1.00  0.00     0.009 A 
ATOM     58  C   UNL A   1      44.498  36.503  31.614  1.00  0.00     0.001 A 
ATOM     59  C   UNL A   1      44.692  35.127  33.595  1.00  0.00     0.001 A 
ATOM     60  C   UNL A   1      44.777  36.374  32.975  1.00  0.00     0.000 A 
ENDBRANCH  42  55
ENDBRANCH  16  17
ENDBRANCH   9  11
ENDBRANCH   8   9
ENDBRANCH   7   8
ENDBRANCH   6   7
ENDBRANCH   5   6
ENDBRANCH   4   5
ENDBRANCH   3   4
ENDBRANCH   2   3
ENDBRANCH   1   2
BRANCH   1  61
ATOM     61  C   UNL A   1      32.158  20.564  24.628  1.00  0.00     0.188 C 
BRANCH  61  62
ATOM     62  O   UNL A   1      32.291  21.804  23.972  1.00  0.00    -0.376 OA
BRANCH  62  63
ATOM     63  C   UNL A   1      33.483  22.060  23.243  1.00  0.00     0.202 C 
BRANCH  63  64
ATOM     64  C   UNL A   1      33.766  23.347  22.421  1.00  0.00     0.261 C 
BRANCH  64  65
ATOM     65  O   UNL A   1      32.663  24.241  22.186  1.00  0.00    -0.463 OA
BRANCH  65  66
ATOM     66  C   UNL A   1      32.909  25.577  22.245  1.00  0.00     0.311 C 
ATOM     67  O   UNL A   1      33.579  26.175  21.428  1.00  0.00    -0.252 OA
BRANCH  66  68
ATOM     68  C   UNL A   1      32.179  26.292  23.384  1.00  0.00     0.128 C 
ATOM     69  C   UNL A   1      31.352  27.526  23.016  1.00  0.00     0.135 C 
ATOM     70  C   UNL A   1      33.133  26.760  24.510  1.00  0.00     0.055 C 
ATOM     71  N   UNL A   1      31.472  28.442  24.152  1.00  0.00    -0.341 N 
ATOM     72  C   UNL A   1      32.395  27.939  25.158  1.00  0.00     0.128 C 
BRANCH  70  73
ATOM     73  C   UNL A   1      33.558  25.609  25.391  1.00  0.00    -0.038 A 
ATOM     74  C   UNL A   1      34.876  25.105  25.238  1.00  0.00     0.008 A 
ATOM     75  C   UNL A   1      32.664  24.943  26.237  1.00  0.00     0.054 A 
ATOM     76  C   UNL A   1      35.276  23.915  25.844  1.00  0.00     0.051 A 
ATOM     77  C   UNL A   1      33.086  23.768  26.818  1.00  0.00     0.166 A 
ATOM     78  C   UNL A   1      34.345  23.258  26.612  1.00  0.00     0.165 A 
ATOM     79  O   UNL A   1      32.315  22.958  27.592  1.00  0.00    -0.454 OA
ATOM     80  O   UNL A   1      34.518  22.052  27.212  1.00  0.00    -0.454 OA
ATOM     81  C   UNL A   1      33.193  21.824  27.735  1.00  0.00     0.468 C 
ENDBRANCH  70  73
BRANCH  71  82
ATOM     82  C   UNL A   1      30.835  29.644  24.359  1.00  0.00     0.222 C 
ATOM     83  O   UNL A   1      31.291  30.494  25.128  1.00  0.00    -0.275 OA
BRANCH  82  84
ATOM     84  C   UNL A   1      29.544  29.929  23.616  1.00  0.00     0.109 C 
BRANCH  84  85
ATOM     85  C   UNL A   1      29.109  31.379  23.815  1.00  0.00     0.125 C 
BRANCH  85  86
ATOM     86  C   UNL A   1      27.840  31.679  23.066  1.00  0.00     0.389 C 
ATOM     87  F   UNL A   1      27.547  30.675  22.214  1.00  0.00    -0.171 F 
ATOM     88  F   UNL A   1      26.797  31.800  23.919  1.00  0.00    -0.171 F 
ATOM     89  F   UNL A   1      27.922  32.828  22.369  1.00  0.00    -0.171 F 
ENDBRANCH  85  86
ENDBRANCH  84  85
ENDBRANCH  82  84
ENDBRANCH  71  82
ENDBRANCH  66  68
ENDBRANCH  65  66
ENDBRANCH  64  65
ENDBRANCH  63  64
ENDBRANCH  62  63
ENDBRANCH  61  62
ENDBRANCH   1  61
TORSDOF 25
ENDMDL
MODEL 3
REMARK VINA RESULT:      -9.6      2.830      4.584
REMARK SMILES O=C(OCCOCCOCCOCCOC(=O)[C@@H]1CN(C(=O)CCC(F)(F)F)C[C@H]1c1ccc2c(c1)OCO2)c1ccc(-c2c3nc(c(-c4ccccc4)c4ccc([nH]4)c(-c4ccccc4)c4nc(c(-c5ccccc5)c5ccc2[nH]5)C=C4)C=C3)cc1
REMARK SMILES IDX 10 1 9 2 8 3 7 4 6 5 5 6 4 7 3 8 2 9 1 10 40 11 41 12 87 13
REMARK SMILES IDX 42 14 86 15 43 16 44 17 45 18 80 19 46 20 85 21 79 22 81 23
REMARK SMILES IDX 47 24 84 25 78 26 77 27 48 29 70 30 55 31 69 32 56 33 59 34
REMARK SMILES IDX 68 35 82 36 57 37 58 38 67 40 83 41 60 42 49 43 50 44 54 45
REMARK SMILES IDX 51 46 53 47 52 48 71 49 72 50 76 51 73 52 75 53 74 54 61 55
REMARK SMILES IDX 62 56 66 57 63 58 65 59 64 60 11 61 12 62 13 63 14 64 15 65
REMARK SMILES IDX 16 66 17 67 18 68 19 69 30 70 20 71 29 72 31 73 32 74 36 75
REMARK SMILES IDX 33 76 35 77 34 78 37 79 39 80 38 81 21 82 22 83 23 84 24 85
REMARK SMILES IDX 25 86 26 87 27 88 28 89
REMARK H PARENT 81 28 59 39
REMARK Flexibility Score: inf
ROOT
ATOM      1  C   UNL A   1      34.494  34.205  30.315  1.00  0.00     0.188 C 
ENDROOT
BRANCH   1   2
ATOM      2  O   UNL A   1      33.378  34.989  30.722  1.00  0.00    -0.377 OA
BRANCH   2   3
ATOM      3  C   UNL A   1      33.300  35.341  32.098  1.00  0.00     0.188 C 
BRANCH   3   4
ATOM      4  C   UNL A   1      34.375  36.317  32.556  1.00  0.00     0.188 C 
BRANCH   4   5
ATOM      5  O   UNL A   1      35.299  35.604  33.358  1.00  0.00    -0.376 OA
BRANCH   5   6
ATOM      6  C   UNL A   1      34.881  34.407  33.991  1.00  0.00     0.202 C 
BRANCH   6   7
ATOM      7  C   UNL A   1      35.923  33.727  34.867  1.00  0.00     0.261 C 
BRANCH   7   8
ATOM      8  O   UNL A   1      36.788  32.791  34.198  1.00  0.00    -0.460 OA
BRANCH   8   9
ATOM      9  C   UNL A   1      36.629  32.071  33.066  1.00  0.00     0.338 C 
ATOM     10  O   UNL A   1      35.490  31.749  32.730  1.00  0.00    -0.246 OA
BRANCH   9  11
ATOM     11  C   UNL A   1      37.743  31.642  32.178  1.00  0.00     0.060 A 
ATOM     12  C   UNL A   1      37.907  32.047  30.859  1.00  0.00     0.016 A 
ATOM     13  C   UNL A   1      38.788  30.911  32.761  1.00  0.00     0.016 A 
ATOM     14  C   UNL A   1      38.992  31.681  30.094  1.00  0.00     0.010 A 
ATOM     15  C   UNL A   1      39.931  30.588  32.023  1.00  0.00     0.010 A 
ATOM     16  C   UNL A   1      40.019  30.965  30.677  1.00  0.00    -0.014 A 
BRANCH  16  17
ATOM     17  C   UNL A   1      41.101  30.528  29.790  1.00  0.00     0.031 A 
ATOM     18  C   UNL A   1      40.919  29.229  29.078  1.00  0.00     0.074 A 
ATOM     19  C   UNL A   1      42.120  31.365  29.517  1.00  0.00     0.049 A 
ATOM     20  N   UNL A   1      41.766  28.571  28.340  1.00  0.00    -0.248 NA
ATOM     21  C   UNL A   1      39.596  28.588  29.205  1.00  0.00     0.031 C 
ATOM     22  C   UNL A   1      42.257  32.736  30.029  1.00  0.00     0.029 A 
ATOM     23  N   UNL A   1      43.213  31.202  28.715  1.00  0.00    -0.354 N 
ATOM     24  C   UNL A   1      41.102  27.410  27.971  1.00  0.00     0.074 A 
ATOM     25  C   UNL A   1      39.776  27.460  28.537  1.00  0.00     0.031 C 
ATOM     26  C   UNL A   1      43.370  33.286  29.517  1.00  0.00     0.029 A 
ATOM     27  C   UNL A   1      44.068  32.279  28.731  1.00  0.00     0.049 A 
ATOM     28  H   UNL A   1      43.375  30.392  28.178  1.00  0.00     0.167 HD
ATOM     29  C   UNL A   1      41.591  26.384  27.243  1.00  0.00     0.031 A 
ATOM     30  C   UNL A   1      45.306  32.394  28.221  1.00  0.00     0.031 A 
ATOM     31  C   UNL A   1      42.919  26.387  26.699  1.00  0.00     0.049 A 
ATOM     32  C   UNL A   1      45.872  31.186  27.523  1.00  0.00     0.074 A 
ATOM     33  C   UNL A   1      43.569  25.394  25.995  1.00  0.00     0.029 A 
ATOM     34  N   UNL A   1      43.798  27.456  26.808  1.00  0.00    -0.354 N 
ATOM     35  N   UNL A   1      45.283  30.047  27.240  1.00  0.00    -0.248 NA
ATOM     36  C   UNL A   1      47.276  31.261  27.107  1.00  0.00     0.031 C 
ATOM     37  C   UNL A   1      44.867  25.842  25.731  1.00  0.00     0.029 A 
ATOM     38  C   UNL A   1      45.003  27.135  26.217  1.00  0.00     0.049 A 
ATOM     39  H   UNL A   1      43.592  28.316  27.242  1.00  0.00     0.167 HD
ATOM     40  C   UNL A   1      46.241  29.270  26.608  1.00  0.00     0.074 A 
ATOM     41  C   UNL A   1      47.439  30.084  26.518  1.00  0.00     0.031 C 
ATOM     42  C   UNL A   1      46.157  27.995  26.155  1.00  0.00     0.031 A 
BRANCH  29  43
ATOM     43  C   UNL A   1      40.733  25.163  27.113  1.00  0.00    -0.014 A 
ATOM     44  C   UNL A   1      39.471  25.199  26.501  1.00  0.00     0.009 A 
ATOM     45  C   UNL A   1      41.198  23.949  27.641  1.00  0.00     0.009 A 
ATOM     46  C   UNL A   1      38.684  24.045  26.441  1.00  0.00     0.001 A 
ATOM     47  C   UNL A   1      40.421  22.793  27.560  1.00  0.00     0.001 A 
ATOM     48  C   UNL A   1      39.162  22.844  26.966  1.00  0.00     0.000 A 
ENDBRANCH  29  43
BRANCH  30  49
ATOM     49  C   UNL A   1      46.130  33.611  28.463  1.00  0.00    -0.014 A 
ATOM     50  C   UNL A   1      46.306  34.581  27.467  1.00  0.00     0.009 A 
ATOM     51  C   UNL A   1      46.794  33.784  29.692  1.00  0.00     0.009 A 
ATOM     52  C   UNL A   1      47.156  35.672  27.680  1.00  0.00     0.001 A 
ATOM     53  C   UNL A   1      47.612  34.893  29.915  1.00  0.00     0.001 A 
ATOM     54  C   UNL A   1      47.807  35.828  28.903  1.00  0.00     0.000 A 
ENDBRANCH  30  49
BRANCH  42  55
ATOM     55  C   UNL A   1      47.386  27.432  25.510  1.00  0.00    -0.014 A 
ATOM     56  C   UNL A   1      48.367  26.784  26.274  1.00  0.00     0.009 A 
ATOM     57  C   UNL A   1      47.526  27.497  24.116  1.00  0.00     0.009 A 
ATOM     58  C   UNL A   1      49.484  26.230  25.650  1.00  0.00     0.001 A 
ATOM     59  C   UNL A   1      48.626  26.914  23.494  1.00  0.00     0.001 A 
ATOM     60  C   UNL A   1      49.608  26.289  24.262  1.00  0.00     0.000 A 
ENDBRANCH  42  55
ENDBRANCH  16  17
ENDBRANCH   9  11
ENDBRANCH   8   9
ENDBRANCH   7   8
ENDBRANCH   6   7
ENDBRANCH   5   6
ENDBRANCH   4   5
ENDBRANCH   3   4
ENDBRANCH   2   3
ENDBRANCH   1   2
BRANCH   1  61
ATOM     61  C   UNL A   1      34.319  33.191  29.173  1.00  0.00     0.188 C 
BRANCH  61  62
ATOM     62  O   UNL A   1      35.515  32.841  28.516  1.00  0.00    -0.376 OA
BRANCH  62  63
ATOM     63  C   UNL A   1      35.513  31.701  27.669  1.00  0.00     0.202 C 
BRANCH  63  64
ATOM     64  C   UNL A   1      34.922  30.314  28.042  1.00  0.00     0.261 C 
BRANCH  64  65
ATOM     65  O   UNL A   1      34.689  29.380  26.972  1.00  0.00    -0.463 OA
BRANCH  65  66
ATOM     66  C   UNL A   1      33.528  28.673  26.991  1.00  0.00     0.311 C 
ATOM     67  O   UNL A   1      32.879  28.472  27.997  1.00  0.00    -0.252 OA
BRANCH  66  68
ATOM     68  C   UNL A   1      33.046  28.234  25.607  1.00  0.00     0.128 C 
ATOM     69  C   UNL A   1      32.239  29.249  24.794  1.00  0.00     0.135 C 
ATOM     70  C   UNL A   1      32.172  26.957  25.651  1.00  0.00     0.055 C 
ATOM     71  N   UNL A   1      31.258  28.468  24.040  1.00  0.00    -0.341 N 
ATOM     72  C   UNL A   1      31.302  27.056  24.392  1.00  0.00     0.128 C 
BRANCH  70  73
ATOM     73  C   UNL A   1      33.010  25.716  25.847  1.00  0.00    -0.038 A 
ATOM     74  C   UNL A   1      34.266  25.650  25.188  1.00  0.00     0.008 A 
ATOM     75  C   UNL A   1      32.535  24.591  26.529  1.00  0.00     0.054 A 
ATOM     76  C   UNL A   1      34.997  24.465  25.133  1.00  0.00     0.051 A 
ATOM     77  C   UNL A   1      33.277  23.434  26.453  1.00  0.00     0.166 A 
ATOM     78  C   UNL A   1      34.461  23.366  25.759  1.00  0.00     0.165 A 
ATOM     79  O   UNL A   1      32.913  22.236  26.982  1.00  0.00    -0.454 OA
ATOM     80  O   UNL A   1      34.980  22.111  25.746  1.00  0.00    -0.454 OA
ATOM     81  C   UNL A   1      33.937  21.385  26.429  1.00  0.00     0.468 C 
ENDBRANCH  70  73
BRANCH  71  82
ATOM     82  C   UNL A   1      30.363  28.899  23.087  1.00  0.00     0.222 C 
ATOM     83  O   UNL A   1      30.213  28.299  22.021  1.00  0.00    -0.275 OA
BRANCH  82  84
ATOM     84  C   UNL A   1      29.540  30.143  23.362  1.00  0.00     0.109 C 
BRANCH  84  85
ATOM     85  C   UNL A   1      28.726  30.542  22.133  1.00  0.00     0.125 C 
BRANCH  85  86
ATOM     86  C   UNL A   1      28.093  31.894  22.309  1.00  0.00     0.389 C 
ATOM     87  F   UNL A   1      27.633  32.357  21.128  1.00  0.00    -0.171 F 
ATOM     88  F   UNL A   1      27.037  31.823  23.151  1.00  0.00    -0.171 F 
ATOM     89  F   UNL A   1      28.953  32.794  22.822  1.00  0.00    -0.171 F 
ENDBRANCH  85  86
ENDBRANCH  84  85
ENDBRANCH  82  84
ENDBRANCH  71  82
ENDBRANCH  66  68
ENDBRANCH  65  66
ENDBRANCH  64  65
ENDBRANCH  63  64
ENDBRANCH  62  63
ENDBRANCH  61  62
ENDBRANCH   1  61
TORSDOF 25
ENDMDL
