MODEL 1
REMARK VINA RESULT:      -9.5      0.000      0.000
REMARK SMILES CC1=NN(c2ccc(Cl)c(C(=O)OCCOCCOCCOCCOC(=O)c3ccc(-c4c5nc(c(-c6ccccc6)c6ccc([nH]6)c(-c6ccccc6)c6nc(c(-c7ccccc7)c7ccc4[nH]7)C=C6)C=C5)cc3)c2)C(=O)/C1=C\c1ccc(N(C)C)c(Br)c1
REMARK SMILES IDX 18 1 17 2 16 3 15 4 14 5 13 6 11 7 12 8 10 9 5 10 6 11 76 12
REMARK SMILES IDX 7 13 8 14 9 15 4 16 1 17 2 18 3 19 79 20 77 21 80 22 78 23
REMARK SMILES IDX 81 24 82 25 90 26 83 27 88 28 84 29 89 30 85 31 86 32 87 33
REMARK SMILES IDX 19 34 20 35 21 36 22 37 23 38 24 39 25 40 26 41 27 42 28 43
REMARK SMILES IDX 29 44 75 45 30 46 74 47 31 48 32 49 33 50 68 51 34 52 73 53
REMARK SMILES IDX 67 54 69 55 35 56 72 57 66 58 65 59 36 61 58 62 43 63 57 64
REMARK SMILES IDX 44 65 47 66 56 67 70 68 45 69 46 70 55 72 71 73 48 74 37 75
REMARK SMILES IDX 38 76 42 77 39 78 41 79 40 80 59 81 60 82 64 83 61 84 63 85
REMARK SMILES IDX 62 86 49 87 50 88 54 89 51 90 53 91 52 92
REMARK H PARENT 69 60 47 71
REMARK Flexibility Score: inf
ROOT
ATOM      1  C   UNL A   1      40.155  23.020  26.800  1.00  0.00     0.188 C 
ENDROOT
BRANCH   1   2
ATOM      2  C   UNL A   1      39.351  24.249  27.282  1.00  0.00     0.188 C 
BRANCH   2   3
ATOM      3  O   UNL A   1      40.025  25.484  27.105  1.00  0.00    -0.376 OA
BRANCH   3   4
ATOM      4  C   UNL A   1      40.486  26.184  28.245  1.00  0.00     0.202 C 
BRANCH   4   5
ATOM      5  C   UNL A   1      40.149  27.674  28.387  1.00  0.00     0.261 C 
BRANCH   5   6
ATOM      6  O   UNL A   1      38.754  27.986  28.384  1.00  0.00    -0.460 OA
BRANCH   6   7
ATOM      7  C   UNL A   1      38.227  28.505  29.511  1.00  0.00     0.339 C 
ATOM      8  O   UNL A   1      38.422  28.119  30.650  1.00  0.00    -0.246 OA
BRANCH   7   9
ATOM      9  C   UNL A   1      37.555  29.776  29.167  1.00  0.00     0.080 A 
ATOM     10  C   UNL A   1      35.567  30.847  28.286  1.00  0.00     0.070 A 
ATOM     11  C   UNL A   1      36.187  32.092  28.424  1.00  0.00     0.030 A 
ATOM     12  C   UNL A   1      36.241  29.688  28.672  1.00  0.00     0.045 A 
ATOM     13  C   UNL A   1      37.468  32.186  28.969  1.00  0.00     0.023 A 
ATOM     14  C   UNL A   1      38.165  31.028  29.328  1.00  0.00     0.055 A 
ATOM     15  Cl  UNL A   1      39.781  31.231  29.903  1.00  0.00    -0.083 Cl
BRANCH  10  16
ATOM     16  N   UNL A   1      34.354  30.755  27.596  1.00  0.00    -0.196 N 
ATOM     17  C   UNL A   1      31.258  32.226  26.505  1.00  0.00     0.069 C 
ATOM     18  C   UNL A   1      32.448  31.395  26.852  1.00  0.00     0.071 C 
ATOM     19  N   UNL A   1      33.428  31.785  27.634  1.00  0.00    -0.169 NA
ATOM     20  C   UNL A   1      32.644  30.016  26.360  1.00  0.00     0.065 C 
ATOM     21  C   UNL A   1      34.023  29.667  26.784  1.00  0.00     0.280 C 
ATOM     22  C   UNL A   1      31.734  29.205  25.806  1.00  0.00     0.024 C 
ATOM     23  O   UNL A   1      34.667  28.687  26.503  1.00  0.00    -0.267 OA
BRANCH  22  24
ATOM     24  C   UNL A   1      31.980  27.763  25.685  1.00  0.00    -0.024 A 
ATOM     25  C   UNL A   1      31.705  26.880  26.710  1.00  0.00     0.010 A 
ATOM     26  C   UNL A   1      32.440  27.244  24.476  1.00  0.00     0.026 A 
ATOM     27  C   UNL A   1      31.835  25.495  26.495  1.00  0.00     0.028 A 
ATOM     28  C   UNL A   1      32.571  25.854  24.259  1.00  0.00     0.041 A 
ATOM     29  C   UNL A   1      32.254  24.907  25.270  1.00  0.00     0.051 A 
ATOM     30  Br  UNL A   1      33.218  25.484  22.496  1.00  0.00    -0.049 Br
BRANCH  29  31
ATOM     31  N   UNL A   1      32.324  23.516  25.161  1.00  0.00    -0.377 N 
ATOM     32  C   UNL A   1      33.584  22.777  25.051  1.00  0.00     0.143 C 
ATOM     33  C   UNL A   1      31.175  22.641  25.380  1.00  0.00     0.143 C 
ENDBRANCH  29  31
ENDBRANCH  22  24
ENDBRANCH  10  16
ENDBRANCH   7   9
ENDBRANCH   6   7
ENDBRANCH   5   6
ENDBRANCH   4   5
ENDBRANCH   3   4
ENDBRANCH   2   3
ENDBRANCH   1   2
BRANCH   1  34
ATOM     34  O   UNL A   1      41.450  22.770  27.329  1.00  0.00    -0.377 OA
BRANCH  34  35
ATOM     35  C   UNL A   1      42.604  23.180  26.603  1.00  0.00     0.188 C 
BRANCH  35  36
ATOM     36  C   UNL A   1      43.369  22.192  25.691  1.00  0.00     0.188 C 
BRANCH  36  37
ATOM     37  O   UNL A   1      43.414  22.560  24.323  1.00  0.00    -0.376 OA
BRANCH  37  38
ATOM     38  C   UNL A   1      44.689  22.755  23.738  1.00  0.00     0.202 C 
BRANCH  38  39
ATOM     39  C   UNL A   1      45.749  23.460  24.594  1.00  0.00     0.261 C 
BRANCH  39  40
ATOM     40  O   UNL A   1      45.526  24.853  24.858  1.00  0.00    -0.460 OA
BRANCH  40  41
ATOM     41  C   UNL A   1      46.544  25.554  25.401  1.00  0.00     0.338 C 
ATOM     42  O   UNL A   1      47.725  25.488  25.113  1.00  0.00    -0.246 OA
BRANCH  41  43
ATOM     43  C   UNL A   1      45.951  26.563  26.300  1.00  0.00     0.060 A 
ATOM     44  C   UNL A   1      46.785  27.297  27.155  1.00  0.00     0.016 A 
ATOM     45  C   UNL A   1      44.573  26.788  26.288  1.00  0.00     0.016 A 
ATOM     46  C   UNL A   1      46.234  28.237  28.028  1.00  0.00     0.010 A 
ATOM     47  C   UNL A   1      44.021  27.711  27.177  1.00  0.00     0.010 A 
ATOM     48  C   UNL A   1      44.845  28.413  28.075  1.00  0.00    -0.014 A 
BRANCH  48  49
ATOM     49  C   UNL A   1      44.232  29.161  29.198  1.00  0.00     0.031 A 
ATOM     50  C   UNL A   1      43.887  28.400  30.448  1.00  0.00     0.074 A 
ATOM     51  C   UNL A   1      43.992  30.482  29.121  1.00  0.00     0.049 A 
ATOM     52  N   UNL A   1      43.288  28.813  31.535  1.00  0.00    -0.248 NA
ATOM     53  C   UNL A   1      44.271  26.978  30.474  1.00  0.00     0.031 C 
ATOM     54  C   UNL A   1      44.329  31.342  27.989  1.00  0.00     0.029 A 
ATOM     55  N   UNL A   1      43.398  31.327  30.025  1.00  0.00    -0.354 N 
ATOM     56  C   UNL A   1      43.214  27.701  32.366  1.00  0.00     0.074 A 
ATOM     57  C   UNL A   1      43.800  26.590  31.648  1.00  0.00     0.031 C 
ATOM     58  C   UNL A   1      43.927  32.597  28.263  1.00  0.00     0.029 A 
ATOM     59  C   UNL A   1      43.272  32.617  29.570  1.00  0.00     0.049 A 
ATOM     60  H   UNL A   1      43.091  31.036  30.914  1.00  0.00     0.167 HD
ATOM     61  C   UNL A   1      42.709  27.611  33.618  1.00  0.00     0.031 A 
ATOM     62  C   UNL A   1      42.672  33.682  30.137  1.00  0.00     0.031 A 
ATOM     63  C   UNL A   1      42.106  28.709  34.325  1.00  0.00     0.049 A 
ATOM     64  C   UNL A   1      42.025  33.533  31.491  1.00  0.00     0.074 A 
ATOM     65  C   UNL A   1      41.565  28.722  35.598  1.00  0.00     0.029 A 
ATOM     66  N   UNL A   1      41.956  29.988  33.811  1.00  0.00    -0.354 N 
ATOM     67  N   UNL A   1      41.977  32.484  32.277  1.00  0.00    -0.248 NA
ATOM     68  C   UNL A   1      41.354  34.722  32.039  1.00  0.00     0.031 C 
ATOM     69  C   UNL A   1      41.033  29.994  35.831  1.00  0.00     0.029 A 
ATOM     70  C   UNL A   1      41.308  30.791  34.732  1.00  0.00     0.049 A 
ATOM     71  H   UNL A   1      42.267  30.281  32.924  1.00  0.00     0.167 HD
ATOM     72  C   UNL A   1      41.308  32.896  33.423  1.00  0.00     0.074 A 
ATOM     73  C   UNL A   1      40.978  34.294  33.236  1.00  0.00     0.031 C 
ATOM     74  C   UNL A   1      40.995  32.183  34.534  1.00  0.00     0.031 A 
BRANCH  61  75
ATOM     75  C   UNL A   1      42.753  26.266  34.287  1.00  0.00    -0.014 A 
ATOM     76  C   UNL A   1      41.648  25.763  34.994  1.00  0.00     0.009 A 
ATOM     77  C   UNL A   1      43.910  25.478  34.188  1.00  0.00     0.009 A 
ATOM     78  C   UNL A   1      41.716  24.515  35.617  1.00  0.00     0.001 A 
ATOM     79  C   UNL A   1      43.963  24.217  34.784  1.00  0.00     0.001 A 
ATOM     80  C   UNL A   1      42.869  23.741  35.506  1.00  0.00     0.000 A 
ENDBRANCH  61  75
BRANCH  62  81
ATOM     81  C   UNL A   1      42.626  34.988  29.424  1.00  0.00    -0.014 A 
ATOM     82  C   UNL A   1      43.595  35.973  29.669  1.00  0.00     0.009 A 
ATOM     83  C   UNL A   1      41.587  35.271  28.523  1.00  0.00     0.009 A 
ATOM     84  C   UNL A   1      43.506  37.223  29.053  1.00  0.00     0.001 A 
ATOM     85  C   UNL A   1      41.519  36.511  27.884  1.00  0.00     0.001 A 
ATOM     86  C   UNL A   1      42.472  37.490  28.158  1.00  0.00     0.000 A 
ENDBRANCH  62  81
BRANCH  74  87
ATOM     87  C   UNL A   1      40.312  32.914  35.659  1.00  0.00    -0.014 A 
ATOM     88  C   UNL A   1      38.914  32.978  35.755  1.00  0.00     0.009 A 
ATOM     89  C   UNL A   1      41.089  33.505  36.670  1.00  0.00     0.009 A 
ATOM     90  C   UNL A   1      38.309  33.650  36.820  1.00  0.00     0.001 A 
ATOM     91  C   UNL A   1      40.482  34.145  37.750  1.00  0.00     0.001 A 
ATOM     92  C   UNL A   1      39.093  34.227  37.819  1.00  0.00     0.000 A 
ENDBRANCH  74  87
ENDBRANCH  48  49
ENDBRANCH  41  43
ENDBRANCH  40  41
ENDBRANCH  39  40
ENDBRANCH  38  39
ENDBRANCH  37  38
ENDBRANCH  36  37
ENDBRANCH  35  36
ENDBRANCH  34  35
ENDBRANCH   1  34
TORSDOF 23
ENDMDL
MODEL 2
REMARK VINA RESULT:      -9.5      0.586      5.434
REMARK SMILES CC1=NN(c2ccc(Cl)c(C(=O)OCCOCCOCCOCCOC(=O)c3ccc(-c4c5nc(c(-c6ccccc6)c6ccc([nH]6)c(-c6ccccc6)c6nc(c(-c7ccccc7)c7ccc4[nH]7)C=C6)C=C5)cc3)c2)C(=O)/C1=C\c1ccc(N(C)C)c(Br)c1
REMARK SMILES IDX 18 1 17 2 16 3 15 4 14 5 13 6 11 7 12 8 10 9 5 10 6 11 76 12
REMARK SMILES IDX 7 13 8 14 9 15 4 16 1 17 2 18 3 19 79 20 77 21 80 22 78 23
REMARK SMILES IDX 81 24 82 25 90 26 83 27 88 28 84 29 89 30 85 31 86 32 87 33
REMARK SMILES IDX 19 34 20 35 21 36 22 37 23 38 24 39 25 40 26 41 27 42 28 43
REMARK SMILES IDX 29 44 75 45 30 46 74 47 31 48 32 49 33 50 68 51 34 52 73 53
REMARK SMILES IDX 67 54 69 55 35 56 72 57 66 58 65 59 36 61 58 62 43 63 57 64
REMARK SMILES IDX 44 65 47 66 56 67 70 68 45 69 46 70 55 72 71 73 48 74 37 75
REMARK SMILES IDX 38 76 42 77 39 78 41 79 40 80 59 81 60 82 64 83 61 84 63 85
REMARK SMILES IDX 62 86 49 87 50 88 54 89 51 90 53 91 52 92
REMARK H PARENT 69 60 47 71
REMARK Flexibility Score: inf
ROOT
ATOM      1  C   UNL A   1      40.322  23.762  26.393  1.00  0.00     0.188 C 
ENDROOT
BRANCH   1   2
ATOM      2  C   UNL A   1      39.659  25.092  26.823  1.00  0.00     0.188 C 
BRANCH   2   3
ATOM      3  O   UNL A   1      40.545  25.999  27.456  1.00  0.00    -0.376 OA
BRANCH   3   4
ATOM      4  C   UNL A   1      40.371  26.283  28.831  1.00  0.00     0.202 C 
BRANCH   4   5
ATOM      5  C   UNL A   1      40.101  27.730  29.261  1.00  0.00     0.261 C 
BRANCH   5   6
ATOM      6  O   UNL A   1      38.818  28.244  28.898  1.00  0.00    -0.460 OA
BRANCH   6   7
ATOM      7  C   UNL A   1      38.042  28.743  29.882  1.00  0.00     0.339 C 
ATOM      8  O   UNL A   1      38.001  28.364  31.039  1.00  0.00    -0.246 OA
BRANCH   7   9
ATOM      9  C   UNL A   1      37.416  29.989  29.391  1.00  0.00     0.080 A 
ATOM     10  C   UNL A   1      35.486  31.014  28.342  1.00  0.00     0.070 A 
ATOM     11  C   UNL A   1      36.134  32.252  28.379  1.00  0.00     0.030 A 
ATOM     12  C   UNL A   1      36.116  29.884  28.862  1.00  0.00     0.045 A 
ATOM     13  C   UNL A   1      37.398  32.369  28.956  1.00  0.00     0.023 A 
ATOM     14  C   UNL A   1      38.052  31.237  29.450  1.00  0.00     0.055 A 
ATOM     15  Cl  UNL A   1      39.655  31.458  30.059  1.00  0.00    -0.083 Cl
BRANCH  10  16
ATOM     16  N   UNL A   1      34.294  30.883  27.623  1.00  0.00    -0.196 N 
ATOM     17  C   UNL A   1      31.174  32.249  26.463  1.00  0.00     0.069 C 
ATOM     18  C   UNL A   1      32.385  31.459  26.835  1.00  0.00     0.071 C 
ATOM     19  N   UNL A   1      33.331  31.880  27.642  1.00  0.00    -0.169 NA
ATOM     20  C   UNL A   1      32.641  30.090  26.343  1.00  0.00     0.065 C 
ATOM     21  C   UNL A   1      34.021  29.787  26.799  1.00  0.00     0.280 C 
ATOM     22  C   UNL A   1      31.774  29.250  25.764  1.00  0.00     0.024 C 
ATOM     23  O   UNL A   1      34.706  28.832  26.529  1.00  0.00    -0.267 OA
BRANCH  22  24
ATOM     24  C   UNL A   1      32.073  27.818  25.643  1.00  0.00    -0.024 A 
ATOM     25  C   UNL A   1      31.816  26.923  26.662  1.00  0.00     0.010 A 
ATOM     26  C   UNL A   1      32.570  27.320  24.439  1.00  0.00     0.026 A 
ATOM     27  C   UNL A   1      31.999  25.544  26.445  1.00  0.00     0.028 A 
ATOM     28  C   UNL A   1      32.753  25.935  24.222  1.00  0.00     0.041 A 
ATOM     29  C   UNL A   1      32.456  24.975  25.225  1.00  0.00     0.051 A 
ATOM     30  Br  UNL A   1      33.440  25.594  22.467  1.00  0.00    -0.049 Br
BRANCH  29  31
ATOM     31  N   UNL A   1      32.579  23.587  25.114  1.00  0.00    -0.377 N 
ATOM     32  C   UNL A   1      33.731  22.835  25.616  1.00  0.00     0.143 C 
ATOM     33  C   UNL A   1      31.477  22.721  24.702  1.00  0.00     0.143 C 
ENDBRANCH  29  31
ENDBRANCH  22  24
ENDBRANCH  10  16
ENDBRANCH   7   9
ENDBRANCH   6   7
ENDBRANCH   5   6
ENDBRANCH   4   5
ENDBRANCH   3   4
ENDBRANCH   2   3
ENDBRANCH   1   2
BRANCH   1  34
ATOM     34  O   UNL A   1      41.381  23.217  27.169  1.00  0.00    -0.377 OA
BRANCH  34  35
ATOM     35  C   UNL A   1      42.711  23.226  26.659  1.00  0.00     0.188 C 
BRANCH  35  36
ATOM     36  C   UNL A   1      43.210  22.115  25.706  1.00  0.00     0.188 C 
BRANCH  36  37
ATOM     37  O   UNL A   1      43.405  22.527  24.364  1.00  0.00    -0.376 OA
BRANCH  37  38
ATOM     38  C   UNL A   1      44.733  22.557  23.873  1.00  0.00     0.202 C 
BRANCH  38  39
ATOM     39  C   UNL A   1      45.709  23.523  24.559  1.00  0.00     0.261 C 
BRANCH  39  40
ATOM     40  O   UNL A   1      45.276  24.887  24.670  1.00  0.00    -0.460 OA
BRANCH  40  41
ATOM     41  C   UNL A   1      46.224  25.825  24.875  1.00  0.00     0.338 C 
ATOM     42  O   UNL A   1      47.262  25.979  24.257  1.00  0.00    -0.246 OA
BRANCH  41  43
ATOM     43  C   UNL A   1      45.699  26.765  25.886  1.00  0.00     0.060 A 
ATOM     44  C   UNL A   1      46.558  27.261  26.876  1.00  0.00     0.016 A 
ATOM     45  C   UNL A   1      44.361  27.161  25.844  1.00  0.00     0.016 A 
ATOM     46  C   UNL A   1      46.069  28.131  27.852  1.00  0.00     0.010 A 
ATOM     47  C   UNL A   1      43.867  28.013  26.834  1.00  0.00     0.010 A 
ATOM     48  C   UNL A   1      44.710  28.472  27.861  1.00  0.00    -0.014 A 
BRANCH  48  49
ATOM     49  C   UNL A   1      44.120  29.127  29.053  1.00  0.00     0.031 A 
ATOM     50  C   UNL A   1      43.874  30.609  28.994  1.00  0.00     0.074 A 
ATOM     51  C   UNL A   1      43.802  28.430  30.158  1.00  0.00     0.049 A 
ATOM     52  N   UNL A   1      43.433  31.417  29.924  1.00  0.00    -0.248 NA
ATOM     53  C   UNL A   1      44.169  31.270  27.711  1.00  0.00     0.031 C 
ATOM     54  C   UNL A   1      43.939  26.984  30.320  1.00  0.00     0.029 A 
ATOM     55  N   UNL A   1      43.298  28.861  31.360  1.00  0.00    -0.354 N 
ATOM     56  C   UNL A   1      43.407  32.678  29.341  1.00  0.00     0.074 A 
ATOM     57  C   UNL A   1      43.906  32.536  27.991  1.00  0.00     0.031 C 
ATOM     58  C   UNL A   1      43.536  26.647  31.559  1.00  0.00     0.029 A 
ATOM     59  C   UNL A   1      43.151  27.856  32.286  1.00  0.00     0.049 A 
ATOM     60  H   UNL A   1      43.064  29.800  31.541  1.00  0.00     0.167 HD
ATOM     61  C   UNL A   1      42.999  33.852  29.878  1.00  0.00     0.031 A 
ATOM     62  C   UNL A   1      42.774  27.916  33.578  1.00  0.00     0.031 A 
ATOM     63  C   UNL A   1      42.523  33.998  31.227  1.00  0.00     0.049 A 
ATOM     64  C   UNL A   1      42.422  29.251  34.185  1.00  0.00     0.074 A 
ATOM     65  C   UNL A   1      42.085  35.144  31.867  1.00  0.00     0.029 A 
ATOM     66  N   UNL A   1      42.434  32.965  32.147  1.00  0.00    -0.354 N 
ATOM     67  N   UNL A   1      42.382  30.434  33.621  1.00  0.00    -0.248 NA
ATOM     68  C   UNL A   1      42.054  29.253  35.609  1.00  0.00     0.031 C 
ATOM     69  C   UNL A   1      41.789  34.815  33.193  1.00  0.00     0.029 A 
ATOM     70  C   UNL A   1      41.973  33.451  33.357  1.00  0.00     0.049 A 
ATOM     71  H   UNL A   1      42.663  32.025  31.965  1.00  0.00     0.167 HD
ATOM     72  C   UNL A   1      41.950  31.312  34.609  1.00  0.00     0.074 A 
ATOM     73  C   UNL A   1      41.729  30.524  35.803  1.00  0.00     0.031 C 
ATOM     74  C   UNL A   1      41.750  32.652  34.534  1.00  0.00     0.031 A 
BRANCH  61  75
ATOM     75  C   UNL A   1      43.090  35.077  29.012  1.00  0.00    -0.014 A 
ATOM     76  C   UNL A   1      41.989  35.529  28.266  1.00  0.00     0.009 A 
ATOM     77  C   UNL A   1      44.289  35.805  28.960  1.00  0.00     0.009 A 
ATOM     78  C   UNL A   1      42.100  36.664  27.459  1.00  0.00     0.001 A 
ATOM     79  C   UNL A   1      44.387  36.957  28.179  1.00  0.00     0.001 A 
ATOM     80  C   UNL A   1      43.295  37.379  27.422  1.00  0.00     0.000 A 
ENDBRANCH  61  75
BRANCH  62  81
ATOM     81  C   UNL A   1      42.729  26.680  34.406  1.00  0.00    -0.014 A 
ATOM     82  C   UNL A   1      41.508  26.187  34.892  1.00  0.00     0.009 A 
ATOM     83  C   UNL A   1      43.914  26.009  34.750  1.00  0.00     0.009 A 
ATOM     84  C   UNL A   1      41.477  25.069  35.729  1.00  0.00     0.001 A 
ATOM     85  C   UNL A   1      43.876  24.872  35.560  1.00  0.00     0.001 A 
ATOM     86  C   UNL A   1      42.660  24.410  36.059  1.00  0.00     0.000 A 
ENDBRANCH  62  81
BRANCH  74  87
ATOM     87  C   UNL A   1      41.213  33.344  35.758  1.00  0.00    -0.014 A 
ATOM     88  C   UNL A   1      42.066  33.926  36.708  1.00  0.00     0.009 A 
ATOM     89  C   UNL A   1      39.824  33.458  35.933  1.00  0.00     0.009 A 
ATOM     90  C   UNL A   1      41.538  34.575  37.827  1.00  0.00     0.001 A 
ATOM     91  C   UNL A   1      39.299  34.137  37.033  1.00  0.00     0.001 A 
ATOM     92  C   UNL A   1      40.156  34.686  37.984  1.00  0.00     0.000 A 
ENDBRANCH  74  87
ENDBRANCH  48  49
ENDBRANCH  41  43
ENDBRANCH  40  41
ENDBRANCH  39  40
ENDBRANCH  38  39
ENDBRANCH  37  38
ENDBRANCH  36  37
ENDBRANCH  35  36
ENDBRANCH  34  35
ENDBRANCH   1  34
TORSDOF 23
ENDMDL
MODEL 3
REMARK VINA RESULT:      -8.9      2.402      6.929
REMARK SMILES CC1=NN(c2ccc(Cl)c(C(=O)OCCOCCOCCOCCOC(=O)c3ccc(-c4c5nc(c(-c6ccccc6)c6ccc([nH]6)c(-c6ccccc6)c6nc(c(-c7ccccc7)c7ccc4[nH]7)C=C6)C=C5)cc3)c2)C(=O)/C1=C\c1ccc(N(C)C)c(Br)c1
REMARK SMILES IDX 18 1 17 2 16 3 15 4 14 5 13 6 11 7 12 8 10 9 5 10 6 11 76 12
REMARK SMILES IDX 7 13 8 14 9 15 4 16 1 17 2 18 3 19 79 20 77 21 80 22 78 23
REMARK SMILES IDX 81 24 82 25 90 26 83 27 88 28 84 29 89 30 85 31 86 32 87 33
REMARK SMILES IDX 19 34 20 35 21 36 22 37 23 38 24 39 25 40 26 41 27 42 28 43
REMARK SMILES IDX 29 44 75 45 30 46 74 47 31 48 32 49 33 50 68 51 34 52 73 53
REMARK SMILES IDX 67 54 69 55 35 56 72 57 66 58 65 59 36 61 58 62 43 63 57 64
REMARK SMILES IDX 44 65 47 66 56 67 70 68 45 69 46 70 55 72 71 73 48 74 37 75
REMARK SMILES IDX 38 76 42 77 39 78 41 79 40 80 59 81 60 82 64 83 61 84 63 85
REMARK SMILES IDX 62 86 49 87 50 88 54 89 51 90 53 91 52 92
REMARK H PARENT 69 60 47 71
REMARK Flexibility Score: inf
ROOT
ATOM      1  C   UNL A   1      39.748  23.622  27.375  1.00  0.00     0.188 C 
ENDROOT
BRANCH   1   2
ATOM      2  C   UNL A   1      38.370  24.080  26.844  1.00  0.00     0.188 C 
BRANCH   2   3
ATOM      3  O   UNL A   1      38.147  23.770  25.479  1.00  0.00    -0.376 OA
BRANCH   3   4
ATOM      4  C   UNL A   1      36.858  23.353  25.071  1.00  0.00     0.202 C 
BRANCH   4   5
ATOM      5  C   UNL A   1      35.658  24.265  25.358  1.00  0.00     0.261 C 
BRANCH   5   6
ATOM      6  O   UNL A   1      34.436  23.880  24.722  1.00  0.00    -0.460 OA
BRANCH   6   7
ATOM      7  C   UNL A   1      33.991  24.647  23.706  1.00  0.00     0.339 C 
ATOM      8  O   UNL A   1      34.339  24.581  22.540  1.00  0.00    -0.246 OA
BRANCH   7   9
ATOM      9  C   UNL A   1      32.831  25.427  24.186  1.00  0.00     0.080 A 
ATOM     10  C   UNL A   1      32.046  27.501  25.165  1.00  0.00     0.070 A 
ATOM     11  C   UNL A   1      30.744  26.993  25.175  1.00  0.00     0.030 A 
ATOM     12  C   UNL A   1      33.090  26.728  24.655  1.00  0.00     0.045 A 
ATOM     13  C   UNL A   1      30.477  25.726  24.657  1.00  0.00     0.023 A 
ATOM     14  C   UNL A   1      31.521  24.930  24.175  1.00  0.00     0.055 A 
ATOM     15  Cl  UNL A   1      31.113  23.338  23.642  1.00  0.00    -0.083 Cl
BRANCH  10  16
ATOM     16  N   UNL A   1      32.321  28.701  25.828  1.00  0.00    -0.196 N 
ATOM     17  C   UNL A   1      31.526  32.137  26.537  1.00  0.00     0.069 C 
ATOM     18  C   UNL A   1      32.071  30.756  26.387  1.00  0.00     0.071 C 
ATOM     19  N   UNL A   1      31.589  29.848  25.570  1.00  0.00    -0.169 NA
ATOM     20  C   UNL A   1      33.242  30.261  27.139  1.00  0.00     0.065 C 
ATOM     21  C   UNL A   1      33.295  28.811  26.825  1.00  0.00     0.280 C 
ATOM     22  C   UNL A   1      34.148  30.980  27.815  1.00  0.00     0.024 C 
ATOM     23  O   UNL A   1      34.009  27.967  27.306  1.00  0.00    -0.267 OA
BRANCH  22  24
ATOM     24  C   UNL A   1      35.431  30.394  28.217  1.00  0.00    -0.024 A 
ATOM     25  C   UNL A   1      36.418  30.083  27.303  1.00  0.00     0.010 A 
ATOM     26  C   UNL A   1      35.706  30.204  29.571  1.00  0.00     0.026 A 
ATOM     27  C   UNL A   1      37.678  29.647  27.754  1.00  0.00     0.028 A 
ATOM     28  C   UNL A   1      36.972  29.767  30.023  1.00  0.00     0.041 A 
ATOM     29  C   UNL A   1      38.031  29.481  29.121  1.00  0.00     0.051 A 
ATOM     30  Br  UNL A   1      37.012  29.620  31.931  1.00  0.00    -0.049 Br
BRANCH  29  31
ATOM     31  N   UNL A   1      39.322  29.065  29.455  1.00  0.00    -0.377 N 
ATOM     32  C   UNL A   1      39.651  27.694  29.851  1.00  0.00     0.143 C 
ATOM     33  C   UNL A   1      40.508  29.885  29.221  1.00  0.00     0.143 C 
ENDBRANCH  29  31
ENDBRANCH  22  24
ENDBRANCH  10  16
ENDBRANCH   7   9
ENDBRANCH   6   7
ENDBRANCH   5   6
ENDBRANCH   4   5
ENDBRANCH   3   4
ENDBRANCH   2   3
ENDBRANCH   1   2
BRANCH   1  34
ATOM     34  O   UNL A   1      40.722  23.115  26.472  1.00  0.00    -0.377 OA
BRANCH  34  35
ATOM     35  C   UNL A   1      41.948  23.814  26.285  1.00  0.00     0.188 C 
BRANCH  35  36
ATOM     36  C   UNL A   1      42.845  23.540  25.055  1.00  0.00     0.188 C 
BRANCH  36  37
ATOM     37  O   UNL A   1      43.480  22.272  25.053  1.00  0.00    -0.376 OA
BRANCH  37  38
ATOM     38  C   UNL A   1      44.727  22.162  25.713  1.00  0.00     0.202 C 
BRANCH  38  39
ATOM     39  C   UNL A   1      45.904  22.949  25.119  1.00  0.00     0.261 C 
BRANCH  39  40
ATOM     40  O   UNL A   1      46.433  24.005  25.933  1.00  0.00    -0.460 OA
BRANCH  40  41
ATOM     41  C   UNL A   1      46.614  25.209  25.349  1.00  0.00     0.338 C 
ATOM     42  O   UNL A   1      47.030  25.434  24.228  1.00  0.00    -0.246 OA
BRANCH  41  43
ATOM     43  C   UNL A   1      46.044  26.226  26.256  1.00  0.00     0.060 A 
ATOM     44  C   UNL A   1      46.881  26.877  27.172  1.00  0.00     0.016 A 
ATOM     45  C   UNL A   1      44.685  26.539  26.190  1.00  0.00     0.016 A 
ATOM     46  C   UNL A   1      46.351  27.822  28.051  1.00  0.00     0.010 A 
ATOM     47  C   UNL A   1      44.150  27.467  27.085  1.00  0.00     0.010 A 
ATOM     48  C   UNL A   1      44.974  28.086  28.042  1.00  0.00    -0.014 A 
BRANCH  48  49
ATOM     49  C   UNL A   1      44.358  28.836  29.161  1.00  0.00     0.031 A 
ATOM     50  C   UNL A   1      44.149  30.316  28.989  1.00  0.00     0.074 A 
ATOM     51  C   UNL A   1      43.983  28.228  30.300  1.00  0.00     0.049 A 
ATOM     52  N   UNL A   1      43.694  31.197  29.841  1.00  0.00    -0.248 NA
ATOM     53  C   UNL A   1      44.506  30.877  27.674  1.00  0.00     0.031 C 
ATOM     54  C   UNL A   1      44.080  26.795  30.569  1.00  0.00     0.029 A 
ATOM     55  N   UNL A   1      43.446  28.754  31.449  1.00  0.00    -0.354 N 
ATOM     56  C   UNL A   1      43.720  32.414  29.170  1.00  0.00     0.074 A 
ATOM     57  C   UNL A   1      44.263  32.165  27.853  1.00  0.00     0.031 C 
ATOM     58  C   UNL A   1      43.625  26.556  31.813  1.00  0.00     0.029 A 
ATOM     59  C   UNL A   1      43.242  27.821  32.437  1.00  0.00     0.049 A 
ATOM     60  H   UNL A   1      43.229  29.708  31.554  1.00  0.00     0.167 HD
ATOM     61  C   UNL A   1      43.321  33.631  29.607  1.00  0.00     0.031 A 
ATOM     62  C   UNL A   1      42.821  27.981  33.706  1.00  0.00     0.031 A 
ATOM     63  C   UNL A   1      42.800  33.884  30.924  1.00  0.00     0.049 A 
ATOM     64  C   UNL A   1      42.478  29.363  34.204  1.00  0.00     0.074 A 
ATOM     65  C   UNL A   1      42.367  35.081  31.464  1.00  0.00     0.029 A 
ATOM     66  N   UNL A   1      42.653  32.921  31.910  1.00  0.00    -0.354 N 
ATOM     67  N   UNL A   1      42.487  30.504  33.557  1.00  0.00    -0.248 NA
ATOM     68  C   UNL A   1      42.060  29.475  35.610  1.00  0.00     0.031 C 
ATOM     69  C   UNL A   1      42.015  34.854  32.798  1.00  0.00     0.029 A 
ATOM     70  C   UNL A   1      42.160  33.502  33.064  1.00  0.00     0.049 A 
ATOM     71  H   UNL A   1      42.866  31.966  31.804  1.00  0.00     0.167 HD
ATOM     72  C   UNL A   1      42.041  31.459  34.463  1.00  0.00     0.074 A 
ATOM     73  C   UNL A   1      41.758  30.763  35.701  1.00  0.00     0.031 C 
ATOM     74  C   UNL A   1      41.876  32.794  34.286  1.00  0.00     0.031 A 
BRANCH  61  75
ATOM     75  C   UNL A   1      43.471  34.789  28.661  1.00  0.00    -0.014 A 
ATOM     76  C   UNL A   1      42.404  35.223  27.859  1.00  0.00     0.009 A 
ATOM     77  C   UNL A   1      44.695  35.472  28.588  1.00  0.00     0.009 A 
ATOM     78  C   UNL A   1      42.570  36.295  26.979  1.00  0.00     0.001 A 
ATOM     79  C   UNL A   1      44.850  36.563  27.731  1.00  0.00     0.001 A 
ATOM     80  C   UNL A   1      43.789  36.966  26.921  1.00  0.00     0.000 A 
ENDBRANCH  61  75
BRANCH  62  81
ATOM     81  C   UNL A   1      42.716  26.809  34.618  1.00  0.00    -0.014 A 
ATOM     82  C   UNL A   1      43.868  26.169  35.099  1.00  0.00     0.009 A 
ATOM     83  C   UNL A   1      41.458  26.297  34.978  1.00  0.00     0.009 A 
ATOM     84  C   UNL A   1      43.765  25.025  35.894  1.00  0.00     0.001 A 
ATOM     85  C   UNL A   1      41.358  25.172  35.800  1.00  0.00     0.001 A 
ATOM     86  C   UNL A   1      42.511  24.530  36.248  1.00  0.00     0.000 A 
ENDBRANCH  62  81
BRANCH  74  87
ATOM     87  C   UNL A   1      41.312  33.583  35.437  1.00  0.00    -0.014 A 
ATOM     88  C   UNL A   1      42.140  34.285  36.325  1.00  0.00     0.009 A 
ATOM     89  C   UNL A   1      39.919  33.664  35.601  1.00  0.00     0.009 A 
ATOM     90  C   UNL A   1      41.587  35.022  37.376  1.00  0.00     0.001 A 
ATOM     91  C   UNL A   1      39.368  34.429  36.630  1.00  0.00     0.001 A 
ATOM     92  C   UNL A   1      40.202  35.098  37.522  1.00  0.00     0.000 A 
ENDBRANCH  74  87
ENDBRANCH  48  49
ENDBRANCH  41  43
ENDBRANCH  40  41
ENDBRANCH  39  40
ENDBRANCH  38  39
ENDBRANCH  37  38
ENDBRANCH  36  37
ENDBRANCH  35  36
ENDBRANCH  34  35
ENDBRANCH   1  34
TORSDOF 23
ENDMDL
