MODEL 1
REMARK VINA RESULT:      -9.4      0.000      0.000
REMARK SMILES CCn1cc(C(=O)OCCOCCOCCOCCOC(=O)c2ccc(-c3c4nc(c(-c5ccccc5)c5ccc([nH]5)c(-c5ccccc5)c5nc(c(-c6ccccc6)c6ccc3[nH]6)C=C5)C=C4)cc2)c(=O)c2cc(F)c(NC3CCCCC3)cc21
REMARK SMILES IDX 14 1 13 2 12 3 11 4 10 5 9 6 8 7 6 8 7 9 5 10 3 11 4 12
REMARK SMILES IDX 86 13 73 14 85 15 71 16 74 17 77 18 72 19 75 20 76 21 2 22
REMARK SMILES IDX 1 23 78 24 79 26 80 27 84 28 81 29 83 30 82 31 15 32 16 33
REMARK SMILES IDX 17 34 18 35 19 36 20 37 21 38 22 39 23 40 24 41 70 42 25 43
REMARK SMILES IDX 69 44 26 45 27 46 28 47 63 48 29 49 68 50 62 51 64 52 30 53
REMARK SMILES IDX 67 54 61 55 60 56 31 58 53 59 38 60 52 61 39 62 42 63 51 64
REMARK SMILES IDX 65 65 40 66 41 67 50 69 66 70 43 71 32 72 33 73 37 74 34 75
REMARK SMILES IDX 36 76 35 77 54 78 55 79 59 80 56 81 58 82 57 83 44 84 45 85
REMARK SMILES IDX 49 86 46 87 48 88 47 89
REMARK H PARENT 78 25 64 57 42 68
REMARK Flexibility Score: inf
ROOT
ATOM      1  O   UNL A   1      34.656  32.913  28.160  1.00  0.00    -0.377 OA
ENDROOT
BRANCH   1   2
ATOM      2  C   UNL A   1      34.183  31.619  28.495  1.00  0.00     0.188 C 
BRANCH   2   3
ATOM      3  C   UNL A   1      33.385  30.843  27.429  1.00  0.00     0.188 C 
BRANCH   3   4
ATOM      4  O   UNL A   1      34.167  29.921  26.675  1.00  0.00    -0.376 OA
BRANCH   4   5
ATOM      5  C   UNL A   1      33.450  29.109  25.753  1.00  0.00     0.202 C 
BRANCH   5   6
ATOM      6  C   UNL A   1      32.001  29.556  25.542  1.00  0.00     0.261 C 
BRANCH   6   7
ATOM      7  O   UNL A   1      31.586  29.528  24.170  1.00  0.00    -0.459 OA
BRANCH   7   8
ATOM      8  C   UNL A   1      30.533  28.728  23.863  1.00  0.00     0.343 C 
ATOM      9  O   UNL A   1      29.388  29.097  23.666  1.00  0.00    -0.246 OA
BRANCH   8  10
ATOM     10  C   UNL A   1      31.031  27.349  23.703  1.00  0.00     0.124 A 
ATOM     11  N   UNL A   1      32.365  25.801  22.386  1.00  0.00    -0.347 N 
ATOM     12  C   UNL A   1      31.867  27.055  22.696  1.00  0.00     0.105 A 
ATOM     13  C   UNL A   1      32.073  24.729  23.271  1.00  0.00     0.054 A 
ATOM     14  C   UNL A   1      31.147  24.896  24.314  1.00  0.00     0.050 A 
ATOM     15  C   UNL A   1      32.692  23.472  23.169  1.00  0.00     0.055 A 
ATOM     16  C   UNL A   1      30.545  26.232  24.543  1.00  0.00     0.204 A 
ATOM     17  C   UNL A   1      30.787  23.828  25.145  1.00  0.00     0.055 A 
ATOM     18  C   UNL A   1      32.392  22.385  24.002  1.00  0.00     0.073 A 
ATOM     19  O   UNL A   1      29.650  26.373  25.369  1.00  0.00    -0.288 OA
ATOM     20  C   UNL A   1      31.402  22.592  24.972  1.00  0.00     0.147 A 
ATOM     21  F   UNL A   1      31.055  21.581  25.784  1.00  0.00    -0.205 F 
BRANCH  11  22
ATOM     22  C   UNL A   1      33.204  25.493  21.205  1.00  0.00     0.119 C 
ATOM     23  C   UNL A   1      32.451  25.277  19.900  1.00  0.00     0.027 C 
ENDBRANCH  11  22
BRANCH  18  24
ATOM     24  N   UNL A   1      33.032  21.158  23.904  1.00  0.00    -0.380 N 
ATOM     25  H   UNL A   1      32.722  20.563  23.185  1.00  0.00     0.160 HD
BRANCH  24  26
ATOM     26  C   UNL A   1      34.117  20.643  24.744  1.00  0.00     0.079 C 
ATOM     27  C   UNL A   1      34.411  19.164  24.428  1.00  0.00     0.025 C 
ATOM     28  C   UNL A   1      35.323  21.604  24.737  1.00  0.00     0.025 C 
ATOM     29  C   UNL A   1      35.750  18.665  24.959  1.00  0.00     0.002 C 
ATOM     30  C   UNL A   1      36.603  20.988  25.284  1.00  0.00     0.002 C 
ATOM     31  C   UNL A   1      36.884  19.634  24.650  1.00  0.00     0.000 C 
ENDBRANCH  24  26
ENDBRANCH  18  24
ENDBRANCH   8  10
ENDBRANCH   7   8
ENDBRANCH   6   7
ENDBRANCH   5   6
ENDBRANCH   4   5
ENDBRANCH   3   4
ENDBRANCH   2   3
ENDBRANCH   1   2
BRANCH   1  32
ATOM     32  C   UNL A   1      33.793  34.035  28.318  1.00  0.00     0.188 C 
BRANCH  32  33
ATOM     33  C   UNL A   1      33.501  34.660  29.702  1.00  0.00     0.188 C 
BRANCH  33  34
ATOM     34  O   UNL A   1      34.636  34.794  30.545  1.00  0.00    -0.376 OA
BRANCH  34  35
ATOM     35  C   UNL A   1      34.571  34.153  31.809  1.00  0.00     0.202 C 
BRANCH  35  36
ATOM     36  C   UNL A   1      34.823  32.644  31.751  1.00  0.00     0.261 C 
BRANCH  36  37
ATOM     37  O   UNL A   1      35.432  32.084  32.925  1.00  0.00    -0.460 OA
BRANCH  37  38
ATOM     38  C   UNL A   1      36.635  32.568  33.303  1.00  0.00     0.338 C 
ATOM     39  O   UNL A   1      36.887  33.258  34.275  1.00  0.00    -0.246 OA
BRANCH  38  40
ATOM     40  C   UNL A   1      37.643  31.953  32.417  1.00  0.00     0.060 A 
ATOM     41  C   UNL A   1      37.613  32.209  31.044  1.00  0.00     0.016 A 
ATOM     42  C   UNL A   1      38.593  31.075  32.957  1.00  0.00     0.016 A 
ATOM     43  C   UNL A   1      38.554  31.606  30.210  1.00  0.00     0.010 A 
ATOM     44  C   UNL A   1      39.532  30.466  32.119  1.00  0.00     0.010 A 
ATOM     45  C   UNL A   1      39.532  30.748  30.745  1.00  0.00    -0.014 A 
BRANCH  45  46
ATOM     46  C   UNL A   1      40.666  30.328  29.889  1.00  0.00     0.031 A 
ATOM     47  C   UNL A   1      41.872  31.187  29.672  1.00  0.00     0.074 A 
ATOM     48  C   UNL A   1      40.586  29.112  29.313  1.00  0.00     0.049 A 
ATOM     49  N   UNL A   1      42.984  30.885  29.050  1.00  0.00    -0.248 NA
ATOM     50  C   UNL A   1      41.832  32.553  30.210  1.00  0.00     0.031 C 
ATOM     51  C   UNL A   1      39.447  28.201  29.447  1.00  0.00     0.029 A 
ATOM     52  N   UNL A   1      41.475  28.429  28.526  1.00  0.00    -0.354 N 
ATOM     53  C   UNL A   1      43.790  32.011  29.141  1.00  0.00     0.074 A 
ATOM     54  C   UNL A   1      43.020  33.020  29.839  1.00  0.00     0.031 C 
ATOM     55  C   UNL A   1      39.720  27.064  28.793  1.00  0.00     0.029 A 
ATOM     56  C   UNL A   1      41.037  27.175  28.173  1.00  0.00     0.049 A 
ATOM     57  H   UNL A   1      42.341  28.799  28.241  1.00  0.00     0.167 HD
ATOM     58  C   UNL A   1      45.058  32.172  28.693  1.00  0.00     0.031 A 
ATOM     59  C   UNL A   1      41.630  26.212  27.441  1.00  0.00     0.031 A 
ATOM     60  C   UNL A   1      45.803  31.167  27.974  1.00  0.00     0.049 A 
ATOM     61  C   UNL A   1      43.016  26.440  26.916  1.00  0.00     0.074 A 
ATOM     62  C   UNL A   1      47.110  31.230  27.522  1.00  0.00     0.029 A 
ATOM     63  N   UNL A   1      45.306  29.932  27.586  1.00  0.00    -0.354 N 
ATOM     64  N   UNL A   1      43.800  27.476  27.087  1.00  0.00    -0.248 NA
ATOM     65  C   UNL A   1      43.608  25.361  26.113  1.00  0.00     0.031 C 
ATOM     66  C   UNL A   1      47.380  30.067  26.798  1.00  0.00     0.029 A 
ATOM     67  C   UNL A   1      46.269  29.242  26.865  1.00  0.00     0.049 A 
ATOM     68  H   UNL A   1      44.405  29.595  27.791  1.00  0.00     0.167 HD
ATOM     69  C   UNL A   1      44.984  27.169  26.431  1.00  0.00     0.074 A 
ATOM     70  C   UNL A   1      44.823  25.841  25.876  1.00  0.00     0.031 C 
ATOM     71  C   UNL A   1      46.101  27.925  26.302  1.00  0.00     0.031 A 
BRANCH  58  72
ATOM     72  C   UNL A   1      45.750  33.480  28.965  1.00  0.00    -0.014 A 
ATOM     73  C   UNL A   1      45.651  34.534  28.043  1.00  0.00     0.009 A 
ATOM     74  C   UNL A   1      46.615  33.622  30.063  1.00  0.00     0.009 A 
ATOM     75  C   UNL A   1      46.415  35.693  28.201  1.00  0.00     0.001 A 
ATOM     76  C   UNL A   1      47.358  34.793  30.234  1.00  0.00     0.001 A 
ATOM     77  C   UNL A   1      47.266  35.822  29.297  1.00  0.00     0.000 A 
ENDBRANCH  58  72
BRANCH  59  78
ATOM     78  C   UNL A   1      40.910  24.932  27.214  1.00  0.00    -0.014 A 
ATOM     79  C   UNL A   1      39.785  24.886  26.376  1.00  0.00     0.009 A 
ATOM     80  C   UNL A   1      41.304  23.766  27.886  1.00  0.00     0.009 A 
ATOM     81  C   UNL A   1      39.051  23.706  26.236  1.00  0.00     0.001 A 
ATOM     82  C   UNL A   1      40.588  22.579  27.719  1.00  0.00     0.001 A 
ATOM     83  C   UNL A   1      39.457  22.552  26.904  1.00  0.00     0.000 A 
ENDBRANCH  59  78
BRANCH  71  84
ATOM     84  C   UNL A   1      47.256  27.347  25.530  1.00  0.00    -0.014 A 
ATOM     85  C   UNL A   1      48.266  26.641  26.204  1.00  0.00     0.009 A 
ATOM     86  C   UNL A   1      47.399  27.584  24.154  1.00  0.00     0.009 A 
ATOM     87  C   UNL A   1      49.402  26.203  25.523  1.00  0.00     0.001 A 
ATOM     88  C   UNL A   1      48.521  27.116  23.468  1.00  0.00     0.001 A 
ATOM     89  C   UNL A   1      49.527  26.436  24.155  1.00  0.00     0.000 A 
ENDBRANCH  71  84
ENDBRANCH  45  46
ENDBRANCH  38  40
ENDBRANCH  37  38
ENDBRANCH  36  37
ENDBRANCH  35  36
ENDBRANCH  34  35
ENDBRANCH  33  34
ENDBRANCH  32  33
ENDBRANCH   1  32
TORSDOF 23
ENDMDL
MODEL 2
REMARK VINA RESULT:      -9.2      2.907      9.253
REMARK SMILES CCn1cc(C(=O)OCCOCCOCCOCCOC(=O)c2ccc(-c3c4nc(c(-c5ccccc5)c5ccc([nH]5)c(-c5ccccc5)c5nc(c(-c6ccccc6)c6ccc3[nH]6)C=C5)C=C4)cc2)c(=O)c2cc(F)c(NC3CCCCC3)cc21
REMARK SMILES IDX 14 1 13 2 12 3 11 4 10 5 9 6 8 7 6 8 7 9 5 10 3 11 4 12
REMARK SMILES IDX 86 13 73 14 85 15 71 16 74 17 77 18 72 19 75 20 76 21 2 22
REMARK SMILES IDX 1 23 78 24 79 26 80 27 84 28 81 29 83 30 82 31 15 32 16 33
REMARK SMILES IDX 17 34 18 35 19 36 20 37 21 38 22 39 23 40 24 41 70 42 25 43
REMARK SMILES IDX 69 44 26 45 27 46 28 47 63 48 29 49 68 50 62 51 64 52 30 53
REMARK SMILES IDX 67 54 61 55 60 56 31 58 53 59 38 60 52 61 39 62 42 63 51 64
REMARK SMILES IDX 65 65 40 66 41 67 50 69 66 70 43 71 32 72 33 73 37 74 34 75
REMARK SMILES IDX 36 76 35 77 54 78 55 79 59 80 56 81 58 82 57 83 44 84 45 85
REMARK SMILES IDX 49 86 46 87 48 88 47 89
REMARK H PARENT 78 25 64 57 42 68
REMARK Flexibility Score: inf
ROOT
ATOM      1  O   UNL A   1      32.041  23.817  23.187  1.00  0.00    -0.377 OA
ENDROOT
BRANCH   1   2
ATOM      2  C   UNL A   1      31.239  24.987  23.132  1.00  0.00     0.188 C 
BRANCH   2   3
ATOM      3  C   UNL A   1      31.444  25.947  21.945  1.00  0.00     0.188 C 
BRANCH   3   4
ATOM      4  O   UNL A   1      31.070  27.296  22.218  1.00  0.00    -0.376 OA
BRANCH   4   5
ATOM      5  C   UNL A   1      31.904  27.997  23.133  1.00  0.00     0.202 C 
BRANCH   5   6
ATOM      6  C   UNL A   1      33.341  27.471  23.177  1.00  0.00     0.261 C 
BRANCH   6   7
ATOM      7  O   UNL A   1      34.101  27.969  24.288  1.00  0.00    -0.459 OA
BRANCH   7   8
ATOM      8  C   UNL A   1      33.543  27.842  25.519  1.00  0.00     0.343 C 
ATOM      9  O   UNL A   1      32.937  26.868  25.931  1.00  0.00    -0.246 OA
BRANCH   8  10
ATOM     10  C   UNL A   1      33.886  29.038  26.308  1.00  0.00     0.124 A 
ATOM     11  N   UNL A   1      35.450  30.089  27.845  1.00  0.00    -0.347 N 
ATOM     12  C   UNL A   1      35.028  29.067  27.014  1.00  0.00     0.105 A 
ATOM     13  C   UNL A   1      34.680  31.283  27.881  1.00  0.00     0.054 A 
ATOM     14  C   UNL A   1      33.427  31.343  27.248  1.00  0.00     0.050 A 
ATOM     15  C   UNL A   1      35.123  32.451  28.522  1.00  0.00     0.055 A 
ATOM     16  C   UNL A   1      32.956  30.179  26.460  1.00  0.00     0.204 A 
ATOM     17  C   UNL A   1      32.620  32.482  27.342  1.00  0.00     0.055 A 
ATOM     18  C   UNL A   1      34.365  33.628  28.608  1.00  0.00     0.073 A 
ATOM     19  O   UNL A   1      31.820  30.164  25.999  1.00  0.00    -0.288 OA
ATOM     20  C   UNL A   1      33.092  33.599  28.026  1.00  0.00     0.147 A 
ATOM     21  F   UNL A   1      32.311  34.688  28.097  1.00  0.00    -0.205 F 
BRANCH  11  22
ATOM     22  C   UNL A   1      36.666  30.044  28.690  1.00  0.00     0.119 C 
ATOM     23  C   UNL A   1      36.498  29.384  30.051  1.00  0.00     0.027 C 
ENDBRANCH  11  22
BRANCH  18  24
ATOM     24  N   UNL A   1      34.830  34.782  29.222  1.00  0.00    -0.380 N 
ATOM     25  H   UNL A   1      35.193  35.475  28.625  1.00  0.00     0.160 HD
BRANCH  24  26
ATOM     26  C   UNL A   1      34.843  35.094  30.654  1.00  0.00     0.079 C 
ATOM     27  C   UNL A   1      33.421  35.377  31.175  1.00  0.00     0.025 C 
ATOM     28  C   UNL A   1      35.672  34.056  31.436  1.00  0.00     0.025 C 
ATOM     29  C   UNL A   1      33.291  35.326  32.693  1.00  0.00     0.002 C 
ATOM     30  C   UNL A   1      35.450  34.099  32.941  1.00  0.00     0.002 C 
ATOM     31  C   UNL A   1      33.967  34.096  33.284  1.00  0.00     0.000 C 
ENDBRANCH  24  26
ENDBRANCH  18  24
ENDBRANCH   8  10
ENDBRANCH   7   8
ENDBRANCH   6   7
ENDBRANCH   5   6
ENDBRANCH   4   5
ENDBRANCH   3   4
ENDBRANCH   2   3
ENDBRANCH   1   2
BRANCH   1  32
ATOM     32  C   UNL A   1      33.293  23.860  23.863  1.00  0.00     0.188 C 
BRANCH  32  33
ATOM     33  C   UNL A   1      33.739  22.749  24.842  1.00  0.00     0.188 C 
BRANCH  33  34
ATOM     34  O   UNL A   1      34.292  21.598  24.221  1.00  0.00    -0.376 OA
BRANCH  34  35
ATOM     35  C   UNL A   1      35.166  20.805  25.008  1.00  0.00     0.202 C 
BRANCH  35  36
ATOM     36  C   UNL A   1      36.082  21.619  25.927  1.00  0.00     0.261 C 
BRANCH  36  37
ATOM     37  O   UNL A   1      37.296  22.085  25.318  1.00  0.00    -0.460 OA
BRANCH  37  38
ATOM     38  C   UNL A   1      38.466  21.642  25.827  1.00  0.00     0.338 C 
ATOM     39  O   UNL A   1      38.940  20.524  25.736  1.00  0.00    -0.246 OA
BRANCH  38  40
ATOM     40  C   UNL A   1      39.172  22.820  26.369  1.00  0.00     0.060 A 
ATOM     41  C   UNL A   1      40.333  22.649  27.127  1.00  0.00     0.016 A 
ATOM     42  C   UNL A   1      38.641  24.100  26.159  1.00  0.00     0.016 A 
ATOM     43  C   UNL A   1      40.982  23.764  27.654  1.00  0.00     0.010 A 
ATOM     44  C   UNL A   1      39.289  25.217  26.694  1.00  0.00     0.010 A 
ATOM     45  C   UNL A   1      40.476  25.057  27.424  1.00  0.00    -0.014 A 
BRANCH  45  46
ATOM     46  C   UNL A   1      41.313  26.229  27.770  1.00  0.00     0.031 A 
ATOM     47  C   UNL A   1      40.916  27.220  28.818  1.00  0.00     0.074 A 
ATOM     48  C   UNL A   1      42.479  26.370  27.109  1.00  0.00     0.049 A 
ATOM     49  N   UNL A   1      41.616  28.216  29.302  1.00  0.00    -0.248 NA
ATOM     50  C   UNL A   1      39.573  27.089  29.396  1.00  0.00     0.031 C 
ATOM     51  C   UNL A   1      42.953  25.469  26.057  1.00  0.00     0.029 A 
ATOM     52  N   UNL A   1      43.478  27.298  27.234  1.00  0.00    -0.354 N 
ATOM     53  C   UNL A   1      40.812  28.818  30.258  1.00  0.00     0.074 A 
ATOM     54  C   UNL A   1      39.552  28.103  30.255  1.00  0.00     0.031 C 
ATOM     55  C   UNL A   1      44.167  25.869  25.655  1.00  0.00     0.029 A 
ATOM     56  C   UNL A   1      44.545  27.066  26.400  1.00  0.00     0.049 A 
ATOM     57  H   UNL A   1      43.437  28.057  27.860  1.00  0.00     0.167 HD
ATOM     58  C   UNL A   1      41.111  29.861  31.070  1.00  0.00     0.031 A 
ATOM     59  C   UNL A   1      45.706  27.733  26.253  1.00  0.00     0.031 A 
ATOM     60  C   UNL A   1      42.361  30.582  31.043  1.00  0.00     0.049 A 
ATOM     61  C   UNL A   1      45.988  28.914  27.132  1.00  0.00     0.074 A 
ATOM     62  C   UNL A   1      42.767  31.624  31.860  1.00  0.00     0.029 A 
ATOM     63  N   UNL A   1      43.393  30.354  30.146  1.00  0.00    -0.354 N 
ATOM     64  N   UNL A   1      45.255  29.417  28.095  1.00  0.00    -0.248 NA
ATOM     65  C   UNL A   1      47.264  29.612  26.919  1.00  0.00     0.031 C 
ATOM     66  C   UNL A   1      44.010  32.074  31.412  1.00  0.00     0.029 A 
ATOM     67  C   UNL A   1      44.417  31.263  30.365  1.00  0.00     0.049 A 
ATOM     68  H   UNL A   1      43.399  29.652  29.456  1.00  0.00     0.167 HD
ATOM     69  C   UNL A   1      45.985  30.475  28.616  1.00  0.00     0.074 A 
ATOM     70  C   UNL A   1      47.229  30.531  27.877  1.00  0.00     0.031 C 
ATOM     71  C   UNL A   1      45.650  31.324  29.618  1.00  0.00     0.031 A 
BRANCH  58  72
ATOM     72  C   UNL A   1      40.084  30.300  32.078  1.00  0.00    -0.014 A 
ATOM     73  C   UNL A   1      39.952  29.610  33.294  1.00  0.00     0.009 A 
ATOM     74  C   UNL A   1      39.154  31.304  31.767  1.00  0.00     0.009 A 
ATOM     75  C   UNL A   1      38.902  29.902  34.167  1.00  0.00     0.001 A 
ATOM     76  C   UNL A   1      38.119  31.613  32.654  1.00  0.00     0.001 A 
ATOM     77  C   UNL A   1      37.987  30.904  33.847  1.00  0.00     0.000 A 
ENDBRANCH  58  72
BRANCH  59  78
ATOM     78  C   UNL A   1      46.695  27.249  25.255  1.00  0.00    -0.014 A 
ATOM     79  C   UNL A   1      47.541  26.170  25.554  1.00  0.00     0.009 A 
ATOM     80  C   UNL A   1      46.844  27.908  24.025  1.00  0.00     0.009 A 
ATOM     81  C   UNL A   1      48.534  25.776  24.656  1.00  0.00     0.001 A 
ATOM     82  C   UNL A   1      47.817  27.490  23.114  1.00  0.00     0.001 A 
ATOM     83  C   UNL A   1      48.668  26.434  23.434  1.00  0.00     0.000 A 
ENDBRANCH  59  78
BRANCH  71  84
ATOM     84  C   UNL A   1      46.635  32.398  29.990  1.00  0.00    -0.014 A 
ATOM     85  C   UNL A   1      47.580  32.162  31.002  1.00  0.00     0.009 A 
ATOM     86  C   UNL A   1      46.567  33.675  29.411  1.00  0.00     0.009 A 
ATOM     87  C   UNL A   1      48.421  33.185  31.441  1.00  0.00     0.001 A 
ATOM     88  C   UNL A   1      47.433  34.688  29.830  1.00  0.00     0.001 A 
ATOM     89  C   UNL A   1      48.350  34.446  30.852  1.00  0.00     0.000 A 
ENDBRANCH  71  84
ENDBRANCH  45  46
ENDBRANCH  38  40
ENDBRANCH  37  38
ENDBRANCH  36  37
ENDBRANCH  35  36
ENDBRANCH  34  35
ENDBRANCH  33  34
ENDBRANCH  32  33
ENDBRANCH   1  32
TORSDOF 23
ENDMDL
MODEL 3
REMARK VINA RESULT:      -9.1      2.964      9.167
REMARK SMILES CCn1cc(C(=O)OCCOCCOCCOCCOC(=O)c2ccc(-c3c4nc(c(-c5ccccc5)c5ccc([nH]5)c(-c5ccccc5)c5nc(c(-c6ccccc6)c6ccc3[nH]6)C=C5)C=C4)cc2)c(=O)c2cc(F)c(NC3CCCCC3)cc21
REMARK SMILES IDX 14 1 13 2 12 3 11 4 10 5 9 6 8 7 6 8 7 9 5 10 3 11 4 12
REMARK SMILES IDX 86 13 73 14 85 15 71 16 74 17 77 18 72 19 75 20 76 21 2 22
REMARK SMILES IDX 1 23 78 24 79 26 80 27 84 28 81 29 83 30 82 31 15 32 16 33
REMARK SMILES IDX 17 34 18 35 19 36 20 37 21 38 22 39 23 40 24 41 70 42 25 43
REMARK SMILES IDX 69 44 26 45 27 46 28 47 63 48 29 49 68 50 62 51 64 52 30 53
REMARK SMILES IDX 67 54 61 55 60 56 31 58 53 59 38 60 52 61 39 62 42 63 51 64
REMARK SMILES IDX 65 65 40 66 41 67 50 69 66 70 43 71 32 72 33 73 37 74 34 75
REMARK SMILES IDX 36 76 35 77 54 78 55 79 59 80 56 81 58 82 57 83 44 84 45 85
REMARK SMILES IDX 49 86 46 87 48 88 47 89
REMARK H PARENT 78 25 64 57 42 68
REMARK Flexibility Score: inf
ROOT
ATOM      1  O   UNL A   1      32.040  24.511  22.999  1.00  0.00    -0.377 OA
ENDROOT
BRANCH   1   2
ATOM      2  C   UNL A   1      31.036  25.513  23.046  1.00  0.00     0.188 C 
BRANCH   2   3
ATOM      3  C   UNL A   1      31.356  26.886  22.425  1.00  0.00     0.188 C 
BRANCH   3   4
ATOM      4  O   UNL A   1      30.869  27.993  23.179  1.00  0.00    -0.376 OA
BRANCH   4   5
ATOM      5  C   UNL A   1      31.839  28.962  23.556  1.00  0.00     0.202 C 
BRANCH   5   6
ATOM      6  C   UNL A   1      33.274  28.558  23.205  1.00  0.00     0.261 C 
BRANCH   6   7
ATOM      7  O   UNL A   1      34.122  28.397  24.351  1.00  0.00    -0.459 OA
BRANCH   7   8
ATOM      8  C   UNL A   1      33.508  28.261  25.554  1.00  0.00     0.343 C 
ATOM      9  O   UNL A   1      32.714  27.387  25.856  1.00  0.00    -0.246 OA
BRANCH   8  10
ATOM     10  C   UNL A   1      34.046  29.286  26.467  1.00  0.00     0.124 A 
ATOM     11  N   UNL A   1      35.839  29.938  27.974  1.00  0.00    -0.347 N 
ATOM     12  C   UNL A   1      35.239  29.098  27.052  1.00  0.00     0.105 A 
ATOM     13  C   UNL A   1      35.210  31.181  28.254  1.00  0.00     0.054 A 
ATOM     14  C   UNL A   1      33.923  31.456  27.764  1.00  0.00     0.050 A 
ATOM     15  C   UNL A   1      35.831  32.192  29.007  1.00  0.00     0.055 A 
ATOM     16  C   UNL A   1      33.262  30.475  26.870  1.00  0.00     0.204 A 
ATOM     17  C   UNL A   1      33.255  32.640  28.097  1.00  0.00     0.055 A 
ATOM     18  C   UNL A   1      35.216  33.409  29.333  1.00  0.00     0.073 A 
ATOM     19  O   UNL A   1      32.096  30.639  26.527  1.00  0.00    -0.288 OA
ATOM     20  C   UNL A   1      33.903  33.590  28.882  1.00  0.00     0.147 A 
ATOM     21  F   UNL A   1      33.254  34.727  29.183  1.00  0.00    -0.205 F 
BRANCH  11  22
ATOM     22  C   UNL A   1      37.110  29.650  28.678  1.00  0.00     0.119 C 
ATOM     23  C   UNL A   1      38.334  29.486  27.790  1.00  0.00     0.027 C 
ENDBRANCH  11  22
BRANCH  18  24
ATOM     24  N   UNL A   1      35.855  34.408  30.054  1.00  0.00    -0.380 N 
ATOM     25  H   UNL A   1      35.270  35.023  30.554  1.00  0.00     0.160 HD
BRANCH  24  26
ATOM     26  C   UNL A   1      37.295  34.656  30.163  1.00  0.00     0.079 C 
ATOM     27  C   UNL A   1      37.829  34.234  31.546  1.00  0.00     0.025 C 
ATOM     28  C   UNL A   1      38.043  34.103  28.934  1.00  0.00     0.025 C 
ATOM     29  C   UNL A   1      39.346  34.092  31.612  1.00  0.00     0.002 C 
ATOM     30  C   UNL A   1      39.550  34.002  29.126  1.00  0.00     0.002 C 
ATOM     31  C   UNL A   1      39.898  33.303  30.432  1.00  0.00     0.000 C 
ENDBRANCH  24  26
ENDBRANCH  18  24
ENDBRANCH   8  10
ENDBRANCH   7   8
ENDBRANCH   6   7
ENDBRANCH   5   6
ENDBRANCH   4   5
ENDBRANCH   3   4
ENDBRANCH   2   3
ENDBRANCH   1   2
BRANCH   1  32
ATOM     32  C   UNL A   1      33.231  24.681  23.762  1.00  0.00     0.188 C 
BRANCH  32  33
ATOM     33  C   UNL A   1      33.821  23.545  24.630  1.00  0.00     0.188 C 
BRANCH  33  34
ATOM     34  O   UNL A   1      34.213  22.388  23.907  1.00  0.00    -0.376 OA
BRANCH  34  35
ATOM     35  C   UNL A   1      34.981  21.425  24.610  1.00  0.00     0.202 C 
BRANCH  35  36
ATOM     36  C   UNL A   1      35.850  22.018  25.722  1.00  0.00     0.261 C 
BRANCH  36  37
ATOM     37  O   UNL A   1      37.110  22.555  25.289  1.00  0.00    -0.460 OA
BRANCH  37  38
ATOM     38  C   UNL A   1      38.236  21.978  25.764  1.00  0.00     0.338 C 
ATOM     39  O   UNL A   1      38.636  20.846  25.557  1.00  0.00    -0.246 OA
BRANCH  38  40
ATOM     40  C   UNL A   1      39.008  23.038  26.442  1.00  0.00     0.060 A 
ATOM     41  C   UNL A   1      40.114  22.702  27.226  1.00  0.00     0.016 A 
ATOM     42  C   UNL A   1      38.592  24.373  26.333  1.00  0.00     0.016 A 
ATOM     43  C   UNL A   1      40.824  23.706  27.882  1.00  0.00     0.010 A 
ATOM     44  C   UNL A   1      39.301  25.378  26.997  1.00  0.00     0.010 A 
ATOM     45  C   UNL A   1      40.435  25.052  27.755  1.00  0.00    -0.014 A 
BRANCH  45  46
ATOM     46  C   UNL A   1      41.346  26.113  28.243  1.00  0.00     0.031 A 
ATOM     47  C   UNL A   1      42.708  26.334  27.666  1.00  0.00     0.074 A 
ATOM     48  C   UNL A   1      40.893  26.905  29.235  1.00  0.00     0.049 A 
ATOM     49  N   UNL A   1      43.551  27.305  27.917  1.00  0.00    -0.248 NA
ATOM     50  C   UNL A   1      43.194  25.350  26.690  1.00  0.00     0.031 C 
ATOM     51  C   UNL A   1      39.586  26.765  29.881  1.00  0.00     0.029 A 
ATOM     52  N   UNL A   1      41.462  27.986  29.856  1.00  0.00    -0.354 N 
ATOM     53  C   UNL A   1      44.658  27.067  27.116  1.00  0.00     0.074 A 
ATOM     54  C   UNL A   1      44.399  25.833  26.402  1.00  0.00     0.031 C 
ATOM     55  C   UNL A   1      39.439  27.745  30.783  1.00  0.00     0.029 A 
ATOM     56  C   UNL A   1      40.647  28.563  30.800  1.00  0.00     0.049 A 
ATOM     57  H   UNL A   1      42.365  28.317  29.646  1.00  0.00     0.167 HD
ATOM     58  C   UNL A   1      45.775  27.821  26.984  1.00  0.00     0.031 A 
ATOM     59  C   UNL A   1      40.840  29.639  31.587  1.00  0.00     0.031 A 
ATOM     60  C   UNL A   1      46.033  29.033  27.723  1.00  0.00     0.049 A 
ATOM     61  C   UNL A   1      42.110  30.426  31.452  1.00  0.00     0.074 A 
ATOM     62  C   UNL A   1      47.119  29.886  27.619  1.00  0.00     0.029 A 
ATOM     63  N   UNL A   1      45.210  29.555  28.710  1.00  0.00    -0.354 N 
ATOM     64  N   UNL A   1      43.110  30.239  30.625  1.00  0.00    -0.248 NA
ATOM     65  C   UNL A   1      42.274  31.581  32.346  1.00  0.00     0.031 C 
ATOM     66  C   UNL A   1      46.991  30.879  28.592  1.00  0.00     0.029 A 
ATOM     67  C   UNL A   1      45.786  30.694  29.250  1.00  0.00     0.049 A 
ATOM     68  H   UNL A   1      44.346  29.174  28.986  1.00  0.00     0.167 HD
ATOM     69  C   UNL A   1      44.012  31.262  30.883  1.00  0.00     0.074 A 
ATOM     70  C   UNL A   1      43.432  32.079  31.929  1.00  0.00     0.031 C 
ATOM     71  C   UNL A   1      45.212  31.498  30.302  1.00  0.00     0.031 A 
BRANCH  58  72
ATOM     72  C   UNL A   1      46.822  27.380  25.997  1.00  0.00    -0.014 A 
ATOM     73  C   UNL A   1      46.790  27.859  24.677  1.00  0.00     0.009 A 
ATOM     74  C   UNL A   1      47.754  26.386  26.332  1.00  0.00     0.009 A 
ATOM     75  C   UNL A   1      47.654  27.338  23.710  1.00  0.00     0.001 A 
ATOM     76  C   UNL A   1      48.636  25.886  25.371  1.00  0.00     0.001 A 
ATOM     77  C   UNL A   1      48.576  26.354  24.058  1.00  0.00     0.000 A 
ENDBRANCH  58  72
BRANCH  59  78
ATOM     78  C   UNL A   1      39.769  30.042  32.534  1.00  0.00    -0.014 A 
ATOM     79  C   UNL A   1      38.549  30.546  32.057  1.00  0.00     0.009 A 
ATOM     80  C   UNL A   1      39.987  29.990  33.919  1.00  0.00     0.009 A 
ATOM     81  C   UNL A   1      37.579  31.015  32.945  1.00  0.00     0.001 A 
ATOM     82  C   UNL A   1      39.002  30.429  34.806  1.00  0.00     0.001 A 
ATOM     83  C   UNL A   1      37.805  30.951  34.319  1.00  0.00     0.000 A 
ENDBRANCH  59  78
BRANCH  71  84
ATOM     84  C   UNL A   1      46.001  32.690  30.773  1.00  0.00    -0.014 A 
ATOM     85  C   UNL A   1      46.994  32.528  31.753  1.00  0.00     0.009 A 
ATOM     86  C   UNL A   1      45.696  33.984  30.324  1.00  0.00     0.009 A 
ATOM     87  C   UNL A   1      47.652  33.637  32.287  1.00  0.00     0.001 A 
ATOM     88  C   UNL A   1      46.379  35.090  30.837  1.00  0.00     0.001 A 
ATOM     89  C   UNL A   1      47.347  34.916  31.826  1.00  0.00     0.000 A 
ENDBRANCH  71  84
ENDBRANCH  45  46
ENDBRANCH  38  40
ENDBRANCH  37  38
ENDBRANCH  36  37
ENDBRANCH  35  36
ENDBRANCH  34  35
ENDBRANCH  33  34
ENDBRANCH  32  33
ENDBRANCH   1  32
TORSDOF 23
ENDMDL
