MODEL 1
REMARK VINA RESULT:     -10.2      0.000      0.000
REMARK SMILES C[C@H]1C[N@H+]2CCC[C@@H]2CN1c1cc(Cl)ccc1C(=O)OCCOCCOCCOCCOC(=O)c1ccc(-c2c3nc(c(-c4ccccc4)c4ccc([nH]4)c(-c4ccccc4)c4nc(c(-c5ccccc5)c5ccc2[nH]5)C=C4)C=C3)cc1
REMARK SMILES IDX 27 1 26 2 25 3 24 4 23 5 22 6 21 7 20 8 18 9 19 10 17 11
REMARK SMILES IDX 11 12 12 13 13 14 16 15 14 16 15 17 10 18 1 19 2 20 3 21
REMARK SMILES IDX 4 22 9 23 5 24 8 25 6 27 7 28 28 29 29 30 30 31 31 32 32 33
REMARK SMILES IDX 33 34 34 35 35 36 36 37 82 38 37 39 81 40 38 41 39 42 40 43
REMARK SMILES IDX 75 44 41 45 80 46 74 47 76 48 42 49 79 50 73 51 72 52 43 54
REMARK SMILES IDX 65 55 50 56 64 57 51 58 54 59 63 60 77 61 52 62 53 63 62 65
REMARK SMILES IDX 78 66 55 67 44 68 45 69 49 70 46 71 48 72 47 73 66 74 67 75
REMARK SMILES IDX 71 76 68 77 70 78 69 79 56 80 57 81 61 82 58 83 60 84 59 85
REMARK H PARENT 4 26 76 53 54 64
REMARK Flexibility Score: inf
ROOT
ATOM      1  C   UNL A   1      42.786  18.830  26.000  1.00  0.00     0.188 C 
ENDROOT
BRANCH   1   2
ATOM      2  O   UNL A   1      41.718  19.551  25.401  1.00  0.00    -0.377 OA
BRANCH   2   3
ATOM      3  C   UNL A   1      40.550  19.813  26.155  1.00  0.00     0.188 C 
BRANCH   3   4
ATOM      4  C   UNL A   1      40.418  21.243  26.727  1.00  0.00     0.188 C 
BRANCH   4   5
ATOM      5  O   UNL A   1      39.258  22.023  26.481  1.00  0.00    -0.376 OA
BRANCH   5   6
ATOM      6  C   UNL A   1      38.291  21.634  25.517  1.00  0.00     0.202 C 
BRANCH   6   7
ATOM      7  C   UNL A   1      36.782  21.756  25.751  1.00  0.00     0.261 C 
BRANCH   7   8
ATOM      8  O   UNL A   1      35.988  21.629  24.572  1.00  0.00    -0.460 OA
BRANCH   8   9
ATOM      9  C   UNL A   1      35.713  22.769  23.907  1.00  0.00     0.340 C 
ATOM     10  O   UNL A   1      36.188  23.101  22.831  1.00  0.00    -0.246 OA
BRANCH   9  11
ATOM     11  C   UNL A   1      34.604  23.526  24.545  1.00  0.00     0.083 A 
ATOM     12  C   UNL A   1      33.273  23.071  24.744  1.00  0.00     0.053 A 
ATOM     13  C   UNL A   1      32.440  23.946  25.474  1.00  0.00     0.047 A 
ATOM     14  C   UNL A   1      32.836  25.235  25.849  1.00  0.00     0.043 A 
ATOM     15  C   UNL A   1      34.996  24.832  24.927  1.00  0.00     0.019 A 
ATOM     16  Cl  UNL A   1      31.732  26.264  26.676  1.00  0.00    -0.084 Cl
ATOM     17  C   UNL A   1      34.105  25.696  25.548  1.00  0.00     0.021 A 
BRANCH  12  18
ATOM     18  N   UNL A   1      32.749  21.882  24.256  1.00  0.00    -0.356 N 
ATOM     19  C   UNL A   1      32.566  22.669  21.821  1.00  0.00     0.037 C 
ATOM     20  C   UNL A   1      32.063  21.716  22.919  1.00  0.00     0.134 C 
ATOM     21  C   UNL A   1      32.232  20.256  22.334  1.00  0.00     0.287 C 
ATOM     22  N   UNL A   1      32.098  19.174  23.319  1.00  0.00    -0.329 N 
ATOM     23  C   UNL A   1      32.563  20.731  25.169  1.00  0.00     0.182 C 
ATOM     24  C   UNL A   1      32.493  17.853  22.832  1.00  0.00     0.262 C 
ATOM     25  C   UNL A   1      33.020  19.470  24.431  1.00  0.00     0.203 C 
ATOM     26  H   UNL A   1      31.110  19.142  23.570  1.00  0.00     0.348 HD
ATOM     27  C   UNL A   1      33.095  17.150  24.056  1.00  0.00     0.068 C 
ATOM     28  C   UNL A   1      32.994  18.166  25.193  1.00  0.00     0.073 C 
ENDBRANCH  12  18
ENDBRANCH   9  11
ENDBRANCH   8   9
ENDBRANCH   7   8
ENDBRANCH   6   7
ENDBRANCH   5   6
ENDBRANCH   4   5
ENDBRANCH   3   4
ENDBRANCH   2   3
ENDBRANCH   1   2
BRANCH   1  29
ATOM     29  C   UNL A   1      44.205  18.830  25.390  1.00  0.00     0.188 C 
BRANCH  29  30
ATOM     30  O   UNL A   1      44.337  19.571  24.190  1.00  0.00    -0.376 OA
BRANCH  30  31
ATOM     31  C   UNL A   1      45.041  20.799  24.210  1.00  0.00     0.202 C 
BRANCH  31  32
ATOM     32  C   UNL A   1      45.054  21.578  25.533  1.00  0.00     0.261 C 
BRANCH  32  33
ATOM     33  O   UNL A   1      44.900  23.000  25.421  1.00  0.00    -0.460 OA
BRANCH  33  34
ATOM     34  C   UNL A   1      43.641  23.475  25.467  1.00  0.00     0.338 C 
ATOM     35  O   UNL A   1      42.702  23.159  24.747  1.00  0.00    -0.246 OA
BRANCH  34  36
ATOM     36  C   UNL A   1      43.520  24.339  26.652  1.00  0.00     0.060 A 
ATOM     37  C   UNL A   1      42.960  23.811  27.822  1.00  0.00     0.016 A 
ATOM     38  C   UNL A   1      43.918  25.677  26.590  1.00  0.00     0.016 A 
ATOM     39  C   UNL A   1      42.731  24.642  28.916  1.00  0.00     0.010 A 
ATOM     40  C   UNL A   1      43.672  26.512  27.681  1.00  0.00     0.010 A 
ATOM     41  C   UNL A   1      43.028  26.008  28.825  1.00  0.00    -0.014 A 
BRANCH  41  42
ATOM     42  C   UNL A   1      42.437  26.941  29.812  1.00  0.00     0.031 A 
ATOM     43  C   UNL A   1      43.149  27.125  31.126  1.00  0.00     0.074 A 
ATOM     44  C   UNL A   1      41.327  27.648  29.536  1.00  0.00     0.049 A 
ATOM     45  N   UNL A   1      42.823  27.868  32.153  1.00  0.00    -0.248 NA
ATOM     46  C   UNL A   1      44.400  26.366  31.305  1.00  0.00     0.031 C 
ATOM     47  C   UNL A   1      40.584  27.606  28.279  1.00  0.00     0.029 A 
ATOM     48  N   UNL A   1      40.637  28.548  30.307  1.00  0.00    -0.354 N 
ATOM     49  C   UNL A   1      43.822  27.660  33.097  1.00  0.00     0.074 A 
ATOM     50  C   UNL A   1      44.742  26.694  32.541  1.00  0.00     0.031 C 
ATOM     51  C   UNL A   1      39.536  28.442  28.365  1.00  0.00     0.029 A 
ATOM     52  C   UNL A   1      39.516  29.051  29.694  1.00  0.00     0.049 A 
ATOM     53  H   UNL A   1      40.917  28.808  31.214  1.00  0.00     0.167 HD
ATOM     54  C   UNL A   1      43.968  28.229  34.316  1.00  0.00     0.031 A 
ATOM     55  C   UNL A   1      38.577  29.896  30.162  1.00  0.00     0.031 A 
ATOM     56  C   UNL A   1      43.044  29.176  34.876  1.00  0.00     0.049 A 
ATOM     57  C   UNL A   1      38.712  30.444  31.561  1.00  0.00     0.074 A 
ATOM     58  C   UNL A   1      43.096  29.809  36.106  1.00  0.00     0.029 A 
ATOM     59  N   UNL A   1      41.895  29.623  34.243  1.00  0.00    -0.354 N 
ATOM     60  N   UNL A   1      39.665  30.249  32.441  1.00  0.00    -0.248 NA
ATOM     61  C   UNL A   1      37.642  31.340  32.025  1.00  0.00     0.031 C 
ATOM     62  C   UNL A   1      41.946  30.594  36.240  1.00  0.00     0.029 A 
ATOM     63  C   UNL A   1      41.217  30.508  35.064  1.00  0.00     0.049 A 
ATOM     64  H   UNL A   1      41.603  29.351  33.342  1.00  0.00     0.167 HD
ATOM     65  C   UNL A   1      39.333  31.033  33.541  1.00  0.00     0.074 A 
ATOM     66  C   UNL A   1      38.098  31.712  33.212  1.00  0.00     0.031 C 
ATOM     67  C   UNL A   1      39.994  31.183  34.716  1.00  0.00     0.031 A 
BRANCH  54  68
ATOM     68  C   UNL A   1      45.156  27.810  35.137  1.00  0.00    -0.014 A 
ATOM     69  C   UNL A   1      45.066  26.771  36.079  1.00  0.00     0.009 A 
ATOM     70  C   UNL A   1      46.391  28.450  34.950  1.00  0.00     0.009 A 
ATOM     71  C   UNL A   1      46.180  26.407  36.839  1.00  0.00     0.001 A 
ATOM     72  C   UNL A   1      47.510  28.061  35.688  1.00  0.00     0.001 A 
ATOM     73  C   UNL A   1      47.401  27.047  36.639  1.00  0.00     0.000 A 
ENDBRANCH  54  68
BRANCH  55  74
ATOM     74  C   UNL A   1      37.414  30.275  29.315  1.00  0.00    -0.014 A 
ATOM     75  C   UNL A   1      36.422  29.335  28.997  1.00  0.00     0.009 A 
ATOM     76  C   UNL A   1      37.313  31.570  28.784  1.00  0.00     0.009 A 
ATOM     77  C   UNL A   1      35.375  29.672  28.135  1.00  0.00     0.001 A 
ATOM     78  C   UNL A   1      36.247  31.915  27.951  1.00  0.00     0.001 A 
ATOM     79  C   UNL A   1      35.287  30.963  27.616  1.00  0.00     0.000 A 
ENDBRANCH  55  74
BRANCH  67  80
ATOM     80  C   UNL A   1      39.434  32.170  35.705  1.00  0.00    -0.014 A 
ATOM     81  C   UNL A   1      38.398  31.827  36.586  1.00  0.00     0.009 A 
ATOM     82  C   UNL A   1      39.986  33.460  35.776  1.00  0.00     0.009 A 
ATOM     83  C   UNL A   1      37.896  32.770  37.488  1.00  0.00     0.001 A 
ATOM     84  C   UNL A   1      39.509  34.388  36.702  1.00  0.00     0.001 A 
ATOM     85  C   UNL A   1      38.455  34.047  37.548  1.00  0.00     0.000 A 
ENDBRANCH  67  80
ENDBRANCH  41  42
ENDBRANCH  34  36
ENDBRANCH  33  34
ENDBRANCH  32  33
ENDBRANCH  31  32
ENDBRANCH  30  31
ENDBRANCH  29  30
ENDBRANCH   1  29
TORSDOF 21
ENDMDL
MODEL 2
REMARK VINA RESULT:      -9.8      4.172      9.146
REMARK SMILES C[C@H]1C[N@H+]2CCC[C@@H]2CN1c1cc(Cl)ccc1C(=O)OCCOCCOCCOCCOC(=O)c1ccc(-c2c3nc(c(-c4ccccc4)c4ccc([nH]4)c(-c4ccccc4)c4nc(c(-c5ccccc5)c5ccc2[nH]5)C=C4)C=C3)cc1
REMARK SMILES IDX 27 1 26 2 25 3 24 4 23 5 22 6 21 7 20 8 18 9 19 10 17 11
REMARK SMILES IDX 11 12 12 13 13 14 16 15 14 16 15 17 10 18 1 19 2 20 3 21
REMARK SMILES IDX 4 22 9 23 5 24 8 25 6 27 7 28 28 29 29 30 30 31 31 32 32 33
REMARK SMILES IDX 33 34 34 35 35 36 36 37 82 38 37 39 81 40 38 41 39 42 40 43
REMARK SMILES IDX 75 44 41 45 80 46 74 47 76 48 42 49 79 50 73 51 72 52 43 54
REMARK SMILES IDX 65 55 50 56 64 57 51 58 54 59 63 60 77 61 52 62 53 63 62 65
REMARK SMILES IDX 78 66 55 67 44 68 45 69 49 70 46 71 48 72 47 73 66 74 67 75
REMARK SMILES IDX 71 76 68 77 70 78 69 79 56 80 57 81 61 82 58 83 60 84 59 85
REMARK H PARENT 4 26 76 53 54 64
REMARK Flexibility Score: inf
ROOT
ATOM      1  C   UNL A   1      31.960  29.287  24.636  1.00  0.00     0.188 C 
ENDROOT
BRANCH   1   2
ATOM      2  O   UNL A   1      33.291  28.922  24.300  1.00  0.00    -0.377 OA
BRANCH   2   3
ATOM      3  C   UNL A   1      33.606  28.602  22.959  1.00  0.00     0.188 C 
BRANCH   3   4
ATOM      4  C   UNL A   1      32.849  27.399  22.352  1.00  0.00     0.188 C 
BRANCH   4   5
ATOM      5  O   UNL A   1      33.506  26.160  22.133  1.00  0.00    -0.376 OA
BRANCH   5   6
ATOM      6  C   UNL A   1      34.032  25.396  23.208  1.00  0.00     0.202 C 
BRANCH   6   7
ATOM      7  C   UNL A   1      34.546  23.963  23.041  1.00  0.00     0.261 C 
BRANCH   7   8
ATOM      8  O   UNL A   1      35.634  23.621  23.900  1.00  0.00    -0.460 OA
BRANCH   8   9
ATOM      9  C   UNL A   1      35.309  23.127  25.112  1.00  0.00     0.340 C 
ATOM     10  O   UNL A   1      35.291  23.757  26.159  1.00  0.00    -0.246 OA
BRANCH   9  11
ATOM     11  C   UNL A   1      34.786  21.739  25.020  1.00  0.00     0.083 A 
ATOM     12  C   UNL A   1      33.424  21.341  25.080  1.00  0.00     0.053 A 
ATOM     13  C   UNL A   1      33.186  19.968  24.857  1.00  0.00     0.047 A 
ATOM     14  C   UNL A   1      34.217  19.029  24.738  1.00  0.00     0.043 A 
ATOM     15  C   UNL A   1      35.823  20.782  24.899  1.00  0.00     0.019 A 
ATOM     16  Cl  UNL A   1      33.839  17.361  24.540  1.00  0.00    -0.084 Cl
ATOM     17  C   UNL A   1      35.541  19.427  24.790  1.00  0.00     0.021 A 
BRANCH  12  18
ATOM     18  N   UNL A   1      32.354  22.178  25.366  1.00  0.00    -0.356 N 
ATOM     19  C   UNL A   1      32.892  22.427  27.862  1.00  0.00     0.037 C 
ATOM     20  C   UNL A   1      31.828  22.477  26.752  1.00  0.00     0.134 C 
ATOM     21  C   UNL A   1      31.171  23.913  26.848  1.00  0.00     0.287 C 
ATOM     22  N   UNL A   1      30.342  24.293  25.696  1.00  0.00    -0.329 N 
ATOM     23  C   UNL A   1      31.450  22.614  24.278  1.00  0.00     0.182 C 
ATOM     24  C   UNL A   1      29.938  25.699  25.672  1.00  0.00     0.262 C 
ATOM     25  C   UNL A   1      31.155  24.102  24.482  1.00  0.00     0.203 C 
ATOM     26  H   UNL A   1      29.501  23.719  25.752  1.00  0.00     0.348 HD
ATOM     27  C   UNL A   1      29.902  26.069  24.184  1.00  0.00     0.068 C 
ATOM     28  C   UNL A   1      30.306  24.795  23.443  1.00  0.00     0.073 C 
ENDBRANCH  12  18
ENDBRANCH   9  11
ENDBRANCH   8   9
ENDBRANCH   7   8
ENDBRANCH   6   7
ENDBRANCH   5   6
ENDBRANCH   4   5
ENDBRANCH   3   4
ENDBRANCH   2   3
ENDBRANCH   1   2
BRANCH   1  29
ATOM     29  C   UNL A   1      31.659  30.385  25.681  1.00  0.00     0.188 C 
BRANCH  29  30
ATOM     30  O   UNL A   1      32.247  30.172  26.952  1.00  0.00    -0.376 OA
BRANCH  30  31
ATOM     31  C   UNL A   1      33.542  30.685  27.209  1.00  0.00     0.202 C 
BRANCH  31  32
ATOM     32  C   UNL A   1      33.634  31.973  28.039  1.00  0.00     0.261 C 
BRANCH  32  33
ATOM     33  O   UNL A   1      34.947  32.331  28.491  1.00  0.00    -0.460 OA
BRANCH  33  34
ATOM     34  C   UNL A   1      35.314  31.869  29.702  1.00  0.00     0.338 C 
ATOM     35  O   UNL A   1      34.759  32.077  30.775  1.00  0.00    -0.246 OA
BRANCH  34  36
ATOM     36  C   UNL A   1      36.421  30.919  29.514  1.00  0.00     0.060 A 
ATOM     37  C   UNL A   1      36.991  30.311  30.639  1.00  0.00     0.016 A 
ATOM     38  C   UNL A   1      36.921  30.666  28.234  1.00  0.00     0.016 A 
ATOM     39  C   UNL A   1      38.113  29.499  30.494  1.00  0.00     0.010 A 
ATOM     40  C   UNL A   1      38.055  29.865  28.091  1.00  0.00     0.010 A 
ATOM     41  C   UNL A   1      38.685  29.325  29.227  1.00  0.00    -0.014 A 
BRANCH  41  42
ATOM     42  C   UNL A   1      40.068  28.802  29.126  1.00  0.00     0.031 A 
ATOM     43  C   UNL A   1      41.202  29.734  29.460  1.00  0.00     0.074 A 
ATOM     44  C   UNL A   1      40.314  27.522  28.798  1.00  0.00     0.049 A 
ATOM     45  N   UNL A   1      42.492  29.519  29.431  1.00  0.00    -0.248 NA
ATOM     46  C   UNL A   1      40.829  31.095  29.885  1.00  0.00     0.031 C 
ATOM     47  C   UNL A   1      39.302  26.508  28.514  1.00  0.00     0.029 A 
ATOM     48  N   UNL A   1      41.507  26.859  28.654  1.00  0.00    -0.354 N 
ATOM     49  C   UNL A   1      43.081  30.715  29.826  1.00  0.00     0.074 A 
ATOM     50  C   UNL A   1      42.013  31.662  30.050  1.00  0.00     0.031 C 
ATOM     51  C   UNL A   1      39.916  25.348  28.226  1.00  0.00     0.029 A 
ATOM     52  C   UNL A   1      41.364  25.548  28.272  1.00  0.00     0.049 A 
ATOM     53  H   UNL A   1      42.381  27.284  28.808  1.00  0.00     0.167 HD
ATOM     54  C   UNL A   1      44.393  30.999  29.997  1.00  0.00     0.031 A 
ATOM     55  C   UNL A   1      42.300  24.624  27.980  1.00  0.00     0.031 A 
ATOM     56  C   UNL A   1      45.455  30.062  29.757  1.00  0.00     0.049 A 
ATOM     57  C   UNL A   1      43.758  24.994  28.086  1.00  0.00     0.074 A 
ATOM     58  C   UNL A   1      46.819  30.250  29.896  1.00  0.00     0.029 A 
ATOM     59  N   UNL A   1      45.271  28.758  29.324  1.00  0.00    -0.354 N 
ATOM     60  N   UNL A   1      44.303  26.124  28.471  1.00  0.00    -0.248 NA
ATOM     61  C   UNL A   1      44.730  23.951  27.729  1.00  0.00     0.031 C 
ATOM     62  C   UNL A   1      47.463  29.078  29.488  1.00  0.00     0.029 A 
ATOM     63  C   UNL A   1      46.498  28.136  29.168  1.00  0.00     0.049 A 
ATOM     64  H   UNL A   1      44.398  28.337  29.152  1.00  0.00     0.167 HD
ATOM     65  C   UNL A   1      45.677  25.911  28.445  1.00  0.00     0.074 A 
ATOM     66  C   UNL A   1      45.880  24.543  28.018  1.00  0.00     0.031 C 
ATOM     67  C   UNL A   1      46.682  26.769  28.753  1.00  0.00     0.031 A 
BRANCH  54  68
ATOM     68  C   UNL A   1      44.747  32.394  30.432  1.00  0.00    -0.014 A 
ATOM     69  C   UNL A   1      44.845  32.735  31.792  1.00  0.00     0.009 A 
ATOM     70  C   UNL A   1      45.009  33.378  29.467  1.00  0.00     0.009 A 
ATOM     71  C   UNL A   1      45.164  34.040  32.173  1.00  0.00     0.001 A 
ATOM     72  C   UNL A   1      45.360  34.673  29.851  1.00  0.00     0.001 A 
ATOM     73  C   UNL A   1      45.427  35.006  31.203  1.00  0.00     0.000 A 
ENDBRANCH  54  68
BRANCH  55  74
ATOM     74  C   UNL A   1      41.899  23.259  27.544  1.00  0.00    -0.014 A 
ATOM     75  C   UNL A   1      41.715  22.964  26.184  1.00  0.00     0.009 A 
ATOM     76  C   UNL A   1      41.657  22.253  28.493  1.00  0.00     0.009 A 
ATOM     77  C   UNL A   1      41.262  21.704  25.787  1.00  0.00     0.001 A 
ATOM     78  C   UNL A   1      41.237  20.983  28.090  1.00  0.00     0.001 A 
ATOM     79  C   UNL A   1      41.026  20.714  26.739  1.00  0.00     0.000 A 
ENDBRANCH  55  74
BRANCH  67  80
ATOM     80  C   UNL A   1      48.088  26.234  28.708  1.00  0.00    -0.014 A 
ATOM     81  C   UNL A   1      48.796  26.115  27.503  1.00  0.00     0.009 A 
ATOM     82  C   UNL A   1      48.725  25.878  29.908  1.00  0.00     0.009 A 
ATOM     83  C   UNL A   1      50.098  25.608  27.497  1.00  0.00     0.001 A 
ATOM     84  C   UNL A   1      50.038  25.407  29.903  1.00  0.00     0.001 A 
ATOM     85  C   UNL A   1      50.720  25.260  28.697  1.00  0.00     0.000 A 
ENDBRANCH  67  80
ENDBRANCH  41  42
ENDBRANCH  34  36
ENDBRANCH  33  34
ENDBRANCH  32  33
ENDBRANCH  31  32
ENDBRANCH  30  31
ENDBRANCH  29  30
ENDBRANCH   1  29
TORSDOF 21
ENDMDL
MODEL 3
REMARK VINA RESULT:      -9.6      5.129     10.063
REMARK SMILES C[C@H]1C[N@H+]2CCC[C@@H]2CN1c1cc(Cl)ccc1C(=O)OCCOCCOCCOCCOC(=O)c1ccc(-c2c3nc(c(-c4ccccc4)c4ccc([nH]4)c(-c4ccccc4)c4nc(c(-c5ccccc5)c5ccc2[nH]5)C=C4)C=C3)cc1
REMARK SMILES IDX 27 1 26 2 25 3 24 4 23 5 22 6 21 7 20 8 18 9 19 10 17 11
REMARK SMILES IDX 11 12 12 13 13 14 16 15 14 16 15 17 10 18 1 19 2 20 3 21
REMARK SMILES IDX 4 22 9 23 5 24 8 25 6 27 7 28 28 29 29 30 30 31 31 32 32 33
REMARK SMILES IDX 33 34 34 35 35 36 36 37 82 38 37 39 81 40 38 41 39 42 40 43
REMARK SMILES IDX 75 44 41 45 80 46 74 47 76 48 42 49 79 50 73 51 72 52 43 54
REMARK SMILES IDX 65 55 50 56 64 57 51 58 54 59 63 60 77 61 52 62 53 63 62 65
REMARK SMILES IDX 78 66 55 67 44 68 45 69 49 70 46 71 48 72 47 73 66 74 67 75
REMARK SMILES IDX 71 76 68 77 70 78 69 79 56 80 57 81 61 82 58 83 60 84 59 85
REMARK H PARENT 4 26 76 53 54 64
REMARK Flexibility Score: inf
ROOT
ATOM      1  C   UNL A   1      34.941  32.836  29.851  1.00  0.00     0.188 C 
ENDROOT
BRANCH   1   2
ATOM      2  O   UNL A   1      34.390  33.986  29.225  1.00  0.00    -0.377 OA
BRANCH   2   3
ATOM      3  C   UNL A   1      33.982  33.912  27.873  1.00  0.00     0.188 C 
BRANCH   3   4
ATOM      4  C   UNL A   1      32.619  33.233  27.611  1.00  0.00     0.188 C 
BRANCH   4   5
ATOM      5  O   UNL A   1      32.523  31.824  27.459  1.00  0.00    -0.376 OA
BRANCH   5   6
ATOM      6  C   UNL A   1      33.623  31.048  27.008  1.00  0.00     0.202 C 
BRANCH   6   7
ATOM      7  C   UNL A   1      33.739  29.541  27.255  1.00  0.00     0.261 C 
BRANCH   7   8
ATOM      8  O   UNL A   1      32.701  28.762  26.660  1.00  0.00    -0.460 OA
BRANCH   8   9
ATOM      9  C   UNL A   1      32.879  28.411  25.370  1.00  0.00     0.340 C 
ATOM     10  O   UNL A   1      33.924  28.017  24.874  1.00  0.00    -0.246 OA
BRANCH   9  11
ATOM     11  C   UNL A   1      31.593  28.378  24.626  1.00  0.00     0.083 A 
ATOM     12  C   UNL A   1      30.916  27.221  24.155  1.00  0.00     0.053 A 
ATOM     13  C   UNL A   1      29.653  27.457  23.570  1.00  0.00     0.047 A 
ATOM     14  C   UNL A   1      29.159  28.744  23.325  1.00  0.00     0.043 A 
ATOM     15  C   UNL A   1      31.086  29.675  24.373  1.00  0.00     0.019 A 
ATOM     16  Cl  UNL A   1      27.640  28.944  22.541  1.00  0.00    -0.084 Cl
ATOM     17  C   UNL A   1      29.888  29.860  23.696  1.00  0.00     0.021 A 
BRANCH  12  18
ATOM     18  N   UNL A   1      31.412  25.925  24.202  1.00  0.00    -0.356 N 
ATOM     19  C   UNL A   1      32.854  26.133  22.090  1.00  0.00     0.037 C 
ATOM     20  C   UNL A   1      32.089  25.210  23.055  1.00  0.00     0.134 C 
ATOM     21  C   UNL A   1      33.142  24.139  23.553  1.00  0.00     0.287 C 
ATOM     22  N   UNL A   1      32.713  23.341  24.710  1.00  0.00    -0.329 N 
ATOM     23  C   UNL A   1      31.033  25.033  25.321  1.00  0.00     0.182 C 
ATOM     24  C   UNL A   1      33.769  22.530  25.317  1.00  0.00     0.262 C 
ATOM     25  C   UNL A   1      32.290  24.279  25.765  1.00  0.00     0.203 C 
ATOM     26  H   UNL A   1      31.985  22.715  24.367  1.00  0.00     0.348 HD
ATOM     27  C   UNL A   1      33.438  22.517  26.815  1.00  0.00     0.068 C 
ATOM     28  C   UNL A   1      32.169  23.357  26.954  1.00  0.00     0.073 C 
ENDBRANCH  12  18
ENDBRANCH   9  11
ENDBRANCH   8   9
ENDBRANCH   7   8
ENDBRANCH   6   7
ENDBRANCH   5   6
ENDBRANCH   4   5
ENDBRANCH   3   4
ENDBRANCH   2   3
ENDBRANCH   1   2
BRANCH   1  29
ATOM     29  C   UNL A   1      34.554  32.432  31.290  1.00  0.00     0.188 C 
BRANCH  29  30
ATOM     30  O   UNL A   1      33.983  33.471  32.066  1.00  0.00    -0.376 OA
BRANCH  30  31
ATOM     31  C   UNL A   1      34.424  33.661  33.398  1.00  0.00     0.202 C 
BRANCH  31  32
ATOM     32  C   UNL A   1      35.529  34.702  33.629  1.00  0.00     0.261 C 
BRANCH  32  33
ATOM     33  O   UNL A   1      36.867  34.263  33.353  1.00  0.00    -0.460 OA
BRANCH  33  34
ATOM     34  C   UNL A   1      37.256  33.114  33.938  1.00  0.00     0.338 C 
ATOM     35  O   UNL A   1      36.998  32.735  35.074  1.00  0.00    -0.246 OA
BRANCH  34  36
ATOM     36  C   UNL A   1      37.924  32.286  32.922  1.00  0.00     0.060 A 
ATOM     37  C   UNL A   1      38.605  31.132  33.328  1.00  0.00     0.016 A 
ATOM     38  C   UNL A   1      37.916  32.677  31.580  1.00  0.00     0.016 A 
ATOM     39  C   UNL A   1      39.340  30.398  32.400  1.00  0.00     0.010 A 
ATOM     40  C   UNL A   1      38.666  31.951  30.654  1.00  0.00     0.010 A 
ATOM     41  C   UNL A   1      39.424  30.842  31.073  1.00  0.00    -0.014 A 
BRANCH  41  42
ATOM     42  C   UNL A   1      40.493  30.305  30.200  1.00  0.00     0.031 A 
ATOM     43  C   UNL A   1      41.716  31.155  29.975  1.00  0.00     0.074 A 
ATOM     44  C   UNL A   1      40.412  29.077  29.660  1.00  0.00     0.049 A 
ATOM     45  N   UNL A   1      42.774  30.915  29.244  1.00  0.00    -0.248 NA
ATOM     46  C   UNL A   1      41.748  32.453  30.673  1.00  0.00     0.031 C 
ATOM     47  C   UNL A   1      39.311  28.136  29.853  1.00  0.00     0.029 A 
ATOM     48  N   UNL A   1      41.285  28.412  28.836  1.00  0.00    -0.354 N 
ATOM     49  C   UNL A   1      43.589  32.032  29.388  1.00  0.00     0.074 A 
ATOM     50  C   UNL A   1      42.890  32.964  30.242  1.00  0.00     0.031 C 
ATOM     51  C   UNL A   1      39.573  27.012  29.164  1.00  0.00     0.029 A 
ATOM     52  C   UNL A   1      40.842  27.170  28.455  1.00  0.00     0.049 A 
ATOM     53  H   UNL A   1      42.146  28.790  28.546  1.00  0.00     0.167 HD
ATOM     54  C   UNL A   1      44.817  32.258  28.865  1.00  0.00     0.031 A 
ATOM     55  C   UNL A   1      41.396  26.273  27.616  1.00  0.00     0.031 A 
ATOM     56  C   UNL A   1      45.504  31.338  28.001  1.00  0.00     0.049 A 
ATOM     57  C   UNL A   1      42.721  26.590  26.970  1.00  0.00     0.074 A 
ATOM     58  C   UNL A   1      46.749  31.474  27.412  1.00  0.00     0.029 A 
ATOM     59  N   UNL A   1      45.001  30.111  27.599  1.00  0.00    -0.354 N 
ATOM     60  N   UNL A   1      43.489  27.643  27.121  1.00  0.00    -0.248 NA
ATOM     61  C   UNL A   1      43.261  25.583  26.044  1.00  0.00     0.031 C 
ATOM     62  C   UNL A   1      46.972  30.353  26.605  1.00  0.00     0.029 A 
ATOM     63  C   UNL A   1      45.900  29.487  26.752  1.00  0.00     0.049 A 
ATOM     64  H   UNL A   1      44.131  29.739  27.874  1.00  0.00     0.167 HD
ATOM     65  C   UNL A   1      44.619  27.403  26.348  1.00  0.00     0.074 A 
ATOM     66  C   UNL A   1      44.441  26.103  25.739  1.00  0.00     0.031 C 
ATOM     67  C   UNL A   1      45.711  28.187  26.163  1.00  0.00     0.031 A 
BRANCH  54  68
ATOM     68  C   UNL A   1      45.474  33.571  29.187  1.00  0.00    -0.014 A 
ATOM     69  C   UNL A   1      46.260  33.733  30.341  1.00  0.00     0.009 A 
ATOM     70  C   UNL A   1      45.324  34.658  28.312  1.00  0.00     0.009 A 
ATOM     71  C   UNL A   1      46.851  34.967  30.627  1.00  0.00     0.001 A 
ATOM     72  C   UNL A   1      45.944  35.879  28.584  1.00  0.00     0.001 A 
ATOM     73  C   UNL A   1      46.698  36.035  29.746  1.00  0.00     0.000 A 
ENDBRANCH  54  68
BRANCH  55  74
ATOM     74  C   UNL A   1      40.702  24.990  27.320  1.00  0.00    -0.014 A 
ATOM     75  C   UNL A   1      39.573  24.960  26.487  1.00  0.00     0.009 A 
ATOM     76  C   UNL A   1      41.142  23.793  27.906  1.00  0.00     0.009 A 
ATOM     77  C   UNL A   1      38.877  23.767  26.277  1.00  0.00     0.001 A 
ATOM     78  C   UNL A   1      40.465  22.594  27.667  1.00  0.00     0.001 A 
ATOM     79  C   UNL A   1      39.326  22.584  26.865  1.00  0.00     0.000 A 
ENDBRANCH  55  74
BRANCH  67  80
ATOM     80  C   UNL A   1      46.829  27.630  25.323  1.00  0.00    -0.014 A 
ATOM     81  C   UNL A   1      46.948  27.928  23.957  1.00  0.00     0.009 A 
ATOM     82  C   UNL A   1      47.803  26.818  25.927  1.00  0.00     0.009 A 
ATOM     83  C   UNL A   1      47.995  27.389  23.204  1.00  0.00     0.001 A 
ATOM     84  C   UNL A   1      48.868  26.311  25.182  1.00  0.00     0.001 A 
ATOM     85  C   UNL A   1      48.956  26.585  23.819  1.00  0.00     0.000 A 
ENDBRANCH  67  80
ENDBRANCH  41  42
ENDBRANCH  34  36
ENDBRANCH  33  34
ENDBRANCH  32  33
ENDBRANCH  31  32
ENDBRANCH  30  31
ENDBRANCH  29  30
ENDBRANCH   1  29
TORSDOF 21
ENDMDL
