MODEL 1
REMARK VINA RESULT:      -8.9      0.000      0.000
REMARK SMILES C[C@@H](C(=O)OCCOCCOCCOCCOC(=O)c1ccc(-c2c3nc(c(-c4ccccc4)c4ccc([nH]4)c(-c4ccccc4)c4nc(c(-c5ccccc5)c5ccc2[nH]5)C=C4)C=C3)cc1)N1C(=O)/C(=C/c2ccc(-c3ccc([N+](=O)[O-])cc3Cl)o2)SC1=S
REMARK SMILES IDX 10 1 9 2 8 3 7 4 6 5 5 6 3 7 4 8 2 9 1 10 68 11 69 12 89 13
REMARK SMILES IDX 70 14 71 15 88 16 90 17 72 18 73 19 74 20 87 21 75 22 76 23
REMARK SMILES IDX 77 24 78 25 85 26 79 27 84 28 86 29 80 30 81 31 82 32 83 33
REMARK SMILES IDX 11 34 12 35 13 36 14 37 15 38 16 39 17 40 18 41 19 42 20 43
REMARK SMILES IDX 21 44 67 45 22 46 66 47 23 48 24 49 25 50 60 51 26 52 65 53
REMARK SMILES IDX 59 54 61 55 27 56 64 57 58 58 57 59 28 61 50 62 35 63 49 64
REMARK SMILES IDX 36 65 39 66 48 67 62 68 37 69 38 70 47 72 63 73 40 74 29 75
REMARK SMILES IDX 30 76 34 77 31 78 33 79 32 80 51 81 52 82 56 83 53 84 55 85
REMARK SMILES IDX 54 86 41 87 42 88 46 89 43 90 45 91 44 92
REMARK H PARENT 61 60 39 71
REMARK Flexibility Score: inf
ROOT
ATOM      1  C   UNL A   1      34.245  23.624  25.087  1.00  0.00     0.188 C 
ENDROOT
BRANCH   1   2
ATOM      2  C   UNL A   1      35.370  23.548  26.141  1.00  0.00     0.188 C 
BRANCH   2   3
ATOM      3  O   UNL A   1      36.685  23.140  25.784  1.00  0.00    -0.376 OA
BRANCH   3   4
ATOM      4  C   UNL A   1      36.990  21.768  25.606  1.00  0.00     0.202 C 
BRANCH   4   5
ATOM      5  C   UNL A   1      38.452  21.289  25.494  1.00  0.00     0.261 C 
BRANCH   5   6
ATOM      6  O   UNL A   1      39.290  21.386  26.663  1.00  0.00    -0.462 OA
BRANCH   6   7
ATOM      7  C   UNL A   1      40.388  22.175  26.544  1.00  0.00     0.329 C 
ATOM      8  O   UNL A   1      40.335  23.400  26.455  1.00  0.00    -0.250 OA
BRANCH   7   9
ATOM      9  C   UNL A   1      41.729  21.406  26.473  1.00  0.00     0.199 C 
ATOM     10  C   UNL A   1      41.983  20.223  27.413  1.00  0.00     0.044 C 
BRANCH   9  11
ATOM     11  N   UNL A   1      42.816  22.427  26.444  1.00  0.00    -0.279 N 
ATOM     12  C   UNL A   1      43.560  22.669  25.297  1.00  0.00     0.267 C 
ATOM     13  C   UNL A   1      43.277  23.045  27.594  1.00  0.00     0.149 C 
ATOM     14  O   UNL A   1      43.334  22.244  24.172  1.00  0.00    -0.268 OA
ATOM     15  C   UNL A   1      44.746  23.520  25.593  1.00  0.00     0.084 C 
ATOM     16  S   UNL A   1      44.746  23.945  27.256  1.00  0.00    -0.054 SA
ATOM     17  S   UNL A   1      42.612  23.029  29.126  1.00  0.00    -0.052 S 
ATOM     18  C   UNL A   1      45.637  23.866  24.650  1.00  0.00     0.068 C 
BRANCH  18  19
ATOM     19  C   UNL A   1      46.795  24.645  24.926  1.00  0.00     0.128 A 
ATOM     20  C   UNL A   1      47.375  24.962  26.150  1.00  0.00     0.051 A 
ATOM     21  O   UNL A   1      47.557  25.240  23.943  1.00  0.00    -0.457 OA
ATOM     22  C   UNL A   1      48.464  25.827  25.905  1.00  0.00     0.051 A 
ATOM     23  C   UNL A   1      48.519  25.997  24.541  1.00  0.00     0.136 A 
BRANCH  23  24
ATOM     24  C   UNL A   1      49.374  26.804  23.680  1.00  0.00     0.036 A 
ATOM     25  C   UNL A   1      48.798  27.400  22.540  1.00  0.00     0.020 A 
ATOM     26  C   UNL A   1      50.763  26.934  23.872  1.00  0.00     0.058 A 
ATOM     27  C   UNL A   1      49.581  28.083  21.604  1.00  0.00     0.086 A 
ATOM     28  C   UNL A   1      51.556  27.616  22.940  1.00  0.00     0.106 A 
ATOM     29  Cl  UNL A   1      51.592  26.204  25.207  1.00  0.00    -0.083 Cl
ATOM     30  C   UNL A   1      50.962  28.176  21.803  1.00  0.00     0.270 A 
BRANCH  30  31
ATOM     31  N   UNL A   1      51.800  28.836  20.793  1.00  0.00     0.062 N 
ATOM     32  O   UNL A   1      51.307  29.786  20.169  1.00  0.00    -0.258 OA
ATOM     33  O   UNL A   1      52.945  28.397  20.619  1.00  0.00    -0.258 OA
ENDBRANCH  30  31
ENDBRANCH  23  24
ENDBRANCH  18  19
ENDBRANCH   9  11
ENDBRANCH   7   9
ENDBRANCH   6   7
ENDBRANCH   5   6
ENDBRANCH   4   5
ENDBRANCH   3   4
ENDBRANCH   2   3
ENDBRANCH   1   2
BRANCH   1  34
ATOM     34  O   UNL A   1      34.330  24.725  24.202  1.00  0.00    -0.377 OA
BRANCH  34  35
ATOM     35  C   UNL A   1      33.652  25.899  24.617  1.00  0.00     0.188 C 
BRANCH  35  36
ATOM     36  C   UNL A   1      32.190  25.742  25.074  1.00  0.00     0.188 C 
BRANCH  36  37
ATOM     37  O   UNL A   1      31.372  26.864  24.769  1.00  0.00    -0.376 OA
BRANCH  37  38
ATOM     38  C   UNL A   1      31.476  28.040  25.556  1.00  0.00     0.202 C 
BRANCH  38  39
ATOM     39  C   UNL A   1      31.944  29.330  24.861  1.00  0.00     0.261 C 
BRANCH  39  40
ATOM     40  O   UNL A   1      33.066  30.005  25.448  1.00  0.00    -0.460 OA
BRANCH  40  41
ATOM     41  C   UNL A   1      32.829  30.886  26.441  1.00  0.00     0.338 C 
ATOM     42  O   UNL A   1      31.828  31.562  26.602  1.00  0.00    -0.246 OA
BRANCH  41  43
ATOM     43  C   UNL A   1      33.911  30.741  27.438  1.00  0.00     0.060 A 
ATOM     44  C   UNL A   1      34.487  31.898  27.981  1.00  0.00     0.016 A 
ATOM     45  C   UNL A   1      34.337  29.478  27.857  1.00  0.00     0.016 A 
ATOM     46  C   UNL A   1      35.514  31.795  28.919  1.00  0.00     0.010 A 
ATOM     47  C   UNL A   1      35.386  29.375  28.776  1.00  0.00     0.010 A 
ATOM     48  C   UNL A   1      36.002  30.534  29.282  1.00  0.00    -0.014 A 
BRANCH  48  49
ATOM     49  C   UNL A   1      37.289  30.431  30.010  1.00  0.00     0.031 A 
ATOM     50  C   UNL A   1      38.461  29.820  29.292  1.00  0.00     0.074 A 
ATOM     51  C   UNL A   1      37.432  30.893  31.266  1.00  0.00     0.049 A 
ATOM     52  N   UNL A   1      39.673  29.587  29.723  1.00  0.00    -0.248 NA
ATOM     53  C   UNL A   1      38.230  29.416  27.894  1.00  0.00     0.031 C 
ATOM     54  C   UNL A   1      36.393  31.558  32.049  1.00  0.00     0.029 A 
ATOM     55  N   UNL A   1      38.520  30.864  32.101  1.00  0.00    -0.354 N 
ATOM     56  C   UNL A   1      40.343  29.000  28.657  1.00  0.00     0.074 A 
ATOM     57  C   UNL A   1      39.397  28.885  27.569  1.00  0.00     0.031 C 
ATOM     58  C   UNL A   1      36.895  31.871  33.258  1.00  0.00     0.029 A 
ATOM     59  C   UNL A   1      38.274  31.393  33.344  1.00  0.00     0.049 A 
ATOM     60  H   UNL A   1      39.394  30.499  31.834  1.00  0.00     0.167 HD
ATOM     61  C   UNL A   1      41.632  28.594  28.587  1.00  0.00     0.031 A 
ATOM     62  C   UNL A   1      39.066  31.460  34.433  1.00  0.00     0.031 A 
ATOM     63  C   UNL A   1      42.567  28.690  29.675  1.00  0.00     0.049 A 
ATOM     64  C   UNL A   1      40.469  30.913  34.361  1.00  0.00     0.074 A 
ATOM     65  C   UNL A   1      43.899  28.317  29.701  1.00  0.00     0.029 A 
ATOM     66  N   UNL A   1      42.264  29.184  30.933  1.00  0.00    -0.354 N 
ATOM     67  N   UNL A   1      41.101  30.382  33.341  1.00  0.00    -0.248 NA
ATOM     68  C   UNL A   1      41.270  30.980  35.592  1.00  0.00     0.031 C 
ATOM     69  C   UNL A   1      44.383  28.521  30.997  1.00  0.00     0.029 A 
ATOM     70  C   UNL A   1      43.374  29.093  31.756  1.00  0.00     0.049 A 
ATOM     71  H   UNL A   1      41.388  29.546  31.203  1.00  0.00     0.167 HD
ATOM     72  C   UNL A   1      42.381  30.086  33.797  1.00  0.00     0.074 A 
ATOM     73  C   UNL A   1      42.439  30.510  35.181  1.00  0.00     0.031 C 
ATOM     74  C   UNL A   1      43.417  29.520  33.131  1.00  0.00     0.031 A 
BRANCH  61  75
ATOM     75  C   UNL A   1      42.089  27.960  27.301  1.00  0.00    -0.014 A 
ATOM     76  C   UNL A   1      41.686  26.667  26.935  1.00  0.00     0.009 A 
ATOM     77  C   UNL A   1      42.920  28.684  26.431  1.00  0.00     0.009 A 
ATOM     78  C   UNL A   1      42.136  26.097  25.741  1.00  0.00     0.001 A 
ATOM     79  C   UNL A   1      43.341  28.126  25.223  1.00  0.00     0.001 A 
ATOM     80  C   UNL A   1      42.957  26.829  24.884  1.00  0.00     0.000 A 
ENDBRANCH  61  75
BRANCH  62  81
ATOM     81  C   UNL A   1      38.552  32.047  35.700  1.00  0.00    -0.014 A 
ATOM     82  C   UNL A   1      38.078  31.222  36.732  1.00  0.00     0.009 A 
ATOM     83  C   UNL A   1      38.497  33.440  35.870  1.00  0.00     0.009 A 
ATOM     84  C   UNL A   1      37.537  31.780  37.894  1.00  0.00     0.001 A 
ATOM     85  C   UNL A   1      37.987  33.994  37.045  1.00  0.00     0.001 A 
ATOM     86  C   UNL A   1      37.495  33.164  38.052  1.00  0.00     0.000 A 
ENDBRANCH  62  81
BRANCH  74  87
ATOM     87  C   UNL A   1      44.719  29.367  33.870  1.00  0.00    -0.014 A 
ATOM     88  C   UNL A   1      45.716  30.352  33.815  1.00  0.00     0.009 A 
ATOM     89  C   UNL A   1      44.928  28.236  34.675  1.00  0.00     0.009 A 
ATOM     90  C   UNL A   1      46.911  30.188  34.521  1.00  0.00     0.001 A 
ATOM     91  C   UNL A   1      46.106  28.091  35.407  1.00  0.00     0.001 A 
ATOM     92  C   UNL A   1      47.102  29.062  35.321  1.00  0.00     0.000 A 
ENDBRANCH  74  87
ENDBRANCH  48  49
ENDBRANCH  41  43
ENDBRANCH  40  41
ENDBRANCH  39  40
ENDBRANCH  38  39
ENDBRANCH  37  38
ENDBRANCH  36  37
ENDBRANCH  35  36
ENDBRANCH  34  35
ENDBRANCH   1  34
TORSDOF 24
ENDMDL
MODEL 2
REMARK VINA RESULT:      -8.5      1.777      2.427
REMARK SMILES C[C@@H](C(=O)OCCOCCOCCOCCOC(=O)c1ccc(-c2c3nc(c(-c4ccccc4)c4ccc([nH]4)c(-c4ccccc4)c4nc(c(-c5ccccc5)c5ccc2[nH]5)C=C4)C=C3)cc1)N1C(=O)/C(=C/c2ccc(-c3ccc([N+](=O)[O-])cc3Cl)o2)SC1=S
REMARK SMILES IDX 10 1 9 2 8 3 7 4 6 5 5 6 3 7 4 8 2 9 1 10 68 11 69 12 89 13
REMARK SMILES IDX 70 14 71 15 88 16 90 17 72 18 73 19 74 20 87 21 75 22 76 23
REMARK SMILES IDX 77 24 78 25 85 26 79 27 84 28 86 29 80 30 81 31 82 32 83 33
REMARK SMILES IDX 11 34 12 35 13 36 14 37 15 38 16 39 17 40 18 41 19 42 20 43
REMARK SMILES IDX 21 44 67 45 22 46 66 47 23 48 24 49 25 50 60 51 26 52 65 53
REMARK SMILES IDX 59 54 61 55 27 56 64 57 58 58 57 59 28 61 50 62 35 63 49 64
REMARK SMILES IDX 36 65 39 66 48 67 62 68 37 69 38 70 47 72 63 73 40 74 29 75
REMARK SMILES IDX 30 76 34 77 31 78 33 79 32 80 51 81 52 82 56 83 53 84 55 85
REMARK SMILES IDX 54 86 41 87 42 88 46 89 43 90 45 91 44 92
REMARK H PARENT 61 60 39 71
REMARK Flexibility Score: inf
ROOT
ATOM      1  C   UNL A   1      34.267  23.620  25.180  1.00  0.00     0.188 C 
ENDROOT
BRANCH   1   2
ATOM      2  C   UNL A   1      35.492  23.494  26.111  1.00  0.00     0.188 C 
BRANCH   2   3
ATOM      3  O   UNL A   1      36.771  23.142  25.600  1.00  0.00    -0.376 OA
BRANCH   3   4
ATOM      4  C   UNL A   1      37.312  21.854  25.837  1.00  0.00     0.202 C 
BRANCH   4   5
ATOM      5  C   UNL A   1      38.824  21.589  25.688  1.00  0.00     0.261 C 
BRANCH   5   6
ATOM      6  O   UNL A   1      39.682  21.905  26.802  1.00  0.00    -0.462 OA
BRANCH   6   7
ATOM      7  C   UNL A   1      40.899  22.418  26.491  1.00  0.00     0.329 C 
ATOM      8  O   UNL A   1      41.076  23.588  26.160  1.00  0.00    -0.250 OA
BRANCH   7   9
ATOM      9  C   UNL A   1      42.059  21.394  26.529  1.00  0.00     0.199 C 
ATOM     10  C   UNL A   1      41.812  19.978  27.060  1.00  0.00     0.044 C 
BRANCH   9  11
ATOM     11  N   UNL A   1      43.234  22.090  27.126  1.00  0.00    -0.279 N 
ATOM     12  C   UNL A   1      43.156  22.734  28.355  1.00  0.00     0.267 C 
ATOM     13  C   UNL A   1      44.402  22.307  26.415  1.00  0.00     0.149 C 
ATOM     14  O   UNL A   1      42.232  22.677  29.155  1.00  0.00    -0.268 OA
ATOM     15  C   UNL A   1      44.360  23.574  28.601  1.00  0.00     0.084 C 
ATOM     16  S   UNL A   1      45.454  23.408  27.289  1.00  0.00    -0.054 SA
ATOM     17  S   UNL A   1      44.866  21.657  24.948  1.00  0.00    -0.052 S 
ATOM     18  C   UNL A   1      44.504  24.319  29.709  1.00  0.00     0.068 C 
BRANCH  18  19
ATOM     19  C   UNL A   1      45.631  25.157  29.939  1.00  0.00     0.128 A 
ATOM     20  C   UNL A   1      46.106  25.691  31.133  1.00  0.00     0.051 A 
ATOM     21  O   UNL A   1      46.469  25.588  28.932  1.00  0.00    -0.457 OA
ATOM     22  C   UNL A   1      47.207  26.521  30.830  1.00  0.00     0.051 A 
ATOM     23  C   UNL A   1      47.374  26.456  29.466  1.00  0.00     0.136 A 
BRANCH  23  24
ATOM     24  C   UNL A   1      48.294  27.119  28.550  1.00  0.00     0.036 A 
ATOM     25  C   UNL A   1      48.229  28.522  28.445  1.00  0.00     0.020 A 
ATOM     26  C   UNL A   1      49.169  26.423  27.694  1.00  0.00     0.058 A 
ATOM     27  C   UNL A   1      48.993  29.215  27.500  1.00  0.00     0.086 A 
ATOM     28  C   UNL A   1      49.938  27.108  26.744  1.00  0.00     0.106 A 
ATOM     29  Cl  UNL A   1      49.298  24.696  27.696  1.00  0.00    -0.083 Cl
ATOM     30  C   UNL A   1      49.835  28.500  26.642  1.00  0.00     0.270 A 
BRANCH  30  31
ATOM     31  N   UNL A   1      50.591  29.213  25.604  1.00  0.00     0.062 N 
ATOM     32  O   UNL A   1      51.168  30.260  25.930  1.00  0.00    -0.258 OA
ATOM     33  O   UNL A   1      50.600  28.730  24.464  1.00  0.00    -0.258 OA
ENDBRANCH  30  31
ENDBRANCH  23  24
ENDBRANCH  18  19
ENDBRANCH   9  11
ENDBRANCH   7   9
ENDBRANCH   6   7
ENDBRANCH   5   6
ENDBRANCH   4   5
ENDBRANCH   3   4
ENDBRANCH   2   3
ENDBRANCH   1   2
BRANCH   1  34
ATOM     34  O   UNL A   1      34.316  24.705  24.272  1.00  0.00    -0.377 OA
BRANCH  34  35
ATOM     35  C   UNL A   1      33.615  25.870  24.673  1.00  0.00     0.188 C 
BRANCH  35  36
ATOM     36  C   UNL A   1      32.134  25.701  25.058  1.00  0.00     0.188 C 
BRANCH  36  37
ATOM     37  O   UNL A   1      31.315  26.800  24.676  1.00  0.00    -0.376 OA
BRANCH  37  38
ATOM     38  C   UNL A   1      31.399  28.019  25.397  1.00  0.00     0.202 C 
BRANCH  38  39
ATOM     39  C   UNL A   1      31.973  29.245  24.668  1.00  0.00     0.261 C 
BRANCH  39  40
ATOM     40  O   UNL A   1      33.072  29.915  25.305  1.00  0.00    -0.460 OA
BRANCH  40  41
ATOM     41  C   UNL A   1      32.796  30.783  26.299  1.00  0.00     0.338 C 
ATOM     42  O   UNL A   1      31.779  31.440  26.442  1.00  0.00    -0.246 OA
BRANCH  41  43
ATOM     43  C   UNL A   1      33.858  30.651  27.318  1.00  0.00     0.060 A 
ATOM     44  C   UNL A   1      34.374  31.812  27.910  1.00  0.00     0.016 A 
ATOM     45  C   UNL A   1      34.323  29.393  27.711  1.00  0.00     0.016 A 
ATOM     46  C   UNL A   1      35.379  31.721  28.872  1.00  0.00     0.010 A 
ATOM     47  C   UNL A   1      35.352  29.303  28.653  1.00  0.00     0.010 A 
ATOM     48  C   UNL A   1      35.908  30.469  29.210  1.00  0.00    -0.014 A 
BRANCH  48  49
ATOM     49  C   UNL A   1      37.180  30.395  29.968  1.00  0.00     0.031 A 
ATOM     50  C   UNL A   1      38.387  29.829  29.270  1.00  0.00     0.074 A 
ATOM     51  C   UNL A   1      37.278  30.843  31.233  1.00  0.00     0.049 A 
ATOM     52  N   UNL A   1      39.595  29.626  29.729  1.00  0.00    -0.248 NA
ATOM     53  C   UNL A   1      38.202  29.437  27.862  1.00  0.00     0.031 C 
ATOM     54  C   UNL A   1      36.201  31.467  31.998  1.00  0.00     0.029 A 
ATOM     55  N   UNL A   1      38.346  30.835  32.094  1.00  0.00    -0.354 N 
ATOM     56  C   UNL A   1      40.308  29.073  28.672  1.00  0.00     0.074 A 
ATOM     57  C   UNL A   1      39.393  28.946  27.559  1.00  0.00     0.031 C 
ATOM     58  C   UNL A   1      36.664  31.777  33.223  1.00  0.00     0.029 A 
ATOM     59  C   UNL A   1      38.055  31.340  33.337  1.00  0.00     0.049 A 
ATOM     60  H   UNL A   1      39.238  30.500  31.844  1.00  0.00     0.167 HD
ATOM     61  C   UNL A   1      41.610  28.707  28.628  1.00  0.00     0.031 A 
ATOM     62  C   UNL A   1      38.818  31.415  34.446  1.00  0.00     0.031 A 
ATOM     63  C   UNL A   1      42.515  28.816  29.740  1.00  0.00     0.049 A 
ATOM     64  C   UNL A   1      40.238  30.911  34.401  1.00  0.00     0.074 A 
ATOM     65  C   UNL A   1      43.857  28.483  29.794  1.00  0.00     0.029 A 
ATOM     66  N   UNL A   1      42.166  29.284  30.997  1.00  0.00    -0.354 N 
ATOM     67  N   UNL A   1      40.910  30.414  33.391  1.00  0.00    -0.248 NA
ATOM     68  C   UNL A   1      41.006  30.985  35.653  1.00  0.00     0.031 C 
ATOM     69  C   UNL A   1      44.302  28.683  31.104  1.00  0.00     0.029 A 
ATOM     70  C   UNL A   1      43.258  29.215  31.845  1.00  0.00     0.049 A 
ATOM     71  H   UNL A   1      41.274  29.616  31.250  1.00  0.00     0.167 HD
ATOM     72  C   UNL A   1      42.187  30.150  33.874  1.00  0.00     0.074 A 
ATOM     73  C   UNL A   1      42.199  30.556  35.265  1.00  0.00     0.031 C 
ATOM     74  C   UNL A   1      43.255  29.624  33.226  1.00  0.00     0.031 A 
BRANCH  61  75
ATOM     75  C   UNL A   1      42.117  28.105  27.346  1.00  0.00    -0.014 A 
ATOM     76  C   UNL A   1      42.086  28.817  26.137  1.00  0.00     0.009 A 
ATOM     77  C   UNL A   1      42.656  26.809  27.357  1.00  0.00     0.009 A 
ATOM     78  C   UNL A   1      42.552  28.229  24.958  1.00  0.00     0.001 A 
ATOM     79  C   UNL A   1      43.152  26.236  26.185  1.00  0.00     0.001 A 
ATOM     80  C   UNL A   1      43.089  26.942  24.985  1.00  0.00     0.000 A 
ENDBRANCH  61  75
BRANCH  62  81
ATOM     81  C   UNL A   1      38.256  31.969  35.707  1.00  0.00    -0.014 A 
ATOM     82  C   UNL A   1      38.026  33.347  35.847  1.00  0.00     0.009 A 
ATOM     83  C   UNL A   1      37.979  31.125  36.795  1.00  0.00     0.009 A 
ATOM     84  C   UNL A   1      37.558  33.870  37.056  1.00  0.00     0.001 A 
ATOM     85  C   UNL A   1      37.480  31.646  37.991  1.00  0.00     0.001 A 
ATOM     86  C   UNL A   1      37.281  33.019  38.125  1.00  0.00     0.000 A 
ENDBRANCH  62  81
BRANCH  74  87
ATOM     87  C   UNL A   1      44.543  29.499  33.995  1.00  0.00    -0.014 A 
ATOM     88  C   UNL A   1      45.493  30.532  34.012  1.00  0.00     0.009 A 
ATOM     89  C   UNL A   1      44.785  28.344  34.756  1.00  0.00     0.009 A 
ATOM     90  C   UNL A   1      46.675  30.393  34.744  1.00  0.00     0.001 A 
ATOM     91  C   UNL A   1      45.949  28.222  35.515  1.00  0.00     0.001 A 
ATOM     92  C   UNL A   1      46.899  29.242  35.499  1.00  0.00     0.000 A 
ENDBRANCH  74  87
ENDBRANCH  48  49
ENDBRANCH  41  43
ENDBRANCH  40  41
ENDBRANCH  39  40
ENDBRANCH  38  39
ENDBRANCH  37  38
ENDBRANCH  36  37
ENDBRANCH  35  36
ENDBRANCH  34  35
ENDBRANCH   1  34
TORSDOF 24
ENDMDL
MODEL 3
REMARK VINA RESULT:      -8.1      9.380     14.648
REMARK SMILES C[C@@H](C(=O)OCCOCCOCCOCCOC(=O)c1ccc(-c2c3nc(c(-c4ccccc4)c4ccc([nH]4)c(-c4ccccc4)c4nc(c(-c5ccccc5)c5ccc2[nH]5)C=C4)C=C3)cc1)N1C(=O)/C(=C/c2ccc(-c3ccc([N+](=O)[O-])cc3Cl)o2)SC1=S
REMARK SMILES IDX 10 1 9 2 8 3 7 4 6 5 5 6 3 7 4 8 2 9 1 10 68 11 69 12 89 13
REMARK SMILES IDX 70 14 71 15 88 16 90 17 72 18 73 19 74 20 87 21 75 22 76 23
REMARK SMILES IDX 77 24 78 25 85 26 79 27 84 28 86 29 80 30 81 31 82 32 83 33
REMARK SMILES IDX 11 34 12 35 13 36 14 37 15 38 16 39 17 40 18 41 19 42 20 43
REMARK SMILES IDX 21 44 67 45 22 46 66 47 23 48 24 49 25 50 60 51 26 52 65 53
REMARK SMILES IDX 59 54 61 55 27 56 64 57 58 58 57 59 28 61 50 62 35 63 49 64
REMARK SMILES IDX 36 65 39 66 48 67 62 68 37 69 38 70 47 72 63 73 40 74 29 75
REMARK SMILES IDX 30 76 34 77 31 78 33 79 32 80 51 81 52 82 56 83 53 84 55 85
REMARK SMILES IDX 54 86 41 87 42 88 46 89 43 90 45 91 44 92
REMARK H PARENT 61 60 39 71
REMARK Flexibility Score: inf
ROOT
ATOM      1  C   UNL A   1      43.752  39.091  41.544  1.00  0.00     0.188 C 
ENDROOT
BRANCH   1   2
ATOM      2  C   UNL A   1      44.716  39.692  40.499  1.00  0.00     0.188 C 
BRANCH   2   3
ATOM      3  O   UNL A   1      45.263  38.892  39.458  1.00  0.00    -0.376 OA
BRANCH   3   4
ATOM      4  C   UNL A   1      45.539  39.454  38.188  1.00  0.00     0.202 C 
BRANCH   4   5
ATOM      5  C   UNL A   1      44.458  40.235  37.413  1.00  0.00     0.261 C 
BRANCH   5   6
ATOM      6  O   UNL A   1      44.433  40.120  35.977  1.00  0.00    -0.462 OA
BRANCH   6   7
ATOM      7  C   UNL A   1      45.079  41.095  35.289  1.00  0.00     0.329 C 
ATOM      8  O   UNL A   1      46.303  41.164  35.200  1.00  0.00    -0.250 OA
BRANCH   7   9
ATOM      9  C   UNL A   1      44.151  42.163  34.662  1.00  0.00     0.199 C 
ATOM     10  C   UNL A   1      42.783  42.451  35.289  1.00  0.00     0.044 C 
BRANCH   9  11
ATOM     11  N   UNL A   1      44.125  41.909  33.193  1.00  0.00    -0.279 N 
ATOM     12  C   UNL A   1      43.419  40.843  32.648  1.00  0.00     0.267 C 
ATOM     13  C   UNL A   1      44.951  42.586  32.313  1.00  0.00     0.149 C 
ATOM     14  O   UNL A   1      42.625  40.115  33.229  1.00  0.00    -0.268 OA
ATOM     15  C   UNL A   1      43.768  40.642  31.215  1.00  0.00     0.084 C 
ATOM     16  S   UNL A   1      44.893  41.841  30.725  1.00  0.00    -0.054 SA
ATOM     17  S   UNL A   1      45.892  43.936  32.595  1.00  0.00    -0.052 S 
ATOM     18  C   UNL A   1      43.238  39.652  30.478  1.00  0.00     0.068 C 
BRANCH  18  19
ATOM     19  C   UNL A   1      43.592  39.424  29.119  1.00  0.00     0.128 A 
ATOM     20  C   UNL A   1      42.876  39.707  27.959  1.00  0.00     0.051 A 
ATOM     21  O   UNL A   1      44.784  38.845  28.736  1.00  0.00    -0.457 OA
ATOM     22  C   UNL A   1      43.617  39.220  26.860  1.00  0.00     0.051 A 
ATOM     23  C   UNL A   1      44.764  38.669  27.385  1.00  0.00     0.136 A 
BRANCH  23  24
ATOM     24  C   UNL A   1      45.890  37.968  26.779  1.00  0.00     0.036 A 
ATOM     25  C   UNL A   1      46.124  36.633  27.161  1.00  0.00     0.020 A 
ATOM     26  C   UNL A   1      46.811  38.588  25.913  1.00  0.00     0.058 A 
ATOM     27  C   UNL A   1      47.254  35.939  26.716  1.00  0.00     0.086 A 
ATOM     28  C   UNL A   1      47.946  37.902  25.463  1.00  0.00     0.106 A 
ATOM     29  Cl  UNL A   1      46.657  40.240  25.414  1.00  0.00    -0.083 Cl
ATOM     30  C   UNL A   1      48.169  36.584  25.879  1.00  0.00     0.270 A 
BRANCH  30  31
ATOM     31  N   UNL A   1      49.391  35.884  25.460  1.00  0.00     0.062 N 
ATOM     32  O   UNL A   1      50.455  36.518  25.490  1.00  0.00    -0.258 OA
ATOM     33  O   UNL A   1      49.283  34.706  25.094  1.00  0.00    -0.258 OA
ENDBRANCH  30  31
ENDBRANCH  23  24
ENDBRANCH  18  19
ENDBRANCH   9  11
ENDBRANCH   7   9
ENDBRANCH   6   7
ENDBRANCH   5   6
ENDBRANCH   4   5
ENDBRANCH   3   4
ENDBRANCH   2   3
ENDBRANCH   1   2
BRANCH   1  34
ATOM     34  O   UNL A   1      43.021  40.041  42.298  1.00  0.00    -0.377 OA
BRANCH  34  35
ATOM     35  C   UNL A   1      42.851  39.733  43.671  1.00  0.00     0.188 C 
BRANCH  35  36
ATOM     36  C   UNL A   1      41.497  39.134  44.095  1.00  0.00     0.188 C 
BRANCH  36  37
ATOM     37  O   UNL A   1      41.505  37.715  44.188  1.00  0.00    -0.376 OA
BRANCH  37  38
ATOM     38  C   UNL A   1      40.313  37.030  44.540  1.00  0.00     0.202 C 
BRANCH  38  39
ATOM     39  C   UNL A   1      39.781  35.967  43.564  1.00  0.00     0.261 C 
BRANCH  39  40
ATOM     40  O   UNL A   1      38.966  36.439  42.481  1.00  0.00    -0.460 OA
BRANCH  40  41
ATOM     41  C   UNL A   1      38.382  35.525  41.681  1.00  0.00     0.338 C 
ATOM     42  O   UNL A   1      37.339  34.927  41.885  1.00  0.00    -0.246 OA
BRANCH  41  43
ATOM     43  C   UNL A   1      39.113  35.519  40.397  1.00  0.00     0.060 A 
ATOM     44  C   UNL A   1      39.188  36.708  39.658  1.00  0.00     0.016 A 
ATOM     45  C   UNL A   1      39.746  34.361  39.936  1.00  0.00     0.016 A 
ATOM     46  C   UNL A   1      39.867  36.734  38.440  1.00  0.00     0.010 A 
ATOM     47  C   UNL A   1      40.401  34.380  38.701  1.00  0.00     0.010 A 
ATOM     48  C   UNL A   1      40.432  35.558  37.932  1.00  0.00    -0.014 A 
BRANCH  48  49
ATOM     49  C   UNL A   1      40.855  35.505  36.513  1.00  0.00     0.031 A 
ATOM     50  C   UNL A   1      39.845  35.062  35.490  1.00  0.00     0.074 A 
ATOM     51  C   UNL A   1      42.093  35.867  36.128  1.00  0.00     0.049 A 
ATOM     52  N   UNL A   1      39.982  34.899  34.200  1.00  0.00    -0.248 NA
ATOM     53  C   UNL A   1      38.494  34.762  35.996  1.00  0.00     0.031 C 
ATOM     54  C   UNL A   1      43.143  36.370  37.010  1.00  0.00     0.029 A 
ATOM     55  N   UNL A   1      42.669  35.861  34.883  1.00  0.00    -0.354 N 
ATOM     56  C   UNL A   1      38.743  34.466  33.744  1.00  0.00     0.074 A 
ATOM     57  C   UNL A   1      37.875  34.364  34.896  1.00  0.00     0.031 C 
ATOM     58  C   UNL A   1      44.243  36.619  36.276  1.00  0.00     0.029 A 
ATOM     59  C   UNL A   1      43.984  36.257  34.884  1.00  0.00     0.049 A 
ATOM     60  H   UNL A   1      42.187  35.598  34.067  1.00  0.00     0.167 HD
ATOM     61  C   UNL A   1      38.359  34.181  32.478  1.00  0.00     0.031 A 
ATOM     62  C   UNL A   1      44.880  36.299  33.877  1.00  0.00     0.031 A 
ATOM     63  C   UNL A   1      39.227  34.264  31.334  1.00  0.00     0.049 A 
ATOM     64  C   UNL A   1      44.456  35.883  32.492  1.00  0.00     0.074 A 
ATOM     65  C   UNL A   1      38.931  34.007  30.008  1.00  0.00     0.029 A 
ATOM     66  N   UNL A   1      40.565  34.619  31.385  1.00  0.00    -0.354 N 
ATOM     67  N   UNL A   1      43.276  35.500  32.066  1.00  0.00    -0.248 NA
ATOM     68  C   UNL A   1      45.488  35.913  31.446  1.00  0.00     0.031 C 
ATOM     69  C   UNL A   1      40.107  34.140  29.265  1.00  0.00     0.029 A 
ATOM     70  C   UNL A   1      41.119  34.554  30.118  1.00  0.00     0.049 A 
ATOM     71  H   UNL A   1      41.051  34.879  32.202  1.00  0.00     0.167 HD
ATOM     72  C   UNL A   1      43.416  35.278  30.700  1.00  0.00     0.074 A 
ATOM     73  C   UNL A   1      44.792  35.583  30.367  1.00  0.00     0.031 C 
ATOM     74  C   UNL A   1      42.490  34.863  29.802  1.00  0.00     0.031 A 
BRANCH  61  75
ATOM     75  C   UNL A   1      36.947  33.703  32.274  1.00  0.00    -0.014 A 
ATOM     76  C   UNL A   1      35.899  34.597  32.006  1.00  0.00     0.009 A 
ATOM     77  C   UNL A   1      36.669  32.327  32.329  1.00  0.00     0.009 A 
ATOM     78  C   UNL A   1      34.595  34.127  31.834  1.00  0.00     0.001 A 
ATOM     79  C   UNL A   1      35.371  31.857  32.123  1.00  0.00     0.001 A 
ATOM     80  C   UNL A   1      34.333  32.758  31.886  1.00  0.00     0.000 A 
ENDBRANCH  61  75
BRANCH  62  81
ATOM     81  C   UNL A   1      46.281  36.727  34.138  1.00  0.00    -0.014 A 
ATOM     82  C   UNL A   1      47.187  35.867  34.779  1.00  0.00     0.009 A 
ATOM     83  C   UNL A   1      46.711  38.015  33.779  1.00  0.00     0.009 A 
ATOM     84  C   UNL A   1      48.483  36.298  35.079  1.00  0.00     0.001 A 
ATOM     85  C   UNL A   1      48.016  38.430  34.050  1.00  0.00     0.001 A 
ATOM     86  C   UNL A   1      48.898  37.576  34.710  1.00  0.00     0.000 A 
ENDBRANCH  62  81
BRANCH  74  87
ATOM     87  C   UNL A   1      42.915  34.760  28.362  1.00  0.00    -0.014 A 
ATOM     88  C   UNL A   1      43.689  33.686  27.898  1.00  0.00     0.009 A 
ATOM     89  C   UNL A   1      42.490  35.735  27.444  1.00  0.00     0.009 A 
ATOM     90  C   UNL A   1      44.060  33.611  26.553  1.00  0.00     0.001 A 
ATOM     91  C   UNL A   1      42.832  35.639  26.095  1.00  0.00     0.001 A 
ATOM     92  C   UNL A   1      43.627  34.583  25.652  1.00  0.00     0.000 A 
ENDBRANCH  74  87
ENDBRANCH  48  49
ENDBRANCH  41  43
ENDBRANCH  40  41
ENDBRANCH  39  40
ENDBRANCH  38  39
ENDBRANCH  37  38
ENDBRANCH  36  37
ENDBRANCH  35  36
ENDBRANCH  34  35
ENDBRANCH   1  34
TORSDOF 24
ENDMDL
