MODEL 1
REMARK VINA RESULT:     -10.1      0.000      0.000
REMARK SMILES CC(C)[NH2+][C@@]1(C(=O)OCCOCCOCCOCCOC(=O)c2ccc(-c3c4nc(c(-c5ccccc5)c5ccc([nH]5)c(-c5ccccc5)c5nc(c(-c6ccccc6)c6ccc3[nH]6)C=C5)C=C4)cc2)CCC[C@H](SC2CCCCC2)C1
REMARK SMILES IDX 14 1 13 2 12 3 11 4 10 5 9 6 8 7 6 8 7 9 5 10 71 11 82 12
REMARK SMILES IDX 72 13 74 14 73 15 4 16 2 19 1 20 3 21 75 22 76 23 77 24
REMARK SMILES IDX 81 25 78 26 80 27 79 28 15 29 16 30 17 31 18 32 19 33 20 34
REMARK SMILES IDX 21 35 22 36 23 37 24 38 70 39 25 40 69 41 26 42 27 43 28 44
REMARK SMILES IDX 63 45 29 46 68 47 62 48 64 49 30 50 67 51 61 52 60 53 31 55
REMARK SMILES IDX 53 56 38 57 52 58 39 59 42 60 51 61 65 62 40 63 41 64 50 66
REMARK SMILES IDX 66 67 43 68 32 69 33 70 37 71 34 72 36 73 35 74 54 75 55 76
REMARK SMILES IDX 59 77 56 78 58 79 57 80 44 81 45 82 49 83 46 84 48 85 47 86
REMARK H PARENT 4 17 4 18 64 54 42 65
REMARK Flexibility Score: inf
ROOT
ATOM      1  O   UNL A   1      41.477  19.480  25.690  1.00  0.00    -0.377 OA
ENDROOT
BRANCH   1   2
ATOM      2  C   UNL A   1      40.757  20.246  26.649  1.00  0.00     0.188 C 
BRANCH   2   3
ATOM      3  C   UNL A   1      39.804  21.375  26.214  1.00  0.00     0.188 C 
BRANCH   3   4
ATOM      4  O   UNL A   1      38.685  20.929  25.481  1.00  0.00    -0.376 OA
BRANCH   4   5
ATOM      5  C   UNL A   1      37.499  21.700  25.496  1.00  0.00     0.202 C 
BRANCH   5   6
ATOM      6  C   UNL A   1      36.103  21.062  25.427  1.00  0.00     0.261 C 
BRANCH   6   7
ATOM      7  O   UNL A   1      35.024  21.929  25.052  1.00  0.00    -0.459 OA
BRANCH   7   8
ATOM      8  C   UNL A   1      33.844  21.703  25.678  1.00  0.00     0.368 C 
ATOM      9  O   UNL A   1      33.762  21.531  26.895  1.00  0.00    -0.245 OA
BRANCH   8  10
ATOM     10  C   UNL A   1      32.573  21.724  24.738  1.00  0.00     0.195 C 
ATOM     11  C   UNL A   1      33.116  22.241  23.380  1.00  0.00     0.081 C 
ATOM     12  C   UNL A   1      31.354  22.595  25.185  1.00  0.00     0.095 C 
ATOM     13  C   UNL A   1      33.341  23.754  23.391  1.00  0.00     0.008 C 
ATOM     14  C   UNL A   1      31.452  24.136  25.044  1.00  0.00     0.053 C 
ATOM     15  C   UNL A   1      32.023  24.467  23.666  1.00  0.00     0.015 C 
BRANCH  10  16
ATOM     16  N   UNL A   1      32.143  20.293  24.720  1.00  0.00    -0.330 N 
ATOM     17  H   UNL A   1      32.022  20.019  25.696  1.00  0.00     0.347 HD
ATOM     18  H   UNL A   1      31.327  20.323  24.109  1.00  0.00     0.347 HD
BRANCH  16  19
ATOM     19  C   UNL A   1      32.949  19.248  24.101  1.00  0.00     0.176 C 
ATOM     20  C   UNL A   1      33.107  18.138  25.150  1.00  0.00     0.075 C 
ATOM     21  C   UNL A   1      32.316  18.652  22.844  1.00  0.00     0.075 C 
ENDBRANCH  16  19
ENDBRANCH  10  16
BRANCH  14  22
ATOM     22  S   UNL A   1      32.383  24.816  26.475  1.00  0.00    -0.155 SA
BRANCH  22  23
ATOM     23  C   UNL A   1      32.460  26.621  26.275  1.00  0.00     0.047 C 
ATOM     24  C   UNL A   1      33.801  27.039  25.680  1.00  0.00     0.014 C 
ATOM     25  C   UNL A   1      31.255  27.271  25.596  1.00  0.00     0.014 C 
ATOM     26  C   UNL A   1      33.939  28.554  25.628  1.00  0.00     0.001 C 
ATOM     27  C   UNL A   1      31.430  28.792  25.540  1.00  0.00     0.001 C 
ATOM     28  C   UNL A   1      32.758  29.179  24.893  1.00  0.00     0.000 C 
ENDBRANCH  22  23
ENDBRANCH  14  22
ENDBRANCH   8  10
ENDBRANCH   7   8
ENDBRANCH   6   7
ENDBRANCH   5   6
ENDBRANCH   4   5
ENDBRANCH   3   4
ENDBRANCH   2   3
ENDBRANCH   1   2
BRANCH   1  29
ATOM     29  C   UNL A   1      42.561  18.657  26.103  1.00  0.00     0.188 C 
BRANCH  29  30
ATOM     30  C   UNL A   1      43.899  18.764  25.347  1.00  0.00     0.188 C 
BRANCH  30  31
ATOM     31  O   UNL A   1      43.989  19.879  24.476  1.00  0.00    -0.376 OA
BRANCH  31  32
ATOM     32  C   UNL A   1      44.574  21.063  25.000  1.00  0.00     0.202 C 
BRANCH  32  33
ATOM     33  C   UNL A   1      44.550  22.321  24.115  1.00  0.00     0.261 C 
BRANCH  33  34
ATOM     34  O   UNL A   1      43.804  23.441  24.630  1.00  0.00    -0.460 OA
BRANCH  34  35
ATOM     35  C   UNL A   1      44.494  24.522  25.028  1.00  0.00     0.338 C 
ATOM     36  O   UNL A   1      45.614  24.869  24.665  1.00  0.00    -0.246 OA
BRANCH  35  37
ATOM     37  C   UNL A   1      43.623  25.347  25.880  1.00  0.00     0.060 A 
ATOM     38  C   UNL A   1      43.955  26.692  26.082  1.00  0.00     0.016 A 
ATOM     39  C   UNL A   1      42.522  24.782  26.531  1.00  0.00     0.016 A 
ATOM     40  C   UNL A   1      43.219  27.461  26.981  1.00  0.00     0.010 A 
ATOM     41  C   UNL A   1      41.793  25.552  27.443  1.00  0.00     0.010 A 
ATOM     42  C   UNL A   1      42.169  26.882  27.707  1.00  0.00    -0.014 A 
BRANCH  42  43
ATOM     43  C   UNL A   1      41.617  27.616  28.873  1.00  0.00     0.031 A 
ATOM     44  C   UNL A   1      42.342  27.523  30.191  1.00  0.00     0.074 A 
ATOM     45  C   UNL A   1      40.552  28.428  28.746  1.00  0.00     0.049 A 
ATOM     46  N   UNL A   1      42.093  28.136  31.321  1.00  0.00    -0.248 NA
ATOM     47  C   UNL A   1      43.510  26.626  30.239  1.00  0.00     0.031 C 
ATOM     48  C   UNL A   1      39.795  28.650  27.516  1.00  0.00     0.029 A 
ATOM     49  N   UNL A   1      39.936  29.233  29.672  1.00  0.00    -0.354 N 
ATOM     50  C   UNL A   1      43.083  27.718  32.202  1.00  0.00     0.074 A 
ATOM     51  C   UNL A   1      43.904  26.760  31.496  1.00  0.00     0.031 C 
ATOM     52  C   UNL A   1      38.811  29.534  27.764  1.00  0.00     0.029 A 
ATOM     53  C   UNL A   1      38.861  29.927  29.171  1.00  0.00     0.049 A 
ATOM     54  H   UNL A   1      40.234  29.304  30.607  1.00  0.00     0.167 HD
ATOM     55  C   UNL A   1      43.306  28.109  33.480  1.00  0.00     0.031 A 
ATOM     56  C   UNL A   1      38.014  30.778  29.781  1.00  0.00     0.031 A 
ATOM     57  C   UNL A   1      42.480  29.039  34.199  1.00  0.00     0.049 A 
ATOM     58  C   UNL A   1      38.229  31.122  31.233  1.00  0.00     0.074 A 
ATOM     59  C   UNL A   1      42.609  29.479  35.505  1.00  0.00     0.029 A 
ATOM     60  N   UNL A   1      41.367  29.674  33.672  1.00  0.00    -0.354 N 
ATOM     61  N   UNL A   1      39.180  30.732  32.047  1.00  0.00    -0.248 NA
ATOM     62  C   UNL A   1      37.257  32.044  31.844  1.00  0.00     0.031 C 
ATOM     63  C   UNL A   1      41.546  30.344  35.784  1.00  0.00     0.029 A 
ATOM     64  C   UNL A   1      40.790  30.489  34.632  1.00  0.00     0.049 A 
ATOM     65  H   UNL A   1      41.035  29.562  32.752  1.00  0.00     0.167 HD
ATOM     66  C   UNL A   1      38.941  31.386  33.252  1.00  0.00     0.074 A 
ATOM     67  C   UNL A   1      37.769  32.214  33.053  1.00  0.00     0.031 C 
ATOM     68  C   UNL A   1      39.626  31.308  34.419  1.00  0.00     0.031 A 
BRANCH  55  69
ATOM     69  C   UNL A   1      44.491  27.514  34.187  1.00  0.00    -0.014 A 
ATOM     70  C   UNL A   1      44.379  26.304  34.892  1.00  0.00     0.009 A 
ATOM     71  C   UNL A   1      45.743  28.145  34.115  1.00  0.00     0.009 A 
ATOM     72  C   UNL A   1      45.492  25.752  35.531  1.00  0.00     0.001 A 
ATOM     73  C   UNL A   1      46.859  27.576  34.733  1.00  0.00     0.001 A 
ATOM     74  C   UNL A   1      46.731  26.386  35.446  1.00  0.00     0.000 A 
ENDBRANCH  55  69
BRANCH  56  75
ATOM     75  C   UNL A   1      36.865  31.362  29.038  1.00  0.00    -0.014 A 
ATOM     76  C   UNL A   1      36.910  32.677  28.550  1.00  0.00     0.009 A 
ATOM     77  C   UNL A   1      35.686  30.618  28.867  1.00  0.00     0.009 A 
ATOM     78  C   UNL A   1      35.786  33.250  27.950  1.00  0.00     0.001 A 
ATOM     79  C   UNL A   1      34.575  31.182  28.237  1.00  0.00     0.001 A 
ATOM     80  C   UNL A   1      34.620  32.502  27.792  1.00  0.00     0.000 A 
ENDBRANCH  56  75
BRANCH  68  81
ATOM     81  C   UNL A   1      39.150  32.173  35.554  1.00  0.00    -0.014 A 
ATOM     82  C   UNL A   1      38.155  31.734  36.442  1.00  0.00     0.009 A 
ATOM     83  C   UNL A   1      39.720  33.442  35.746  1.00  0.00     0.009 A 
ATOM     84  C   UNL A   1      37.705  32.569  37.467  1.00  0.00     0.001 A 
ATOM     85  C   UNL A   1      39.292  34.260  36.793  1.00  0.00     0.001 A 
ATOM     86  C   UNL A   1      38.276  33.829  37.644  1.00  0.00     0.000 A 
ENDBRANCH  68  81
ENDBRANCH  42  43
ENDBRANCH  35  37
ENDBRANCH  34  35
ENDBRANCH  33  34
ENDBRANCH  32  33
ENDBRANCH  31  32
ENDBRANCH  30  31
ENDBRANCH  29  30
ENDBRANCH   1  29
TORSDOF 24
ENDMDL
MODEL 2
REMARK VINA RESULT:      -9.8      1.561      3.654
REMARK SMILES CC(C)[NH2+][C@@]1(C(=O)OCCOCCOCCOCCOC(=O)c2ccc(-c3c4nc(c(-c5ccccc5)c5ccc([nH]5)c(-c5ccccc5)c5nc(c(-c6ccccc6)c6ccc3[nH]6)C=C5)C=C4)cc2)CCC[C@H](SC2CCCCC2)C1
REMARK SMILES IDX 14 1 13 2 12 3 11 4 10 5 9 6 8 7 6 8 7 9 5 10 71 11 82 12
REMARK SMILES IDX 72 13 74 14 73 15 4 16 2 19 1 20 3 21 75 22 76 23 77 24
REMARK SMILES IDX 81 25 78 26 80 27 79 28 15 29 16 30 17 31 18 32 19 33 20 34
REMARK SMILES IDX 21 35 22 36 23 37 24 38 70 39 25 40 69 41 26 42 27 43 28 44
REMARK SMILES IDX 63 45 29 46 68 47 62 48 64 49 30 50 67 51 61 52 60 53 31 55
REMARK SMILES IDX 53 56 38 57 52 58 39 59 42 60 51 61 65 62 40 63 41 64 50 66
REMARK SMILES IDX 66 67 43 68 32 69 33 70 37 71 34 72 36 73 35 74 54 75 55 76
REMARK SMILES IDX 59 77 56 78 58 79 57 80 44 81 45 82 49 83 46 84 48 85 47 86
REMARK H PARENT 4 17 4 18 64 54 42 65
REMARK Flexibility Score: inf
ROOT
ATOM      1  O   UNL A   1      41.433  20.283  27.301  1.00  0.00    -0.377 OA
ENDROOT
BRANCH   1   2
ATOM      2  C   UNL A   1      40.985  21.634  27.273  1.00  0.00     0.188 C 
BRANCH   2   3
ATOM      3  C   UNL A   1      39.816  22.068  26.369  1.00  0.00     0.188 C 
BRANCH   3   4
ATOM      4  O   UNL A   1      39.443  23.418  26.527  1.00  0.00    -0.376 OA
BRANCH   4   5
ATOM      5  C   UNL A   1      38.079  23.775  26.408  1.00  0.00     0.202 C 
BRANCH   5   6
ATOM      6  C   UNL A   1      37.193  23.267  25.260  1.00  0.00     0.261 C 
BRANCH   6   7
ATOM      7  O   UNL A   1      36.062  24.080  24.921  1.00  0.00    -0.459 OA
BRANCH   7   8
ATOM      8  C   UNL A   1      35.363  23.688  23.828  1.00  0.00     0.368 C 
ATOM      9  O   UNL A   1      35.902  23.176  22.846  1.00  0.00    -0.245 OA
BRANCH   8  10
ATOM     10  C   UNL A   1      33.798  23.893  23.924  1.00  0.00     0.195 C 
ATOM     11  C   UNL A   1      33.582  24.483  25.343  1.00  0.00     0.081 C 
ATOM     12  C   UNL A   1      32.889  22.636  23.731  1.00  0.00     0.095 C 
ATOM     13  C   UNL A   1      33.678  23.411  26.430  1.00  0.00     0.008 C 
ATOM     14  C   UNL A   1      32.799  21.600  24.882  1.00  0.00     0.053 C 
ATOM     15  C   UNL A   1      32.609  22.349  26.201  1.00  0.00     0.015 C 
BRANCH  10  16
ATOM     16  N   UNL A   1      33.514  24.850  22.814  1.00  0.00    -0.330 N 
ATOM     17  H   UNL A   1      34.421  25.126  22.435  1.00  0.00     0.347 HD
ATOM     18  H   UNL A   1      32.874  24.314  22.228  1.00  0.00     0.347 HD
BRANCH  16  19
ATOM     19  C   UNL A   1      32.769  26.086  23.026  1.00  0.00     0.176 C 
ATOM     20  C   UNL A   1      33.697  27.234  22.604  1.00  0.00     0.075 C 
ATOM     21  C   UNL A   1      31.480  26.170  22.210  1.00  0.00     0.075 C 
ENDBRANCH  16  19
ENDBRANCH  10  16
BRANCH  14  22
ATOM     22  S   UNL A   1      34.254  20.482  24.803  1.00  0.00    -0.155 SA
BRANCH  22  23
ATOM     23  C   UNL A   1      33.635  18.784  24.607  1.00  0.00     0.047 C 
ATOM     24  C   UNL A   1      34.766  17.842  24.205  1.00  0.00     0.014 C 
ATOM     25  C   UNL A   1      32.767  18.253  25.748  1.00  0.00     0.014 C 
ATOM     26  C   UNL A   1      34.246  16.443  23.907  1.00  0.00     0.001 C 
ATOM     27  C   UNL A   1      32.274  16.837  25.430  1.00  0.00     0.001 C 
ATOM     28  C   UNL A   1      33.433  15.906  25.081  1.00  0.00     0.000 C 
ENDBRANCH  22  23
ENDBRANCH  14  22
ENDBRANCH   8  10
ENDBRANCH   7   8
ENDBRANCH   6   7
ENDBRANCH   5   6
ENDBRANCH   4   5
ENDBRANCH   3   4
ENDBRANCH   2   3
ENDBRANCH   1   2
BRANCH   1  29
ATOM     29  C   UNL A   1      41.739  19.608  26.087  1.00  0.00     0.188 C 
BRANCH  29  30
ATOM     30  C   UNL A   1      43.202  19.222  25.805  1.00  0.00     0.188 C 
BRANCH  30  31
ATOM     31  O   UNL A   1      43.847  20.042  24.844  1.00  0.00    -0.376 OA
BRANCH  31  32
ATOM     32  C   UNL A   1      43.995  21.419  25.164  1.00  0.00     0.202 C 
BRANCH  32  33
ATOM     33  C   UNL A   1      45.396  21.910  25.564  1.00  0.00     0.261 C 
BRANCH  33  34
ATOM     34  O   UNL A   1      45.443  23.134  26.323  1.00  0.00    -0.460 OA
BRANCH  34  35
ATOM     35  C   UNL A   1      45.238  24.287  25.664  1.00  0.00     0.338 C 
ATOM     36  O   UNL A   1      45.638  24.588  24.543  1.00  0.00    -0.246 OA
BRANCH  35  37
ATOM     37  C   UNL A   1      44.304  25.114  26.443  1.00  0.00     0.060 A 
ATOM     38  C   UNL A   1      44.609  26.464  26.651  1.00  0.00     0.016 A 
ATOM     39  C   UNL A   1      43.164  24.547  27.021  1.00  0.00     0.016 A 
ATOM     40  C   UNL A   1      43.806  27.236  27.487  1.00  0.00     0.010 A 
ATOM     41  C   UNL A   1      42.366  25.321  27.871  1.00  0.00     0.010 A 
ATOM     42  C   UNL A   1      42.712  26.657  28.144  1.00  0.00    -0.014 A 
BRANCH  42  43
ATOM     43  C   UNL A   1      42.074  27.399  29.259  1.00  0.00     0.031 A 
ATOM     44  C   UNL A   1      42.739  27.379  30.612  1.00  0.00     0.074 A 
ATOM     45  C   UNL A   1      40.981  28.157  29.058  1.00  0.00     0.049 A 
ATOM     46  N   UNL A   1      42.410  28.014  31.709  1.00  0.00    -0.248 NA
ATOM     47  C   UNL A   1      43.942  26.539  30.741  1.00  0.00     0.031 C 
ATOM     48  C   UNL A   1      40.273  28.307  27.788  1.00  0.00     0.029 A 
ATOM     49  N   UNL A   1      40.286  28.960  29.928  1.00  0.00    -0.354 N 
ATOM     50  C   UNL A   1      43.375  27.668  32.647  1.00  0.00     0.074 A 
ATOM     51  C   UNL A   1      44.271  26.729  32.010  1.00  0.00     0.031 C 
ATOM     52  C   UNL A   1      39.240  29.151  27.962  1.00  0.00     0.029 A 
ATOM     53  C   UNL A   1      39.206  29.588  29.357  1.00  0.00     0.049 A 
ATOM     54  H   UNL A   1      40.536  29.073  30.873  1.00  0.00     0.167 HD
ATOM     55  C   UNL A   1      43.520  28.108  33.920  1.00  0.00     0.031 A 
ATOM     56  C   UNL A   1      38.294  30.418  29.899  1.00  0.00     0.031 A 
ATOM     57  C   UNL A   1      42.620  29.020  34.571  1.00  0.00     0.049 A 
ATOM     58  C   UNL A   1      38.424  30.815  31.349  1.00  0.00     0.074 A 
ATOM     59  C   UNL A   1      42.668  29.504  35.867  1.00  0.00     0.029 A 
ATOM     60  N   UNL A   1      41.506  29.586  33.974  1.00  0.00    -0.354 N 
ATOM     61  N   UNL A   1      39.353  30.494  32.218  1.00  0.00    -0.248 NA
ATOM     62  C   UNL A   1      37.385  31.708  31.884  1.00  0.00     0.031 C 
ATOM     63  C   UNL A   1      41.555  30.328  36.069  1.00  0.00     0.029 A 
ATOM     64  C   UNL A   1      40.848  30.403  34.879  1.00  0.00     0.049 A 
ATOM     65  H   UNL A   1      41.223  29.432  33.043  1.00  0.00     0.167 HD
ATOM     66  C   UNL A   1      39.028  31.171  33.388  1.00  0.00     0.074 A 
ATOM     67  C   UNL A   1      37.832  31.938  33.109  1.00  0.00     0.031 C 
ATOM     68  C   UNL A   1      39.661  31.160  34.587  1.00  0.00     0.031 A 
BRANCH  55  69
ATOM     69  C   UNL A   1      44.696  27.590  34.700  1.00  0.00    -0.014 A 
ATOM     70  C   UNL A   1      44.582  26.441  35.501  1.00  0.00     0.009 A 
ATOM     71  C   UNL A   1      45.941  28.229  34.602  1.00  0.00     0.009 A 
ATOM     72  C   UNL A   1      45.686  25.959  36.208  1.00  0.00     0.001 A 
ATOM     73  C   UNL A   1      47.050  27.729  35.289  1.00  0.00     0.001 A 
ATOM     74  C   UNL A   1      46.920  26.600  36.096  1.00  0.00     0.000 A 
ENDBRANCH  55  69
BRANCH  56  75
ATOM     75  C   UNL A   1      37.156  30.925  29.086  1.00  0.00    -0.014 A 
ATOM     76  C   UNL A   1      37.087  32.272  28.699  1.00  0.00     0.009 A 
ATOM     77  C   UNL A   1      36.096  30.068  28.746  1.00  0.00     0.009 A 
ATOM     78  C   UNL A   1      35.961  32.760  28.029  1.00  0.00     0.001 A 
ATOM     79  C   UNL A   1      34.988  30.551  28.047  1.00  0.00     0.001 A 
ATOM     80  C   UNL A   1      34.914  31.900  27.703  1.00  0.00     0.000 A 
ENDBRANCH  56  75
BRANCH  68  81
ATOM     81  C   UNL A   1      39.094  32.036  35.671  1.00  0.00    -0.014 A 
ATOM     82  C   UNL A   1      38.190  31.533  36.621  1.00  0.00     0.009 A 
ATOM     83  C   UNL A   1      39.484  33.383  35.751  1.00  0.00     0.009 A 
ATOM     84  C   UNL A   1      37.650  32.375  37.597  1.00  0.00     0.001 A 
ATOM     85  C   UNL A   1      38.968  34.212  36.749  1.00  0.00     0.001 A 
ATOM     86  C   UNL A   1      38.042  33.711  37.662  1.00  0.00     0.000 A 
ENDBRANCH  68  81
ENDBRANCH  42  43
ENDBRANCH  35  37
ENDBRANCH  34  35
ENDBRANCH  33  34
ENDBRANCH  32  33
ENDBRANCH  31  32
ENDBRANCH  30  31
ENDBRANCH  29  30
ENDBRANCH   1  29
TORSDOF 24
ENDMDL
MODEL 3
REMARK VINA RESULT:      -9.6      4.943     10.455
REMARK SMILES CC(C)[NH2+][C@@]1(C(=O)OCCOCCOCCOCCOC(=O)c2ccc(-c3c4nc(c(-c5ccccc5)c5ccc([nH]5)c(-c5ccccc5)c5nc(c(-c6ccccc6)c6ccc3[nH]6)C=C5)C=C4)cc2)CCC[C@H](SC2CCCCC2)C1
REMARK SMILES IDX 14 1 13 2 12 3 11 4 10 5 9 6 8 7 6 8 7 9 5 10 71 11 82 12
REMARK SMILES IDX 72 13 74 14 73 15 4 16 2 19 1 20 3 21 75 22 76 23 77 24
REMARK SMILES IDX 81 25 78 26 80 27 79 28 15 29 16 30 17 31 18 32 19 33 20 34
REMARK SMILES IDX 21 35 22 36 23 37 24 38 70 39 25 40 69 41 26 42 27 43 28 44
REMARK SMILES IDX 63 45 29 46 68 47 62 48 64 49 30 50 67 51 61 52 60 53 31 55
REMARK SMILES IDX 53 56 38 57 52 58 39 59 42 60 51 61 65 62 40 63 41 64 50 66
REMARK SMILES IDX 66 67 43 68 32 69 33 70 37 71 34 72 36 73 35 74 54 75 55 76
REMARK SMILES IDX 59 77 56 78 58 79 57 80 44 81 45 82 49 83 46 84 48 85 47 86
REMARK H PARENT 4 17 4 18 64 54 42 65
REMARK Flexibility Score: inf
ROOT
ATOM      1  O   UNL A   1      33.923  35.135  29.868  1.00  0.00    -0.377 OA
ENDROOT
BRANCH   1   2
ATOM      2  C   UNL A   1      33.486  34.235  28.857  1.00  0.00     0.188 C 
BRANCH   2   3
ATOM      3  C   UNL A   1      34.483  33.331  28.109  1.00  0.00     0.188 C 
BRANCH   3   4
ATOM      4  O   UNL A   1      34.262  31.952  28.303  1.00  0.00    -0.376 OA
BRANCH   4   5
ATOM      5  C   UNL A   1      33.355  31.273  27.456  1.00  0.00     0.202 C 
BRANCH   5   6
ATOM      6  C   UNL A   1      33.606  29.840  26.963  1.00  0.00     0.261 C 
BRANCH   6   7
ATOM      7  O   UNL A   1      33.060  29.502  25.681  1.00  0.00    -0.459 OA
BRANCH   7   8
ATOM      8  C   UNL A   1      31.950  28.725  25.701  1.00  0.00     0.368 C 
ATOM      9  O   UNL A   1      31.336  28.474  26.739  1.00  0.00    -0.245 OA
BRANCH   8  10
ATOM     10  C   UNL A   1      31.472  28.203  24.287  1.00  0.00     0.195 C 
ATOM     11  C   UNL A   1      30.270  27.277  24.614  1.00  0.00     0.081 C 
ATOM     12  C   UNL A   1      32.510  27.432  23.410  1.00  0.00     0.095 C 
ATOM     13  C   UNL A   1      30.723  25.918  25.150  1.00  0.00     0.008 C 
ATOM     14  C   UNL A   1      32.872  25.974  23.798  1.00  0.00     0.053 C 
ATOM     15  C   UNL A   1      31.582  25.214  24.106  1.00  0.00     0.015 C 
BRANCH  10  16
ATOM     16  N   UNL A   1      31.098  29.461  23.572  1.00  0.00    -0.330 N 
ATOM     17  H   UNL A   1      31.438  30.230  24.150  1.00  0.00     0.347 HD
ATOM     18  H   UNL A   1      31.511  29.312  22.651  1.00  0.00     0.347 HD
BRANCH  16  19
ATOM     19  C   UNL A   1      29.716  29.782  23.238  1.00  0.00     0.176 C 
ATOM     20  C   UNL A   1      29.400  31.119  23.923  1.00  0.00     0.075 C 
ATOM     21  C   UNL A   1      29.468  29.927  21.737  1.00  0.00     0.075 C 
ENDBRANCH  16  19
ENDBRANCH  10  16
BRANCH  14  22
ATOM     22  S   UNL A   1      34.122  26.000  25.144  1.00  0.00    -0.155 SA
BRANCH  22  23
ATOM     23  C   UNL A   1      35.064  24.448  25.051  1.00  0.00     0.047 C 
ATOM     24  C   UNL A   1      34.621  23.484  26.148  1.00  0.00     0.014 C 
ATOM     25  C   UNL A   1      35.160  23.805  23.667  1.00  0.00     0.014 C 
ATOM     26  C   UNL A   1      35.488  22.232  26.172  1.00  0.00     0.001 C 
ATOM     27  C   UNL A   1      36.021  22.539  23.725  1.00  0.00     0.001 C 
ATOM     28  C   UNL A   1      35.522  21.572  24.797  1.00  0.00     0.000 C 
ENDBRANCH  22  23
ENDBRANCH  14  22
ENDBRANCH   8  10
ENDBRANCH   7   8
ENDBRANCH   6   7
ENDBRANCH   5   6
ENDBRANCH   4   5
ENDBRANCH   3   4
ENDBRANCH   2   3
ENDBRANCH   1   2
BRANCH   1  29
ATOM     29  C   UNL A   1      32.995  35.652  30.814  1.00  0.00     0.188 C 
BRANCH  29  30
ATOM     30  C   UNL A   1      33.535  36.369  32.065  1.00  0.00     0.188 C 
BRANCH  30  31
ATOM     31  O   UNL A   1      34.750  35.833  32.564  1.00  0.00    -0.376 OA
BRANCH  31  32
ATOM     32  C   UNL A   1      34.676  35.076  33.765  1.00  0.00     0.202 C 
BRANCH  32  33
ATOM     33  C   UNL A   1      35.784  34.040  34.022  1.00  0.00     0.261 C 
BRANCH  33  34
ATOM     34  O   UNL A   1      35.449  32.671  33.724  1.00  0.00    -0.460 OA
BRANCH  34  35
ATOM     35  C   UNL A   1      35.341  32.320  32.432  1.00  0.00     0.338 C 
ATOM     36  O   UNL A   1      34.331  32.346  31.733  1.00  0.00    -0.246 OA
BRANCH  35  37
ATOM     37  C   UNL A   1      36.685  32.031  31.908  1.00  0.00     0.060 A 
ATOM     38  C   UNL A   1      37.041  32.532  30.651  1.00  0.00     0.016 A 
ATOM     39  C   UNL A   1      37.568  31.217  32.624  1.00  0.00     0.016 A 
ATOM     40  C   UNL A   1      38.259  32.171  30.080  1.00  0.00     0.010 A 
ATOM     41  C   UNL A   1      38.784  30.845  32.044  1.00  0.00     0.010 A 
ATOM     42  C   UNL A   1      39.114  31.283  30.748  1.00  0.00    -0.014 A 
BRANCH  42  43
ATOM     43  C   UNL A   1      40.236  30.669  29.995  1.00  0.00     0.031 A 
ATOM     44  C   UNL A   1      41.530  31.434  29.879  1.00  0.00     0.074 A 
ATOM     45  C   UNL A   1      40.147  29.419  29.505  1.00  0.00     0.049 A 
ATOM     46  N   UNL A   1      42.666  31.068  29.340  1.00  0.00    -0.248 NA
ATOM     47  C   UNL A   1      41.549  32.788  30.460  1.00  0.00     0.031 C 
ATOM     48  C   UNL A   1      38.973  28.554  29.596  1.00  0.00     0.029 A 
ATOM     49  N   UNL A   1      41.078  28.658  28.844  1.00  0.00    -0.354 N 
ATOM     50  C   UNL A   1      43.536  32.134  29.536  1.00  0.00     0.074 A 
ATOM     51  C   UNL A   1      42.786  33.180  30.195  1.00  0.00     0.031 C 
ATOM     52  C   UNL A   1      39.255  27.375  29.009  1.00  0.00     0.029 A 
ATOM     53  C   UNL A   1      40.621  27.412  28.490  1.00  0.00     0.049 A 
ATOM     54  H   UNL A   1      41.988  28.975  28.641  1.00  0.00     0.167 HD
ATOM     55  C   UNL A   1      44.849  32.231  29.218  1.00  0.00     0.031 A 
ATOM     56  C   UNL A   1      41.235  26.417  27.821  1.00  0.00     0.031 A 
ATOM     57  C   UNL A   1      45.596  31.208  28.539  1.00  0.00     0.049 A 
ATOM     58  C   UNL A   1      42.670  26.589  27.392  1.00  0.00     0.074 A 
ATOM     59  C   UNL A   1      46.924  31.223  28.149  1.00  0.00     0.029 A 
ATOM     60  N   UNL A   1      45.078  29.984  28.146  1.00  0.00    -0.354 N 
ATOM     61  N   UNL A   1      43.485  27.596  27.601  1.00  0.00    -0.248 NA
ATOM     62  C   UNL A   1      43.276  25.472  26.649  1.00  0.00     0.031 C 
ATOM     63  C   UNL A   1      47.198  30.026  27.478  1.00  0.00     0.029 A 
ATOM     64  C   UNL A   1      46.056  29.242  27.504  1.00  0.00     0.049 A 
ATOM     65  H   UNL A   1      44.153  29.686  28.301  1.00  0.00     0.167 HD
ATOM     66  C   UNL A   1      44.704  27.220  27.047  1.00  0.00     0.074 A 
ATOM     67  C   UNL A   1      44.527  25.884  26.514  1.00  0.00     0.031 C 
ATOM     68  C   UNL A   1      45.865  27.915  26.981  1.00  0.00     0.031 A 
BRANCH  55  69
ATOM     69  C   UNL A   1      45.558  33.502  29.592  1.00  0.00    -0.014 A 
ATOM     70  C   UNL A   1      45.579  34.601  28.718  1.00  0.00     0.009 A 
ATOM     71  C   UNL A   1      46.177  33.619  30.846  1.00  0.00     0.009 A 
ATOM     72  C   UNL A   1      46.228  35.783  29.083  1.00  0.00     0.001 A 
ATOM     73  C   UNL A   1      46.801  34.812  31.219  1.00  0.00     0.001 A 
ATOM     74  C   UNL A   1      46.832  35.889  30.335  1.00  0.00     0.000 A 
ENDBRANCH  55  69
BRANCH  56  75
ATOM     75  C   UNL A   1      40.502  25.165  27.489  1.00  0.00    -0.014 A 
ATOM     76  C   UNL A   1      40.956  23.918  27.946  1.00  0.00     0.009 A 
ATOM     77  C   UNL A   1      39.372  25.210  26.656  1.00  0.00     0.009 A 
ATOM     78  C   UNL A   1      40.322  22.741  27.538  1.00  0.00     0.001 A 
ATOM     79  C   UNL A   1      38.721  24.034  26.278  1.00  0.00     0.001 A 
ATOM     80  C   UNL A   1      39.205  22.800  26.706  1.00  0.00     0.000 A 
ENDBRANCH  56  75
BRANCH  68  81
ATOM     81  C   UNL A   1      47.044  27.226  26.349  1.00  0.00    -0.014 A 
ATOM     82  C   UNL A   1      47.935  26.453  27.111  1.00  0.00     0.009 A 
ATOM     83  C   UNL A   1      47.256  27.341  24.966  1.00  0.00     0.009 A 
ATOM     84  C   UNL A   1      49.042  25.852  26.508  1.00  0.00     0.001 A 
ATOM     85  C   UNL A   1      48.345  26.710  24.361  1.00  0.00     0.001 A 
ATOM     86  C   UNL A   1      49.244  25.978  25.134  1.00  0.00     0.000 A 
ENDBRANCH  68  81
ENDBRANCH  42  43
ENDBRANCH  35  37
ENDBRANCH  34  35
ENDBRANCH  33  34
ENDBRANCH  32  33
ENDBRANCH  31  32
ENDBRANCH  30  31
ENDBRANCH  29  30
ENDBRANCH   1  29
TORSDOF 24
ENDMDL
