MODEL 1
REMARK VINA RESULT:      -9.9      0.000      0.000
REMARK SMILES O=C(OCCOCCOCCOCCOC(=O)c1oc2cccc3c2c1CCC3)c1ccc(-c2c3nc(c(-c4ccccc4)c4ccc([nH]4)c(-c4ccccc4)c4nc(c(-c5ccccc5)c5ccc2[nH]5)C=C4)C=C3)cc1
REMARK SMILES IDX 8 1 7 2 6 3 5 4 4 5 3 6 2 7 1 8 30 9 31 10 77 11 32 12 76 13
REMARK SMILES IDX 33 14 34 15 35 16 70 17 36 18 75 19 69 20 71 21 37 22 74 23
REMARK SMILES IDX 68 24 67 25 38 27 60 28 45 29 59 30 46 31 49 32 58 33 72 34
REMARK SMILES IDX 47 35 48 36 57 38 73 39 50 40 39 41 40 42 44 43 41 44 43 45
REMARK SMILES IDX 42 46 61 47 62 48 66 49 63 50 65 51 64 52 51 53 52 54 56 55
REMARK SMILES IDX 53 56 55 57 54 58 9 59 10 60 11 61 12 62 13 63 14 64 15 65
REMARK SMILES IDX 16 66 17 67 18 68 19 69 26 70 20 71 25 72 27 73 21 74 24 75
REMARK SMILES IDX 28 76 22 77 23 78 29 79
REMARK H PARENT 71 26 49 37
REMARK Flexibility Score: inf
ROOT
ATOM      1  C   UNL A   1      36.829  34.320  32.918  1.00  0.00     0.188 C 
ENDROOT
BRANCH   1   2
ATOM      2  C   UNL A   1      37.934  34.157  33.979  1.00  0.00     0.188 C 
BRANCH   2   3
ATOM      3  O   UNL A   1      39.260  34.676  33.899  1.00  0.00    -0.376 OA
BRANCH   3   4
ATOM      4  C   UNL A   1      40.471  33.965  33.764  1.00  0.00     0.202 C 
BRANCH   4   5
ATOM      5  C   UNL A   1      40.888  33.326  32.438  1.00  0.00     0.261 C 
BRANCH   5   6
ATOM      6  O   UNL A   1      39.955  33.432  31.368  1.00  0.00    -0.460 OA
BRANCH   6   7
ATOM      7  C   UNL A   1      39.865  34.372  30.409  1.00  0.00     0.338 C 
ATOM      8  O   UNL A   1      38.763  34.880  30.198  1.00  0.00    -0.246 OA
BRANCH   7   9
ATOM      9  C   UNL A   1      41.012  34.862  29.604  1.00  0.00     0.060 A 
ATOM     10  C   UNL A   1      42.295  35.125  30.078  1.00  0.00     0.016 A 
ATOM     11  C   UNL A   1      40.701  35.178  28.267  1.00  0.00     0.016 A 
ATOM     12  C   UNL A   1      43.135  35.934  29.349  1.00  0.00     0.010 A 
ATOM     13  C   UNL A   1      41.547  35.965  27.516  1.00  0.00     0.010 A 
ATOM     14  C   UNL A   1      42.706  36.420  28.117  1.00  0.00    -0.014 A 
BRANCH  14  15
ATOM     15  C   UNL A   1      43.571  37.371  27.469  1.00  0.00     0.031 A 
ATOM     16  C   UNL A   1      44.960  36.892  27.331  1.00  0.00     0.074 A 
ATOM     17  C   UNL A   1      43.146  38.595  27.116  1.00  0.00     0.049 A 
ATOM     18  N   UNL A   1      45.980  37.274  28.023  1.00  0.00    -0.248 NA
ATOM     19  C   UNL A   1      45.205  35.733  26.463  1.00  0.00     0.031 C 
ATOM     20  C   UNL A   1      41.781  39.111  27.019  1.00  0.00     0.029 A 
ATOM     21  N   UNL A   1      43.901  39.642  26.700  1.00  0.00    -0.354 N 
ATOM     22  C   UNL A   1      47.050  36.526  27.552  1.00  0.00     0.074 A 
ATOM     23  C   UNL A   1      46.494  35.497  26.709  1.00  0.00     0.031 C 
ATOM     24  C   UNL A   1      41.801  40.292  26.353  1.00  0.00     0.029 A 
ATOM     25  C   UNL A   1      43.182  40.677  26.123  1.00  0.00     0.049 A 
ATOM     26  H   UNL A   1      44.880  39.664  26.799  1.00  0.00     0.167 HD
ATOM     27  C   UNL A   1      48.328  36.963  27.695  1.00  0.00     0.031 A 
ATOM     28  C   UNL A   1      43.719  41.730  25.457  1.00  0.00     0.031 A 
ATOM     29  C   UNL A   1      48.446  37.958  28.728  1.00  0.00     0.049 A 
ATOM     30  C   UNL A   1      45.120  41.863  25.927  1.00  0.00     0.074 A 
ATOM     31  C   UNL A   1      48.225  37.966  30.091  1.00  0.00     0.029 A 
ATOM     32  N   UNL A   1      48.454  39.276  28.335  1.00  0.00    -0.354 N 
ATOM     33  N   UNL A   1      45.437  42.218  27.140  1.00  0.00    -0.248 NA
ATOM     34  C   UNL A   1      46.161  41.168  25.185  1.00  0.00     0.031 C 
ATOM     35  C   UNL A   1      47.647  39.239  30.363  1.00  0.00     0.029 A 
ATOM     36  C   UNL A   1      47.604  39.958  29.167  1.00  0.00     0.049 A 
ATOM     37  H   UNL A   1      48.975  39.659  27.593  1.00  0.00     0.167 HD
ATOM     38  C   UNL A   1      46.532  41.430  27.463  1.00  0.00     0.074 A 
ATOM     39  C   UNL A   1      46.987  40.868  26.192  1.00  0.00     0.031 C 
ATOM     40  C   UNL A   1      46.793  41.082  28.756  1.00  0.00     0.031 A 
BRANCH  27  41
ATOM     41  C   UNL A   1      49.354  36.791  26.611  1.00  0.00    -0.014 A 
ATOM     42  C   UNL A   1      49.042  37.195  25.304  1.00  0.00     0.009 A 
ATOM     43  C   UNL A   1      50.503  35.992  26.775  1.00  0.00     0.009 A 
ATOM     44  C   UNL A   1      49.815  36.776  24.214  1.00  0.00     0.001 A 
ATOM     45  C   UNL A   1      51.299  35.605  25.697  1.00  0.00     0.001 A 
ATOM     46  C   UNL A   1      50.940  35.979  24.411  1.00  0.00     0.000 A 
ENDBRANCH  27  41
BRANCH  28  47
ATOM     47  C   UNL A   1      43.251  42.357  24.198  1.00  0.00    -0.014 A 
ATOM     48  C   UNL A   1      44.178  42.957  23.328  1.00  0.00     0.009 A 
ATOM     49  C   UNL A   1      41.961  42.104  23.699  1.00  0.00     0.009 A 
ATOM     50  C   UNL A   1      43.852  43.222  21.991  1.00  0.00     0.001 A 
ATOM     51  C   UNL A   1      41.631  42.377  22.366  1.00  0.00     0.001 A 
ATOM     52  C   UNL A   1      42.584  42.914  21.506  1.00  0.00     0.000 A 
ENDBRANCH  28  47
BRANCH  40  53
ATOM     53  C   UNL A   1      45.983  41.738  29.846  1.00  0.00    -0.014 A 
ATOM     54  C   UNL A   1      44.777  41.194  30.327  1.00  0.00     0.009 A 
ATOM     55  C   UNL A   1      46.565  42.802  30.549  1.00  0.00     0.009 A 
ATOM     56  C   UNL A   1      44.181  41.701  31.489  1.00  0.00     0.001 A 
ATOM     57  C   UNL A   1      45.978  43.295  31.715  1.00  0.00     0.001 A 
ATOM     58  C   UNL A   1      44.790  42.742  32.188  1.00  0.00     0.000 A 
ENDBRANCH  40  53
ENDBRANCH  14  15
ENDBRANCH   7   9
ENDBRANCH   6   7
ENDBRANCH   5   6
ENDBRANCH   4   5
ENDBRANCH   3   4
ENDBRANCH   2   3
ENDBRANCH   1   2
BRANCH   1  59
ATOM     59  O   UNL A   1      36.363  33.133  32.300  1.00  0.00    -0.377 OA
BRANCH  59  60
ATOM     60  C   UNL A   1      34.967  32.966  32.349  1.00  0.00     0.188 C 
BRANCH  60  61
ATOM     61  C   UNL A   1      34.240  33.962  33.274  1.00  0.00     0.188 C 
BRANCH  61  62
ATOM     62  O   UNL A   1      33.324  34.939  32.788  1.00  0.00    -0.376 OA
BRANCH  62  63
ATOM     63  C   UNL A   1      33.633  35.817  31.721  1.00  0.00     0.202 C 
BRANCH  63  64
ATOM     64  C   UNL A   1      32.743  35.813  30.474  1.00  0.00     0.261 C 
BRANCH  64  65
ATOM     65  O   UNL A   1      32.848  34.653  29.647  1.00  0.00    -0.457 OA
BRANCH  65  66
ATOM     66  C   UNL A   1      33.778  34.746  28.647  1.00  0.00     0.374 C 
ATOM     67  O   UNL A   1      34.307  35.766  28.271  1.00  0.00    -0.242 OA
BRANCH  66  68
ATOM     68  C   UNL A   1      34.075  33.413  28.174  1.00  0.00     0.216 A 
ATOM     69  O   UNL A   1      33.029  32.618  27.723  1.00  0.00    -0.449 OA
ATOM     70  C   UNL A   1      35.257  32.719  28.065  1.00  0.00     0.014 A 
ATOM     71  C   UNL A   1      33.552  31.383  27.448  1.00  0.00     0.135 A 
ATOM     72  C   UNL A   1      34.894  31.407  27.728  1.00  0.00     0.028 A 
ATOM     73  C   UNL A   1      36.681  33.009  28.365  1.00  0.00     0.041 C 
ATOM     74  C   UNL A   1      32.904  30.235  27.015  1.00  0.00     0.048 A 
ATOM     75  C   UNL A   1      35.687  30.262  27.741  1.00  0.00    -0.037 A 
ATOM     76  C   UNL A   1      37.307  31.752  29.028  1.00  0.00     0.010 C 
ATOM     77  C   UNL A   1      33.703  29.073  26.967  1.00  0.00     0.004 A 
ATOM     78  C   UNL A   1      35.063  29.077  27.341  1.00  0.00     0.004 A 
ATOM     79  C   UNL A   1      37.110  30.424  28.216  1.00  0.00     0.036 C 
ENDBRANCH  66  68
ENDBRANCH  65  66
ENDBRANCH  64  65
ENDBRANCH  63  64
ENDBRANCH  62  63
ENDBRANCH  61  62
ENDBRANCH  60  61
ENDBRANCH  59  60
ENDBRANCH   1  59
TORSDOF 20
ENDMDL
MODEL 2
REMARK VINA RESULT:      -9.9      7.536     12.129
REMARK SMILES O=C(OCCOCCOCCOCCOC(=O)c1oc2cccc3c2c1CCC3)c1ccc(-c2c3nc(c(-c4ccccc4)c4ccc([nH]4)c(-c4ccccc4)c4nc(c(-c5ccccc5)c5ccc2[nH]5)C=C4)C=C3)cc1
REMARK SMILES IDX 8 1 7 2 6 3 5 4 4 5 3 6 2 7 1 8 30 9 31 10 77 11 32 12 76 13
REMARK SMILES IDX 33 14 34 15 35 16 70 17 36 18 75 19 69 20 71 21 37 22 74 23
REMARK SMILES IDX 68 24 67 25 38 27 60 28 45 29 59 30 46 31 49 32 58 33 72 34
REMARK SMILES IDX 47 35 48 36 57 38 73 39 50 40 39 41 40 42 44 43 41 44 43 45
REMARK SMILES IDX 42 46 61 47 62 48 66 49 63 50 65 51 64 52 51 53 52 54 56 55
REMARK SMILES IDX 53 56 55 57 54 58 9 59 10 60 11 61 12 62 13 63 14 64 15 65
REMARK SMILES IDX 16 66 17 67 18 68 19 69 26 70 20 71 25 72 27 73 21 74 24 75
REMARK SMILES IDX 28 76 22 77 23 78 29 79
REMARK H PARENT 71 26 49 37
REMARK Flexibility Score: inf
ROOT
ATOM      1  C   UNL A   1      34.120  29.034  26.746  1.00  0.00     0.188 C 
ENDROOT
BRANCH   1   2
ATOM      2  C   UNL A   1      33.646  30.469  27.049  1.00  0.00     0.188 C 
BRANCH   2   3
ATOM      3  O   UNL A   1      34.056  31.274  28.151  1.00  0.00    -0.376 OA
BRANCH   3   4
ATOM      4  C   UNL A   1      34.971  32.348  28.158  1.00  0.00     0.202 C 
BRANCH   4   5
ATOM      5  C   UNL A   1      36.478  32.122  28.296  1.00  0.00     0.261 C 
BRANCH   5   6
ATOM      6  O   UNL A   1      36.894  31.305  29.384  1.00  0.00    -0.460 OA
BRANCH   6   7
ATOM      7  C   UNL A   1      36.950  29.962  29.466  1.00  0.00     0.338 C 
ATOM      8  O   UNL A   1      35.974  29.369  29.928  1.00  0.00    -0.246 OA
BRANCH   7   9
ATOM      9  C   UNL A   1      38.099  29.141  29.009  1.00  0.00     0.060 A 
ATOM     10  C   UNL A   1      38.786  28.195  29.766  1.00  0.00     0.016 A 
ATOM     11  C   UNL A   1      38.574  29.459  27.721  1.00  0.00     0.016 A 
ATOM     12  C   UNL A   1      40.047  27.804  29.382  1.00  0.00     0.010 A 
ATOM     13  C   UNL A   1      39.825  29.051  27.313  1.00  0.00     0.010 A 
ATOM     14  C   UNL A   1      40.585  28.316  28.203  1.00  0.00    -0.014 A 
BRANCH  14  15
ATOM     15  C   UNL A   1      41.957  27.979  27.930  1.00  0.00     0.031 A 
ATOM     16  C   UNL A   1      42.118  26.640  27.332  1.00  0.00     0.074 A 
ATOM     17  C   UNL A   1      42.972  28.789  28.274  1.00  0.00     0.049 A 
ATOM     18  N   UNL A   1      42.557  25.580  27.922  1.00  0.00    -0.248 NA
ATOM     19  C   UNL A   1      41.556  26.412  25.994  1.00  0.00     0.031 C 
ATOM     20  C   UNL A   1      42.940  30.194  28.682  1.00  0.00     0.029 A 
ATOM     21  N   UNL A   1      44.297  28.501  28.265  1.00  0.00    -0.354 N 
ATOM     22  C   UNL A   1      42.498  24.573  26.968  1.00  0.00     0.074 A 
ATOM     23  C   UNL A   1      41.741  25.098  25.860  1.00  0.00     0.031 C 
ATOM     24  C   UNL A   1      44.201  30.691  28.654  1.00  0.00     0.029 A 
ATOM     25  C   UNL A   1      45.127  29.605  28.382  1.00  0.00     0.049 A 
ATOM     26  H   UNL A   1      44.641  27.582  28.182  1.00  0.00     0.167 HD
ATOM     27  C   UNL A   1      43.288  23.471  27.062  1.00  0.00     0.031 A 
ATOM     28  C   UNL A   1      46.471  29.599  28.200  1.00  0.00     0.031 A 
ATOM     29  C   UNL A   1      43.783  23.274  28.398  1.00  0.00     0.049 A 
ATOM     30  C   UNL A   1      46.925  28.202  28.412  1.00  0.00     0.074 A 
ATOM     31  C   UNL A   1      43.191  23.029  29.621  1.00  0.00     0.029 A 
ATOM     32  N   UNL A   1      45.052  23.726  28.673  1.00  0.00    -0.354 N 
ATOM     33  N   UNL A   1      46.883  27.603  29.569  1.00  0.00    -0.248 NA
ATOM     34  C   UNL A   1      47.003  27.323  27.254  1.00  0.00     0.031 C 
ATOM     35  C   UNL A   1      43.953  23.786  30.557  1.00  0.00     0.029 A 
ATOM     36  C   UNL A   1      45.000  24.398  29.867  1.00  0.00     0.049 A 
ATOM     37  H   UNL A   1      45.851  23.591  28.115  1.00  0.00     0.167 HD
ATOM     38  C   UNL A   1      46.497  26.303  29.279  1.00  0.00     0.074 A 
ATOM     39  C   UNL A   1      46.672  26.166  27.833  1.00  0.00     0.031 C 
ATOM     40  C   UNL A   1      45.809  25.553  30.186  1.00  0.00     0.031 A 
BRANCH  27  41
ATOM     41  C   UNL A   1      43.934  22.851  25.856  1.00  0.00    -0.014 A 
ATOM     42  C   UNL A   1      43.836  21.464  25.665  1.00  0.00     0.009 A 
ATOM     43  C   UNL A   1      44.868  23.540  25.056  1.00  0.00     0.009 A 
ATOM     44  C   UNL A   1      44.669  20.799  24.756  1.00  0.00     0.001 A 
ATOM     45  C   UNL A   1      45.672  22.887  24.122  1.00  0.00     0.001 A 
ATOM     46  C   UNL A   1      45.587  21.510  23.989  1.00  0.00     0.000 A 
ENDBRANCH  27  41
BRANCH  28  47
ATOM     47  C   UNL A   1      47.308  30.596  27.490  1.00  0.00    -0.014 A 
ATOM     48  C   UNL A   1      46.706  31.719  26.896  1.00  0.00     0.009 A 
ATOM     49  C   UNL A   1      48.704  30.618  27.655  1.00  0.00     0.009 A 
ATOM     50  C   UNL A   1      47.460  32.849  26.552  1.00  0.00     0.001 A 
ATOM     51  C   UNL A   1      49.460  31.743  27.302  1.00  0.00     0.001 A 
ATOM     52  C   UNL A   1      48.834  32.867  26.773  1.00  0.00     0.000 A 
ENDBRANCH  28  47
BRANCH  40  53
ATOM     53  C   UNL A   1      45.650  26.096  31.584  1.00  0.00    -0.014 A 
ATOM     54  C   UNL A   1      44.620  26.987  31.940  1.00  0.00     0.009 A 
ATOM     55  C   UNL A   1      46.422  25.523  32.604  1.00  0.00     0.009 A 
ATOM     56  C   UNL A   1      44.368  27.283  33.285  1.00  0.00     0.001 A 
ATOM     57  C   UNL A   1      46.159  25.807  33.945  1.00  0.00     0.001 A 
ATOM     58  C   UNL A   1      45.130  26.682  34.287  1.00  0.00     0.000 A 
ENDBRANCH  40  53
ENDBRANCH  14  15
ENDBRANCH   7   9
ENDBRANCH   6   7
ENDBRANCH   5   6
ENDBRANCH   4   5
ENDBRANCH   3   4
ENDBRANCH   2   3
ENDBRANCH   1   2
BRANCH   1  59
ATOM     59  O   UNL A   1      33.164  28.002  26.912  1.00  0.00    -0.377 OA
BRANCH  59  60
ATOM     60  C   UNL A   1      31.859  28.355  26.520  1.00  0.00     0.188 C 
BRANCH  60  61
ATOM     61  C   UNL A   1      31.716  28.693  25.023  1.00  0.00     0.188 C 
BRANCH  61  62
ATOM     62  O   UNL A   1      30.594  28.285  24.244  1.00  0.00    -0.376 OA
BRANCH  62  63
ATOM     63  C   UNL A   1      30.527  27.027  23.597  1.00  0.00     0.202 C 
BRANCH  63  64
ATOM     64  C   UNL A   1      31.814  26.402  23.051  1.00  0.00     0.261 C 
BRANCH  64  65
ATOM     65  O   UNL A   1      31.639  25.244  22.234  1.00  0.00    -0.457 OA
BRANCH  65  66
ATOM     66  C   UNL A   1      32.782  24.790  21.633  1.00  0.00     0.374 C 
ATOM     67  O   UNL A   1      33.141  25.060  20.511  1.00  0.00    -0.242 OA
BRANCH  66  68
ATOM     68  C   UNL A   1      33.519  23.999  22.591  1.00  0.00     0.216 A 
ATOM     69  O   UNL A   1      34.821  24.370  22.900  1.00  0.00    -0.449 OA
ATOM     70  C   UNL A   1      33.178  22.881  23.317  1.00  0.00     0.014 A 
ATOM     71  C   UNL A   1      35.330  23.406  23.729  1.00  0.00     0.135 A 
ATOM     72  C   UNL A   1      34.366  22.451  23.927  1.00  0.00     0.028 A 
ATOM     73  C   UNL A   1      31.968  22.032  23.437  1.00  0.00     0.041 C 
ATOM     74  C   UNL A   1      36.602  23.301  24.272  1.00  0.00     0.048 A 
ATOM     75  C   UNL A   1      34.618  21.238  24.563  1.00  0.00    -0.037 A 
ATOM     76  C   UNL A   1      32.416  20.545  23.481  1.00  0.00     0.010 C 
ATOM     77  C   UNL A   1      36.863  22.103  24.970  1.00  0.00     0.004 A 
ATOM     78  C   UNL A   1      35.900  21.079  25.098  1.00  0.00     0.004 A 
ATOM     79  C   UNL A   1      33.499  20.227  24.571  1.00  0.00     0.036 C 
ENDBRANCH  66  68
ENDBRANCH  65  66
ENDBRANCH  64  65
ENDBRANCH  63  64
ENDBRANCH  62  63
ENDBRANCH  61  62
ENDBRANCH  60  61
ENDBRANCH  59  60
ENDBRANCH   1  59
TORSDOF 20
ENDMDL
MODEL 3
REMARK VINA RESULT:      -9.6      7.951     12.507
REMARK SMILES O=C(OCCOCCOCCOCCOC(=O)c1oc2cccc3c2c1CCC3)c1ccc(-c2c3nc(c(-c4ccccc4)c4ccc([nH]4)c(-c4ccccc4)c4nc(c(-c5ccccc5)c5ccc2[nH]5)C=C4)C=C3)cc1
REMARK SMILES IDX 8 1 7 2 6 3 5 4 4 5 3 6 2 7 1 8 30 9 31 10 77 11 32 12 76 13
REMARK SMILES IDX 33 14 34 15 35 16 70 17 36 18 75 19 69 20 71 21 37 22 74 23
REMARK SMILES IDX 68 24 67 25 38 27 60 28 45 29 59 30 46 31 49 32 58 33 72 34
REMARK SMILES IDX 47 35 48 36 57 38 73 39 50 40 39 41 40 42 44 43 41 44 43 45
REMARK SMILES IDX 42 46 61 47 62 48 66 49 63 50 65 51 64 52 51 53 52 54 56 55
REMARK SMILES IDX 53 56 55 57 54 58 9 59 10 60 11 61 12 62 13 63 14 64 15 65
REMARK SMILES IDX 16 66 17 67 18 68 19 69 26 70 20 71 25 72 27 73 21 74 24 75
REMARK SMILES IDX 28 76 22 77 23 78 29 79
REMARK H PARENT 71 26 49 37
REMARK Flexibility Score: inf
ROOT
ATOM      1  C   UNL A   1      33.908  29.160  26.538  1.00  0.00     0.188 C 
ENDROOT
BRANCH   1   2
ATOM      2  C   UNL A   1      33.477  30.594  26.902  1.00  0.00     0.188 C 
BRANCH   2   3
ATOM      3  O   UNL A   1      33.940  31.354  28.015  1.00  0.00    -0.376 OA
BRANCH   3   4
ATOM      4  C   UNL A   1      34.861  32.423  28.022  1.00  0.00     0.202 C 
BRANCH   4   5
ATOM      5  C   UNL A   1      36.367  32.188  28.155  1.00  0.00     0.261 C 
BRANCH   5   6
ATOM      6  O   UNL A   1      36.774  31.267  29.160  1.00  0.00    -0.460 OA
BRANCH   6   7
ATOM      7  C   UNL A   1      36.788  29.921  29.124  1.00  0.00     0.338 C 
ATOM      8  O   UNL A   1      35.729  29.325  29.322  1.00  0.00    -0.246 OA
BRANCH   7   9
ATOM      9  C   UNL A   1      37.993  29.103  28.832  1.00  0.00     0.060 A 
ATOM     10  C   UNL A   1      38.629  28.234  29.715  1.00  0.00     0.016 A 
ATOM     11  C   UNL A   1      38.574  29.341  27.572  1.00  0.00     0.016 A 
ATOM     12  C   UNL A   1      39.929  27.853  29.474  1.00  0.00     0.010 A 
ATOM     13  C   UNL A   1      39.866  28.940  27.307  1.00  0.00     0.010 A 
ATOM     14  C   UNL A   1      40.559  28.294  28.313  1.00  0.00    -0.014 A 
BRANCH  14  15
ATOM     15  C   UNL A   1      41.958  27.978  28.187  1.00  0.00     0.031 A 
ATOM     16  C   UNL A   1      42.205  26.719  27.458  1.00  0.00     0.074 A 
ATOM     17  C   UNL A   1      42.911  28.729  28.761  1.00  0.00     0.049 A 
ATOM     18  N   UNL A   1      42.567  25.591  27.968  1.00  0.00    -0.248 NA
ATOM     19  C   UNL A   1      41.829  26.661  26.039  1.00  0.00     0.031 C 
ATOM     20  C   UNL A   1      42.817  30.074  29.329  1.00  0.00     0.029 A 
ATOM     21  N   UNL A   1      44.228  28.430  28.895  1.00  0.00    -0.354 N 
ATOM     22  C   UNL A   1      42.642  24.707  26.900  1.00  0.00     0.074 A 
ATOM     23  C   UNL A   1      42.038  25.371  25.773  1.00  0.00     0.031 C 
ATOM     24  C   UNL A   1      44.068  30.557  29.531  1.00  0.00     0.029 A 
ATOM     25  C   UNL A   1      45.028  29.502  29.255  1.00  0.00     0.049 A 
ATOM     26  H   UNL A   1      44.585  27.524  28.747  1.00  0.00     0.167 HD
ATOM     27  C   UNL A   1      43.418  23.594  26.964  1.00  0.00     0.031 A 
ATOM     28  C   UNL A   1      46.385  29.504  29.256  1.00  0.00     0.031 A 
ATOM     29  C   UNL A   1      43.730  23.231  28.321  1.00  0.00     0.049 A 
ATOM     30  C   UNL A   1      46.814  28.087  29.356  1.00  0.00     0.074 A 
ATOM     31  C   UNL A   1      42.980  22.846  29.415  1.00  0.00     0.029 A 
ATOM     32  N   UNL A   1      44.948  23.633  28.817  1.00  0.00    -0.354 N 
ATOM     33  N   UNL A   1      46.619  27.353  30.415  1.00  0.00    -0.248 NA
ATOM     34  C   UNL A   1      47.052  27.354  28.121  1.00  0.00     0.031 C 
ATOM     35  C   UNL A   1      43.604  23.475  30.530  1.00  0.00     0.029 A 
ATOM     36  C   UNL A   1      44.732  24.155  30.066  1.00  0.00     0.049 A 
ATOM     37  H   UNL A   1      45.816  23.558  28.359  1.00  0.00     0.167 HD
ATOM     38  C   UNL A   1      46.284  26.101  29.921  1.00  0.00     0.074 A 
ATOM     39  C   UNL A   1      46.652  26.139  28.506  1.00  0.00     0.031 C 
ATOM     40  C   UNL A   1      45.483  25.254  30.629  1.00  0.00     0.031 A 
BRANCH  27  41
ATOM     41  C   UNL A   1      44.224  23.117  25.790  1.00  0.00    -0.014 A 
ATOM     42  C   UNL A   1      44.122  21.777  25.389  1.00  0.00     0.009 A 
ATOM     43  C   UNL A   1      45.287  23.866  25.245  1.00  0.00     0.009 A 
ATOM     44  C   UNL A   1      45.066  21.206  24.526  1.00  0.00     0.001 A 
ATOM     45  C   UNL A   1      46.206  23.313  24.354  1.00  0.00     0.001 A 
ATOM     46  C   UNL A   1      46.108  21.973  24.013  1.00  0.00     0.000 A 
ENDBRANCH  27  41
BRANCH  28  47
ATOM     47  C   UNL A   1      47.303  30.570  28.792  1.00  0.00    -0.014 A 
ATOM     48  C   UNL A   1      48.528  30.776  29.452  1.00  0.00     0.009 A 
ATOM     49  C   UNL A   1      47.134  31.175  27.535  1.00  0.00     0.009 A 
ATOM     50  C   UNL A   1      49.567  31.492  28.845  1.00  0.00     0.001 A 
ATOM     51  C   UNL A   1      48.169  31.900  26.931  1.00  0.00     0.001 A 
ATOM     52  C   UNL A   1      49.393  32.038  27.576  1.00  0.00     0.000 A 
ENDBRANCH  28  47
BRANCH  40  53
ATOM     53  C   UNL A   1      45.135  25.626  32.049  1.00  0.00    -0.014 A 
ATOM     54  C   UNL A   1      44.101  26.527  32.365  1.00  0.00     0.009 A 
ATOM     55  C   UNL A   1      45.716  24.882  33.085  1.00  0.00     0.009 A 
ATOM     56  C   UNL A   1      43.657  26.665  33.687  1.00  0.00     0.001 A 
ATOM     57  C   UNL A   1      45.262  25.010  34.399  1.00  0.00     0.001 A 
ATOM     58  C   UNL A   1      44.230  25.897  34.699  1.00  0.00     0.000 A 
ENDBRANCH  40  53
ENDBRANCH  14  15
ENDBRANCH   7   9
ENDBRANCH   6   7
ENDBRANCH   5   6
ENDBRANCH   4   5
ENDBRANCH   3   4
ENDBRANCH   2   3
ENDBRANCH   1   2
BRANCH   1  59
ATOM     59  O   UNL A   1      33.025  28.118  26.911  1.00  0.00    -0.377 OA
BRANCH  59  60
ATOM     60  C   UNL A   1      31.692  28.316  26.503  1.00  0.00     0.188 C 
BRANCH  60  61
ATOM     61  C   UNL A   1      31.399  27.871  25.057  1.00  0.00     0.188 C 
BRANCH  61  62
ATOM     62  O   UNL A   1      30.243  27.118  24.700  1.00  0.00    -0.376 OA
BRANCH  62  63
ATOM     63  C   UNL A   1      30.299  25.749  24.342  1.00  0.00     0.202 C 
BRANCH  63  64
ATOM     64  C   UNL A   1      31.413  24.874  24.926  1.00  0.00     0.261 C 
BRANCH  64  65
ATOM     65  O   UNL A   1      31.351  23.488  24.584  1.00  0.00    -0.457 OA
BRANCH  65  66
ATOM     66  C   UNL A   1      31.507  22.631  25.640  1.00  0.00     0.374 C 
ATOM     67  O   UNL A   1      30.972  22.739  26.719  1.00  0.00    -0.242 OA
BRANCH  66  68
ATOM     68  C   UNL A   1      32.353  21.538  25.219  1.00  0.00     0.216 A 
ATOM     69  O   UNL A   1      31.773  20.298  24.987  1.00  0.00    -0.449 OA
ATOM     70  C   UNL A   1      33.705  21.462  24.979  1.00  0.00     0.014 A 
ATOM     71  C   UNL A   1      32.790  19.420  24.720  1.00  0.00     0.135 A 
ATOM     72  C   UNL A   1      33.979  20.099  24.791  1.00  0.00     0.028 A 
ATOM     73  C   UNL A   1      34.841  22.415  25.039  1.00  0.00     0.041 C 
ATOM     74  C   UNL A   1      32.727  18.057  24.470  1.00  0.00     0.048 A 
ATOM     75  C   UNL A   1      35.219  19.465  24.761  1.00  0.00    -0.037 A 
ATOM     76  C   UNL A   1      36.054  21.690  25.683  1.00  0.00     0.010 C 
ATOM     77  C   UNL A   1      33.973  17.402  24.380  1.00  0.00     0.004 A 
ATOM     78  C   UNL A   1      35.198  18.085  24.542  1.00  0.00     0.004 A 
ATOM     79  C   UNL A   1      36.432  20.328  25.002  1.00  0.00     0.036 C 
ENDBRANCH  66  68
ENDBRANCH  65  66
ENDBRANCH  64  65
ENDBRANCH  63  64
ENDBRANCH  62  63
ENDBRANCH  61  62
ENDBRANCH  60  61
ENDBRANCH  59  60
ENDBRANCH   1  59
TORSDOF 20
ENDMDL
