MODEL 1
REMARK VINA RESULT:      -8.3      0.000      0.000
REMARK SMILES NS(=O)(=O)c1ccc(N2N=C(C(=O)OCCOCCOCCOCCOC(=O)c3ccc(-c4c5nc(c(-c6ccccc6)c6ccc([nH]6)c(-c6ccccc6)c6nc(c(-c7ccccc7)c7ccc4[nH]7)C=C6)C=C5)cc3)C[C@H]2c2cccs2)cc1
REMARK SMILES IDX 19 1 18 2 17 3 16 4 15 5 14 6 12 7 13 8 11 9 9 10 10 11
REMARK SMILES IDX 78 12 77 13 8 14 5 15 6 16 85 17 7 18 84 19 2 20 3 21 4 22
REMARK SMILES IDX 1 23 79 26 80 27 83 28 81 29 82 30 20 31 21 32 22 33 23 34
REMARK SMILES IDX 24 35 25 36 26 37 27 38 28 39 29 40 30 41 76 42 31 43 75 44
REMARK SMILES IDX 32 45 33 46 34 47 69 48 35 49 74 50 68 51 70 52 36 53 73 54
REMARK SMILES IDX 67 55 66 56 37 58 59 59 44 60 58 61 45 62 48 63 57 64 71 65
REMARK SMILES IDX 46 66 47 67 56 69 72 70 49 71 38 72 39 73 43 74 40 75 42 76
REMARK SMILES IDX 41 77 60 78 61 79 65 80 62 81 64 82 63 83 50 84 51 85 55 86
REMARK SMILES IDX 52 87 54 88 53 89
REMARK H PARENT 1 24 1 25 70 57 48 68
REMARK Flexibility Score: inf
ROOT
ATOM      1  C   UNL A   1      40.996  27.618  26.233  1.00  0.00     0.188 C 
ENDROOT
BRANCH   1   2
ATOM      2  C   UNL A   1      40.185  27.323  27.508  1.00  0.00     0.188 C 
BRANCH   2   3
ATOM      3  O   UNL A   1      39.765  28.493  28.183  1.00  0.00    -0.376 OA
BRANCH   3   4
ATOM      4  C   UNL A   1      38.558  28.532  28.922  1.00  0.00     0.202 C 
BRANCH   4   5
ATOM      5  C   UNL A   1      38.473  28.374  30.452  1.00  0.00     0.261 C 
BRANCH   5   6
ATOM      6  O   UNL A   1      37.340  28.955  31.091  1.00  0.00    -0.459 OA
BRANCH   6   7
ATOM      7  C   UNL A   1      37.367  29.031  32.430  1.00  0.00     0.354 C 
ATOM      8  O   UNL A   1      37.518  28.129  33.228  1.00  0.00    -0.245 OA
BRANCH   7   9
ATOM      9  C   UNL A   1      37.334  30.489  32.808  1.00  0.00     0.148 C 
ATOM     10  N   UNL A   1      36.627  32.461  33.112  1.00  0.00    -0.256 N 
ATOM     11  N   UNL A   1      36.255  31.207  32.717  1.00  0.00    -0.169 NA
ATOM     12  C   UNL A   1      38.101  32.614  33.103  1.00  0.00     0.154 C 
ATOM     13  C   UNL A   1      38.526  31.171  33.411  1.00  0.00     0.099 C 
BRANCH  10  14
ATOM     14  C   UNL A   1      35.733  33.500  32.892  1.00  0.00     0.060 A 
ATOM     15  C   UNL A   1      33.928  35.613  32.470  1.00  0.00     0.082 A 
ATOM     16  C   UNL A   1      34.659  35.553  33.660  1.00  0.00     0.024 A 
ATOM     17  C   UNL A   1      34.052  34.605  31.514  1.00  0.00     0.024 A 
ATOM     18  C   UNL A   1      35.563  34.502  33.860  1.00  0.00     0.029 A 
ATOM     19  C   UNL A   1      34.937  33.550  31.740  1.00  0.00     0.029 A 
BRANCH  15  20
ATOM     20  S   UNL A   1      32.790  36.936  32.194  1.00  0.00     0.238 S 
ATOM     21  O   UNL A   1      32.262  36.850  30.857  1.00  0.00    -0.207 OA
ATOM     22  O   UNL A   1      33.342  38.160  32.736  1.00  0.00    -0.207 OA
BRANCH  20  23
ATOM     23  N   UNL A   1      31.522  36.518  33.215  1.00  0.00    -0.225 NA
ATOM     24  H   UNL A   1      30.689  37.048  32.956  1.00  0.00     0.137 HD
ATOM     25  H   UNL A   1      31.776  36.732  34.178  1.00  0.00     0.137 HD
ENDBRANCH  20  23
ENDBRANCH  15  20
ENDBRANCH  10  14
BRANCH  12  26
ATOM     26  C   UNL A   1      38.726  33.164  31.820  1.00  0.00     0.030 A 
ATOM     27  C   UNL A   1      38.724  34.482  31.391  1.00  0.00     0.017 A 
ATOM     28  S   UNL A   1      39.524  32.164  30.667  1.00  0.00    -0.147 S 
ATOM     29  C   UNL A   1      39.338  34.652  30.117  1.00  0.00     0.012 A 
ATOM     30  C   UNL A   1      39.847  33.472  29.630  1.00  0.00     0.065 A 
ENDBRANCH  12  26
ENDBRANCH   7   9
ENDBRANCH   6   7
ENDBRANCH   5   6
ENDBRANCH   4   5
ENDBRANCH   3   4
ENDBRANCH   2   3
ENDBRANCH   1   2
BRANCH   1  31
ATOM     31  O   UNL A   1      41.278  26.484  25.425  1.00  0.00    -0.377 OA
BRANCH  31  32
ATOM     32  C   UNL A   1      41.445  25.211  26.058  1.00  0.00     0.188 C 
BRANCH  32  33
ATOM     33  C   UNL A   1      42.832  24.550  26.266  1.00  0.00     0.188 C 
BRANCH  33  34
ATOM     34  O   UNL A   1      43.156  23.538  25.329  1.00  0.00    -0.376 OA
BRANCH  34  35
ATOM     35  C   UNL A   1      44.323  23.683  24.542  1.00  0.00     0.202 C 
BRANCH  35  36
ATOM     36  C   UNL A   1      45.500  24.452  25.160  1.00  0.00     0.261 C 
BRANCH  36  37
ATOM     37  O   UNL A   1      45.668  25.809  24.723  1.00  0.00    -0.460 OA
BRANCH  37  38
ATOM     38  C   UNL A   1      46.682  26.514  25.268  1.00  0.00     0.338 C 
ATOM     39  O   UNL A   1      47.840  26.546  24.900  1.00  0.00    -0.246 OA
BRANCH  38  40
ATOM     40  C   UNL A   1      46.103  27.401  26.300  1.00  0.00     0.060 A 
ATOM     41  C   UNL A   1      46.900  27.804  27.378  1.00  0.00     0.016 A 
ATOM     42  C   UNL A   1      44.778  27.831  26.198  1.00  0.00     0.016 A 
ATOM     43  C   UNL A   1      46.361  28.612  28.381  1.00  0.00     0.010 A 
ATOM     44  C   UNL A   1      44.234  28.624  27.213  1.00  0.00     0.010 A 
ATOM     45  C   UNL A   1      45.013  28.989  28.326  1.00  0.00    -0.014 A 
BRANCH  45  46
ATOM     46  C   UNL A   1      44.366  29.601  29.511  1.00  0.00     0.031 A 
ATOM     47  C   UNL A   1      44.119  31.086  29.506  1.00  0.00     0.074 A 
ATOM     48  C   UNL A   1      43.987  28.860  30.567  1.00  0.00     0.049 A 
ATOM     49  N   UNL A   1      43.619  31.850  30.444  1.00  0.00    -0.248 NA
ATOM     50  C   UNL A   1      44.490  31.805  28.275  1.00  0.00     0.031 C 
ATOM     51  C   UNL A   1      44.120  27.409  30.677  1.00  0.00     0.029 A 
ATOM     52  N   UNL A   1      43.415  29.237  31.756  1.00  0.00    -0.354 N 
ATOM     53  C   UNL A   1      43.626  33.137  29.922  1.00  0.00     0.074 A 
ATOM     54  C   UNL A   1      44.209  33.058  28.600  1.00  0.00     0.031 C 
ATOM     55  C   UNL A   1      43.647  27.018  31.874  1.00  0.00     0.029 A 
ATOM     56  C   UNL A   1      43.217  28.195  32.629  1.00  0.00     0.049 A 
ATOM     57  H   UNL A   1      43.169  30.167  31.965  1.00  0.00     0.167 HD
ATOM     58  C   UNL A   1      43.182  34.284  30.488  1.00  0.00     0.031 A 
ATOM     59  C   UNL A   1      42.766  28.194  33.898  1.00  0.00     0.031 A 
ATOM     60  C   UNL A   1      42.620  34.368  31.810  1.00  0.00     0.049 A 
ATOM     61  C   UNL A   1      42.368  29.498  34.542  1.00  0.00     0.074 A 
ATOM     62  C   UNL A   1      42.131  35.482  32.468  1.00  0.00     0.029 A 
ATOM     63  N   UNL A   1      42.482  33.296  32.677  1.00  0.00    -0.354 N 
ATOM     64  N   UNL A   1      42.354  30.706  34.031  1.00  0.00    -0.248 NA
ATOM     65  C   UNL A   1      41.918  29.435  35.941  1.00  0.00     0.031 C 
ATOM     66  C   UNL A   1      41.761  35.096  33.760  1.00  0.00     0.029 A 
ATOM     67  C   UNL A   1      41.948  33.729  33.879  1.00  0.00     0.049 A 
ATOM     68  H   UNL A   1      42.727  32.365  32.470  1.00  0.00     0.167 HD
ATOM     69  C   UNL A   1      41.863  31.537  35.032  1.00  0.00     0.074 A 
ATOM     70  C   UNL A   1      41.576  30.695  36.173  1.00  0.00     0.031 C 
ATOM     71  C   UNL A   1      41.667  32.880  35.008  1.00  0.00     0.031 A 
BRANCH  58  72
ATOM     72  C   UNL A   1      43.328  35.552  29.692  1.00  0.00    -0.014 A 
ATOM     73  C   UNL A   1      44.378  36.452  29.932  1.00  0.00     0.009 A 
ATOM     74  C   UNL A   1      42.416  35.834  28.662  1.00  0.00     0.009 A 
ATOM     75  C   UNL A   1      44.490  37.626  29.182  1.00  0.00     0.001 A 
ATOM     76  C   UNL A   1      42.549  36.990  27.892  1.00  0.00     0.001 A 
ATOM     77  C   UNL A   1      43.579  37.890  28.160  1.00  0.00     0.000 A 
ENDBRANCH  58  72
BRANCH  59  78
ATOM     78  C   UNL A   1      42.685  26.922  34.666  1.00  0.00    -0.014 A 
ATOM     79  C   UNL A   1      41.459  26.262  34.839  1.00  0.00     0.009 A 
ATOM     80  C   UNL A   1      43.834  26.379  35.264  1.00  0.00     0.009 A 
ATOM     81  C   UNL A   1      41.379  25.106  35.619  1.00  0.00     0.001 A 
ATOM     82  C   UNL A   1      43.758  25.205  36.016  1.00  0.00     0.001 A 
ATOM     83  C   UNL A   1      42.528  24.575  36.202  1.00  0.00     0.000 A 
ENDBRANCH  59  78
BRANCH  71  84
ATOM     84  C   UNL A   1      41.075  33.516  36.236  1.00  0.00    -0.014 A 
ATOM     85  C   UNL A   1      41.883  34.009  37.272  1.00  0.00     0.009 A 
ATOM     86  C   UNL A   1      39.682  33.665  36.337  1.00  0.00     0.009 A 
ATOM     87  C   UNL A   1      41.307  34.603  38.397  1.00  0.00     0.001 A 
ATOM     88  C   UNL A   1      39.110  34.292  37.445  1.00  0.00     0.001 A 
ATOM     89  C   UNL A   1      39.923  34.750  38.479  1.00  0.00     0.000 A 
ENDBRANCH  71  84
ENDBRANCH  45  46
ENDBRANCH  38  40
ENDBRANCH  37  38
ENDBRANCH  36  37
ENDBRANCH  35  36
ENDBRANCH  34  35
ENDBRANCH  33  34
ENDBRANCH  32  33
ENDBRANCH  31  32
ENDBRANCH   1  31
TORSDOF 24
ENDMDL
MODEL 2
REMARK VINA RESULT:      -7.7      0.944      5.653
REMARK SMILES NS(=O)(=O)c1ccc(N2N=C(C(=O)OCCOCCOCCOCCOC(=O)c3ccc(-c4c5nc(c(-c6ccccc6)c6ccc([nH]6)c(-c6ccccc6)c6nc(c(-c7ccccc7)c7ccc4[nH]7)C=C6)C=C5)cc3)C[C@H]2c2cccs2)cc1
REMARK SMILES IDX 19 1 18 2 17 3 16 4 15 5 14 6 12 7 13 8 11 9 9 10 10 11
REMARK SMILES IDX 78 12 77 13 8 14 5 15 6 16 85 17 7 18 84 19 2 20 3 21 4 22
REMARK SMILES IDX 1 23 79 26 80 27 83 28 81 29 82 30 20 31 21 32 22 33 23 34
REMARK SMILES IDX 24 35 25 36 26 37 27 38 28 39 29 40 30 41 76 42 31 43 75 44
REMARK SMILES IDX 32 45 33 46 34 47 69 48 35 49 74 50 68 51 70 52 36 53 73 54
REMARK SMILES IDX 67 55 66 56 37 58 59 59 44 60 58 61 45 62 48 63 57 64 71 65
REMARK SMILES IDX 46 66 47 67 56 69 72 70 49 71 38 72 39 73 43 74 40 75 42 76
REMARK SMILES IDX 41 77 60 78 61 79 65 80 62 81 64 82 63 83 50 84 51 85 55 86
REMARK SMILES IDX 52 87 54 88 53 89
REMARK H PARENT 1 24 1 25 70 57 48 68
REMARK Flexibility Score: inf
ROOT
ATOM      1  C   UNL A   1      40.899  27.593  26.318  1.00  0.00     0.188 C 
ENDROOT
BRANCH   1   2
ATOM      2  C   UNL A   1      40.050  27.332  27.575  1.00  0.00     0.188 C 
BRANCH   2   3
ATOM      3  O   UNL A   1      39.683  28.518  28.255  1.00  0.00    -0.376 OA
BRANCH   3   4
ATOM      4  C   UNL A   1      38.484  28.604  29.003  1.00  0.00     0.202 C 
BRANCH   4   5
ATOM      5  C   UNL A   1      38.398  28.401  30.528  1.00  0.00     0.261 C 
BRANCH   5   6
ATOM      6  O   UNL A   1      37.274  28.979  31.185  1.00  0.00    -0.459 OA
BRANCH   6   7
ATOM      7  C   UNL A   1      37.334  29.082  32.521  1.00  0.00     0.354 C 
ATOM      8  O   UNL A   1      37.509  28.197  33.333  1.00  0.00    -0.245 OA
BRANCH   7   9
ATOM      9  C   UNL A   1      37.307  30.548  32.870  1.00  0.00     0.148 C 
ATOM     10  N   UNL A   1      36.599  32.521  33.165  1.00  0.00    -0.256 N 
ATOM     11  N   UNL A   1      36.220  31.256  32.813  1.00  0.00    -0.169 NA
ATOM     12  C   UNL A   1      38.070  32.684  33.086  1.00  0.00     0.154 C 
ATOM     13  C   UNL A   1      38.519  31.250  33.405  1.00  0.00     0.099 C 
BRANCH  10  14
ATOM     14  C   UNL A   1      35.688  33.549  32.965  1.00  0.00     0.060 A 
ATOM     15  C   UNL A   1      33.837  35.619  32.537  1.00  0.00     0.082 A 
ATOM     16  C   UNL A   1      33.993  34.620  31.573  1.00  0.00     0.024 A 
ATOM     17  C   UNL A   1      34.628  35.623  33.686  1.00  0.00     0.024 A 
ATOM     18  C   UNL A   1      34.911  33.586  31.797  1.00  0.00     0.029 A 
ATOM     19  C   UNL A   1      35.558  34.601  33.881  1.00  0.00     0.029 A 
BRANCH  15  20
ATOM     20  S   UNL A   1      32.676  36.927  32.280  1.00  0.00     0.238 S 
ATOM     21  O   UNL A   1      33.345  38.198  32.388  1.00  0.00    -0.207 OA
ATOM     22  O   UNL A   1      31.454  36.626  32.996  1.00  0.00    -0.207 OA
BRANCH  20  23
ATOM     23  N   UNL A   1      32.305  36.742  30.651  1.00  0.00    -0.225 NA
ATOM     24  H   UNL A   1      31.453  37.260  30.435  1.00  0.00     0.137 HD
ATOM     25  H   UNL A   1      32.164  35.754  30.444  1.00  0.00     0.137 HD
ENDBRANCH  20  23
ENDBRANCH  15  20
ENDBRANCH  10  14
BRANCH  12  26
ATOM     26  C   UNL A   1      38.632  33.211  31.765  1.00  0.00     0.030 A 
ATOM     27  C   UNL A   1      39.110  34.487  31.514  1.00  0.00     0.017 A 
ATOM     28  S   UNL A   1      38.719  32.250  30.339  1.00  0.00    -0.147 S 
ATOM     29  C   UNL A   1      39.505  34.675  30.158  1.00  0.00     0.012 A 
ATOM     30  C   UNL A   1      39.375  33.523  29.420  1.00  0.00     0.065 A 
ENDBRANCH  12  26
ENDBRANCH   7   9
ENDBRANCH   6   7
ENDBRANCH   5   6
ENDBRANCH   4   5
ENDBRANCH   3   4
ENDBRANCH   2   3
ENDBRANCH   1   2
BRANCH   1  31
ATOM     31  O   UNL A   1      41.131  26.453  25.503  1.00  0.00    -0.377 OA
BRANCH  31  32
ATOM     32  C   UNL A   1      41.015  25.152  26.089  1.00  0.00     0.188 C 
BRANCH  32  33
ATOM     33  C   UNL A   1      42.243  24.306  26.511  1.00  0.00     0.188 C 
BRANCH  33  34
ATOM     34  O   UNL A   1      42.340  23.041  25.882  1.00  0.00    -0.376 OA
BRANCH  34  35
ATOM     35  C   UNL A   1      43.451  22.776  25.046  1.00  0.00     0.202 C 
BRANCH  35  36
ATOM     36  C   UNL A   1      44.773  23.478  25.387  1.00  0.00     0.261 C 
BRANCH  36  37
ATOM     37  O   UNL A   1      45.093  24.636  24.601  1.00  0.00    -0.460 OA
BRANCH  37  38
ATOM     38  C   UNL A   1      46.234  25.292  24.903  1.00  0.00     0.338 C 
ATOM     39  O   UNL A   1      47.333  25.126  24.411  1.00  0.00    -0.246 OA
BRANCH  38  40
ATOM     40  C   UNL A   1      45.883  26.396  25.823  1.00  0.00     0.060 A 
ATOM     41  C   UNL A   1      46.832  26.837  26.753  1.00  0.00     0.016 A 
ATOM     42  C   UNL A   1      44.620  26.989  25.764  1.00  0.00     0.016 A 
ATOM     43  C   UNL A   1      46.508  27.852  27.653  1.00  0.00     0.010 A 
ATOM     44  C   UNL A   1      44.290  27.993  26.679  1.00  0.00     0.010 A 
ATOM     45  C   UNL A   1      45.221  28.404  27.650  1.00  0.00    -0.014 A 
BRANCH  45  46
ATOM     46  C   UNL A   1      44.784  29.271  28.772  1.00  0.00     0.031 A 
ATOM     47  C   UNL A   1      44.535  28.635  30.113  1.00  0.00     0.074 A 
ATOM     48  C   UNL A   1      44.626  30.597  28.616  1.00  0.00     0.049 A 
ATOM     49  N   UNL A   1      44.100  29.175  31.222  1.00  0.00    -0.248 NA
ATOM     50  C   UNL A   1      44.814  27.192  30.213  1.00  0.00     0.031 C 
ATOM     51  C   UNL A   1      44.883  31.344  27.387  1.00  0.00     0.029 A 
ATOM     52  N   UNL A   1      44.201  31.550  29.507  1.00  0.00    -0.354 N 
ATOM     53  C   UNL A   1      44.042  28.140  32.146  1.00  0.00     0.074 A 
ATOM     54  C   UNL A   1      44.454  26.934  31.462  1.00  0.00     0.031 C 
ATOM     55  C   UNL A   1      44.604  32.643  27.601  1.00  0.00     0.029 A 
ATOM     56  C   UNL A   1      44.110  32.810  28.967  1.00  0.00     0.049 A 
ATOM     57  H   UNL A   1      43.981  31.350  30.446  1.00  0.00     0.167 HD
ATOM     58  C   UNL A   1      43.683  28.186  33.451  1.00  0.00     0.031 A 
ATOM     59  C   UNL A   1      43.658  33.958  29.506  1.00  0.00     0.031 A 
ATOM     60  C   UNL A   1      43.254  29.381  34.129  1.00  0.00     0.049 A 
ATOM     61  C   UNL A   1      43.171  33.966  30.933  1.00  0.00     0.074 A 
ATOM     62  C   UNL A   1      42.881  29.533  35.452  1.00  0.00     0.029 A 
ATOM     63  N   UNL A   1      43.132  30.625  33.532  1.00  0.00    -0.354 N 
ATOM     64  N   UNL A   1      43.145  32.987  31.806  1.00  0.00    -0.248 NA
ATOM     65  C   UNL A   1      42.656  35.243  31.450  1.00  0.00     0.031 C 
ATOM     66  C   UNL A   1      42.466  30.855  35.639  1.00  0.00     0.029 A 
ATOM     67  C   UNL A   1      42.654  31.544  34.452  1.00  0.00     0.049 A 
ATOM     68  H   UNL A   1      43.352  30.827  32.594  1.00  0.00     0.167 HD
ATOM     69  C   UNL A   1      42.644  33.537  32.980  1.00  0.00     0.074 A 
ATOM     70  C   UNL A   1      42.395  34.938  32.713  1.00  0.00     0.031 C 
ATOM     71  C   UNL A   1      42.411  32.936  34.174  1.00  0.00     0.031 A 
BRANCH  58  72
ATOM     72  C   UNL A   1      43.698  26.894  34.221  1.00  0.00    -0.014 A 
ATOM     73  C   UNL A   1      42.553  26.089  34.326  1.00  0.00     0.009 A 
ATOM     74  C   UNL A   1      44.889  26.461  34.826  1.00  0.00     0.009 A 
ATOM     75  C   UNL A   1      42.591  24.895  35.050  1.00  0.00     0.001 A 
ATOM     76  C   UNL A   1      44.933  25.251  35.520  1.00  0.00     0.001 A 
ATOM     77  C   UNL A   1      43.782  24.475  35.641  1.00  0.00     0.000 A 
ENDBRANCH  58  72
BRANCH  59  78
ATOM     78  C   UNL A   1      43.613  35.203  28.691  1.00  0.00    -0.014 A 
ATOM     79  C   UNL A   1      42.488  35.512  27.910  1.00  0.00     0.009 A 
ATOM     80  C   UNL A   1      44.715  36.073  28.661  1.00  0.00     0.009 A 
ATOM     81  C   UNL A   1      42.480  36.645  27.094  1.00  0.00     0.001 A 
ATOM     82  C   UNL A   1      44.691  37.224  27.870  1.00  0.00     0.001 A 
ATOM     83  C   UNL A   1      43.579  37.504  27.079  1.00  0.00     0.000 A 
ENDBRANCH  59  78
BRANCH  71  84
ATOM     84  C   UNL A   1      41.901  33.798  35.297  1.00  0.00    -0.014 A 
ATOM     85  C   UNL A   1      42.775  34.477  36.159  1.00  0.00     0.009 A 
ATOM     86  C   UNL A   1      40.517  33.970  35.464  1.00  0.00     0.009 A 
ATOM     87  C   UNL A   1      42.274  35.278  37.188  1.00  0.00     0.001 A 
ATOM     88  C   UNL A   1      40.019  34.800  36.470  1.00  0.00     0.001 A 
ATOM     89  C   UNL A   1      40.898  35.444  37.338  1.00  0.00     0.000 A 
ENDBRANCH  71  84
ENDBRANCH  45  46
ENDBRANCH  38  40
ENDBRANCH  37  38
ENDBRANCH  36  37
ENDBRANCH  35  36
ENDBRANCH  34  35
ENDBRANCH  33  34
ENDBRANCH  32  33
ENDBRANCH  31  32
ENDBRANCH   1  31
TORSDOF 24
ENDMDL
MODEL 3
REMARK VINA RESULT:      -6.9      5.500     11.214
REMARK SMILES NS(=O)(=O)c1ccc(N2N=C(C(=O)OCCOCCOCCOCCOC(=O)c3ccc(-c4c5nc(c(-c6ccccc6)c6ccc([nH]6)c(-c6ccccc6)c6nc(c(-c7ccccc7)c7ccc4[nH]7)C=C6)C=C5)cc3)C[C@H]2c2cccs2)cc1
REMARK SMILES IDX 19 1 18 2 17 3 16 4 15 5 14 6 12 7 13 8 11 9 9 10 10 11
REMARK SMILES IDX 78 12 77 13 8 14 5 15 6 16 85 17 7 18 84 19 2 20 3 21 4 22
REMARK SMILES IDX 1 23 79 26 80 27 83 28 81 29 82 30 20 31 21 32 22 33 23 34
REMARK SMILES IDX 24 35 25 36 26 37 27 38 28 39 29 40 30 41 76 42 31 43 75 44
REMARK SMILES IDX 32 45 33 46 34 47 69 48 35 49 74 50 68 51 70 52 36 53 73 54
REMARK SMILES IDX 67 55 66 56 37 58 59 59 44 60 58 61 45 62 48 63 57 64 71 65
REMARK SMILES IDX 46 66 47 67 56 69 72 70 49 71 38 72 39 73 43 74 40 75 42 76
REMARK SMILES IDX 41 77 60 78 61 79 65 80 62 81 64 82 63 83 50 84 51 85 55 86
REMARK SMILES IDX 52 87 54 88 53 89
REMARK H PARENT 1 24 1 25 70 57 48 68
REMARK Flexibility Score: inf
ROOT
ATOM      1  C   UNL A   1      33.584  36.370  28.709  1.00  0.00     0.188 C 
ENDROOT
BRANCH   1   2
ATOM      2  C   UNL A   1      34.352  35.074  28.391  1.00  0.00     0.188 C 
BRANCH   2   3
ATOM      3  O   UNL A   1      33.720  33.915  28.900  1.00  0.00    -0.376 OA
BRANCH   3   4
ATOM      4  C   UNL A   1      34.426  32.700  29.075  1.00  0.00     0.202 C 
BRANCH   4   5
ATOM      5  C   UNL A   1      35.011  31.864  27.920  1.00  0.00     0.261 C 
BRANCH   5   6
ATOM      6  O   UNL A   1      34.413  30.592  27.689  1.00  0.00    -0.459 OA
BRANCH   6   7
ATOM      7  C   UNL A   1      33.195  30.583  27.127  1.00  0.00     0.354 C 
ATOM      8  O   UNL A   1      32.582  31.519  26.656  1.00  0.00    -0.245 OA
BRANCH   7   9
ATOM      9  C   UNL A   1      32.748  29.149  27.023  1.00  0.00     0.148 C 
ATOM     10  N   UNL A   1      32.794  27.057  26.702  1.00  0.00    -0.256 N 
ATOM     11  N   UNL A   1      33.568  28.184  26.735  1.00  0.00    -0.169 NA
ATOM     12  C   UNL A   1      31.354  27.394  26.610  1.00  0.00     0.154 C 
ATOM     13  C   UNL A   1      31.342  28.739  27.351  1.00  0.00     0.099 C 
BRANCH  10  14
ATOM     14  C   UNL A   1      33.360  25.899  26.186  1.00  0.00     0.060 A 
ATOM     15  C   UNL A   1      34.521  23.570  25.126  1.00  0.00     0.082 A 
ATOM     16  C   UNL A   1      35.005  24.822  24.739  1.00  0.00     0.024 A 
ATOM     17  C   UNL A   1      33.436  23.470  25.996  1.00  0.00     0.024 A 
ATOM     18  C   UNL A   1      34.427  25.979  25.278  1.00  0.00     0.029 A 
ATOM     19  C   UNL A   1      32.853  24.632  26.502  1.00  0.00     0.029 A 
BRANCH  15  20
ATOM     20  S   UNL A   1      35.243  22.098  24.467  1.00  0.00     0.238 S 
ATOM     21  O   UNL A   1      34.207  21.149  24.149  1.00  0.00    -0.207 OA
ATOM     22  O   UNL A   1      36.408  21.745  25.251  1.00  0.00    -0.207 OA
BRANCH  20  23
ATOM     23  N   UNL A   1      35.837  22.638  22.989  1.00  0.00    -0.225 NA
ATOM     24  H   UNL A   1      36.857  22.634  23.012  1.00  0.00     0.137 HD
ATOM     25  H   UNL A   1      35.504  23.585  22.815  1.00  0.00     0.137 HD
ENDBRANCH  20  23
ENDBRANCH  15  20
ENDBRANCH  10  14
BRANCH  12  26
ATOM     26  C   UNL A   1      30.757  27.475  25.205  1.00  0.00     0.030 A 
ATOM     27  C   UNL A   1      30.043  26.488  24.545  1.00  0.00     0.017 A 
ATOM     28  S   UNL A   1      30.930  28.860  24.197  1.00  0.00    -0.147 S 
ATOM     29  C   UNL A   1      29.680  26.858  23.218  1.00  0.00     0.012 A 
ATOM     30  C   UNL A   1      30.072  28.140  22.917  1.00  0.00     0.065 A 
ENDBRANCH  12  26
ENDBRANCH   7   9
ENDBRANCH   6   7
ENDBRANCH   5   6
ENDBRANCH   4   5
ENDBRANCH   3   4
ENDBRANCH   2   3
ENDBRANCH   1   2
BRANCH   1  31
ATOM     31  O   UNL A   1      32.664  36.275  29.787  1.00  0.00    -0.377 OA
BRANCH  31  32
ATOM     32  C   UNL A   1      33.128  36.547  31.114  1.00  0.00     0.188 C 
BRANCH  32  33
ATOM     33  C   UNL A   1      33.387  35.434  32.160  1.00  0.00     0.188 C 
BRANCH  33  34
ATOM     34  O   UNL A   1      34.399  35.728  33.106  1.00  0.00    -0.376 OA
BRANCH  34  35
ATOM     35  C   UNL A   1      35.598  34.976  33.083  1.00  0.00     0.202 C 
BRANCH  35  36
ATOM     36  C   UNL A   1      36.110  34.509  31.712  1.00  0.00     0.261 C 
BRANCH  36  37
ATOM     37  O   UNL A   1      37.025  33.404  31.724  1.00  0.00    -0.460 OA
BRANCH  37  38
ATOM     38  C   UNL A   1      36.620  32.270  32.336  1.00  0.00     0.338 C 
ATOM     39  O   UNL A   1      35.571  31.678  32.174  1.00  0.00    -0.246 OA
BRANCH  38  40
ATOM     40  C   UNL A   1      37.763  31.757  33.122  1.00  0.00     0.060 A 
ATOM     41  C   UNL A   1      37.514  30.960  34.247  1.00  0.00     0.016 A 
ATOM     42  C   UNL A   1      39.072  32.063  32.746  1.00  0.00     0.016 A 
ATOM     43  C   UNL A   1      38.576  30.496  35.022  1.00  0.00     0.010 A 
ATOM     44  C   UNL A   1      40.135  31.613  33.535  1.00  0.00     0.010 A 
ATOM     45  C   UNL A   1      39.890  30.857  34.696  1.00  0.00    -0.014 A 
BRANCH  45  46
ATOM     46  C   UNL A   1      40.988  30.608  35.660  1.00  0.00     0.031 A 
ATOM     47  C   UNL A   1      41.763  29.322  35.548  1.00  0.00     0.074 A 
ATOM     48  C   UNL A   1      41.309  31.506  36.608  1.00  0.00     0.049 A 
ATOM     49  N   UNL A   1      42.726  28.862  36.305  1.00  0.00    -0.248 NA
ATOM     50  C   UNL A   1      41.399  28.436  34.429  1.00  0.00     0.031 C 
ATOM     51  C   UNL A   1      40.675  32.809  36.793  1.00  0.00     0.029 A 
ATOM     52  N   UNL A   1      42.254  31.447  37.603  1.00  0.00    -0.354 N 
ATOM     53  C   UNL A   1      43.073  27.631  35.763  1.00  0.00     0.074 A 
ATOM     54  C   UNL A   1      42.199  27.401  34.634  1.00  0.00     0.031 C 
ATOM     55  C   UNL A   1      41.245  33.426  37.843  1.00  0.00     0.029 A 
ATOM     56  C   UNL A   1      42.254  32.545  38.428  1.00  0.00     0.049 A 
ATOM     57  H   UNL A   1      42.873  30.690  37.714  1.00  0.00     0.167 HD
ATOM     58  C   UNL A   1      44.038  26.770  36.163  1.00  0.00     0.031 A 
ATOM     59  C   UNL A   1      42.970  32.797  39.542  1.00  0.00     0.031 A 
ATOM     60  C   UNL A   1      44.896  26.988  37.297  1.00  0.00     0.049 A 
ATOM     61  C   UNL A   1      43.971  31.778  40.025  1.00  0.00     0.074 A 
ATOM     62  C   UNL A   1      45.912  26.180  37.777  1.00  0.00     0.029 A 
ATOM     63  N   UNL A   1      44.832  28.091  38.134  1.00  0.00    -0.354 N 
ATOM     64  N   UNL A   1      44.310  30.630  39.490  1.00  0.00    -0.248 NA
ATOM     65  C   UNL A   1      44.693  32.097  41.266  1.00  0.00     0.031 C 
ATOM     66  C   UNL A   1      46.415  26.761  38.945  1.00  0.00     0.029 A 
ATOM     67  C   UNL A   1      45.766  27.967  39.149  1.00  0.00     0.049 A 
ATOM     68  H   UNL A   1      44.214  28.850  38.024  1.00  0.00     0.167 HD
ATOM     69  C   UNL A   1      45.305  30.108  40.309  1.00  0.00     0.074 A 
ATOM     70  C   UNL A   1      45.526  31.071  41.366  1.00  0.00     0.031 C 
ATOM     71  C   UNL A   1      45.977  28.934  40.196  1.00  0.00     0.031 A 
BRANCH  58  72
ATOM     72  C   UNL A   1      44.187  25.487  35.392  1.00  0.00    -0.014 A 
ATOM     73  C   UNL A   1      45.079  25.379  34.313  1.00  0.00     0.009 A 
ATOM     74  C   UNL A   1      43.442  24.359  35.771  1.00  0.00     0.009 A 
ATOM     75  C   UNL A   1      45.196  24.178  33.609  1.00  0.00     0.001 A 
ATOM     76  C   UNL A   1      43.585  23.150  35.087  1.00  0.00     0.001 A 
ATOM     77  C   UNL A   1      44.453  23.065  34.000  1.00  0.00     0.000 A 
ENDBRANCH  58  72
BRANCH  59  78
ATOM     78  C   UNL A   1      42.754  34.058  40.303  1.00  0.00    -0.014 A 
ATOM     79  C   UNL A   1      41.771  34.135  41.303  1.00  0.00     0.009 A 
ATOM     80  C   UNL A   1      43.506  35.205  40.007  1.00  0.00     0.009 A 
ATOM     81  C   UNL A   1      41.527  35.340  41.966  1.00  0.00     0.001 A 
ATOM     82  C   UNL A   1      43.283  36.400  40.694  1.00  0.00     0.001 A 
ATOM     83  C   UNL A   1      42.286  36.469  41.665  1.00  0.00     0.000 A 
ENDBRANCH  59  78
BRANCH  71  84
ATOM     84  C   UNL A   1      47.045  28.645  41.215  1.00  0.00    -0.014 A 
ATOM     85  C   UNL A   1      46.751  28.003  42.427  1.00  0.00     0.009 A 
ATOM     86  C   UNL A   1      48.380  28.982  40.934  1.00  0.00     0.009 A 
ATOM     87  C   UNL A   1      47.764  27.739  43.352  1.00  0.00     0.001 A 
ATOM     88  C   UNL A   1      49.396  28.685  41.843  1.00  0.00     0.001 A 
ATOM     89  C   UNL A   1      49.086  28.074  43.056  1.00  0.00     0.000 A 
ENDBRANCH  71  84
ENDBRANCH  45  46
ENDBRANCH  38  40
ENDBRANCH  37  38
ENDBRANCH  36  37
ENDBRANCH  35  36
ENDBRANCH  34  35
ENDBRANCH  33  34
ENDBRANCH  32  33
ENDBRANCH  31  32
ENDBRANCH   1  31
TORSDOF 24
ENDMDL
