MODEL 1
REMARK VINA RESULT:     -13.3      0.000      0.000
REMARK SMILES Cc1ccccc1[C@@H]1[NH2+][C@H](C(=O)OCCOCCOCCOCCOC(=O)c2ccc(-c3c4nc(c(-c5ccccc5)c5ccc([nH]5)c(-c5ccccc5)c5nc(c(-c6ccccc6)c6ccc3[nH]6)C=C5)C=C4)cc2)CC2=c3ccccc3=N[C@@H]21
REMARK SMILES IDX 20 1 19 2 18 3 17 4 16 5 15 6 14 7 13 8 11 9 12 10 10 11
REMARK SMILES IDX 8 12 9 13 85 14 77 17 84 18 76 19 78 20 83 21 79 22 82 23
REMARK SMILES IDX 80 24 81 25 7 26 1 27 2 28 3 29 4 30 6 31 5 32 21 33 22 34
REMARK SMILES IDX 23 35 24 36 25 37 26 38 27 39 28 40 29 41 75 42 30 43 74 44
REMARK SMILES IDX 31 45 32 46 33 47 68 48 34 49 73 50 67 51 69 52 35 53 72 54
REMARK SMILES IDX 66 55 65 56 36 58 58 59 43 60 57 61 44 62 47 63 56 64 70 65
REMARK SMILES IDX 45 66 46 67 55 69 71 70 48 71 37 72 38 73 42 74 39 75 41 76
REMARK SMILES IDX 40 77 59 78 60 79 64 80 61 81 63 82 62 83 49 84 50 85 54 86
REMARK SMILES IDX 51 87 53 88 52 89
REMARK H PARENT 9 15 9 16 69 57 47 68
REMARK Flexibility Score: inf
ROOT
ATOM      1  C   UNL A   1      33.297  33.884  28.507  1.00  0.00     0.188 C 
ENDROOT
BRANCH   1   2
ATOM      2  O   UNL A   1      34.424  32.957  28.486  1.00  0.00    -0.377 OA
BRANCH   2   3
ATOM      3  C   UNL A   1      34.564  31.687  27.628  1.00  0.00     0.188 C 
BRANCH   3   4
ATOM      4  C   UNL A   1      33.361  30.380  26.933  1.00  0.00     0.188 C 
BRANCH   4   5
ATOM      5  O   UNL A   1      33.508  28.486  26.796  1.00  0.00    -0.376 OA
BRANCH   5   6
ATOM      6  C   UNL A   1      32.426  27.072  25.987  1.00  0.00     0.202 C 
BRANCH   6   7
ATOM      7  C   UNL A   1      30.812  26.735  26.883  1.00  0.00     0.261 C 
BRANCH   7   8
ATOM      8  O   UNL A   1      30.350  24.946  27.200  1.00  0.00    -0.459 OA
BRANCH   8   9
ATOM      9  C   UNL A   1      30.552  23.425  26.766  1.00  0.00     0.365 C 
ATOM     10  O   UNL A   1      30.136  22.579  27.575  1.00  0.00    -0.245 OA
BRANCH   9  11
ATOM     11  C   UNL A   1      31.276  22.724  25.148  1.00  0.00     0.298 C 
ATOM     12  C   UNL A   1      32.144  24.413  22.808  1.00  0.00     0.243 C 
ATOM     13  N   UNL A   1      31.604  23.691  24.042  1.00  0.00    -0.326 N 
ATOM     14  C   UNL A   1      33.287  22.999  22.637  1.00  0.00     0.196 C 
ATOM     15  H   UNL A   1      30.627  23.823  23.777  1.00  0.00     0.347 HD
ATOM     16  H   UNL A   1      32.547  23.740  24.427  1.00  0.00     0.347 HD
ATOM     17  C   UNL A   1      33.357  21.919  23.877  1.00  0.00    -0.024 C 
ATOM     18  N   UNL A   1      34.720  23.240  22.425  1.00  0.00    -0.270 NA
ATOM     19  C   UNL A   1      32.142  21.520  24.739  1.00  0.00     0.111 C 
ATOM     20  C   UNL A   1      34.618  21.683  24.237  1.00  0.00     0.002 A 
ATOM     21  C   UNL A   1      35.360  22.586  23.355  1.00  0.00     0.066 A 
ATOM     22  C   UNL A   1      35.210  21.082  25.401  1.00  0.00     0.010 A 
ATOM     23  C   UNL A   1      36.790  22.805  23.734  1.00  0.00     0.028 A 
ATOM     24  C   UNL A   1      36.455  21.448  25.751  1.00  0.00     0.001 A 
ATOM     25  C   UNL A   1      37.239  22.334  24.911  1.00  0.00     0.002 A 
BRANCH  12  26
ATOM     26  C   UNL A   1      31.415  26.250  22.384  1.00  0.00     0.015 A 
ATOM     27  C   UNL A   1      28.806  26.220  23.824  1.00  0.00     0.045 C 
ATOM     28  C   UNL A   1      29.891  27.137  23.150  1.00  0.00    -0.042 A 
ATOM     29  C   UNL A   1      29.927  29.168  23.504  1.00  0.00     0.004 A 
ATOM     30  C   UNL A   1      31.484  30.061  23.387  1.00  0.00     0.000 A 
ATOM     31  C   UNL A   1      32.821  27.456  22.242  1.00  0.00     0.010 A 
ATOM     32  C   UNL A   1      32.875  29.207  22.774  1.00  0.00     0.001 A 
ENDBRANCH  12  26
ENDBRANCH   9  11
ENDBRANCH   8   9
ENDBRANCH   7   8
ENDBRANCH   6   7
ENDBRANCH   5   6
ENDBRANCH   4   5
ENDBRANCH   3   4
ENDBRANCH   2   3
ENDBRANCH   1   2
BRANCH   1  33
ATOM     33  C   UNL A   1      33.277  35.261  29.107  1.00  0.00     0.188 C 
BRANCH  33  34
ATOM     34  O   UNL A   1      32.914  35.148  30.433  1.00  0.00    -0.376 OA
BRANCH  34  35
ATOM     35  C   UNL A   1      33.313  36.137  31.344  1.00  0.00     0.202 C 
BRANCH  35  36
ATOM     36  C   UNL A   1      33.608  35.159  32.404  1.00  0.00     0.261 C 
BRANCH  36  37
ATOM     37  O   UNL A   1      34.997  34.558  31.999  1.00  0.00    -0.460 OA
BRANCH  37  38
ATOM     38  C   UNL A   1      35.481  33.235  31.986  1.00  0.00     0.338 C 
ATOM     39  O   UNL A   1      35.099  32.492  32.901  1.00  0.00    -0.246 OA
BRANCH  38  40
ATOM     40  C   UNL A   1      36.457  32.481  30.924  1.00  0.00     0.060 A 
ATOM     41  C   UNL A   1      35.954  30.869  30.948  1.00  0.00     0.016 A 
ATOM     42  C   UNL A   1      38.031  32.915  30.207  1.00  0.00     0.016 A 
ATOM     43  C   UNL A   1      37.092  29.558  30.544  1.00  0.00     0.010 A 
ATOM     44  C   UNL A   1      39.329  31.698  29.765  1.00  0.00     0.010 A 
ATOM     45  C   UNL A   1      39.038  29.871  29.965  1.00  0.00    -0.014 A 
BRANCH  45  46
ATOM     46  C   UNL A   1      40.884  29.117  30.111  1.00  0.00     0.031 A 
ATOM     47  C   UNL A   1      40.750  27.730  29.349  1.00  0.00     0.074 A 
ATOM     48  C   UNL A   1      42.205  29.794  31.185  1.00  0.00     0.049 A 
ATOM     49  N   UNL A   1      41.648  26.835  29.498  1.00  0.00    -0.248 NA
ATOM     50  C   UNL A   1      39.639  27.087  28.643  1.00  0.00     0.031 C 
ATOM     51  C   UNL A   1      43.792  29.670  31.876  1.00  0.00     0.029 A 
ATOM     52  N   UNL A   1      42.051  30.906  32.351  1.00  0.00    -0.354 N 
ATOM     53  C   UNL A   1      41.533  25.810  28.679  1.00  0.00     0.074 A 
ATOM     54  C   UNL A   1      40.194  25.949  28.181  1.00  0.00     0.031 C 
ATOM     55  C   UNL A   1      44.029  30.409  32.984  1.00  0.00     0.029 A 
ATOM     56  C   UNL A   1      42.825  31.029  33.457  1.00  0.00     0.049 A 
ATOM     57  H   UNL A   1      41.321  31.558  32.246  1.00  0.00     0.167 HD
ATOM     58  C   UNL A   1      42.722  25.193  28.502  1.00  0.00     0.031 A 
ATOM     59  C   UNL A   1      42.264  31.012  34.708  1.00  0.00     0.031 A 
ATOM     60  C   UNL A   1      43.779  25.574  29.567  1.00  0.00     0.049 A 
ATOM     61  C   UNL A   1      42.659  29.441  34.994  1.00  0.00     0.074 A 
ATOM     62  C   UNL A   1      45.008  26.216  29.520  1.00  0.00     0.029 A 
ATOM     63  N   UNL A   1      43.447  25.625  30.959  1.00  0.00    -0.354 N 
ATOM     64  N   UNL A   1      42.767  28.519  34.033  1.00  0.00    -0.248 NA
ATOM     65  C   UNL A   1      43.405  28.954  36.149  1.00  0.00     0.031 C 
ATOM     66  C   UNL A   1      45.361  26.697  30.861  1.00  0.00     0.029 A 
ATOM     67  C   UNL A   1      44.339  26.403  31.788  1.00  0.00     0.049 A 
ATOM     68  H   UNL A   1      42.661  25.159  31.328  1.00  0.00     0.167 HD
ATOM     69  C   UNL A   1      43.726  27.507  34.256  1.00  0.00     0.074 A 
ATOM     70  C   UNL A   1      44.027  27.843  35.670  1.00  0.00     0.031 C 
ATOM     71  C   UNL A   1      44.201  26.464  33.371  1.00  0.00     0.031 A 
BRANCH  58  72
ATOM     72  C   UNL A   1      42.954  24.506  27.182  1.00  0.00    -0.014 A 
ATOM     73  C   UNL A   1      43.764  25.145  26.245  1.00  0.00     0.009 A 
ATOM     74  C   UNL A   1      42.368  23.281  26.770  1.00  0.00     0.009 A 
ATOM     75  C   UNL A   1      44.041  24.567  25.002  1.00  0.00     0.001 A 
ATOM     76  C   UNL A   1      42.660  22.684  25.537  1.00  0.00     0.001 A 
ATOM     77  C   UNL A   1      43.515  23.325  24.658  1.00  0.00     0.000 A 
ENDBRANCH  58  72
BRANCH  59  78
ATOM     78  C   UNL A   1      40.948  32.025  34.901  1.00  0.00    -0.014 A 
ATOM     79  C   UNL A   1      41.023  33.371  34.408  1.00  0.00     0.009 A 
ATOM     80  C   UNL A   1      39.605  31.771  35.235  1.00  0.00     0.009 A 
ATOM     81  C   UNL A   1      39.984  34.164  33.813  1.00  0.00     0.001 A 
ATOM     82  C   UNL A   1      38.497  32.618  34.745  1.00  0.00     0.001 A 
ATOM     83  C   UNL A   1      38.690  33.739  33.925  1.00  0.00     0.000 A 
ENDBRANCH  59  78
BRANCH  71  84
ATOM     84  C   UNL A   1      44.442  25.063  33.941  1.00  0.00    -0.014 A 
ATOM     85  C   UNL A   1      43.426  24.193  34.309  1.00  0.00     0.009 A 
ATOM     86  C   UNL A   1      45.750  24.503  33.939  1.00  0.00     0.009 A 
ATOM     87  C   UNL A   1      43.692  22.890  34.728  1.00  0.00     0.001 A 
ATOM     88  C   UNL A   1      46.016  23.174  34.250  1.00  0.00     0.001 A 
ATOM     89  C   UNL A   1      44.982  22.375  34.686  1.00  0.00     0.000 A 
ENDBRANCH  71  84
ENDBRANCH  45  46
ENDBRANCH  38  40
ENDBRANCH  37  38
ENDBRANCH  36  37
ENDBRANCH  35  36
ENDBRANCH  34  35
ENDBRANCH  33  34
ENDBRANCH   1  33
TORSDOF 21
ENDMDL
MODEL 2
REMARK VINA RESULT:     -12.6      4.314      8.865
REMARK SMILES Cc1ccccc1[C@@H]1[NH2+][C@H](C(=O)OCCOCCOCCOCCOC(=O)c2ccc(-c3c4nc(c(-c5ccccc5)c5ccc([nH]5)c(-c5ccccc5)c5nc(c(-c6ccccc6)c6ccc3[nH]6)C=C5)C=C4)cc2)CC2=c3ccccc3=N[C@@H]21
REMARK SMILES IDX 20 1 19 2 18 3 17 4 16 5 15 6 14 7 13 8 11 9 12 10 10 11
REMARK SMILES IDX 8 12 9 13 85 14 77 17 84 18 76 19 78 20 83 21 79 22 82 23
REMARK SMILES IDX 80 24 81 25 7 26 1 27 2 28 3 29 4 30 6 31 5 32 21 33 22 34
REMARK SMILES IDX 23 35 24 36 25 37 26 38 27 39 28 40 29 41 75 42 30 43 74 44
REMARK SMILES IDX 31 45 32 46 33 47 68 48 34 49 73 50 67 51 69 52 35 53 72 54
REMARK SMILES IDX 66 55 65 56 36 58 58 59 43 60 57 61 44 62 47 63 56 64 70 65
REMARK SMILES IDX 45 66 46 67 55 69 71 70 48 71 37 72 38 73 42 74 39 75 41 76
REMARK SMILES IDX 40 77 59 78 60 79 64 80 61 81 63 82 62 83 49 84 50 85 54 86
REMARK SMILES IDX 51 87 53 88 52 89
REMARK H PARENT 9 15 9 16 69 57 47 68
REMARK Flexibility Score: inf
ROOT
ATOM      1  C   UNL A   1      32.818  29.339  25.200  1.00  0.00     0.188 C 
ENDROOT
BRANCH   1   2
ATOM      2  O   UNL A   1      32.321  27.970  25.097  1.00  0.00    -0.377 OA
BRANCH   2   3
ATOM      3  C   UNL A   1      32.044  27.179  23.806  1.00  0.00     0.188 C 
BRANCH   3   4
ATOM      4  C   UNL A   1      33.106  26.525  22.363  1.00  0.00     0.188 C 
BRANCH   4   5
ATOM      5  O   UNL A   1      33.904  24.821  22.063  1.00  0.00    -0.376 OA
BRANCH   5   6
ATOM      6  C   UNL A   1      34.630  23.416  23.212  1.00  0.00     0.202 C 
BRANCH   6   7
ATOM      7  C   UNL A   1      35.371  24.045  24.817  1.00  0.00     0.261 C 
BRANCH   7   8
ATOM      8  O   UNL A   1      37.211  23.801  25.081  1.00  0.00    -0.459 OA
BRANCH   8   9
ATOM      9  C   UNL A   1      38.347  22.954  25.811  1.00  0.00     0.365 C 
ATOM     10  O   UNL A   1      38.423  21.760  25.475  1.00  0.00    -0.245 OA
BRANCH   9  11
ATOM     11  C   UNL A   1      39.654  23.534  27.072  1.00  0.00     0.298 C 
ATOM     12  C   UNL A   1      42.630  23.338  26.641  1.00  0.00     0.243 C 
ATOM     13  N   UNL A   1      41.105  23.311  26.741  1.00  0.00    -0.326 N 
ATOM     14  C   UNL A   1      42.547  24.818  27.707  1.00  0.00     0.196 C 
ATOM     15  H   UNL A   1      41.068  22.311  26.946  1.00  0.00     0.347 HD
ATOM     16  H   UNL A   1      41.107  24.244  26.330  1.00  0.00     0.347 HD
ATOM     17  C   UNL A   1      41.064  25.473  27.991  1.00  0.00    -0.024 C 
ATOM     18  N   UNL A   1      43.294  26.028  27.337  1.00  0.00    -0.270 NA
ATOM     19  C   UNL A   1      39.771  24.644  28.131  1.00  0.00     0.111 C 
ATOM     20  C   UNL A   1      41.070  26.787  27.774  1.00  0.00     0.002 A 
ATOM     21  C   UNL A   1      42.440  27.013  27.307  1.00  0.00     0.066 A 
ATOM     22  C   UNL A   1      40.024  27.756  27.592  1.00  0.00     0.010 A 
ATOM     23  C   UNL A   1      42.677  28.340  26.663  1.00  0.00     0.028 A 
ATOM     24  C   UNL A   1      40.288  28.861  26.872  1.00  0.00     0.001 A 
ATOM     25  C   UNL A   1      41.629  29.138  26.391  1.00  0.00     0.002 A 
BRANCH  12  26
ATOM     26  C   UNL A   1      43.530  21.988  25.435  1.00  0.00     0.015 A 
ATOM     27  C   UNL A   1      46.210  23.223  25.026  1.00  0.00     0.045 C 
ATOM     28  C   UNL A   1      45.378  21.894  24.916  1.00  0.00    -0.042 A 
ATOM     29  C   UNL A   1      46.319  20.070  24.712  1.00  0.00     0.004 A 
ATOM     30  C   UNL A   1      45.509  18.582  25.314  1.00  0.00     0.000 A 
ATOM     31  C   UNL A   1      42.920  20.283  25.853  1.00  0.00     0.010 A 
ATOM     32  C   UNL A   1      43.859  18.712  25.865  1.00  0.00     0.001 A 
ENDBRANCH  12  26
ENDBRANCH   9  11
ENDBRANCH   8   9
ENDBRANCH   7   8
ENDBRANCH   6   7
ENDBRANCH   5   6
ENDBRANCH   4   5
ENDBRANCH   3   4
ENDBRANCH   2   3
ENDBRANCH   1   2
BRANCH   1  33
ATOM     33  C   UNL A   1      32.221  30.452  26.013  1.00  0.00     0.188 C 
BRANCH  33  34
ATOM     34  O   UNL A   1      32.729  30.373  27.292  1.00  0.00    -0.376 OA
BRANCH  34  35
ATOM     35  C   UNL A   1      34.115  30.444  27.491  1.00  0.00     0.202 C 
BRANCH  35  36
ATOM     36  C   UNL A   1      34.033  31.742  28.181  1.00  0.00     0.261 C 
BRANCH  36  37
ATOM     37  O   UNL A   1      34.875  31.540  29.486  1.00  0.00    -0.460 OA
BRANCH  37  38
ATOM     38  C   UNL A   1      35.254  32.434  30.507  1.00  0.00     0.338 C 
ATOM     39  O   UNL A   1      34.501  32.511  31.489  1.00  0.00    -0.246 OA
BRANCH  38  40
ATOM     40  C   UNL A   1      36.566  33.387  30.640  1.00  0.00     0.060 A 
ATOM     41  C   UNL A   1      36.934  33.833  29.053  1.00  0.00     0.016 A 
ATOM     42  C   UNL A   1      37.771  33.616  31.934  1.00  0.00     0.016 A 
ATOM     43  C   UNL A   1      38.606  34.248  28.592  1.00  0.00     0.010 A 
ATOM     44  C   UNL A   1      39.537  34.010  31.637  1.00  0.00     0.010 A 
ATOM     45  C   UNL A   1      40.179  34.289  29.913  1.00  0.00    -0.014 A 
BRANCH  45  46
ATOM     46  C   UNL A   1      42.134  33.900  30.074  1.00  0.00     0.031 A 
ATOM     47  C   UNL A   1      42.746  34.699  28.845  1.00  0.00     0.074 A 
ATOM     48  C   UNL A   1      42.857  32.640  31.189  1.00  0.00     0.049 A 
ATOM     49  N   UNL A   1      43.931  34.442  28.449  1.00  0.00    -0.248 NA
ATOM     50  C   UNL A   1      42.148  35.566  27.826  1.00  0.00     0.031 C 
ATOM     51  C   UNL A   1      44.230  31.736  31.747  1.00  0.00     0.029 A 
ATOM     52  N   UNL A   1      42.074  31.485  32.010  1.00  0.00    -0.354 N 
ATOM     53  C   UNL A   1      44.400  35.289  27.554  1.00  0.00     0.074 A 
ATOM     54  C   UNL A   1      43.215  35.966  27.108  1.00  0.00     0.031 C 
ATOM     55  C   UNL A   1      43.968  30.592  32.419  1.00  0.00     0.029 A 
ATOM     56  C   UNL A   1      42.569  30.280  32.382  1.00  0.00     0.049 A 
ATOM     57  H   UNL A   1      41.142  31.680  32.264  1.00  0.00     0.167 HD
ATOM     58  C   UNL A   1      45.751  35.309  27.564  1.00  0.00     0.031 A 
ATOM     59  C   UNL A   1      41.939  29.120  32.009  1.00  0.00     0.031 A 
ATOM     60  C   UNL A   1      46.380  34.100  28.297  1.00  0.00     0.049 A 
ATOM     61  C   UNL A   1      42.980  28.812  30.774  1.00  0.00     0.074 A 
ATOM     62  C   UNL A   1      47.169  33.962  29.430  1.00  0.00     0.029 A 
ATOM     63  N   UNL A   1      45.904  32.767  28.078  1.00  0.00    -0.354 N 
ATOM     64  N   UNL A   1      43.612  29.765  30.084  1.00  0.00    -0.248 NA
ATOM     65  C   UNL A   1      43.727  27.573  30.588  1.00  0.00     0.031 C 
ATOM     66  C   UNL A   1      47.102  32.576  29.909  1.00  0.00     0.029 A 
ATOM     67  C   UNL A   1      46.232  31.806  29.107  1.00  0.00     0.049 A 
ATOM     68  H   UNL A   1      45.386  32.520  27.277  1.00  0.00     0.167 HD
ATOM     69  C   UNL A   1      44.897  29.428  29.605  1.00  0.00     0.074 A 
ATOM     70  C   UNL A   1      44.843  27.981  29.926  1.00  0.00     0.031 C 
ATOM     71  C   UNL A   1      45.900  30.258  28.970  1.00  0.00     0.031 A 
BRANCH  58  72
ATOM     72  C   UNL A   1      46.424  36.596  27.168  1.00  0.00    -0.014 A 
ATOM     73  C   UNL A   1      47.368  36.552  26.143  1.00  0.00     0.009 A 
ATOM     74  C   UNL A   1      46.234  37.858  27.789  1.00  0.00     0.009 A 
ATOM     75  C   UNL A   1      48.028  37.705  25.706  1.00  0.00     0.001 A 
ATOM     76  C   UNL A   1      46.872  39.021  27.340  1.00  0.00     0.001 A 
ATOM     77  C   UNL A   1      47.760  38.944  26.282  1.00  0.00     0.000 A 
ENDBRANCH  58  72
BRANCH  59  78
ATOM     78  C   UNL A   1      40.291  29.095  32.292  1.00  0.00    -0.014 A 
ATOM     79  C   UNL A   1      39.479  30.167  31.793  1.00  0.00     0.009 A 
ATOM     80  C   UNL A   1      39.424  28.071  32.719  1.00  0.00     0.009 A 
ATOM     81  C   UNL A   1      38.143  30.108  31.271  1.00  0.00     0.001 A 
ATOM     82  C   UNL A   1      38.006  28.016  32.306  1.00  0.00     0.001 A 
ATOM     83  C   UNL A   1      37.409  28.973  31.473  1.00  0.00     0.000 A 
ENDBRANCH  59  78
BRANCH  71  84
ATOM     84  C   UNL A   1      46.694  29.686  27.791  1.00  0.00    -0.014 A 
ATOM     85  C   UNL A   1      48.029  29.316  27.867  1.00  0.00     0.009 A 
ATOM     86  C   UNL A   1      46.029  29.322  26.587  1.00  0.00     0.009 A 
ATOM     87  C   UNL A   1      48.682  28.706  26.795  1.00  0.00     0.001 A 
ATOM     88  C   UNL A   1      46.641  28.618  25.557  1.00  0.00     0.001 A 
ATOM     89  C   UNL A   1      47.988  28.344  25.648  1.00  0.00     0.000 A 
ENDBRANCH  71  84
ENDBRANCH  45  46
ENDBRANCH  38  40
ENDBRANCH  37  38
ENDBRANCH  36  37
ENDBRANCH  35  36
ENDBRANCH  34  35
ENDBRANCH  33  34
ENDBRANCH   1  33
TORSDOF 21
ENDMDL
MODEL 3
REMARK VINA RESULT:     -11.9      4.554     11.483
REMARK SMILES Cc1ccccc1[C@@H]1[NH2+][C@H](C(=O)OCCOCCOCCOCCOC(=O)c2ccc(-c3c4nc(c(-c5ccccc5)c5ccc([nH]5)c(-c5ccccc5)c5nc(c(-c6ccccc6)c6ccc3[nH]6)C=C5)C=C4)cc2)CC2=c3ccccc3=N[C@@H]21
REMARK SMILES IDX 20 1 19 2 18 3 17 4 16 5 15 6 14 7 13 8 11 9 12 10 10 11
REMARK SMILES IDX 8 12 9 13 85 14 77 17 84 18 76 19 78 20 83 21 79 22 82 23
REMARK SMILES IDX 80 24 81 25 7 26 1 27 2 28 3 29 4 30 6 31 5 32 21 33 22 34
REMARK SMILES IDX 23 35 24 36 25 37 26 38 27 39 28 40 29 41 75 42 30 43 74 44
REMARK SMILES IDX 31 45 32 46 33 47 68 48 34 49 73 50 67 51 69 52 35 53 72 54
REMARK SMILES IDX 66 55 65 56 36 58 58 59 43 60 57 61 44 62 47 63 56 64 70 65
REMARK SMILES IDX 45 66 46 67 55 69 71 70 48 71 37 72 38 73 42 74 39 75 41 76
REMARK SMILES IDX 40 77 59 78 60 79 64 80 61 81 63 82 62 83 49 84 50 85 54 86
REMARK SMILES IDX 51 87 53 88 52 89
REMARK H PARENT 9 15 9 16 69 57 47 68
REMARK Flexibility Score: inf
ROOT
ATOM      1  C   UNL A   1      33.058  27.474  25.718  1.00  0.00     0.188 C 
ENDROOT
BRANCH   1   2
ATOM      2  O   UNL A   1      34.230  26.738  25.254  1.00  0.00    -0.377 OA
BRANCH   2   3
ATOM      3  C   UNL A   1      34.412  25.210  25.221  1.00  0.00     0.188 C 
BRANCH   3   4
ATOM      4  C   UNL A   1      35.744  23.989  25.834  1.00  0.00     0.188 C 
BRANCH   4   5
ATOM      5  O   UNL A   1      37.632  23.964  25.586  1.00  0.00    -0.376 OA
BRANCH   5   6
ATOM      6  C   UNL A   1      39.176  24.438  26.688  1.00  0.00     0.202 C 
BRANCH   6   7
ATOM      7  C   UNL A   1      40.177  22.966  27.281  1.00  0.00     0.261 C 
BRANCH   7   8
ATOM      8  O   UNL A   1      41.774  23.312  28.199  1.00  0.00    -0.459 OA
BRANCH   8   9
ATOM      9  C   UNL A   1      43.229  23.962  28.136  1.00  0.00     0.365 C 
ATOM     10  O   UNL A   1      43.835  23.811  27.062  1.00  0.00    -0.245 OA
BRANCH   9  11
ATOM     11  C   UNL A   1      44.137  25.004  29.450  1.00  0.00     0.298 C 
ATOM     12  C   UNL A   1      42.983  27.459  30.761  1.00  0.00     0.243 C 
ATOM     13  N   UNL A   1      43.455  26.242  29.966  1.00  0.00    -0.326 N 
ATOM     14  C   UNL A   1      44.057  26.841  32.103  1.00  0.00     0.196 C 
ATOM     15  H   UNL A   1      43.649  26.782  29.122  1.00  0.00     0.347 HD
ATOM     16  H   UNL A   1      43.069  25.662  30.711  1.00  0.00     0.347 HD
ATOM     17  C   UNL A   1      44.707  25.339  31.930  1.00  0.00    -0.024 C 
ATOM     18  N   UNL A   1      43.531  26.738  33.470  1.00  0.00    -0.270 NA
ATOM     19  C   UNL A   1      45.149  24.744  30.579  1.00  0.00     0.111 C 
ATOM     20  C   UNL A   1      44.512  24.604  33.024  1.00  0.00     0.002 A 
ATOM     21  C   UNL A   1      43.726  25.510  33.864  1.00  0.00     0.066 A 
ATOM     22  C   UNL A   1      44.607  23.195  33.289  1.00  0.00     0.010 A 
ATOM     23  C   UNL A   1      43.062  24.865  35.038  1.00  0.00     0.028 A 
ATOM     24  C   UNL A   1      43.860  22.673  34.278  1.00  0.00     0.001 A 
ATOM     25  C   UNL A   1      43.067  23.525  35.145  1.00  0.00     0.002 A 
BRANCH  12  26
ATOM     26  C   UNL A   1      41.574  28.649  29.933  1.00  0.00     0.015 A 
ATOM     27  C   UNL A   1      42.579  28.937  27.143  1.00  0.00     0.045 C 
ATOM     28  C   UNL A   1      41.327  29.098  28.081  1.00  0.00    -0.042 A 
ATOM     29  C   UNL A   1      39.431  29.291  27.291  1.00  0.00     0.004 A 
ATOM     30  C   UNL A   1      38.012  28.741  28.248  1.00  0.00     0.000 A 
ATOM     31  C   UNL A   1      39.923  28.278  30.702  1.00  0.00     0.010 A 
ATOM     32  C   UNL A   1      38.277  28.252  29.901  1.00  0.00     0.001 A 
ENDBRANCH  12  26
ENDBRANCH   9  11
ENDBRANCH   8   9
ENDBRANCH   7   8
ENDBRANCH   6   7
ENDBRANCH   5   6
ENDBRANCH   4   5
ENDBRANCH   3   4
ENDBRANCH   2   3
ENDBRANCH   1   2
BRANCH   1  33
ATOM     33  C   UNL A   1      32.939  28.261  26.992  1.00  0.00     0.188 C 
BRANCH  33  34
ATOM     34  O   UNL A   1      33.243  29.577  26.717  1.00  0.00    -0.376 OA
BRANCH  34  35
ATOM     35  C   UNL A   1      34.137  30.268  27.549  1.00  0.00     0.202 C 
BRANCH  35  36
ATOM     36  C   UNL A   1      33.360  31.516  27.486  1.00  0.00     0.261 C 
BRANCH  36  37
ATOM     37  O   UNL A   1      34.406  32.638  27.802  1.00  0.00    -0.460 OA
BRANCH  37  38
ATOM     38  C   UNL A   1      35.168  32.915  28.954  1.00  0.00     0.338 C 
ATOM     39  O   UNL A   1      34.547  33.305  29.954  1.00  0.00    -0.246 OA
BRANCH  38  40
ATOM     40  C   UNL A   1      36.768  32.776  29.218  1.00  0.00     0.060 A 
ATOM     41  C   UNL A   1      36.910  31.525  30.343  1.00  0.00     0.016 A 
ATOM     42  C   UNL A   1      38.144  33.870  28.919  1.00  0.00     0.016 A 
ATOM     43  C   UNL A   1      38.302  31.460  31.456  1.00  0.00     0.010 A 
ATOM     44  C   UNL A   1      39.636  33.959  29.982  1.00  0.00     0.010 A 
ATOM     45  C   UNL A   1      39.848  32.814  31.433  1.00  0.00    -0.014 A 
BRANCH  45  46
ATOM     46  C   UNL A   1      41.123  33.794  32.621  1.00  0.00     0.031 A 
ATOM     47  C   UNL A   1      40.166  34.373  33.748  1.00  0.00     0.074 A 
ATOM     48  C   UNL A   1      42.870  34.152  32.204  1.00  0.00     0.049 A 
ATOM     49  N   UNL A   1      40.581  35.305  34.515  1.00  0.00    -0.248 NA
ATOM     50  C   UNL A   1      38.726  34.250  33.990  1.00  0.00     0.031 C 
ATOM     51  C   UNL A   1      44.374  34.937  32.573  1.00  0.00     0.029 A 
ATOM     52  N   UNL A   1      43.593  33.986  30.765  1.00  0.00    -0.354 N 
ATOM     53  C   UNL A   1      39.780  35.573  35.526  1.00  0.00     0.074 A 
ATOM     54  C   UNL A   1      38.554  34.936  35.137  1.00  0.00     0.031 C 
ATOM     55  C   UNL A   1      45.244  35.088  31.549  1.00  0.00     0.029 A 
ATOM     56  C   UNL A   1      44.649  34.699  30.304  1.00  0.00     0.049 A 
ATOM     57  H   UNL A   1      43.227  33.296  30.165  1.00  0.00     0.167 HD
ATOM     58  C   UNL A   1      40.459  36.139  36.549  1.00  0.00     0.031 A 
ATOM     59  C   UNL A   1      44.564  35.388  29.121  1.00  0.00     0.031 A 
ATOM     60  C   UNL A   1      41.852  36.676  36.141  1.00  0.00     0.049 A 
ATOM     61  C   UNL A   1      44.304  36.840  29.847  1.00  0.00     0.074 A 
ATOM     62  C   UNL A   1      43.153  36.358  36.504  1.00  0.00     0.029 A 
ATOM     63  N   UNL A   1      42.035  37.436  34.941  1.00  0.00    -0.354 N 
ATOM     64  N   UNL A   1      43.691  36.979  31.025  1.00  0.00    -0.248 NA
ATOM     65  C   UNL A   1      45.086  38.050  29.619  1.00  0.00     0.031 C 
ATOM     66  C   UNL A   1      44.083  36.869  35.491  1.00  0.00     0.029 A 
ATOM     67  C   UNL A   1      43.387  37.495  34.435  1.00  0.00     0.049 A 
ATOM     68  H   UNL A   1      41.286  37.891  34.490  1.00  0.00     0.167 HD
ATOM     69  C   UNL A   1      44.130  38.057  31.824  1.00  0.00     0.074 A 
ATOM     70  C   UNL A   1      44.977  38.716  30.800  1.00  0.00     0.031 C 
ATOM     71  C   UNL A   1      43.798  38.397  33.192  1.00  0.00     0.031 A 
BRANCH  58  72
ATOM     72  C   UNL A   1      39.938  35.896  37.940  1.00  0.00    -0.014 A 
ATOM     73  C   UNL A   1      39.500  36.996  38.676  1.00  0.00     0.009 A 
ATOM     74  C   UNL A   1      39.908  34.645  38.609  1.00  0.00     0.009 A 
ATOM     75  C   UNL A   1      38.989  36.854  39.970  1.00  0.00     0.001 A 
ATOM     76  C   UNL A   1      39.374  34.492  39.895  1.00  0.00     0.001 A 
ATOM     77  C   UNL A   1      38.898  35.601  40.570  1.00  0.00     0.000 A 
ENDBRANCH  58  72
BRANCH  59  78
ATOM     78  C   UNL A   1      43.955  34.505  27.838  1.00  0.00    -0.014 A 
ATOM     79  C   UNL A   1      43.193  35.177  26.825  1.00  0.00     0.009 A 
ATOM     80  C   UNL A   1      44.248  33.214  27.359  1.00  0.00     0.009 A 
ATOM     81  C   UNL A   1      43.163  34.922  25.412  1.00  0.00     0.001 A 
ATOM     82  C   UNL A   1      44.129  32.856  25.930  1.00  0.00     0.001 A 
ATOM     83  C   UNL A   1      43.709  33.760  24.943  1.00  0.00     0.000 A 
ENDBRANCH  59  78
BRANCH  71  84
ATOM     84  C   UNL A   1      43.572  39.868  33.555  1.00  0.00    -0.014 A 
ATOM     85  C   UNL A   1      44.055  40.460  34.714  1.00  0.00     0.009 A 
ATOM     86  C   UNL A   1      43.007  40.763  32.605  1.00  0.00     0.009 A 
ATOM     87  C   UNL A   1      43.910  41.827  34.953  1.00  0.00     0.001 A 
ATOM     88  C   UNL A   1      42.955  42.140  32.785  1.00  0.00     0.001 A 
ATOM     89  C   UNL A   1      43.375  42.669  33.986  1.00  0.00     0.000 A 
ENDBRANCH  71  84
ENDBRANCH  45  46
ENDBRANCH  38  40
ENDBRANCH  37  38
ENDBRANCH  36  37
ENDBRANCH  35  36
ENDBRANCH  34  35
ENDBRANCH  33  34
ENDBRANCH   1  33
TORSDOF 21
ENDMDL
