MODEL 1
REMARK VINA RESULT:      -6.1      0.000      0.000
REMARK SMILES CC1CC[NH+]([C@H](c2ccc(F)cc2)c2ccc([C@@H](C)C(=O)OCCOCCOCCOCCOC(=O)c3ccc(-c4c5nc(c(-c6ccccc6)c6ccc([nH]6)c(-c6ccccc6)c6nc(c(-c7ccccc7)c7ccc4[nH]7)C=C6)C=C5)cc3)cc2-c2ccc(C(F)(F)F)cc2)CC1
REMARK SMILES IDX 27 1 26 2 25 3 24 4 23 5 22 6 20 7 21 8 18 9 19 10 17 11
REMARK SMILES IDX 14 12 15 13 86 14 16 15 85 16 6 17 5 18 1 19 2 20 3 21 98 22
REMARK SMILES IDX 4 23 97 24 7 26 8 27 13 28 9 29 12 30 10 31 11 32 87 33
REMARK SMILES IDX 88 34 96 35 89 36 95 37 90 38 91 39 92 40 93 41 94 42 28 43
REMARK SMILES IDX 29 44 30 45 31 46 32 47 33 48 34 49 35 50 36 51 37 52 38 53
REMARK SMILES IDX 84 54 39 55 83 56 40 57 41 58 42 59 77 60 43 61 82 62 76 63
REMARK SMILES IDX 78 64 44 65 81 66 75 67 74 68 45 70 67 71 52 72 66 73 53 74
REMARK SMILES IDX 56 75 65 76 79 77 54 78 55 79 64 81 80 82 57 83 46 84 47 85
REMARK SMILES IDX 51 86 48 87 50 88 49 89 68 90 69 91 73 92 70 93 72 94 71 95
REMARK SMILES IDX 58 96 59 97 63 98 60 99 62 100 61 101
REMARK H PARENT 5 25 78 69 56 80
REMARK Flexibility Score: inf
ROOT
ATOM      1  C   UNL A   1      40.576  28.376  28.209  1.00  0.00     0.188 C 
ENDROOT
BRANCH   1   2
ATOM      2  C   UNL A   1      41.952  27.790  27.855  1.00  0.00     0.188 C 
BRANCH   2   3
ATOM      3  O   UNL A   1      43.018  28.622  27.414  1.00  0.00    -0.376 OA
BRANCH   3   4
ATOM      4  C   UNL A   1      44.354  28.144  27.403  1.00  0.00     0.202 C 
BRANCH   4   5
ATOM      5  C   UNL A   1      45.160  28.091  26.093  1.00  0.00     0.261 C 
BRANCH   5   6
ATOM      6  O   UNL A   1      46.122  27.026  25.964  1.00  0.00    -0.463 OA
BRANCH   6   7
ATOM      7  C   UNL A   1      45.621  25.769  25.903  1.00  0.00     0.313 C 
ATOM      8  O   UNL A   1      44.795  25.411  25.065  1.00  0.00    -0.252 OA
BRANCH   7   9
ATOM      9  C   UNL A   1      46.105  24.808  26.993  1.00  0.00     0.126 C 
ATOM     10  C   UNL A   1      45.935  23.388  26.460  1.00  0.00     0.025 C 
BRANCH   9  11
ATOM     11  C   UNL A   1      45.588  24.931  28.427  1.00  0.00    -0.033 A 
ATOM     12  C   UNL A   1      44.665  25.234  31.166  1.00  0.00     0.022 A 
ATOM     13  C   UNL A   1      43.877  24.670  30.133  1.00  0.00     0.011 A 
ATOM     14  C   UNL A   1      45.963  25.676  30.786  1.00  0.00    -0.009 A 
ATOM     15  C   UNL A   1      44.326  24.496  28.813  1.00  0.00     0.005 A 
ATOM     16  C   UNL A   1      46.391  25.512  29.433  1.00  0.00     0.013 A 
BRANCH  12  17
ATOM     17  C   UNL A   1      44.173  25.239  32.657  1.00  0.00     0.247 C 
BRANCH  17  18
ATOM     18  N   UNL A   1      43.749  26.555  33.256  1.00  0.00    -0.325 N 
ATOM     19  C   UNL A   1      40.861  29.532  34.737  1.00  0.00     0.008 C 
ATOM     20  C   UNL A   1      41.577  28.302  34.189  1.00  0.00    -0.003 C 
ATOM     21  C   UNL A   1      42.543  27.684  35.194  1.00  0.00     0.065 C 
ATOM     22  C   UNL A   1      42.394  28.679  32.967  1.00  0.00     0.065 C 
ATOM     23  C   UNL A   1      43.219  26.431  34.618  1.00  0.00     0.263 C 
ATOM     24  C   UNL A   1      43.072  27.469  32.339  1.00  0.00     0.263 C 
ATOM     25  H   UNL A   1      44.610  27.079  33.409  1.00  0.00     0.348 HD
ENDBRANCH  17  18
BRANCH  17  26
ATOM     26  C   UNL A   1      45.033  24.438  33.665  1.00  0.00     0.014 A 
ATOM     27  C   UNL A   1      45.751  25.066  34.692  1.00  0.00     0.013 A 
ATOM     28  C   UNL A   1      45.060  23.029  33.625  1.00  0.00     0.013 A 
ATOM     29  C   UNL A   1      46.427  24.320  35.664  1.00  0.00     0.040 A 
ATOM     30  C   UNL A   1      45.807  22.286  34.548  1.00  0.00     0.040 A 
ATOM     31  C   UNL A   1      46.476  22.941  35.568  1.00  0.00     0.123 A 
ATOM     32  F   UNL A   1      47.168  22.240  36.476  1.00  0.00    -0.207 F 
ENDBRANCH  17  26
ENDBRANCH  12  17
BRANCH  14  33
ATOM     33  C   UNL A   1      46.911  26.322  31.717  1.00  0.00    -0.018 A 
ATOM     34  C   UNL A   1      46.676  27.629  32.176  1.00  0.00     0.009 A 
ATOM     35  C   UNL A   1      48.066  25.664  32.166  1.00  0.00     0.009 A 
ATOM     36  C   UNL A   1      47.538  28.239  33.095  1.00  0.00     0.014 A 
ATOM     37  C   UNL A   1      48.923  26.266  33.097  1.00  0.00     0.014 A 
ATOM     38  C   UNL A   1      48.658  27.553  33.585  1.00  0.00     0.056 A 
BRANCH  38  39
ATOM     39  C   UNL A   1      49.554  28.201  34.613  1.00  0.00     0.416 C 
ATOM     40  F   UNL A   1      49.610  29.555  34.477  1.00  0.00    -0.166 F 
ATOM     41  F   UNL A   1      49.140  27.971  35.891  1.00  0.00    -0.166 F 
ATOM     42  F   UNL A   1      50.844  27.766  34.561  1.00  0.00    -0.166 F 
ENDBRANCH  38  39
ENDBRANCH  14  33
ENDBRANCH   9  11
ENDBRANCH   7   9
ENDBRANCH   6   7
ENDBRANCH   5   6
ENDBRANCH   4   5
ENDBRANCH   3   4
ENDBRANCH   2   3
ENDBRANCH   1   2
BRANCH   1  43
ATOM     43  O   UNL A   1      39.839  28.890  27.116  1.00  0.00    -0.377 OA
BRANCH  43  44
ATOM     44  C   UNL A   1      38.708  29.677  27.452  1.00  0.00     0.188 C 
BRANCH  44  45
ATOM     45  C   UNL A   1      37.653  29.026  28.371  1.00  0.00     0.188 C 
BRANCH  45  46
ATOM     46  O   UNL A   1      37.043  29.930  29.284  1.00  0.00    -0.376 OA
BRANCH  46  47
ATOM     47  C   UNL A   1      36.507  29.400  30.486  1.00  0.00     0.202 C 
BRANCH  47  48
ATOM     48  C   UNL A   1      36.428  30.344  31.686  1.00  0.00     0.261 C 
BRANCH  48  49
ATOM     49  O   UNL A   1      37.614  30.453  32.495  1.00  0.00    -0.460 OA
BRANCH  49  50
ATOM     50  C   UNL A   1      38.071  31.672  32.831  1.00  0.00     0.338 C 
ATOM     51  O   UNL A   1      37.558  32.454  33.619  1.00  0.00    -0.246 OA
BRANCH  50  52
ATOM     52  C   UNL A   1      39.402  31.850  32.206  1.00  0.00     0.060 A 
ATOM     53  C   UNL A   1      40.398  32.553  32.897  1.00  0.00     0.016 A 
ATOM     54  C   UNL A   1      39.669  31.341  30.934  1.00  0.00     0.016 A 
ATOM     55  C   UNL A   1      41.654  32.767  32.316  1.00  0.00     0.010 A 
ATOM     56  C   UNL A   1      40.918  31.586  30.344  1.00  0.00     0.010 A 
ATOM     57  C   UNL A   1      41.915  32.317  31.018  1.00  0.00    -0.014 A 
BRANCH  57  58
ATOM     58  C   UNL A   1      43.124  32.788  30.284  1.00  0.00     0.031 A 
ATOM     59  C   UNL A   1      43.103  34.175  29.693  1.00  0.00     0.074 A 
ATOM     60  C   UNL A   1      44.231  32.032  30.150  1.00  0.00     0.049 A 
ATOM     61  N   UNL A   1      44.017  34.799  28.992  1.00  0.00    -0.248 NA
ATOM     62  C   UNL A   1      41.876  34.958  29.912  1.00  0.00     0.031 C 
ATOM     63  C   UNL A   1      44.414  30.685  30.687  1.00  0.00     0.029 A 
ATOM     64  N   UNL A   1      45.420  32.302  29.511  1.00  0.00    -0.354 N 
ATOM     65  C   UNL A   1      43.465  36.034  28.673  1.00  0.00     0.074 A 
ATOM     66  C   UNL A   1      42.124  36.051  29.212  1.00  0.00     0.031 C 
ATOM     67  C   UNL A   1      45.645  30.248  30.360  1.00  0.00     0.029 A 
ATOM     68  C   UNL A   1      46.327  31.270  29.565  1.00  0.00     0.049 A 
ATOM     69  H   UNL A   1      45.605  33.156  29.058  1.00  0.00     0.167 HD
ATOM     70  C   UNL A   1      44.020  37.072  28.004  1.00  0.00     0.031 A 
ATOM     71  C   UNL A   1      47.557  31.154  29.024  1.00  0.00     0.031 A 
ATOM     72  C   UNL A   1      45.350  37.068  27.461  1.00  0.00     0.049 A 
ATOM     73  C   UNL A   1      48.138  32.297  28.230  1.00  0.00     0.074 A 
ATOM     74  C   UNL A   1      46.012  38.085  26.796  1.00  0.00     0.029 A 
ATOM     75  N   UNL A   1      46.219  35.990  27.511  1.00  0.00    -0.354 N 
ATOM     76  N   UNL A   1      47.621  33.474  27.972  1.00  0.00    -0.248 NA
ATOM     77  C   UNL A   1      49.480  32.097  27.658  1.00  0.00     0.031 C 
ATOM     78  C   UNL A   1      47.258  37.599  26.384  1.00  0.00     0.029 A 
ATOM     79  C   UNL A   1      47.399  36.305  26.859  1.00  0.00     0.049 A 
ATOM     80  H   UNL A   1      46.027  35.128  27.946  1.00  0.00     0.167 HD
ATOM     81  C   UNL A   1      48.581  34.162  27.236  1.00  0.00     0.074 A 
ATOM     82  C   UNL A   1      49.718  33.277  27.101  1.00  0.00     0.031 C 
ATOM     83  C   UNL A   1      48.525  35.416  26.724  1.00  0.00     0.031 A 
BRANCH  70  84
ATOM     84  C   UNL A   1      43.158  38.287  27.791  1.00  0.00    -0.014 A 
ATOM     85  C   UNL A   1      43.193  39.378  28.675  1.00  0.00     0.009 A 
ATOM     86  C   UNL A   1      42.290  38.336  26.689  1.00  0.00     0.009 A 
ATOM     87  C   UNL A   1      42.339  40.467  28.490  1.00  0.00     0.001 A 
ATOM     88  C   UNL A   1      41.464  39.443  26.485  1.00  0.00     0.001 A 
ATOM     89  C   UNL A   1      41.478  40.499  27.394  1.00  0.00     0.000 A 
ENDBRANCH  70  84
BRANCH  71  90
ATOM     90  C   UNL A   1      48.337  29.897  29.205  1.00  0.00    -0.014 A 
ATOM     91  C   UNL A   1      49.266  29.770  30.250  1.00  0.00     0.009 A 
ATOM     92  C   UNL A   1      48.167  28.822  28.318  1.00  0.00     0.009 A 
ATOM     93  C   UNL A   1      50.021  28.600  30.390  1.00  0.00     0.001 A 
ATOM     94  C   UNL A   1      48.901  27.643  28.479  1.00  0.00     0.001 A 
ATOM     95  C   UNL A   1      49.832  27.537  29.510  1.00  0.00     0.000 A 
ENDBRANCH  71  90
BRANCH  83  96
ATOM     96  C   UNL A   1      49.740  35.930  25.998  1.00  0.00    -0.014 A 
ATOM     97  C   UNL A   1      50.019  35.556  24.674  1.00  0.00     0.009 A 
ATOM     98  C   UNL A   1      50.588  36.852  26.634  1.00  0.00     0.009 A 
ATOM     99  C   UNL A   1      51.140  36.069  24.016  1.00  0.00     0.001 A 
ATOM    100  C   UNL A   1      51.689  37.388  25.962  1.00  0.00     0.001 A 
ATOM    101  C   UNL A   1      51.970  36.988  24.658  1.00  0.00     0.000 A 
ENDBRANCH  83  96
ENDBRANCH  57  58
ENDBRANCH  50  52
ENDBRANCH  49  50
ENDBRANCH  48  49
ENDBRANCH  47  48
ENDBRANCH  46  47
ENDBRANCH  45  46
ENDBRANCH  44  45
ENDBRANCH  43  44
ENDBRANCH   1  43
TORSDOF 26
ENDMDL
MODEL 2
REMARK VINA RESULT:      -5.9      4.706     11.421
REMARK SMILES CC1CC[NH+]([C@H](c2ccc(F)cc2)c2ccc([C@@H](C)C(=O)OCCOCCOCCOCCOC(=O)c3ccc(-c4c5nc(c(-c6ccccc6)c6ccc([nH]6)c(-c6ccccc6)c6nc(c(-c7ccccc7)c7ccc4[nH]7)C=C6)C=C5)cc3)cc2-c2ccc(C(F)(F)F)cc2)CC1
REMARK SMILES IDX 27 1 26 2 25 3 24 4 23 5 22 6 20 7 21 8 18 9 19 10 17 11
REMARK SMILES IDX 14 12 15 13 86 14 16 15 85 16 6 17 5 18 1 19 2 20 3 21 98 22
REMARK SMILES IDX 4 23 97 24 7 26 8 27 13 28 9 29 12 30 10 31 11 32 87 33
REMARK SMILES IDX 88 34 96 35 89 36 95 37 90 38 91 39 92 40 93 41 94 42 28 43
REMARK SMILES IDX 29 44 30 45 31 46 32 47 33 48 34 49 35 50 36 51 37 52 38 53
REMARK SMILES IDX 84 54 39 55 83 56 40 57 41 58 42 59 77 60 43 61 82 62 76 63
REMARK SMILES IDX 78 64 44 65 81 66 75 67 74 68 45 70 67 71 52 72 66 73 53 74
REMARK SMILES IDX 56 75 65 76 79 77 54 78 55 79 64 81 80 82 57 83 46 84 47 85
REMARK SMILES IDX 51 86 48 87 50 88 49 89 68 90 69 91 73 92 70 93 72 94 71 95
REMARK SMILES IDX 58 96 59 97 63 98 60 99 62 100 61 101
REMARK H PARENT 5 25 78 69 56 80
REMARK Flexibility Score: inf
ROOT
ATOM      1  C   UNL A   1      40.844  29.076  31.351  1.00  0.00     0.188 C 
ENDROOT
BRANCH   1   2
ATOM      2  C   UNL A   1      40.409  30.404  31.991  1.00  0.00     0.188 C 
BRANCH   2   3
ATOM      3  O   UNL A   1      41.361  31.306  32.540  1.00  0.00    -0.376 OA
BRANCH   3   4
ATOM      4  C   UNL A   1      41.111  32.703  32.556  1.00  0.00     0.202 C 
BRANCH   4   5
ATOM      5  C   UNL A   1      42.267  33.711  32.432  1.00  0.00     0.261 C 
BRANCH   5   6
ATOM      6  O   UNL A   1      42.908  34.118  33.656  1.00  0.00    -0.463 OA
BRANCH   6   7
ATOM      7  C   UNL A   1      43.914  35.018  33.537  1.00  0.00     0.313 C 
ATOM      8  O   UNL A   1      44.022  36.009  34.257  1.00  0.00    -0.252 OA
BRANCH   7   9
ATOM      9  C   UNL A   1      44.902  34.761  32.397  1.00  0.00     0.126 C 
ATOM     10  C   UNL A   1      46.012  33.867  32.944  1.00  0.00     0.025 C 
BRANCH   9  11
ATOM     11  C   UNL A   1      45.474  35.923  31.583  1.00  0.00    -0.033 A 
ATOM     12  C   UNL A   1      46.475  38.167  30.031  1.00  0.00     0.022 A 
ATOM     13  C   UNL A   1      47.269  37.433  30.946  1.00  0.00     0.011 A 
ATOM     14  C   UNL A   1      45.117  37.754  29.915  1.00  0.00    -0.009 A 
ATOM     15  C   UNL A   1      46.799  36.331  31.680  1.00  0.00     0.005 A 
ATOM     16  C   UNL A   1      44.654  36.646  30.690  1.00  0.00     0.013 A 
BRANCH  12  17
ATOM     17  C   UNL A   1      47.103  39.273  29.110  1.00  0.00     0.247 C 
BRANCH  17  18
ATOM     18  N   UNL A   1      46.308  40.532  28.877  1.00  0.00    -0.325 N 
ATOM     19  C   UNL A   1      45.748  44.863  28.311  1.00  0.00     0.008 C 
ATOM     20  C   UNL A   1      46.280  43.447  28.503  1.00  0.00    -0.003 C 
ATOM     21  C   UNL A   1      45.945  42.527  27.335  1.00  0.00     0.065 C 
ATOM     22  C   UNL A   1      45.665  42.827  29.745  1.00  0.00     0.065 C 
ATOM     23  C   UNL A   1      46.525  41.121  27.551  1.00  0.00     0.263 C 
ATOM     24  C   UNL A   1      46.221  41.437  30.021  1.00  0.00     0.263 C 
ATOM     25  H   UNL A   1      45.334  40.237  28.822  1.00  0.00     0.348 HD
ENDBRANCH  17  18
BRANCH  17  26
ATOM     26  C   UNL A   1      47.740  38.783  27.787  1.00  0.00     0.014 A 
ATOM     27  C   UNL A   1      49.119  38.570  27.660  1.00  0.00     0.013 A 
ATOM     28  C   UNL A   1      46.931  38.460  26.678  1.00  0.00     0.013 A 
ATOM     29  C   UNL A   1      49.663  38.016  26.496  1.00  0.00     0.040 A 
ATOM     30  C   UNL A   1      47.486  37.985  25.482  1.00  0.00     0.040 A 
ATOM     31  C   UNL A   1      48.849  37.757  25.408  1.00  0.00     0.123 A 
ATOM     32  F   UNL A   1      49.388  37.273  24.280  1.00  0.00    -0.207 F 
ENDBRANCH  17  26
ENDBRANCH  12  17
BRANCH  14  33
ATOM     33  C   UNL A   1      44.132  38.422  29.040  1.00  0.00    -0.018 A 
ATOM     34  C   UNL A   1      43.195  39.319  29.582  1.00  0.00     0.009 A 
ATOM     35  C   UNL A   1      44.093  38.184  27.659  1.00  0.00     0.009 A 
ATOM     36  C   UNL A   1      42.286  39.998  28.762  1.00  0.00     0.014 A 
ATOM     37  C   UNL A   1      43.194  38.872  26.834  1.00  0.00     0.014 A 
ATOM     38  C   UNL A   1      42.293  39.799  27.374  1.00  0.00     0.056 A 
BRANCH  38  39
ATOM     39  C   UNL A   1      41.340  40.573  26.494  1.00  0.00     0.416 C 
ATOM     40  F   UNL A   1      40.453  41.316  27.211  1.00  0.00    -0.166 F 
ATOM     41  F   UNL A   1      41.980  41.448  25.669  1.00  0.00    -0.166 F 
ATOM     42  F   UNL A   1      40.591  39.779  25.677  1.00  0.00    -0.166 F 
ENDBRANCH  38  39
ENDBRANCH  14  33
ENDBRANCH   9  11
ENDBRANCH   7   9
ENDBRANCH   6   7
ENDBRANCH   5   6
ENDBRANCH   4   5
ENDBRANCH   3   4
ENDBRANCH   2   3
ENDBRANCH   1   2
BRANCH   1  43
ATOM     43  O   UNL A   1      40.438  28.891  30.008  1.00  0.00    -0.377 OA
BRANCH  43  44
ATOM     44  C   UNL A   1      40.557  27.570  29.505  1.00  0.00     0.188 C 
BRANCH  44  45
ATOM     45  C   UNL A   1      39.247  26.842  29.140  1.00  0.00     0.188 C 
BRANCH  45  46
ATOM     46  O   UNL A   1      39.412  25.458  28.856  1.00  0.00    -0.376 OA
BRANCH  46  47
ATOM     47  C   UNL A   1      39.007  24.988  27.580  1.00  0.00     0.202 C 
BRANCH  47  48
ATOM     48  C   UNL A   1      40.014  25.126  26.438  1.00  0.00     0.261 C 
BRANCH  48  49
ATOM     49  O   UNL A   1      40.847  23.981  26.177  1.00  0.00    -0.460 OA
BRANCH  49  50
ATOM     50  C   UNL A   1      41.770  23.619  27.086  1.00  0.00     0.338 C 
ATOM     51  O   UNL A   1      41.766  22.603  27.767  1.00  0.00    -0.246 OA
BRANCH  50  52
ATOM     52  C   UNL A   1      42.891  24.584  27.009  1.00  0.00     0.060 A 
ATOM     53  C   UNL A   1      43.316  25.239  28.173  1.00  0.00     0.016 A 
ATOM     54  C   UNL A   1      43.516  24.860  25.792  1.00  0.00     0.016 A 
ATOM     55  C   UNL A   1      44.349  26.183  28.124  1.00  0.00     0.010 A 
ATOM     56  C   UNL A   1      44.529  25.829  25.744  1.00  0.00     0.010 A 
ATOM     57  C   UNL A   1      44.943  26.514  26.902  1.00  0.00    -0.014 A 
BRANCH  57  58
ATOM     58  C   UNL A   1      45.824  27.711  26.791  1.00  0.00     0.031 A 
ATOM     59  C   UNL A   1      47.307  27.490  26.620  1.00  0.00     0.074 A 
ATOM     60  C   UNL A   1      45.345  28.970  26.816  1.00  0.00     0.049 A 
ATOM     61  N   UNL A   1      48.277  28.365  26.526  1.00  0.00    -0.248 NA
ATOM     62  C   UNL A   1      47.753  26.089  26.561  1.00  0.00     0.031 C 
ATOM     63  C   UNL A   1      43.939  29.344  26.948  1.00  0.00     0.029 A 
ATOM     64  N   UNL A   1      46.005  30.175  26.732  1.00  0.00    -0.354 N 
ATOM     65  C   UNL A   1      49.444  27.619  26.420  1.00  0.00     0.074 A 
ATOM     66  C   UNL A   1      49.067  26.227  26.509  1.00  0.00     0.031 C 
ATOM     67  C   UNL A   1      43.841  30.687  26.929  1.00  0.00     0.029 A 
ATOM     68  C   UNL A   1      45.178  31.269  26.816  1.00  0.00     0.049 A 
ATOM     69  H   UNL A   1      46.981  30.246  26.620  1.00  0.00     0.167 HD
ATOM     70  C   UNL A   1      50.718  28.043  26.248  1.00  0.00     0.031 A 
ATOM     71  C   UNL A   1      45.464  32.587  26.817  1.00  0.00     0.031 A 
ATOM     72  C   UNL A   1      51.108  29.424  26.160  1.00  0.00     0.049 A 
ATOM     73  C   UNL A   1      46.896  33.044  26.685  1.00  0.00     0.074 A 
ATOM     74  C   UNL A   1      52.371  29.950  25.953  1.00  0.00     0.029 A 
ATOM     75  N   UNL A   1      50.240  30.496  26.283  1.00  0.00    -0.354 N 
ATOM     76  N   UNL A   1      47.984  32.327  26.543  1.00  0.00    -0.248 NA
ATOM     77  C   UNL A   1      47.136  34.497  26.707  1.00  0.00     0.031 C 
ATOM     78  C   UNL A   1      52.278  31.345  26.019  1.00  0.00     0.029 A 
ATOM     79  C   UNL A   1      50.945  31.685  26.191  1.00  0.00     0.049 A 
ATOM     80  H   UNL A   1      49.268  30.426  26.415  1.00  0.00     0.167 HD
ATOM     81  C   UNL A   1      49.031  33.237  26.430  1.00  0.00     0.074 A 
ATOM     82  C   UNL A   1      48.445  34.559  26.505  1.00  0.00     0.031 C 
ATOM     83  C   UNL A   1      50.356  32.998  26.272  1.00  0.00     0.031 A 
BRANCH  70  84
ATOM     84  C   UNL A   1      51.789  26.987  26.187  1.00  0.00    -0.014 A 
ATOM     85  C   UNL A   1      52.083  26.305  24.995  1.00  0.00     0.009 A 
ATOM     86  C   UNL A   1      52.510  26.664  27.347  1.00  0.00     0.009 A 
ATOM     87  C   UNL A   1      53.038  25.286  24.979  1.00  0.00     0.001 A 
ATOM     88  C   UNL A   1      53.490  25.671  27.320  1.00  0.00     0.001 A 
ATOM     89  C   UNL A   1      53.742  24.973  26.140  1.00  0.00     0.000 A 
ENDBRANCH  70  84
BRANCH  71  90
ATOM     90  C   UNL A   1      44.369  33.589  26.955  1.00  0.00    -0.014 A 
ATOM     91  C   UNL A   1      43.858  33.928  28.218  1.00  0.00     0.009 A 
ATOM     92  C   UNL A   1      43.815  34.197  25.817  1.00  0.00     0.009 A 
ATOM     93  C   UNL A   1      42.806  34.841  28.336  1.00  0.00     0.001 A 
ATOM     94  C   UNL A   1      42.784  35.131  25.941  1.00  0.00     0.001 A 
ATOM     95  C   UNL A   1      42.275  35.447  27.198  1.00  0.00     0.000 A 
ENDBRANCH  71  90
BRANCH  83  96
ATOM     96  C   UNL A   1      51.270  34.185  26.132  1.00  0.00    -0.014 A 
ATOM     97  C   UNL A   1      51.546  34.758  24.881  1.00  0.00     0.009 A 
ATOM     98  C   UNL A   1      51.820  34.776  27.282  1.00  0.00     0.009 A 
ATOM     99  C   UNL A   1      52.378  35.876  24.782  1.00  0.00     0.001 A 
ATOM    100  C   UNL A   1      52.623  35.914  27.184  1.00  0.00     0.001 A 
ATOM    101  C   UNL A   1      52.910  36.457  25.934  1.00  0.00     0.000 A 
ENDBRANCH  83  96
ENDBRANCH  57  58
ENDBRANCH  50  52
ENDBRANCH  49  50
ENDBRANCH  48  49
ENDBRANCH  47  48
ENDBRANCH  46  47
ENDBRANCH  45  46
ENDBRANCH  44  45
ENDBRANCH  43  44
ENDBRANCH   1  43
TORSDOF 26
ENDMDL
MODEL 3
REMARK VINA RESULT:      -5.9      4.704     11.070
REMARK SMILES CC1CC[NH+]([C@H](c2ccc(F)cc2)c2ccc([C@@H](C)C(=O)OCCOCCOCCOCCOC(=O)c3ccc(-c4c5nc(c(-c6ccccc6)c6ccc([nH]6)c(-c6ccccc6)c6nc(c(-c7ccccc7)c7ccc4[nH]7)C=C6)C=C5)cc3)cc2-c2ccc(C(F)(F)F)cc2)CC1
REMARK SMILES IDX 27 1 26 2 25 3 24 4 23 5 22 6 20 7 21 8 18 9 19 10 17 11
REMARK SMILES IDX 14 12 15 13 86 14 16 15 85 16 6 17 5 18 1 19 2 20 3 21 98 22
REMARK SMILES IDX 4 23 97 24 7 26 8 27 13 28 9 29 12 30 10 31 11 32 87 33
REMARK SMILES IDX 88 34 96 35 89 36 95 37 90 38 91 39 92 40 93 41 94 42 28 43
REMARK SMILES IDX 29 44 30 45 31 46 32 47 33 48 34 49 35 50 36 51 37 52 38 53
REMARK SMILES IDX 84 54 39 55 83 56 40 57 41 58 42 59 77 60 43 61 82 62 76 63
REMARK SMILES IDX 78 64 44 65 81 66 75 67 74 68 45 70 67 71 52 72 66 73 53 74
REMARK SMILES IDX 56 75 65 76 79 77 54 78 55 79 64 81 80 82 57 83 46 84 47 85
REMARK SMILES IDX 51 86 48 87 50 88 49 89 68 90 69 91 73 92 70 93 72 94 71 95
REMARK SMILES IDX 58 96 59 97 63 98 60 99 62 100 61 101
REMARK H PARENT 5 25 78 69 56 80
REMARK Flexibility Score: inf
ROOT
ATOM      1  C   UNL A   1      41.257  28.918  30.120  1.00  0.00     0.188 C 
ENDROOT
BRANCH   1   2
ATOM      2  C   UNL A   1      40.308  29.856  30.883  1.00  0.00     0.188 C 
BRANCH   2   3
ATOM      3  O   UNL A   1      40.653  30.378  32.159  1.00  0.00    -0.376 OA
BRANCH   3   4
ATOM      4  C   UNL A   1      39.736  31.180  32.887  1.00  0.00     0.202 C 
BRANCH   4   5
ATOM      5  C   UNL A   1      40.211  32.439  33.634  1.00  0.00     0.261 C 
BRANCH   5   6
ATOM      6  O   UNL A   1      41.429  32.322  34.395  1.00  0.00    -0.463 OA
BRANCH   6   7
ATOM      7  C   UNL A   1      42.513  32.964  33.897  1.00  0.00     0.313 C 
ATOM      8  O   UNL A   1      43.644  32.841  34.364  1.00  0.00    -0.252 OA
BRANCH   7   9
ATOM      9  C   UNL A   1      42.241  33.918  32.731  1.00  0.00     0.126 C 
ATOM     10  C   UNL A   1      42.576  33.173  31.442  1.00  0.00     0.025 C 
BRANCH   9  11
ATOM     11  C   UNL A   1      42.827  35.331  32.726  1.00  0.00    -0.033 A 
ATOM     12  C   UNL A   1      43.931  38.017  32.623  1.00  0.00     0.022 A 
ATOM     13  C   UNL A   1      43.272  37.486  33.759  1.00  0.00     0.011 A 
ATOM     14  C   UNL A   1      44.015  37.156  31.494  1.00  0.00    -0.009 A 
ATOM     15  C   UNL A   1      42.759  36.179  33.825  1.00  0.00     0.005 A 
ATOM     16  C   UNL A   1      43.465  35.839  31.574  1.00  0.00     0.013 A 
BRANCH  12  17
ATOM     17  C   UNL A   1      44.638  39.418  32.673  1.00  0.00     0.247 C 
BRANCH  17  18
ATOM     18  N   UNL A   1      46.081  39.465  33.103  1.00  0.00    -0.325 N 
ATOM     19  C   UNL A   1      50.315  38.250  33.050  1.00  0.00     0.008 C 
ATOM     20  C   UNL A   1      48.823  38.448  32.802  1.00  0.00    -0.003 C 
ATOM     21  C   UNL A   1      48.482  39.863  32.350  1.00  0.00     0.065 C 
ATOM     22  C   UNL A   1      48.046  38.194  34.081  1.00  0.00     0.065 C 
ATOM     23  C   UNL A   1      46.978  40.013  32.079  1.00  0.00     0.263 C 
ATOM     24  C   UNL A   1      46.544  38.308  33.867  1.00  0.00     0.263 C 
ATOM     25  H   UNL A   1      46.130  40.177  33.832  1.00  0.00     0.348 HD
ENDBRANCH  17  18
BRANCH  17  26
ATOM     26  C   UNL A   1      43.839  40.566  33.336  1.00  0.00     0.014 A 
ATOM     27  C   UNL A   1      44.191  41.091  34.587  1.00  0.00     0.013 A 
ATOM     28  C   UNL A   1      42.765  41.178  32.657  1.00  0.00     0.013 A 
ATOM     29  C   UNL A   1      43.531  42.205  35.117  1.00  0.00     0.040 A 
ATOM     30  C   UNL A   1      42.049  42.239  33.227  1.00  0.00     0.040 A 
ATOM     31  C   UNL A   1      42.449  42.750  34.450  1.00  0.00     0.123 A 
ATOM     32  F   UNL A   1      41.792  43.786  34.992  1.00  0.00    -0.207 F 
ENDBRANCH  17  26
ENDBRANCH  12  17
BRANCH  14  33
ATOM     33  C   UNL A   1      44.633  37.549  30.210  1.00  0.00    -0.018 A 
ATOM     34  C   UNL A   1      45.898  37.054  29.850  1.00  0.00     0.009 A 
ATOM     35  C   UNL A   1      43.990  38.424  29.322  1.00  0.00     0.009 A 
ATOM     36  C   UNL A   1      46.477  37.377  28.617  1.00  0.00     0.014 A 
ATOM     37  C   UNL A   1      44.561  38.738  28.081  1.00  0.00     0.014 A 
ATOM     38  C   UNL A   1      45.802  38.204  27.708  1.00  0.00     0.056 A 
BRANCH  38  39
ATOM     39  C   UNL A   1      46.414  38.507  26.362  1.00  0.00     0.416 C 
ATOM     40  F   UNL A   1      47.662  39.042  26.464  1.00  0.00    -0.166 F 
ATOM     41  F   UNL A   1      46.546  37.397  25.582  1.00  0.00    -0.166 F 
ATOM     42  F   UNL A   1      45.687  39.391  25.622  1.00  0.00    -0.166 F 
ENDBRANCH  38  39
ENDBRANCH  14  33
ENDBRANCH   9  11
ENDBRANCH   7   9
ENDBRANCH   6   7
ENDBRANCH   5   6
ENDBRANCH   4   5
ENDBRANCH   3   4
ENDBRANCH   2   3
ENDBRANCH   1   2
BRANCH   1  43
ATOM     43  O   UNL A   1      41.147  28.963  28.711  1.00  0.00    -0.377 OA
BRANCH  43  44
ATOM     44  C   UNL A   1      40.462  27.875  28.112  1.00  0.00     0.188 C 
BRANCH  44  45
ATOM     45  C   UNL A   1      41.310  26.646  27.723  1.00  0.00     0.188 C 
BRANCH  45  46
ATOM     46  O   UNL A   1      41.099  25.510  28.553  1.00  0.00    -0.376 OA
BRANCH  46  47
ATOM     47  C   UNL A   1      40.541  24.348  27.960  1.00  0.00     0.202 C 
BRANCH  47  48
ATOM     48  C   UNL A   1      41.336  23.696  26.829  1.00  0.00     0.261 C 
BRANCH  48  49
ATOM     49  O   UNL A   1      42.378  22.783  27.222  1.00  0.00    -0.460 OA
BRANCH  49  50
ATOM     50  C   UNL A   1      43.525  22.754  26.522  1.00  0.00     0.338 C 
ATOM     51  O   UNL A   1      43.957  21.818  25.864  1.00  0.00    -0.246 OA
BRANCH  50  52
ATOM     52  C   UNL A   1      44.109  24.115  26.544  1.00  0.00     0.060 A 
ATOM     53  C   UNL A   1      44.144  24.868  25.362  1.00  0.00     0.016 A 
ATOM     54  C   UNL A   1      44.639  24.647  27.720  1.00  0.00     0.016 A 
ATOM     55  C   UNL A   1      44.724  26.142  25.346  1.00  0.00     0.010 A 
ATOM     56  C   UNL A   1      45.245  25.912  27.691  1.00  0.00     0.010 A 
ATOM     57  C   UNL A   1      45.313  26.664  26.503  1.00  0.00    -0.014 A 
BRANCH  57  58
ATOM     58  C   UNL A   1      46.181  27.873  26.429  1.00  0.00     0.031 A 
ATOM     59  C   UNL A   1      47.663  27.675  26.234  1.00  0.00     0.074 A 
ATOM     60  C   UNL A   1      45.690  29.125  26.509  1.00  0.00     0.049 A 
ATOM     61  N   UNL A   1      48.624  28.563  26.164  1.00  0.00    -0.248 NA
ATOM     62  C   UNL A   1      48.124  26.282  26.115  1.00  0.00     0.031 C 
ATOM     63  C   UNL A   1      44.281  29.478  26.671  1.00  0.00     0.029 A 
ATOM     64  N   UNL A   1      46.336  30.339  26.465  1.00  0.00    -0.354 N 
ATOM     65  C   UNL A   1      49.797  27.834  26.016  1.00  0.00     0.074 A 
ATOM     66  C   UNL A   1      49.435  26.435  26.054  1.00  0.00     0.031 C 
ATOM     67  C   UNL A   1      44.169  30.820  26.706  1.00  0.00     0.029 A 
ATOM     68  C   UNL A   1      45.499  31.420  26.601  1.00  0.00     0.049 A 
ATOM     69  H   UNL A   1      47.310  30.425  26.346  1.00  0.00     0.167 HD
ATOM     70  C   UNL A   1      51.065  28.278  25.847  1.00  0.00     0.031 A 
ATOM     71  C   UNL A   1      45.771  32.741  26.651  1.00  0.00     0.031 A 
ATOM     72  C   UNL A   1      51.440  29.665  25.809  1.00  0.00     0.049 A 
ATOM     73  C   UNL A   1      47.197  33.217  26.523  1.00  0.00     0.074 A 
ATOM     74  C   UNL A   1      52.695  30.213  25.610  1.00  0.00     0.029 A 
ATOM     75  N   UNL A   1      50.562  30.723  25.984  1.00  0.00    -0.354 N 
ATOM     76  N   UNL A   1      48.291  32.518  26.340  1.00  0.00    -0.248 NA
ATOM     77  C   UNL A   1      47.423  34.670  26.599  1.00  0.00     0.031 C 
ATOM     78  C   UNL A   1      52.588  31.603  25.731  1.00  0.00     0.029 A 
ATOM     79  C   UNL A   1      51.254  31.922  25.931  1.00  0.00     0.049 A 
ATOM     80  H   UNL A   1      49.592  30.637  26.124  1.00  0.00     0.167 HD
ATOM     81  C   UNL A   1      49.327  33.443  26.252  1.00  0.00     0.074 A 
ATOM     82  C   UNL A   1      48.729  34.755  26.385  1.00  0.00     0.031 C 
ATOM     83  C   UNL A   1      50.653  33.224  26.071  1.00  0.00     0.031 A 
BRANCH  70  84
ATOM     84  C   UNL A   1      52.146  27.237  25.733  1.00  0.00    -0.014 A 
ATOM     85  C   UNL A   1      52.749  26.675  26.870  1.00  0.00     0.009 A 
ATOM     86  C   UNL A   1      52.572  26.818  24.463  1.00  0.00     0.009 A 
ATOM     87  C   UNL A   1      53.792  25.756  26.737  1.00  0.00     0.001 A 
ATOM     88  C   UNL A   1      53.589  25.871  24.333  1.00  0.00     0.001 A 
ATOM     89  C   UNL A   1      54.208  25.353  25.470  1.00  0.00     0.000 A 
ENDBRANCH  70  84
BRANCH  71  90
ATOM     90  C   UNL A   1      44.668  33.724  26.841  1.00  0.00    -0.014 A 
ATOM     91  C   UNL A   1      44.109  34.399  25.744  1.00  0.00     0.009 A 
ATOM     92  C   UNL A   1      44.182  34.007  28.127  1.00  0.00     0.009 A 
ATOM     93  C   UNL A   1      43.099  35.348  25.934  1.00  0.00     0.001 A 
ATOM     94  C   UNL A   1      43.152  34.934  28.311  1.00  0.00     0.001 A 
ATOM     95  C   UNL A   1      42.617  35.609  27.215  1.00  0.00     0.000 A 
ENDBRANCH  71  90
BRANCH  83  96
ATOM     96  C   UNL A   1      51.553  34.426  25.968  1.00  0.00    -0.014 A 
ATOM     97  C   UNL A   1      52.228  34.938  27.087  1.00  0.00     0.009 A 
ATOM     98  C   UNL A   1      51.774  35.021  24.715  1.00  0.00     0.009 A 
ATOM     99  C   UNL A   1      53.078  36.039  26.958  1.00  0.00     0.001 A 
ATOM    100  C   UNL A   1      52.650  36.100  24.583  1.00  0.00     0.001 A 
ATOM    101  C   UNL A   1      53.293  36.615  25.706  1.00  0.00     0.000 A 
ENDBRANCH  83  96
ENDBRANCH  57  58
ENDBRANCH  50  52
ENDBRANCH  49  50
ENDBRANCH  48  49
ENDBRANCH  47  48
ENDBRANCH  46  47
ENDBRANCH  45  46
ENDBRANCH  44  45
ENDBRANCH  43  44
ENDBRANCH   1  43
TORSDOF 26
ENDMDL
