MODEL 1
REMARK VINA RESULT:     -10.4      0.000      0.000
REMARK SMILES Nc1nccc(N2CCC[C@@](Cc3ccc(F)cc3F)(C(=O)OCCOCCOCCOCCOC(=O)c3ccc(-c4c5nc(c(-c6ccccc6)c6ccc([nH]6)c(-c6ccccc6)c6nc(c(-c7ccccc7)c7ccc4[nH]7)C=C6)C=C5)cc3)C2)n1
REMARK SMILES IDX 29 1 28 2 27 3 26 4 25 5 24 6 23 7 21 8 22 9 11 10 7 11 8 12
REMARK SMILES IDX 86 13 9 14 10 15 6 16 2 17 3 18 87 19 4 20 5 21 1 22 12 25
REMARK SMILES IDX 13 26 14 27 19 28 15 29 18 30 20 31 16 32 17 33 30 34 31 35
REMARK SMILES IDX 32 36 33 37 34 38 35 39 36 40 37 41 38 42 39 43 85 44 40 45
REMARK SMILES IDX 84 46 41 47 42 48 43 49 78 50 44 51 83 52 77 53 79 54 45 55
REMARK SMILES IDX 82 56 76 57 75 58 46 60 68 61 53 62 67 63 54 64 57 65 66 66
REMARK SMILES IDX 80 67 55 68 56 69 65 71 81 72 58 73 47 74 48 75 52 76 49 77
REMARK SMILES IDX 51 78 50 79 69 80 70 81 74 82 71 83 73 84 72 85 59 86 60 87
REMARK SMILES IDX 64 88 61 89 63 90 62 91
REMARK H PARENT 1 23 1 24 79 59 57 70
REMARK Flexibility Score: inf
ROOT
ATOM      1  O   UNL A   1      41.962  20.497  27.550  1.00  0.00    -0.377 OA
ENDROOT
BRANCH   1   2
ATOM      2  C   UNL A   1      41.119  21.537  28.005  1.00  0.00     0.188 C 
BRANCH   2   3
ATOM      3  C   UNL A   1      40.174  22.178  26.984  1.00  0.00     0.188 C 
BRANCH   3   4
ATOM      4  O   UNL A   1      39.720  23.490  27.218  1.00  0.00    -0.376 OA
BRANCH   4   5
ATOM      5  C   UNL A   1      38.477  23.966  26.734  1.00  0.00     0.202 C 
BRANCH   5   6
ATOM      6  C   UNL A   1      37.860  23.699  25.350  1.00  0.00     0.261 C 
BRANCH   6   7
ATOM      7  O   UNL A   1      36.492  24.053  25.120  1.00  0.00    -0.463 OA
BRANCH   7   8
ATOM      8  C   UNL A   1      35.937  23.460  24.040  1.00  0.00     0.314 C 
ATOM      9  O   UNL A   1      36.611  23.015  23.112  1.00  0.00    -0.252 OA
BRANCH   8  10
ATOM     10  C   UNL A   1      34.409  23.451  24.000  1.00  0.00     0.090 C 
ATOM     11  N   UNL A   1      32.669  25.174  24.027  1.00  0.00    -0.355 N 
ATOM     12  C   UNL A   1      31.955  24.752  22.840  1.00  0.00     0.118 C 
ATOM     13  C   UNL A   1      34.102  24.967  24.042  1.00  0.00     0.137 C 
ATOM     14  C   UNL A   1      32.168  23.241  22.699  1.00  0.00     0.023 C 
ATOM     15  C   UNL A   1      33.661  22.840  22.774  1.00  0.00     0.023 C 
BRANCH  11  16
ATOM     16  C   UNL A   1      32.232  26.255  24.771  1.00  0.00     0.134 A 
ATOM     17  C   UNL A   1      32.206  28.507  25.178  1.00  0.00     0.221 A 
ATOM     18  N   UNL A   1      31.815  28.354  26.446  1.00  0.00    -0.222 NA
ATOM     19  N   UNL A   1      32.438  27.506  24.322  1.00  0.00    -0.196 NA
ATOM     20  C   UNL A   1      31.620  27.093  26.860  1.00  0.00     0.119 A 
ATOM     21  C   UNL A   1      31.792  26.002  26.052  1.00  0.00     0.067 A 
BRANCH  17  22
ATOM     22  N   UNL A   1      32.407  29.784  24.743  1.00  0.00    -0.368 N 
ATOM     23  H   UNL A   1      32.820  30.448  25.341  1.00  0.00     0.159 HD
ATOM     24  H   UNL A   1      32.139  30.041  23.831  1.00  0.00     0.159 HD
ENDBRANCH  17  22
ENDBRANCH  11  16
BRANCH  10  25
ATOM     25  C   UNL A   1      33.973  22.734  25.321  1.00  0.00     0.059 C 
BRANCH  25  26
ATOM     26  C   UNL A   1      33.890  21.223  25.172  1.00  0.00    -0.011 A 
ATOM     27  C   UNL A   1      35.049  20.449  24.997  1.00  0.00     0.010 A 
ATOM     28  C   UNL A   1      32.646  20.585  25.063  1.00  0.00     0.129 A 
ATOM     29  C   UNL A   1      34.955  19.113  24.605  1.00  0.00     0.040 A 
ATOM     30  C   UNL A   1      32.545  19.248  24.702  1.00  0.00     0.078 A 
ATOM     31  F   UNL A   1      31.519  21.285  25.252  1.00  0.00    -0.207 F 
ATOM     32  C   UNL A   1      33.704  18.530  24.448  1.00  0.00     0.126 A 
ATOM     33  F   UNL A   1      33.618  17.258  24.038  1.00  0.00    -0.207 F 
ENDBRANCH  25  26
ENDBRANCH  10  25
ENDBRANCH   8  10
ENDBRANCH   7   8
ENDBRANCH   6   7
ENDBRANCH   5   6
ENDBRANCH   4   5
ENDBRANCH   3   4
ENDBRANCH   2   3
ENDBRANCH   1   2
BRANCH   1  34
ATOM     34  C   UNL A   1      41.784  19.961  26.245  1.00  0.00     0.188 C 
BRANCH  34  35
ATOM     35  C   UNL A   1      42.927  19.204  25.539  1.00  0.00     0.188 C 
BRANCH  35  36
ATOM     36  O   UNL A   1      43.810  20.018  24.792  1.00  0.00    -0.376 OA
BRANCH  36  37
ATOM     37  C   UNL A   1      44.030  21.357  25.208  1.00  0.00     0.202 C 
BRANCH  37  38
ATOM     38  C   UNL A   1      44.617  22.353  24.194  1.00  0.00     0.261 C 
BRANCH  38  39
ATOM     39  O   UNL A   1      44.199  23.723  24.316  1.00  0.00    -0.460 OA
BRANCH  39  40
ATOM     40  C   UNL A   1      44.999  24.586  24.973  1.00  0.00     0.338 C 
ATOM     41  O   UNL A   1      46.185  24.795  24.779  1.00  0.00    -0.246 OA
BRANCH  40  42
ATOM     42  C   UNL A   1      44.145  25.397  25.863  1.00  0.00     0.060 A 
ATOM     43  C   UNL A   1      44.248  26.794  25.820  1.00  0.00     0.016 A 
ATOM     44  C   UNL A   1      43.252  24.779  26.740  1.00  0.00     0.016 A 
ATOM     45  C   UNL A   1      43.484  27.578  26.684  1.00  0.00     0.010 A 
ATOM     46  C   UNL A   1      42.505  25.564  27.622  1.00  0.00     0.010 A 
ATOM     47  C   UNL A   1      42.646  26.963  27.623  1.00  0.00    -0.014 A 
BRANCH  47  48
ATOM     48  C   UNL A   1      42.078  27.762  28.734  1.00  0.00     0.031 A 
ATOM     49  C   UNL A   1      42.839  27.823  30.029  1.00  0.00     0.074 A 
ATOM     50  C   UNL A   1      40.923  28.433  28.596  1.00  0.00     0.049 A 
ATOM     51  N   UNL A   1      42.516  28.400  31.158  1.00  0.00    -0.248 NA
ATOM     52  C   UNL A   1      44.140  27.133  30.054  1.00  0.00     0.031 C 
ATOM     53  C   UNL A   1      40.116  28.494  27.380  1.00  0.00     0.029 A 
ATOM     54  N   UNL A   1      40.222  29.185  29.507  1.00  0.00    -0.354 N 
ATOM     55  C   UNL A   1      43.567  28.136  32.027  1.00  0.00     0.074 A 
ATOM     56  C   UNL A   1      44.518  27.317  31.308  1.00  0.00     0.031 C 
ATOM     57  C   UNL A   1      39.017  29.228  27.626  1.00  0.00     0.029 A 
ATOM     58  C   UNL A   1      39.026  29.654  29.024  1.00  0.00     0.049 A 
ATOM     59  H   UNL A   1      40.546  29.368  30.419  1.00  0.00     0.167 HD
ATOM     60  C   UNL A   1      43.731  28.542  33.308  1.00  0.00     0.031 A 
ATOM     61  C   UNL A   1      38.037  30.322  29.649  1.00  0.00     0.031 A 
ATOM     62  C   UNL A   1      42.769  29.331  34.032  1.00  0.00     0.049 A 
ATOM     63  C   UNL A   1      38.194  30.683  31.104  1.00  0.00     0.074 A 
ATOM     64  C   UNL A   1      42.839  29.796  35.333  1.00  0.00     0.029 A 
ATOM     65  N   UNL A   1      41.553  29.756  33.518  1.00  0.00    -0.354 N 
ATOM     66  N   UNL A   1      39.201  30.450  31.912  1.00  0.00    -0.248 NA
ATOM     67  C   UNL A   1      37.078  31.409  31.729  1.00  0.00     0.031 C 
ATOM     68  C   UNL A   1      41.636  30.447  35.627  1.00  0.00     0.029 A 
ATOM     69  C   UNL A   1      40.849  30.452  34.487  1.00  0.00     0.049 A 
ATOM     70  H   UNL A   1      41.238  29.590  32.601  1.00  0.00     0.167 HD
ATOM     71  C   UNL A   1      38.852  31.021  33.131  1.00  0.00     0.074 A 
ATOM     72  C   UNL A   1      37.549  31.627  32.950  1.00  0.00     0.031 C 
ATOM     73  C   UNL A   1      39.548  31.043  34.295  1.00  0.00     0.031 A 
BRANCH  60  74
ATOM     74  C   UNL A   1      44.980  28.092  34.016  1.00  0.00    -0.014 A 
ATOM     75  C   UNL A   1      46.155  28.860  33.992  1.00  0.00     0.009 A 
ATOM     76  C   UNL A   1      44.982  26.877  34.717  1.00  0.00     0.009 A 
ATOM     77  C   UNL A   1      47.318  28.399  34.613  1.00  0.00     0.001 A 
ATOM     78  C   UNL A   1      46.135  26.433  35.368  1.00  0.00     0.001 A 
ATOM     79  C   UNL A   1      47.306  27.187  35.303  1.00  0.00     0.000 A 
ENDBRANCH  60  74
BRANCH  61  80
ATOM     80  C   UNL A   1      36.792  30.660  28.909  1.00  0.00    -0.014 A 
ATOM     81  C   UNL A   1      35.836  29.677  28.618  1.00  0.00     0.009 A 
ATOM     82  C   UNL A   1      36.557  31.979  28.488  1.00  0.00     0.009 A 
ATOM     83  C   UNL A   1      34.680  30.004  27.903  1.00  0.00     0.001 A 
ATOM     84  C   UNL A   1      35.385  32.309  27.804  1.00  0.00     0.001 A 
ATOM     85  C   UNL A   1      34.452  31.320  27.504  1.00  0.00     0.000 A 
ENDBRANCH  61  80
BRANCH  73  86
ATOM     86  C   UNL A   1      38.933  31.775  35.457  1.00  0.00    -0.014 A 
ATOM     87  C   UNL A   1      38.210  31.099  36.452  1.00  0.00     0.009 A 
ATOM     88  C   UNL A   1      39.124  33.161  35.583  1.00  0.00     0.009 A 
ATOM     89  C   UNL A   1      37.662  31.800  37.528  1.00  0.00     0.001 A 
ATOM     90  C   UNL A   1      38.604  33.854  36.677  1.00  0.00     0.001 A 
ATOM     91  C   UNL A   1      37.863  33.175  37.643  1.00  0.00     0.000 A 
ENDBRANCH  73  86
ENDBRANCH  47  48
ENDBRANCH  40  42
ENDBRANCH  39  40
ENDBRANCH  38  39
ENDBRANCH  37  38
ENDBRANCH  36  37
ENDBRANCH  35  36
ENDBRANCH  34  35
ENDBRANCH   1  34
TORSDOF 24
ENDMDL
MODEL 2
REMARK VINA RESULT:      -9.7      6.538     10.539
REMARK SMILES Nc1nccc(N2CCC[C@@](Cc3ccc(F)cc3F)(C(=O)OCCOCCOCCOCCOC(=O)c3ccc(-c4c5nc(c(-c6ccccc6)c6ccc([nH]6)c(-c6ccccc6)c6nc(c(-c7ccccc7)c7ccc4[nH]7)C=C6)C=C5)cc3)C2)n1
REMARK SMILES IDX 29 1 28 2 27 3 26 4 25 5 24 6 23 7 21 8 22 9 11 10 7 11 8 12
REMARK SMILES IDX 86 13 9 14 10 15 6 16 2 17 3 18 87 19 4 20 5 21 1 22 12 25
REMARK SMILES IDX 13 26 14 27 19 28 15 29 18 30 20 31 16 32 17 33 30 34 31 35
REMARK SMILES IDX 32 36 33 37 34 38 35 39 36 40 37 41 38 42 39 43 85 44 40 45
REMARK SMILES IDX 84 46 41 47 42 48 43 49 78 50 44 51 83 52 77 53 79 54 45 55
REMARK SMILES IDX 82 56 76 57 75 58 46 60 68 61 53 62 67 63 54 64 57 65 66 66
REMARK SMILES IDX 80 67 55 68 56 69 65 71 81 72 58 73 47 74 48 75 52 76 49 77
REMARK SMILES IDX 51 78 50 79 69 80 70 81 74 82 71 83 73 84 72 85 59 86 60 87
REMARK SMILES IDX 64 88 61 89 63 90 62 91
REMARK H PARENT 1 23 1 24 79 59 57 70
REMARK Flexibility Score: inf
ROOT
ATOM      1  O   UNL A   1      41.252  19.789  27.228  1.00  0.00    -0.377 OA
ENDROOT
BRANCH   1   2
ATOM      2  C   UNL A   1      40.939  21.113  27.615  1.00  0.00     0.188 C 
BRANCH   2   3
ATOM      3  C   UNL A   1      40.167  21.977  26.612  1.00  0.00     0.188 C 
BRANCH   3   4
ATOM      4  O   UNL A   1      39.556  23.159  27.073  1.00  0.00    -0.376 OA
BRANCH   4   5
ATOM      5  C   UNL A   1      38.512  23.804  26.367  1.00  0.00     0.202 C 
BRANCH   5   6
ATOM      6  C   UNL A   1      37.379  23.130  25.572  1.00  0.00     0.261 C 
BRANCH   6   7
ATOM      7  O   UNL A   1      36.489  23.947  24.804  1.00  0.00    -0.463 OA
BRANCH   7   8
ATOM      8  C   UNL A   1      35.837  23.289  23.821  1.00  0.00     0.314 C 
ATOM      9  O   UNL A   1      36.329  23.106  22.709  1.00  0.00    -0.252 OA
BRANCH   8  10
ATOM     10  C   UNL A   1      34.408  22.855  24.148  1.00  0.00     0.090 C 
ATOM     11  N   UNL A   1      33.333  20.729  24.716  1.00  0.00    -0.355 N 
ATOM     12  C   UNL A   1      32.684  21.157  25.938  1.00  0.00     0.118 C 
ATOM     13  C   UNL A   1      34.607  21.341  24.399  1.00  0.00     0.137 C 
ATOM     14  C   UNL A   1      32.412  22.659  25.802  1.00  0.00     0.023 C 
ATOM     15  C   UNL A   1      33.670  23.457  25.385  1.00  0.00     0.023 C 
BRANCH  11  16
ATOM     16  C   UNL A   1      33.177  19.439  24.243  1.00  0.00     0.134 A 
ATOM     17  C   UNL A   1      33.901  17.272  24.104  1.00  0.00     0.221 A 
ATOM     18  N   UNL A   1      33.213  17.029  22.986  1.00  0.00    -0.222 NA
ATOM     19  N   UNL A   1      33.927  18.444  24.749  1.00  0.00    -0.196 NA
ATOM     20  C   UNL A   1      32.477  18.046  22.510  1.00  0.00     0.119 A 
ATOM     21  C   UNL A   1      32.405  19.270  23.115  1.00  0.00     0.067 A 
BRANCH  17  22
ATOM     22  N   UNL A   1      34.654  16.248  24.601  1.00  0.00    -0.368 N 
ATOM     23  H   UNL A   1      34.388  15.316  24.432  1.00  0.00     0.159 HD
ATOM     24  H   UNL A   1      35.461  16.443  25.130  1.00  0.00     0.159 HD
ENDBRANCH  17  22
ENDBRANCH  11  16
BRANCH  10  25
ATOM     25  C   UNL A   1      33.593  23.125  22.840  1.00  0.00     0.059 C 
BRANCH  25  26
ATOM     26  C   UNL A   1      32.972  24.513  22.807  1.00  0.00    -0.011 A 
ATOM     27  C   UNL A   1      33.776  25.663  22.743  1.00  0.00     0.010 A 
ATOM     28  C   UNL A   1      31.591  24.680  22.982  1.00  0.00     0.129 A 
ATOM     29  C   UNL A   1      33.226  26.925  22.972  1.00  0.00     0.040 A 
ATOM     30  C   UNL A   1      31.031  25.936  23.182  1.00  0.00     0.078 A 
ATOM     31  F   UNL A   1      30.789  23.608  23.019  1.00  0.00    -0.207 F 
ATOM     32  C   UNL A   1      31.861  27.046  23.203  1.00  0.00     0.126 A 
ATOM     33  F   UNL A   1      31.343  28.254  23.458  1.00  0.00    -0.207 F 
ENDBRANCH  25  26
ENDBRANCH  10  25
ENDBRANCH   8  10
ENDBRANCH   7   8
ENDBRANCH   6   7
ENDBRANCH   5   6
ENDBRANCH   4   5
ENDBRANCH   3   4
ENDBRANCH   2   3
ENDBRANCH   1   2
BRANCH   1  34
ATOM     34  C   UNL A   1      41.908  19.549  25.990  1.00  0.00     0.188 C 
BRANCH  34  35
ATOM     35  C   UNL A   1      43.433  19.732  25.856  1.00  0.00     0.188 C 
BRANCH  35  36
ATOM     36  O   UNL A   1      43.853  20.392  24.677  1.00  0.00    -0.376 OA
BRANCH  36  37
ATOM     37  C   UNL A   1      44.058  21.796  24.709  1.00  0.00     0.202 C 
BRANCH  37  38
ATOM     38  C   UNL A   1      43.857  22.537  26.040  1.00  0.00     0.261 C 
BRANCH  38  39
ATOM     39  O   UNL A   1      43.102  23.759  25.994  1.00  0.00    -0.460 OA
BRANCH  39  40
ATOM     40  C   UNL A   1      43.139  24.582  27.060  1.00  0.00     0.338 C 
ATOM     41  O   UNL A   1      42.482  24.502  28.085  1.00  0.00    -0.246 OA
BRANCH  40  42
ATOM     42  C   UNL A   1      44.271  25.511  26.868  1.00  0.00     0.060 A 
ATOM     43  C   UNL A   1      45.010  25.927  27.984  1.00  0.00     0.016 A 
ATOM     44  C   UNL A   1      44.595  25.973  25.591  1.00  0.00     0.016 A 
ATOM     45  C   UNL A   1      46.052  26.839  27.830  1.00  0.00     0.010 A 
ATOM     46  C   UNL A   1      45.624  26.905  25.441  1.00  0.00     0.010 A 
ATOM     47  C   UNL A   1      46.331  27.370  26.565  1.00  0.00    -0.014 A 
BRANCH  47  48
ATOM     48  C   UNL A   1      47.215  28.553  26.443  1.00  0.00     0.031 A 
ATOM     49  C   UNL A   1      46.590  29.918  26.507  1.00  0.00     0.074 A 
ATOM     50  C   UNL A   1      48.544  28.424  26.296  1.00  0.00     0.049 A 
ATOM     51  N   UNL A   1      47.144  31.095  26.362  1.00  0.00    -0.248 NA
ATOM     52  C   UNL A   1      45.140  29.960  26.764  1.00  0.00     0.031 C 
ATOM     53  C   UNL A   1      49.276  27.160  26.268  1.00  0.00     0.029 A 
ATOM     54  N   UNL A   1      49.513  29.382  26.128  1.00  0.00    -0.354 N 
ATOM     55  C   UNL A   1      46.111  32.015  26.502  1.00  0.00     0.074 A 
ATOM     56  C   UNL A   1      44.895  31.259  26.705  1.00  0.00     0.031 C 
ATOM     57  C   UNL A   1      50.580  27.420  26.072  1.00  0.00     0.029 A 
ATOM     58  C   UNL A   1      50.766  28.862  25.924  1.00  0.00     0.049 A 
ATOM     59  H   UNL A   1      49.326  30.349  26.150  1.00  0.00     0.167 HD
ATOM     60  C   UNL A   1      46.169  33.366  26.470  1.00  0.00     0.031 A 
ATOM     61  C   UNL A   1      51.925  29.478  25.619  1.00  0.00     0.031 A 
ATOM     62  C   UNL A   1      47.375  34.115  26.236  1.00  0.00     0.049 A 
ATOM     63  C   UNL A   1      51.953  30.980  25.492  1.00  0.00     0.074 A 
ATOM     64  C   UNL A   1      47.543  35.488  26.185  1.00  0.00     0.029 A 
ATOM     65  N   UNL A   1      48.619  33.550  25.999  1.00  0.00    -0.354 N 
ATOM     66  N   UNL A   1      50.977  31.843  25.648  1.00  0.00    -0.248 NA
ATOM     67  C   UNL A   1      53.247  31.592  25.154  1.00  0.00     0.031 C 
ATOM     68  C   UNL A   1      48.875  35.751  25.851  1.00  0.00     0.029 A 
ATOM     69  C   UNL A   1      49.554  34.546  25.769  1.00  0.00     0.049 A 
ATOM     70  H   UNL A   1      48.810  32.584  25.996  1.00  0.00     0.167 HD
ATOM     71  C   UNL A   1      51.543  33.098  25.453  1.00  0.00     0.074 A 
ATOM     72  C   UNL A   1      52.950  32.884  25.186  1.00  0.00     0.031 C 
ATOM     73  C   UNL A   1      50.951  34.318  25.494  1.00  0.00     0.031 A 
BRANCH  60  74
ATOM     74  C   UNL A   1      44.874  34.113  26.644  1.00  0.00    -0.014 A 
ATOM     75  C   UNL A   1      44.024  34.371  25.557  1.00  0.00     0.009 A 
ATOM     76  C   UNL A   1      44.499  34.566  27.918  1.00  0.00     0.009 A 
ATOM     77  C   UNL A   1      42.852  35.110  25.733  1.00  0.00     0.001 A 
ATOM     78  C   UNL A   1      43.309  35.274  28.099  1.00  0.00     0.001 A 
ATOM     79  C   UNL A   1      42.494  35.558  27.004  1.00  0.00     0.000 A 
ENDBRANCH  60  74
BRANCH  61  80
ATOM     80  C   UNL A   1      53.150  28.670  25.375  1.00  0.00    -0.014 A 
ATOM     81  C   UNL A   1      54.043  28.380  26.416  1.00  0.00     0.009 A 
ATOM     82  C   UNL A   1      53.429  28.183  24.087  1.00  0.00     0.009 A 
ATOM     83  C   UNL A   1      55.201  27.637  26.168  1.00  0.00     0.001 A 
ATOM     84  C   UNL A   1      54.570  27.413  23.850  1.00  0.00     0.001 A 
ATOM     85  C   UNL A   1      55.459  27.148  24.888  1.00  0.00     0.000 A 
ENDBRANCH  61  80
BRANCH  73  86
ATOM     86  C   UNL A   1      51.828  35.522  25.278  1.00  0.00    -0.014 A 
ATOM     87  C   UNL A   1      52.463  36.170  26.348  1.00  0.00     0.009 A 
ATOM     88  C   UNL A   1      52.062  35.983  23.972  1.00  0.00     0.009 A 
ATOM     89  C   UNL A   1      53.284  37.276  26.118  1.00  0.00     0.001 A 
ATOM     90  C   UNL A   1      52.910  37.068  23.742  1.00  0.00     0.001 A 
ATOM     91  C   UNL A   1      53.511  37.721  24.816  1.00  0.00     0.000 A 
ENDBRANCH  73  86
ENDBRANCH  47  48
ENDBRANCH  40  42
ENDBRANCH  39  40
ENDBRANCH  38  39
ENDBRANCH  37  38
ENDBRANCH  36  37
ENDBRANCH  35  36
ENDBRANCH  34  35
ENDBRANCH   1  34
TORSDOF 24
ENDMDL
MODEL 3
REMARK VINA RESULT:      -9.6      6.333      9.204
REMARK SMILES Nc1nccc(N2CCC[C@@](Cc3ccc(F)cc3F)(C(=O)OCCOCCOCCOCCOC(=O)c3ccc(-c4c5nc(c(-c6ccccc6)c6ccc([nH]6)c(-c6ccccc6)c6nc(c(-c7ccccc7)c7ccc4[nH]7)C=C6)C=C5)cc3)C2)n1
REMARK SMILES IDX 29 1 28 2 27 3 26 4 25 5 24 6 23 7 21 8 22 9 11 10 7 11 8 12
REMARK SMILES IDX 86 13 9 14 10 15 6 16 2 17 3 18 87 19 4 20 5 21 1 22 12 25
REMARK SMILES IDX 13 26 14 27 19 28 15 29 18 30 20 31 16 32 17 33 30 34 31 35
REMARK SMILES IDX 32 36 33 37 34 38 35 39 36 40 37 41 38 42 39 43 85 44 40 45
REMARK SMILES IDX 84 46 41 47 42 48 43 49 78 50 44 51 83 52 77 53 79 54 45 55
REMARK SMILES IDX 82 56 76 57 75 58 46 60 68 61 53 62 67 63 54 64 57 65 66 66
REMARK SMILES IDX 80 67 55 68 56 69 65 71 81 72 58 73 47 74 48 75 52 76 49 77
REMARK SMILES IDX 51 78 50 79 69 80 70 81 74 82 71 83 73 84 72 85 59 86 60 87
REMARK SMILES IDX 64 88 61 89 63 90 62 91
REMARK H PARENT 1 23 1 24 79 59 57 70
REMARK Flexibility Score: inf
ROOT
ATOM      1  O   UNL A   1      41.200  19.581  27.275  1.00  0.00    -0.377 OA
ENDROOT
BRANCH   1   2
ATOM      2  C   UNL A   1      41.003  20.938  27.619  1.00  0.00     0.188 C 
BRANCH   2   3
ATOM      3  C   UNL A   1      40.239  21.815  26.621  1.00  0.00     0.188 C 
BRANCH   3   4
ATOM      4  O   UNL A   1      39.633  22.997  27.090  1.00  0.00    -0.376 OA
BRANCH   4   5
ATOM      5  C   UNL A   1      38.615  23.670  26.372  1.00  0.00     0.202 C 
BRANCH   5   6
ATOM      6  C   UNL A   1      37.476  23.027  25.562  1.00  0.00     0.261 C 
BRANCH   6   7
ATOM      7  O   UNL A   1      36.623  23.867  24.776  1.00  0.00    -0.463 OA
BRANCH   7   8
ATOM      8  C   UNL A   1      35.957  23.222  23.794  1.00  0.00     0.314 C 
ATOM      9  O   UNL A   1      36.449  23.019  22.685  1.00  0.00    -0.252 OA
BRANCH   8  10
ATOM     10  C   UNL A   1      34.515  22.830  24.117  1.00  0.00     0.090 C 
ATOM     11  N   UNL A   1      33.379  20.737  24.688  1.00  0.00    -0.355 N 
ATOM     12  C   UNL A   1      32.738  21.187  25.906  1.00  0.00     0.118 C 
ATOM     13  C   UNL A   1      34.671  21.311  24.373  1.00  0.00     0.137 C 
ATOM     14  C   UNL A   1      32.509  22.695  25.764  1.00  0.00     0.023 C 
ATOM     15  C   UNL A   1      33.790  23.456  25.349  1.00  0.00     0.023 C 
BRANCH  11  16
ATOM     16  C   UNL A   1      33.188  19.449  24.219  1.00  0.00     0.134 A 
ATOM     17  C   UNL A   1      33.862  17.267  24.075  1.00  0.00     0.221 A 
ATOM     18  N   UNL A   1      33.155  17.038  22.964  1.00  0.00    -0.222 NA
ATOM     19  N   UNL A   1      33.921  18.438  24.718  1.00  0.00    -0.196 NA
ATOM     20  C   UNL A   1      32.437  18.070  22.495  1.00  0.00     0.119 A 
ATOM     21  C   UNL A   1      32.400  19.297  23.100  1.00  0.00     0.067 A 
BRANCH  17  22
ATOM     22  N   UNL A   1      34.596  16.226  24.565  1.00  0.00    -0.368 N 
ATOM     23  H   UNL A   1      34.170  15.352  24.716  1.00  0.00     0.159 HD
ATOM     24  H   UNL A   1      35.551  16.351  24.768  1.00  0.00     0.159 HD
ENDBRANCH  17  22
ENDBRANCH  11  16
BRANCH  10  25
ATOM     25  C   UNL A   1      33.713  23.117  22.805  1.00  0.00     0.059 C 
BRANCH  25  26
ATOM     26  C   UNL A   1      33.040  24.481  22.812  1.00  0.00    -0.011 A 
ATOM     27  C   UNL A   1      33.799  25.663  22.821  1.00  0.00     0.010 A 
ATOM     28  C   UNL A   1      31.649  24.588  22.954  1.00  0.00     0.129 A 
ATOM     29  C   UNL A   1      33.193  26.891  23.087  1.00  0.00     0.040 A 
ATOM     30  C   UNL A   1      31.034  25.811  23.190  1.00  0.00     0.078 A 
ATOM     31  F   UNL A   1      30.888  23.485  22.922  1.00  0.00    -0.207 F 
ATOM     32  C   UNL A   1      31.819  26.951  23.283  1.00  0.00     0.126 A 
ATOM     33  F   UNL A   1      31.247  28.126  23.573  1.00  0.00    -0.207 F 
ENDBRANCH  25  26
ENDBRANCH  10  25
ENDBRANCH   8  10
ENDBRANCH   7   8
ENDBRANCH   6   7
ENDBRANCH   5   6
ENDBRANCH   4   5
ENDBRANCH   3   4
ENDBRANCH   2   3
ENDBRANCH   1   2
BRANCH   1  34
ATOM     34  C   UNL A   1      41.787  19.244  26.024  1.00  0.00     0.188 C 
BRANCH  34  35
ATOM     35  C   UNL A   1      43.318  19.152  25.869  1.00  0.00     0.188 C 
BRANCH  35  36
ATOM     36  O   UNL A   1      43.840  19.783  24.716  1.00  0.00    -0.376 OA
BRANCH  36  37
ATOM     37  C   UNL A   1      44.174  21.161  24.776  1.00  0.00     0.202 C 
BRANCH  37  38
ATOM     38  C   UNL A   1      44.047  21.889  26.125  1.00  0.00     0.261 C 
BRANCH  38  39
ATOM     39  O   UNL A   1      43.346  23.144  26.121  1.00  0.00    -0.460 OA
BRANCH  39  40
ATOM     40  C   UNL A   1      43.401  23.917  27.223  1.00  0.00     0.338 C 
ATOM     41  O   UNL A   1      42.855  23.721  28.296  1.00  0.00    -0.246 OA
BRANCH  40  42
ATOM     42  C   UNL A   1      44.407  24.969  26.981  1.00  0.00     0.060 A 
ATOM     43  C   UNL A   1      45.065  25.549  28.075  1.00  0.00     0.016 A 
ATOM     44  C   UNL A   1      44.695  25.385  25.680  1.00  0.00     0.016 A 
ATOM     45  C   UNL A   1      45.985  26.576  27.872  1.00  0.00     0.010 A 
ATOM     46  C   UNL A   1      45.599  26.431  25.479  1.00  0.00     0.010 A 
ATOM     47  C   UNL A   1      46.219  27.055  26.577  1.00  0.00    -0.014 A 
BRANCH  47  48
ATOM     48  C   UNL A   1      46.947  28.331  26.386  1.00  0.00     0.031 A 
ATOM     49  C   UNL A   1      48.427  28.276  26.130  1.00  0.00     0.074 A 
ATOM     50  C   UNL A   1      46.311  29.514  26.421  1.00  0.00     0.049 A 
ATOM     51  N   UNL A   1      49.286  29.254  25.996  1.00  0.00    -0.248 NA
ATOM     52  C   UNL A   1      49.019  26.932  26.016  1.00  0.00     0.031 C 
ATOM     53  C   UNL A   1      44.874  29.699  26.612  1.00  0.00     0.029 A 
ATOM     54  N   UNL A   1      46.807  30.789  26.309  1.00  0.00    -0.354 N 
ATOM     55  C   UNL A   1      50.518  28.644  25.790  1.00  0.00     0.074 A 
ATOM     56  C   UNL A   1      50.301  27.216  25.855  1.00  0.00     0.031 C 
ATOM     57  C   UNL A   1      44.606  31.016  26.624  1.00  0.00     0.029 A 
ATOM     58  C   UNL A   1      45.855  31.763  26.480  1.00  0.00     0.049 A 
ATOM     59  H   UNL A   1      47.754  30.986  26.125  1.00  0.00     0.167 HD
ATOM     60  C   UNL A   1      51.722  29.220  25.563  1.00  0.00     0.031 A 
ATOM     61  C   UNL A   1      45.983  33.102  26.548  1.00  0.00     0.031 A 
ATOM     62  C   UNL A   1      51.941  30.642  25.530  1.00  0.00     0.049 A 
ATOM     63  C   UNL A   1      47.346  33.724  26.388  1.00  0.00     0.074 A 
ATOM     64  C   UNL A   1      53.121  31.328  25.307  1.00  0.00     0.029 A 
ATOM     65  N   UNL A   1      50.956  31.595  25.744  1.00  0.00    -0.354 N 
ATOM     66  N   UNL A   1      48.502  33.142  26.171  1.00  0.00    -0.248 NA
ATOM     67  C   UNL A   1      47.420  35.190  26.474  1.00  0.00     0.031 C 
ATOM     68  C   UNL A   1      52.863  32.695  25.451  1.00  0.00     0.029 A 
ATOM     69  C   UNL A   1      51.508  32.864  25.689  1.00  0.00     0.049 A 
ATOM     70  H   UNL A   1      50.006  31.399  25.909  1.00  0.00     0.167 HD
ATOM     71  C   UNL A   1      49.434  34.169  26.070  1.00  0.00     0.074 A 
ATOM     72  C   UNL A   1      48.705  35.410  26.231  1.00  0.00     0.031 C 
ATOM     73  C   UNL A   1      50.772  34.092  25.860  1.00  0.00     0.031 A 
BRANCH  60  74
ATOM     74  C   UNL A   1      52.899  28.300  25.382  1.00  0.00    -0.014 A 
ATOM     75  C   UNL A   1      53.291  27.852  24.110  1.00  0.00     0.009 A 
ATOM     76  C   UNL A   1      53.626  27.874  26.503  1.00  0.00     0.009 A 
ATOM     77  C   UNL A   1      54.355  26.958  23.970  1.00  0.00     0.001 A 
ATOM     78  C   UNL A   1      54.712  27.008  26.359  1.00  0.00     0.001 A 
ATOM     79  C   UNL A   1      55.066  26.539  25.094  1.00  0.00     0.000 A 
ENDBRANCH  60  74
BRANCH  61  80
ATOM     80  C   UNL A   1      44.787  33.946  26.815  1.00  0.00    -0.014 A 
ATOM     81  C   UNL A   1      44.044  34.499  25.763  1.00  0.00     0.009 A 
ATOM     82  C   UNL A   1      44.385  34.202  28.137  1.00  0.00     0.009 A 
ATOM     83  C   UNL A   1      42.935  35.308  26.029  1.00  0.00     0.001 A 
ATOM     84  C   UNL A   1      43.257  34.982  28.398  1.00  0.00     0.001 A 
ATOM     85  C   UNL A   1      42.538  35.542  27.345  1.00  0.00     0.000 A 
ENDBRANCH  61  80
BRANCH  73  86
ATOM     86  C   UNL A   1      51.534  35.386  25.759  1.00  0.00    -0.014 A 
ATOM     87  C   UNL A   1      51.750  36.017  24.524  1.00  0.00     0.009 A 
ATOM     88  C   UNL A   1      52.000  36.010  26.928  1.00  0.00     0.009 A 
ATOM     89  C   UNL A   1      52.447  37.225  24.460  1.00  0.00     0.001 A 
ATOM     90  C   UNL A   1      52.667  37.234  26.864  1.00  0.00     0.001 A 
ATOM     91  C   UNL A   1      52.900  37.835  25.629  1.00  0.00     0.000 A 
ENDBRANCH  73  86
ENDBRANCH  47  48
ENDBRANCH  40  42
ENDBRANCH  39  40
ENDBRANCH  38  39
ENDBRANCH  37  38
ENDBRANCH  36  37
ENDBRANCH  35  36
ENDBRANCH  34  35
ENDBRANCH   1  34
TORSDOF 24
ENDMDL
