MODEL 1
REMARK VINA RESULT:      -9.2      0.000      0.000
REMARK SMILES Nc1nonc1C(=O)N1[C@@H]2CC[C@H]1C[C@H](CC(=O)OCCOCCOCCOCCOC(=O)c1ccc(-c3c4nc(c(-c5ccccc5)c5ccc([nH]5)c(-c5ccccc5)c5nc(c(-c6ccccc6)c6ccc3[nH]6)C=C5)C=C4)cc1)C2
REMARK SMILES IDX 24 1 23 2 22 3 21 4 20 5 19 6 17 7 18 8 16 9 15 10 9 11
REMARK SMILES IDX 10 12 13 13 11 14 82 15 12 16 14 17 7 18 8 19 6 20 2 21 3 22
REMARK SMILES IDX 4 23 5 24 1 25 25 28 26 29 27 30 28 31 29 32 30 33 31 34
REMARK SMILES IDX 32 35 33 36 34 37 35 38 81 39 36 40 80 41 37 42 38 43 39 44
REMARK SMILES IDX 74 45 40 46 79 47 73 48 75 49 41 50 78 51 72 52 71 53 42 55
REMARK SMILES IDX 64 56 49 57 63 58 50 59 53 60 62 61 76 62 51 63 52 64 61 66
REMARK SMILES IDX 77 67 54 68 43 69 44 70 48 71 45 72 47 73 46 74 65 75 66 76
REMARK SMILES IDX 70 77 67 78 69 79 68 80 55 81 56 82 60 83 57 84 59 85 58 86
REMARK H PARENT 1 26 1 27 75 54 53 65
REMARK Flexibility Score: inf
ROOT
ATOM      1  C   UNL A   1      33.059  27.831  26.393  1.00  0.00     0.188 C 
ENDROOT
BRANCH   1   2
ATOM      2  C   UNL A   1      31.885  28.442  27.168  1.00  0.00     0.188 C 
BRANCH   2   3
ATOM      3  O   UNL A   1      31.516  29.726  26.713  1.00  0.00    -0.376 OA
BRANCH   3   4
ATOM      4  C   UNL A   1      31.765  30.041  25.358  1.00  0.00     0.202 C 
BRANCH   4   5
ATOM      5  C   UNL A   1      30.807  29.553  24.254  1.00  0.00     0.261 C 
BRANCH   5   6
ATOM      6  O   UNL A   1      31.362  28.751  23.197  1.00  0.00    -0.463 OA
BRANCH   6   7
ATOM      7  C   UNL A   1      30.702  27.621  22.877  1.00  0.00     0.306 C 
ATOM      8  O   UNL A   1      29.621  27.300  23.361  1.00  0.00    -0.252 OA
BRANCH   7   9
ATOM      9  C   UNL A   1      31.407  26.730  21.864  1.00  0.00     0.126 C 
BRANCH   9  10
ATOM     10  C   UNL A   1      32.333  25.549  22.240  1.00  0.00     0.004 C 
ATOM     11  N   UNL A   1      32.952  24.347  24.719  1.00  0.00    -0.331 N 
ATOM     12  C   UNL A   1      32.279  23.482  23.775  1.00  0.00     0.086 C 
ATOM     13  C   UNL A   1      34.107  24.889  24.021  1.00  0.00     0.086 C 
ATOM     14  C   UNL A   1      33.406  22.801  22.989  1.00  0.00     0.027 C 
ATOM     15  C   UNL A   1      31.459  24.450  22.925  1.00  0.00     0.029 C 
ATOM     16  C   UNL A   1      34.645  23.662  23.262  1.00  0.00     0.027 C 
ATOM     17  C   UNL A   1      33.619  25.950  23.020  1.00  0.00     0.029 C 
BRANCH  11  18
ATOM     18  C   UNL A   1      32.872  24.102  26.081  1.00  0.00     0.280 C 
ATOM     19  O   UNL A   1      33.901  23.951  26.741  1.00  0.00    -0.267 OA
BRANCH  18  20
ATOM     20  C   UNL A   1      31.539  23.883  26.652  1.00  0.00     0.216 A 
ATOM     21  C   UNL A   1      30.325  24.621  26.565  1.00  0.00     0.201 A 
ATOM     22  N   UNL A   1      29.364  23.986  27.230  1.00  0.00    -0.032 NA
ATOM     23  O   UNL A   1      29.941  22.807  27.665  1.00  0.00    -0.242 OA
ATOM     24  N   UNL A   1      31.280  22.748  27.322  1.00  0.00    -0.042 NA
BRANCH  21  25
ATOM     25  N   UNL A   1      30.096  25.757  25.891  1.00  0.00    -0.379 N 
ATOM     26  H   UNL A   1      29.731  26.541  26.359  1.00  0.00     0.158 HD
ATOM     27  H   UNL A   1      30.293  25.805  24.927  1.00  0.00     0.158 HD
ENDBRANCH  21  25
ENDBRANCH  18  20
ENDBRANCH  11  18
ENDBRANCH   9  10
ENDBRANCH   7   9
ENDBRANCH   6   7
ENDBRANCH   5   6
ENDBRANCH   4   5
ENDBRANCH   3   4
ENDBRANCH   2   3
ENDBRANCH   1   2
BRANCH   1  28
ATOM     28  O   UNL A   1      34.390  28.308  26.570  1.00  0.00    -0.377 OA
BRANCH  28  29
ATOM     29  C   UNL A   1      34.679  29.188  27.654  1.00  0.00     0.188 C 
BRANCH  29  30
ATOM     30  C   UNL A   1      34.884  30.682  27.344  1.00  0.00     0.188 C 
BRANCH  30  31
ATOM     31  O   UNL A   1      33.962  31.534  28.003  1.00  0.00    -0.376 OA
BRANCH  31  32
ATOM     32  C   UNL A   1      34.492  32.671  28.670  1.00  0.00     0.202 C 
BRANCH  32  33
ATOM     33  C   UNL A   1      34.922  32.526  30.141  1.00  0.00     0.261 C 
BRANCH  33  34
ATOM     34  O   UNL A   1      36.277  32.106  30.383  1.00  0.00    -0.460 OA
BRANCH  34  35
ATOM     35  C   UNL A   1      36.465  31.000  31.135  1.00  0.00     0.338 C 
ATOM     36  O   UNL A   1      35.741  30.566  32.006  1.00  0.00    -0.246 OA
BRANCH  35  37
ATOM     37  C   UNL A   1      37.639  30.282  30.592  1.00  0.00     0.060 A 
ATOM     38  C   UNL A   1      38.426  29.521  31.464  1.00  0.00     0.016 A 
ATOM     39  C   UNL A   1      37.974  30.384  29.240  1.00  0.00     0.016 A 
ATOM     40  C   UNL A   1      39.583  28.901  30.996  1.00  0.00     0.010 A 
ATOM     41  C   UNL A   1      39.145  29.776  28.776  1.00  0.00     0.010 A 
ATOM     42  C   UNL A   1      39.977  29.070  29.662  1.00  0.00    -0.014 A 
BRANCH  42  43
ATOM     43  C   UNL A   1      41.358  28.695  29.272  1.00  0.00     0.031 A 
ATOM     44  C   UNL A   1      41.606  27.295  28.776  1.00  0.00     0.074 A 
ATOM     45  C   UNL A   1      42.358  29.594  29.278  1.00  0.00     0.049 A 
ATOM     46  N   UNL A   1      42.708  26.756  28.322  1.00  0.00    -0.248 NA
ATOM     47  C   UNL A   1      40.450  26.383  28.792  1.00  0.00     0.031 C 
ATOM     48  C   UNL A   1      42.236  30.995  29.675  1.00  0.00     0.029 A 
ATOM     49  N   UNL A   1      43.676  29.456  28.919  1.00  0.00    -0.354 N 
ATOM     50  C   UNL A   1      42.377  25.445  27.996  1.00  0.00     0.074 A 
ATOM     51  C   UNL A   1      40.987  25.259  28.348  1.00  0.00     0.031 C 
ATOM     52  C   UNL A   1      43.430  31.595  29.520  1.00  0.00     0.029 A 
ATOM     53  C   UNL A   1      44.403  30.614  29.044  1.00  0.00     0.049 A 
ATOM     54  H   UNL A   1      44.062  28.609  28.601  1.00  0.00     0.167 HD
ATOM     55  C   UNL A   1      43.154  24.483  27.444  1.00  0.00     0.031 A 
ATOM     56  C   UNL A   1      45.707  30.850  28.806  1.00  0.00     0.031 A 
ATOM     57  C   UNL A   1      44.546  24.655  27.123  1.00  0.00     0.049 A 
ATOM     58  C   UNL A   1      46.579  29.733  28.294  1.00  0.00     0.074 A 
ATOM     59  C   UNL A   1      45.424  23.741  26.568  1.00  0.00     0.029 A 
ATOM     60  N   UNL A   1      45.267  25.818  27.345  1.00  0.00    -0.354 N 
ATOM     61  N   UNL A   1      46.253  28.505  27.970  1.00  0.00    -0.248 NA
ATOM     62  C   UNL A   1      48.004  30.045  28.103  1.00  0.00     0.031 C 
ATOM     63  C   UNL A   1      46.692  24.332  26.514  1.00  0.00     0.029 A 
ATOM     64  C   UNL A   1      46.586  25.638  26.965  1.00  0.00     0.049 A 
ATOM     65  H   UNL A   1      44.895  26.650  27.718  1.00  0.00     0.167 HD
ATOM     66  C   UNL A   1      47.419  27.911  27.502  1.00  0.00     0.074 A 
ATOM     67  C   UNL A   1      48.457  28.919  27.571  1.00  0.00     0.031 C 
ATOM     68  C   UNL A   1      47.612  26.648  27.046  1.00  0.00     0.031 A 
BRANCH  55  69
ATOM     69  C   UNL A   1      42.513  23.141  27.205  1.00  0.00    -0.014 A 
ATOM     70  C   UNL A   1      41.913  22.822  25.975  1.00  0.00     0.009 A 
ATOM     71  C   UNL A   1      42.502  22.183  28.231  1.00  0.00     0.009 A 
ATOM     72  C   UNL A   1      41.269  21.595  25.798  1.00  0.00     0.001 A 
ATOM     73  C   UNL A   1      41.889  20.944  28.038  1.00  0.00     0.001 A 
ATOM     74  C   UNL A   1      41.261  20.656  26.827  1.00  0.00     0.000 A 
ENDBRANCH  55  69
BRANCH  56  75
ATOM     75  C   UNL A   1      46.277  32.205  29.036  1.00  0.00    -0.014 A 
ATOM     76  C   UNL A   1      46.284  33.162  28.008  1.00  0.00     0.009 A 
ATOM     77  C   UNL A   1      46.838  32.543  30.278  1.00  0.00     0.009 A 
ATOM     78  C   UNL A   1      46.862  34.417  28.212  1.00  0.00     0.001 A 
ATOM     79  C   UNL A   1      47.387  33.810  30.488  1.00  0.00     0.001 A 
ATOM     80  C   UNL A   1      47.408  34.742  29.453  1.00  0.00     0.000 A 
ENDBRANCH  56  75
BRANCH  68  81
ATOM     81  C   UNL A   1      48.987  26.301  26.538  1.00  0.00    -0.014 A 
ATOM     82  C   UNL A   1      49.915  25.607  27.332  1.00  0.00     0.009 A 
ATOM     83  C   UNL A   1      49.352  26.661  25.231  1.00  0.00     0.009 A 
ATOM     84  C   UNL A   1      51.193  25.326  26.844  1.00  0.00     0.001 A 
ATOM     85  C   UNL A   1      50.617  26.346  24.733  1.00  0.00     0.001 A 
ATOM     86  C   UNL A   1      51.542  25.692  25.545  1.00  0.00     0.000 A 
ENDBRANCH  68  81
ENDBRANCH  42  43
ENDBRANCH  35  37
ENDBRANCH  34  35
ENDBRANCH  33  34
ENDBRANCH  32  33
ENDBRANCH  31  32
ENDBRANCH  30  31
ENDBRANCH  29  30
ENDBRANCH  28  29
ENDBRANCH   1  28
TORSDOF 24
ENDMDL
MODEL 2
REMARK VINA RESULT:      -8.9      4.715      9.712
REMARK SMILES Nc1nonc1C(=O)N1[C@@H]2CC[C@H]1C[C@H](CC(=O)OCCOCCOCCOCCOC(=O)c1ccc(-c3c4nc(c(-c5ccccc5)c5ccc([nH]5)c(-c5ccccc5)c5nc(c(-c6ccccc6)c6ccc3[nH]6)C=C5)C=C4)cc1)C2
REMARK SMILES IDX 24 1 23 2 22 3 21 4 20 5 19 6 17 7 18 8 16 9 15 10 9 11
REMARK SMILES IDX 10 12 13 13 11 14 82 15 12 16 14 17 7 18 8 19 6 20 2 21 3 22
REMARK SMILES IDX 4 23 5 24 1 25 25 28 26 29 27 30 28 31 29 32 30 33 31 34
REMARK SMILES IDX 32 35 33 36 34 37 35 38 81 39 36 40 80 41 37 42 38 43 39 44
REMARK SMILES IDX 74 45 40 46 79 47 73 48 75 49 41 50 78 51 72 52 71 53 42 55
REMARK SMILES IDX 64 56 49 57 63 58 50 59 53 60 62 61 76 62 51 63 52 64 61 66
REMARK SMILES IDX 77 67 54 68 43 69 44 70 48 71 45 72 47 73 46 74 65 75 66 76
REMARK SMILES IDX 70 77 67 78 69 79 68 80 55 81 56 82 60 83 57 84 59 85 58 86
REMARK H PARENT 1 26 1 27 75 54 53 65
REMARK Flexibility Score: inf
ROOT
ATOM      1  C   UNL A   1      33.716  25.776  25.454  1.00  0.00     0.188 C 
ENDROOT
BRANCH   1   2
ATOM      2  C   UNL A   1      33.564  24.428  26.170  1.00  0.00     0.188 C 
BRANCH   2   3
ATOM      3  O   UNL A   1      33.538  23.324  25.292  1.00  0.00    -0.376 OA
BRANCH   3   4
ATOM      4  C   UNL A   1      34.762  22.903  24.725  1.00  0.00     0.202 C 
BRANCH   4   5
ATOM      5  C   UNL A   1      35.663  21.898  25.469  1.00  0.00     0.261 C 
BRANCH   5   6
ATOM      6  O   UNL A   1      37.026  21.772  25.028  1.00  0.00    -0.463 OA
BRANCH   6   7
ATOM      7  C   UNL A   1      37.957  22.457  25.720  1.00  0.00     0.306 C 
ATOM      8  O   UNL A   1      37.825  23.624  26.074  1.00  0.00    -0.252 OA
BRANCH   7   9
ATOM      9  C   UNL A   1      39.229  21.681  26.027  1.00  0.00     0.126 C 
BRANCH   9  10
ATOM     10  C   UNL A   1      40.396  22.225  26.885  1.00  0.00     0.004 C 
ATOM     11  N   UNL A   1      43.198  21.972  26.644  1.00  0.00    -0.331 N 
ATOM     12  C   UNL A   1      42.696  23.323  26.520  1.00  0.00     0.086 C 
ATOM     13  C   UNL A   1      42.664  21.454  27.893  1.00  0.00     0.086 C 
ATOM     14  C   UNL A   1      42.715  23.885  27.947  1.00  0.00     0.027 C 
ATOM     15  C   UNL A   1      41.284  23.131  25.973  1.00  0.00     0.029 C 
ATOM     16  C   UNL A   1      42.827  22.650  28.849  1.00  0.00     0.027 C 
ATOM     17  C   UNL A   1      41.170  21.144  27.695  1.00  0.00     0.029 C 
BRANCH  11  18
ATOM     18  C   UNL A   1      44.409  21.613  26.073  1.00  0.00     0.280 C 
ATOM     19  O   UNL A   1      45.402  22.324  26.235  1.00  0.00    -0.267 OA
BRANCH  18  20
ATOM     20  C   UNL A   1      44.412  20.463  25.161  1.00  0.00     0.216 A 
ATOM     21  C   UNL A   1      44.116  19.086  25.355  1.00  0.00     0.201 A 
ATOM     22  N   UNL A   1      44.221  18.435  24.200  1.00  0.00    -0.032 NA
ATOM     23  O   UNL A   1      44.501  19.410  23.259  1.00  0.00    -0.242 OA
ATOM     24  N   UNL A   1      44.631  20.654  23.850  1.00  0.00    -0.042 NA
BRANCH  21  25
ATOM     25  N   UNL A   1      43.728  18.475  26.484  1.00  0.00    -0.379 N 
ATOM     26  H   UNL A   1      43.338  17.572  26.446  1.00  0.00     0.158 HD
ATOM     27  H   UNL A   1      43.833  18.930  27.351  1.00  0.00     0.158 HD
ENDBRANCH  21  25
ENDBRANCH  18  20
ENDBRANCH  11  18
ENDBRANCH   9  10
ENDBRANCH   7   9
ENDBRANCH   6   7
ENDBRANCH   5   6
ENDBRANCH   4   5
ENDBRANCH   3   4
ENDBRANCH   2   3
ENDBRANCH   1   2
BRANCH   1  28
ATOM     28  O   UNL A   1      33.619  27.006  26.166  1.00  0.00    -0.377 OA
BRANCH  28  29
ATOM     29  C   UNL A   1      32.772  28.038  25.666  1.00  0.00     0.188 C 
BRANCH  29  30
ATOM     30  C   UNL A   1      33.250  29.497  25.793  1.00  0.00     0.188 C 
BRANCH  30  31
ATOM     31  O   UNL A   1      32.576  30.233  26.800  1.00  0.00    -0.376 OA
BRANCH  31  32
ATOM     32  C   UNL A   1      33.255  31.356  27.347  1.00  0.00     0.202 C 
BRANCH  32  33
ATOM     33  C   UNL A   1      32.443  32.629  27.649  1.00  0.00     0.261 C 
BRANCH  33  34
ATOM     34  O   UNL A   1      33.139  33.884  27.542  1.00  0.00    -0.460 OA
BRANCH  34  35
ATOM     35  C   UNL A   1      33.237  34.643  28.655  1.00  0.00     0.338 C 
ATOM     36  O   UNL A   1      32.441  35.462  29.064  1.00  0.00    -0.246 OA
BRANCH  35  37
ATOM     37  C   UNL A   1      34.419  34.178  29.413  1.00  0.00     0.060 A 
ATOM     38  C   UNL A   1      35.695  34.470  28.917  1.00  0.00     0.016 A 
ATOM     39  C   UNL A   1      34.267  33.436  30.586  1.00  0.00     0.016 A 
ATOM     40  C   UNL A   1      36.824  33.975  29.566  1.00  0.00     0.010 A 
ATOM     41  C   UNL A   1      35.400  32.925  31.226  1.00  0.00     0.010 A 
ATOM     42  C   UNL A   1      36.680  33.155  30.694  1.00  0.00    -0.014 A 
BRANCH  42  43
ATOM     43  C   UNL A   1      37.850  32.373  31.163  1.00  0.00     0.031 A 
ATOM     44  C   UNL A   1      38.344  32.598  32.568  1.00  0.00     0.074 A 
ATOM     45  C   UNL A   1      38.417  31.427  30.394  1.00  0.00     0.049 A 
ATOM     46  N   UNL A   1      39.303  31.993  33.219  1.00  0.00    -0.248 NA
ATOM     47  C   UNL A   1      37.656  33.645  33.341  1.00  0.00     0.031 C 
ATOM     48  C   UNL A   1      37.994  31.069  29.041  1.00  0.00     0.029 A 
ATOM     49  N   UNL A   1      39.464  30.580  30.658  1.00  0.00    -0.354 N 
ATOM     50  C   UNL A   1      39.332  32.584  34.478  1.00  0.00     0.074 A 
ATOM     51  C   UNL A   1      38.326  33.624  34.481  1.00  0.00     0.031 C 
ATOM     52  C   UNL A   1      38.766  30.061  28.599  1.00  0.00     0.029 A 
ATOM     53  C   UNL A   1      39.754  29.726  29.623  1.00  0.00     0.049 A 
ATOM     54  H   UNL A   1      39.961  30.585  31.508  1.00  0.00     0.167 HD
ATOM     55  C   UNL A   1      40.115  32.285  35.542  1.00  0.00     0.031 A 
ATOM     56  C   UNL A   1      40.711  28.784  29.516  1.00  0.00     0.031 A 
ATOM     57  C   UNL A   1      41.138  31.273  35.531  1.00  0.00     0.049 A 
ATOM     58  C   UNL A   1      41.643  28.543  30.675  1.00  0.00     0.074 A 
ATOM     59  C   UNL A   1      41.991  30.896  36.553  1.00  0.00     0.029 A 
ATOM     60  N   UNL A   1      41.457  30.487  34.434  1.00  0.00    -0.354 N 
ATOM     61  N   UNL A   1      41.648  29.092  31.866  1.00  0.00    -0.248 NA
ATOM     62  C   UNL A   1      42.697  27.537  30.473  1.00  0.00     0.031 C 
ATOM     63  C   UNL A   1      42.869  29.927  36.054  1.00  0.00     0.029 A 
ATOM     64  C   UNL A   1      42.512  29.647  34.745  1.00  0.00     0.049 A 
ATOM     65  H   UNL A   1      40.999  30.521  33.563  1.00  0.00     0.167 HD
ATOM     66  C   UNL A   1      42.676  28.472  32.567  1.00  0.00     0.074 A 
ATOM     67  C   UNL A   1      43.262  27.496  31.671  1.00  0.00     0.031 C 
ATOM     68  C   UNL A   1      43.092  28.684  33.841  1.00  0.00     0.031 A 
BRANCH  55  69
ATOM     69  C   UNL A   1      39.918  33.107  36.788  1.00  0.00    -0.014 A 
ATOM     70  C   UNL A   1      40.736  34.212  37.075  1.00  0.00     0.009 A 
ATOM     71  C   UNL A   1      38.903  32.763  37.694  1.00  0.00     0.009 A 
ATOM     72  C   UNL A   1      40.576  34.921  38.269  1.00  0.00     0.001 A 
ATOM     73  C   UNL A   1      38.722  33.496  38.869  1.00  0.00     0.001 A 
ATOM     74  C   UNL A   1      39.567  34.565  39.162  1.00  0.00     0.000 A 
ENDBRANCH  55  69
BRANCH  56  75
ATOM     75  C   UNL A   1      40.839  27.984  28.268  1.00  0.00    -0.014 A 
ATOM     76  C   UNL A   1      41.732  28.374  27.257  1.00  0.00     0.009 A 
ATOM     77  C   UNL A   1      40.052  26.839  28.070  1.00  0.00     0.009 A 
ATOM     78  C   UNL A   1      41.816  27.648  26.066  1.00  0.00     0.001 A 
ATOM     79  C   UNL A   1      40.161  26.098  26.892  1.00  0.00     0.001 A 
ATOM     80  C   UNL A   1      41.035  26.507  25.887  1.00  0.00     0.000 A 
ENDBRANCH  56  75
BRANCH  68  81
ATOM     81  C   UNL A   1      44.203  27.809  34.358  1.00  0.00    -0.014 A 
ATOM     82  C   UNL A   1      45.554  28.120  34.135  1.00  0.00     0.009 A 
ATOM     83  C   UNL A   1      43.888  26.659  35.100  1.00  0.00     0.009 A 
ATOM     84  C   UNL A   1      46.562  27.272  34.601  1.00  0.00     0.001 A 
ATOM     85  C   UNL A   1      44.897  25.833  35.598  1.00  0.00     0.001 A 
ATOM     86  C   UNL A   1      46.233  26.133  35.335  1.00  0.00     0.000 A 
ENDBRANCH  68  81
ENDBRANCH  42  43
ENDBRANCH  35  37
ENDBRANCH  34  35
ENDBRANCH  33  34
ENDBRANCH  32  33
ENDBRANCH  31  32
ENDBRANCH  30  31
ENDBRANCH  29  30
ENDBRANCH  28  29
ENDBRANCH   1  28
TORSDOF 24
ENDMDL
MODEL 3
REMARK VINA RESULT:      -8.3      5.506     10.299
REMARK SMILES Nc1nonc1C(=O)N1[C@@H]2CC[C@H]1C[C@H](CC(=O)OCCOCCOCCOCCOC(=O)c1ccc(-c3c4nc(c(-c5ccccc5)c5ccc([nH]5)c(-c5ccccc5)c5nc(c(-c6ccccc6)c6ccc3[nH]6)C=C5)C=C4)cc1)C2
REMARK SMILES IDX 24 1 23 2 22 3 21 4 20 5 19 6 17 7 18 8 16 9 15 10 9 11
REMARK SMILES IDX 10 12 13 13 11 14 82 15 12 16 14 17 7 18 8 19 6 20 2 21 3 22
REMARK SMILES IDX 4 23 5 24 1 25 25 28 26 29 27 30 28 31 29 32 30 33 31 34
REMARK SMILES IDX 32 35 33 36 34 37 35 38 81 39 36 40 80 41 37 42 38 43 39 44
REMARK SMILES IDX 74 45 40 46 79 47 73 48 75 49 41 50 78 51 72 52 71 53 42 55
REMARK SMILES IDX 64 56 49 57 63 58 50 59 53 60 62 61 76 62 51 63 52 64 61 66
REMARK SMILES IDX 77 67 54 68 43 69 44 70 48 71 45 72 47 73 46 74 65 75 66 76
REMARK SMILES IDX 70 77 67 78 69 79 68 80 55 81 56 82 60 83 57 84 59 85 58 86
REMARK H PARENT 1 26 1 27 75 54 53 65
REMARK Flexibility Score: inf
ROOT
ATOM      1  C   UNL A   1      39.623  35.255  35.186  1.00  0.00     0.188 C 
ENDROOT
BRANCH   1   2
ATOM      2  C   UNL A   1      39.395  34.979  36.677  1.00  0.00     0.188 C 
BRANCH   2   3
ATOM      3  O   UNL A   1      38.845  33.706  36.936  1.00  0.00    -0.376 OA
BRANCH   3   4
ATOM      4  C   UNL A   1      39.302  32.618  36.157  1.00  0.00     0.202 C 
BRANCH   4   5
ATOM      5  C   UNL A   1      38.366  31.435  35.844  1.00  0.00     0.261 C 
BRANCH   5   6
ATOM      6  O   UNL A   1      37.894  31.299  34.492  1.00  0.00    -0.463 OA
BRANCH   6   7
ATOM      7  C   UNL A   1      37.216  32.343  33.974  1.00  0.00     0.306 C 
ATOM      8  O   UNL A   1      36.243  32.860  34.512  1.00  0.00    -0.252 OA
BRANCH   7   9
ATOM      9  C   UNL A   1      37.734  32.842  32.634  1.00  0.00     0.126 C 
BRANCH   9  10
ATOM     10  C   UNL A   1      37.086  32.504  31.269  1.00  0.00     0.004 C 
ATOM     11  N   UNL A   1      34.972  33.703  29.832  1.00  0.00    -0.331 N 
ATOM     12  C   UNL A   1      36.260  33.755  29.176  1.00  0.00     0.086 C 
ATOM     13  C   UNL A   1      34.742  32.306  30.165  1.00  0.00     0.086 C 
ATOM     14  C   UNL A   1      36.322  32.482  28.324  1.00  0.00     0.027 C 
ATOM     15  C   UNL A   1      37.253  33.745  30.336  1.00  0.00     0.029 C 
ATOM     16  C   UNL A   1      35.225  31.577  28.898  1.00  0.00     0.027 C 
ATOM     17  C   UNL A   1      35.640  31.934  31.356  1.00  0.00     0.029 C 
BRANCH  11  18
ATOM     18  C   UNL A   1      33.991  34.635  29.534  1.00  0.00     0.280 C 
ATOM     19  O   UNL A   1      33.632  34.802  28.367  1.00  0.00    -0.267 OA
BRANCH  18  20
ATOM     20  C   UNL A   1      33.525  35.499  30.625  1.00  0.00     0.216 A 
ATOM     21  C   UNL A   1      33.258  36.895  30.696  1.00  0.00     0.201 A 
ATOM     22  N   UNL A   1      32.808  37.206  31.907  1.00  0.00    -0.032 NA
ATOM     23  O   UNL A   1      32.708  36.001  32.578  1.00  0.00    -0.242 OA
ATOM     24  N   UNL A   1      33.159  34.954  31.796  1.00  0.00    -0.042 NA
BRANCH  21  25
ATOM     25  N   UNL A   1      33.367  37.806  29.718  1.00  0.00    -0.379 N 
ATOM     26  H   UNL A   1      34.065  37.711  29.032  1.00  0.00     0.158 HD
ATOM     27  H   UNL A   1      32.747  38.571  29.688  1.00  0.00     0.158 HD
ENDBRANCH  21  25
ENDBRANCH  18  20
ENDBRANCH  11  18
ENDBRANCH   9  10
ENDBRANCH   7   9
ENDBRANCH   6   7
ENDBRANCH   5   6
ENDBRANCH   4   5
ENDBRANCH   3   4
ENDBRANCH   2   3
ENDBRANCH   1   2
BRANCH   1  28
ATOM     28  O   UNL A   1      40.890  35.692  34.701  1.00  0.00    -0.377 OA
BRANCH  28  29
ATOM     29  C   UNL A   1      41.595  36.710  35.407  1.00  0.00     0.188 C 
BRANCH  29  30
ATOM     30  C   UNL A   1      42.832  37.336  34.736  1.00  0.00     0.188 C 
BRANCH  30  31
ATOM     31  O   UNL A   1      42.617  38.654  34.260  1.00  0.00    -0.376 OA
BRANCH  31  32
ATOM     32  C   UNL A   1      43.712  39.557  34.333  1.00  0.00     0.202 C 
BRANCH  32  33
ATOM     33  C   UNL A   1      43.958  40.510  33.149  1.00  0.00     0.261 C 
BRANCH  33  34
ATOM     34  O   UNL A   1      43.314  40.181  31.905  1.00  0.00    -0.460 OA
BRANCH  34  35
ATOM     35  C   UNL A   1      44.102  39.870  30.854  1.00  0.00     0.338 C 
ATOM     36  O   UNL A   1      44.963  40.559  30.346  1.00  0.00    -0.246 OA
BRANCH  35  37
ATOM     37  C   UNL A   1      43.868  38.449  30.520  1.00  0.00     0.060 A 
ATOM     38  C   UNL A   1      44.203  37.471  31.465  1.00  0.00     0.016 A 
ATOM     39  C   UNL A   1      43.349  38.084  29.276  1.00  0.00     0.016 A 
ATOM     40  C   UNL A   1      44.069  36.121  31.147  1.00  0.00     0.010 A 
ATOM     41  C   UNL A   1      43.233  36.729  28.951  1.00  0.00     0.010 A 
ATOM     42  C   UNL A   1      43.634  35.742  29.869  1.00  0.00    -0.014 A 
BRANCH  42  43
ATOM     43  C   UNL A   1      43.817  34.335  29.440  1.00  0.00     0.031 A 
ATOM     44  C   UNL A   1      45.141  33.935  28.842  1.00  0.00     0.074 A 
ATOM     45  C   UNL A   1      42.865  33.408  29.646  1.00  0.00     0.049 A 
ATOM     46  N   UNL A   1      45.557  32.758  28.453  1.00  0.00    -0.248 NA
ATOM     47  C   UNL A   1      46.128  35.013  28.666  1.00  0.00     0.031 C 
ATOM     48  C   UNL A   1      41.567  33.652  30.271  1.00  0.00     0.029 A 
ATOM     49  N   UNL A   1      42.859  32.065  29.363  1.00  0.00    -0.354 N 
ATOM     50  C   UNL A   1      46.853  32.953  27.989  1.00  0.00     0.074 A 
ATOM     51  C   UNL A   1      47.135  34.367  28.102  1.00  0.00     0.031 C 
ATOM     52  C   UNL A   1      40.894  32.489  30.341  1.00  0.00     0.029 A 
ATOM     53  C   UNL A   1      41.701  31.429  29.738  1.00  0.00     0.049 A 
ATOM     54  H   UNL A   1      43.613  31.601  28.933  1.00  0.00     0.167 HD
ATOM     55  C   UNL A   1      47.736  32.040  27.519  1.00  0.00     0.031 A 
ATOM     56  C   UNL A   1      41.336  30.140  29.605  1.00  0.00     0.031 A 
ATOM     57  C   UNL A   1      47.446  30.638  27.375  1.00  0.00     0.049 A 
ATOM     58  C   UNL A   1      42.295  29.161  28.979  1.00  0.00     0.074 A 
ATOM     59  C   UNL A   1      48.268  29.630  26.903  1.00  0.00     0.029 A 
ATOM     60  N   UNL A   1      46.231  30.049  27.687  1.00  0.00    -0.354 N 
ATOM     61  N   UNL A   1      43.524  29.351  28.564  1.00  0.00    -0.248 NA
ATOM     62  C   UNL A   1      41.813  27.781  28.817  1.00  0.00     0.031 C 
ATOM     63  C   UNL A   1      47.528  28.442  26.870  1.00  0.00     0.029 A 
ATOM     64  C   UNL A   1      46.270  28.697  27.392  1.00  0.00     0.049 A 
ATOM     65  H   UNL A   1      45.454  30.522  28.064  1.00  0.00     0.167 HD
ATOM     66  C   UNL A   1      43.975  28.111  28.128  1.00  0.00     0.074 A 
ATOM     67  C   UNL A   1      42.892  27.174  28.345  1.00  0.00     0.031 C 
ATOM     68  C   UNL A   1      45.182  27.775  27.606  1.00  0.00     0.031 A 
BRANCH  55  69
ATOM     69  C   UNL A   1      49.082  32.553  27.082  1.00  0.00    -0.014 A 
ATOM     70  C   UNL A   1      50.268  32.131  27.705  1.00  0.00     0.009 A 
ATOM     71  C   UNL A   1      49.164  33.482  26.033  1.00  0.00     0.009 A 
ATOM     72  C   UNL A   1      51.500  32.669  27.324  1.00  0.00     0.001 A 
ATOM     73  C   UNL A   1      50.400  33.992  25.630  1.00  0.00     0.001 A 
ATOM     74  C   UNL A   1      51.565  33.595  26.286  1.00  0.00     0.000 A 
ENDBRANCH  55  69
BRANCH  56  75
ATOM     75  C   UNL A   1      40.001  29.687  30.082  1.00  0.00    -0.014 A 
ATOM     76  C   UNL A   1      39.816  29.290  31.416  1.00  0.00     0.009 A 
ATOM     77  C   UNL A   1      38.910  29.628  29.202  1.00  0.00     0.009 A 
ATOM     78  C   UNL A   1      38.574  28.820  31.850  1.00  0.00     0.001 A 
ATOM     79  C   UNL A   1      37.662  29.187  29.646  1.00  0.00     0.001 A 
ATOM     80  C   UNL A   1      37.497  28.774  30.967  1.00  0.00     0.000 A 
ENDBRANCH  56  75
BRANCH  68  81
ATOM     81  C   UNL A   1      45.411  26.323  27.279  1.00  0.00    -0.014 A 
ATOM     82  C   UNL A   1      45.919  25.422  28.229  1.00  0.00     0.009 A 
ATOM     83  C   UNL A   1      45.092  25.845  25.997  1.00  0.00     0.009 A 
ATOM     84  C   UNL A   1      46.149  24.087  27.886  1.00  0.00     0.001 A 
ATOM     85  C   UNL A   1      45.288  24.503  25.668  1.00  0.00     0.001 A 
ATOM     86  C   UNL A   1      45.830  23.628  26.609  1.00  0.00     0.000 A 
ENDBRANCH  68  81
ENDBRANCH  42  43
ENDBRANCH  35  37
ENDBRANCH  34  35
ENDBRANCH  33  34
ENDBRANCH  32  33
ENDBRANCH  31  32
ENDBRANCH  30  31
ENDBRANCH  29  30
ENDBRANCH  28  29
ENDBRANCH   1  28
TORSDOF 24
ENDMDL
