MODEL 1
REMARK VINA RESULT:      -9.8      0.000      0.000
REMARK SMILES O=C(OCCOCCOCCOCCOC(=O)[C@@H]1CN(C(=O)[C@H]2CC=CCC2)c2ccccc2O1)c1ccc(-c2c3nc(c(-c4ccccc4)c4ccc([nH]4)c(-c4ccccc4)c4nc(c(-c5ccccc5)c5ccc2[nH]5)C=C4)C=C3)cc1
REMARK SMILES IDX 9 1 8 2 7 3 6 4 5 5 4 6 3 7 2 8 1 9 36 10 37 11 83 12 38 13
REMARK SMILES IDX 82 14 39 15 40 16 41 17 76 18 42 19 81 20 75 21 77 22 43 23
REMARK SMILES IDX 80 24 74 25 73 26 44 28 66 29 51 30 65 31 52 32 55 33 64 34
REMARK SMILES IDX 78 35 53 36 54 37 63 39 79 40 56 41 45 42 46 43 50 44 47 45
REMARK SMILES IDX 49 46 48 47 67 48 68 49 72 50 69 51 71 52 70 53 57 54 58 55
REMARK SMILES IDX 62 56 59 57 61 58 60 59 10 60 11 61 12 62 13 63 14 64 15 65
REMARK SMILES IDX 16 66 17 67 18 68 19 69 35 70 20 71 34 72 29 73 33 74 30 75
REMARK SMILES IDX 32 76 31 77 21 78 22 79 23 80 24 81 28 82 25 83 27 84 26 85
REMARK H PARENT 77 27 55 38
REMARK Flexibility Score: inf
ROOT
ATOM      1  O   UNL A   1      37.607  22.162  25.135  1.00  0.00    -0.377 OA
ENDROOT
BRANCH   1   2
ATOM      2  C   UNL A   1      38.544  21.253  25.711  1.00  0.00     0.188 C 
BRANCH   2   3
ATOM      3  C   UNL A   1      39.749  21.890  26.405  1.00  0.00     0.188 C 
BRANCH   3   4
ATOM      4  O   UNL A   1      40.999  21.478  25.849  1.00  0.00    -0.376 OA
BRANCH   4   5
ATOM      5  C   UNL A   1      42.086  22.394  26.017  1.00  0.00     0.202 C 
BRANCH   5   6
ATOM      6  C   UNL A   1      41.712  23.697  26.719  1.00  0.00     0.261 C 
BRANCH   6   7
ATOM      7  O   UNL A   1      41.375  24.751  25.809  1.00  0.00    -0.460 OA
BRANCH   7   8
ATOM      8  C   UNL A   1      41.476  26.090  25.992  1.00  0.00     0.338 C 
ATOM      9  O   UNL A   1      41.639  26.798  24.998  1.00  0.00    -0.246 OA
BRANCH   8  10
ATOM     10  C   UNL A   1      41.388  26.779  27.318  1.00  0.00     0.060 A 
ATOM     11  C   UNL A   1      40.491  26.475  28.343  1.00  0.00     0.016 A 
ATOM     12  C   UNL A   1      42.346  27.777  27.568  1.00  0.00     0.016 A 
ATOM     13  C   UNL A   1      40.503  27.144  29.553  1.00  0.00     0.010 A 
ATOM     14  C   UNL A   1      42.370  28.466  28.782  1.00  0.00     0.010 A 
ATOM     15  C   UNL A   1      41.421  28.163  29.763  1.00  0.00    -0.014 A 
BRANCH  15  16
ATOM     16  C   UNL A   1      41.174  29.037  30.915  1.00  0.00     0.031 A 
ATOM     17  C   UNL A   1      40.015  29.980  30.815  1.00  0.00     0.074 A 
ATOM     18  C   UNL A   1      41.841  28.837  32.063  1.00  0.00     0.049 A 
ATOM     19  N   UNL A   1      39.603  30.881  31.662  1.00  0.00    -0.248 NA
ATOM     20  C   UNL A   1      39.190  29.876  29.595  1.00  0.00     0.031 C 
ATOM     21  C   UNL A   1      42.850  27.798  32.287  1.00  0.00     0.029 A 
ATOM     22  N   UNL A   1      41.740  29.471  33.270  1.00  0.00    -0.354 N 
ATOM     23  C   UNL A   1      38.501  31.475  31.061  1.00  0.00     0.074 A 
ATOM     24  C   UNL A   1      38.304  30.840  29.781  1.00  0.00     0.031 C 
ATOM     25  C   UNL A   1      43.268  27.862  33.563  1.00  0.00     0.029 A 
ATOM     26  C   UNL A   1      42.615  28.991  34.212  1.00  0.00     0.049 A 
ATOM     27  H   UNL A   1      41.102  30.201  33.444  1.00  0.00     0.167 HD
ATOM     28  C   UNL A   1      37.733  32.476  31.544  1.00  0.00     0.031 A 
ATOM     29  C   UNL A   1      42.880  29.461  35.444  1.00  0.00     0.031 A 
ATOM     30  C   UNL A   1      37.978  33.090  32.818  1.00  0.00     0.049 A 
ATOM     31  C   UNL A   1      42.114  30.676  35.898  1.00  0.00     0.074 A 
ATOM     32  C   UNL A   1      37.347  34.171  33.398  1.00  0.00     0.029 A 
ATOM     33  N   UNL A   1      38.952  32.657  33.711  1.00  0.00    -0.354 N 
ATOM     34  N   UNL A   1      41.136  31.310  35.291  1.00  0.00    -0.248 NA
ATOM     35  C   UNL A   1      42.495  31.248  37.193  1.00  0.00     0.031 C 
ATOM     36  C   UNL A   1      37.980  34.428  34.619  1.00  0.00     0.029 A 
ATOM     37  C   UNL A   1      38.956  33.463  34.831  1.00  0.00     0.049 A 
ATOM     38  H   UNL A   1      39.551  31.889  33.565  1.00  0.00     0.167 HD
ATOM     39  C   UNL A   1      40.768  32.344  36.139  1.00  0.00     0.074 A 
ATOM     40  C   UNL A   1      41.616  32.233  37.312  1.00  0.00     0.031 C 
ATOM     41  C   UNL A   1      39.821  33.301  35.973  1.00  0.00     0.031 A 
BRANCH  28  42
ATOM     42  C   UNL A   1      36.656  33.004  30.641  1.00  0.00    -0.014 A 
ATOM     43  C   UNL A   1      35.309  32.637  30.796  1.00  0.00     0.009 A 
ATOM     44  C   UNL A   1      37.010  33.839  29.570  1.00  0.00     0.009 A 
ATOM     45  C   UNL A   1      34.350  33.060  29.871  1.00  0.00     0.001 A 
ATOM     46  C   UNL A   1      36.045  34.285  28.666  1.00  0.00     0.001 A 
ATOM     47  C   UNL A   1      34.718  33.885  28.809  1.00  0.00     0.000 A 
ENDBRANCH  28  42
BRANCH  29  48
ATOM     48  C   UNL A   1      43.952  28.854  36.278  1.00  0.00    -0.014 A 
ATOM     49  C   UNL A   1      45.237  29.414  36.331  1.00  0.00     0.009 A 
ATOM     50  C   UNL A   1      43.701  27.680  37.011  1.00  0.00     0.009 A 
ATOM     51  C   UNL A   1      46.251  28.796  37.070  1.00  0.00     0.001 A 
ATOM     52  C   UNL A   1      44.706  27.083  37.775  1.00  0.00     0.001 A 
ATOM     53  C   UNL A   1      45.985  27.634  37.793  1.00  0.00     0.000 A 
ENDBRANCH  29  48
BRANCH  41  54
ATOM     54  C   UNL A   1      39.632  34.263  37.109  1.00  0.00    -0.014 A 
ATOM     55  C   UNL A   1      39.101  33.846  38.338  1.00  0.00     0.009 A 
ATOM     56  C   UNL A   1      40.045  35.595  36.954  1.00  0.00     0.009 A 
ATOM     57  C   UNL A   1      38.956  34.757  39.383  1.00  0.00     0.001 A 
ATOM     58  C   UNL A   1      39.933  36.494  38.012  1.00  0.00     0.001 A 
ATOM     59  C   UNL A   1      39.379  36.077  39.222  1.00  0.00     0.000 A 
ENDBRANCH  41  54
ENDBRANCH  15  16
ENDBRANCH   8  10
ENDBRANCH   7   8
ENDBRANCH   6   7
ENDBRANCH   5   6
ENDBRANCH   4   5
ENDBRANCH   3   4
ENDBRANCH   2   3
ENDBRANCH   1   2
BRANCH   1  60
ATOM     60  C   UNL A   1      36.241  21.887  25.395  1.00  0.00     0.188 C 
BRANCH  60  61
ATOM     61  C   UNL A   1      35.300  23.037  25.809  1.00  0.00     0.188 C 
BRANCH  61  62
ATOM     62  O   UNL A   1      33.902  22.778  25.769  1.00  0.00    -0.376 OA
BRANCH  62  63
ATOM     63  C   UNL A   1      33.256  22.882  27.043  1.00  0.00     0.202 C 
BRANCH  63  64
ATOM     64  C   UNL A   1      31.836  23.472  26.962  1.00  0.00     0.261 C 
BRANCH  64  65
ATOM     65  O   UNL A   1      31.800  24.879  26.663  1.00  0.00    -0.460 OA
BRANCH  65  66
ATOM     66  C   UNL A   1      30.694  25.320  26.002  1.00  0.00     0.349 C 
ATOM     67  O   UNL A   1      29.769  25.888  26.555  1.00  0.00    -0.248 OA
BRANCH  66  68
ATOM     68  C   UNL A   1      30.878  25.160  24.472  1.00  0.00     0.302 C 
ATOM     69  C   UNL A   1      32.208  25.783  24.030  1.00  0.00     0.183 C 
ATOM     70  O   UNL A   1      29.843  25.601  23.629  1.00  0.00    -0.475 OA
ATOM     71  N   UNL A   1      32.211  27.233  24.202  1.00  0.00    -0.304 N 
ATOM     72  C   UNL A   1      29.822  26.966  23.540  1.00  0.00     0.144 A 
ATOM     73  C   UNL A   1      30.908  27.813  23.882  1.00  0.00     0.086 A 
ATOM     74  C   UNL A   1      28.578  27.447  23.130  1.00  0.00     0.049 A 
ATOM     75  C   UNL A   1      30.634  29.181  23.885  1.00  0.00     0.030 A 
ATOM     76  C   UNL A   1      28.342  28.808  23.141  1.00  0.00     0.004 A 
ATOM     77  C   UNL A   1      29.361  29.668  23.540  1.00  0.00     0.002 A 
BRANCH  71  78
ATOM     78  C   UNL A   1      33.272  27.949  24.767  1.00  0.00     0.230 C 
ATOM     79  O   UNL A   1      34.168  28.446  24.068  1.00  0.00    -0.274 OA
BRANCH  78  80
ATOM     80  C   UNL A   1      33.510  28.102  26.310  1.00  0.00     0.083 C 
ATOM     81  C   UNL A   1      34.753  28.754  26.931  1.00  0.00     0.040 C 
ATOM     82  C   UNL A   1      32.243  28.559  27.037  1.00  0.00     0.018 C 
ATOM     83  C   UNL A   1      34.565  30.180  27.388  1.00  0.00    -0.030 C 
ATOM     84  C   UNL A   1      32.091  30.078  27.058  1.00  0.00     0.028 C 
ATOM     85  C   UNL A   1      33.367  30.783  27.415  1.00  0.00    -0.031 C 
ENDBRANCH  78  80
ENDBRANCH  71  78
ENDBRANCH  66  68
ENDBRANCH  65  66
ENDBRANCH  64  65
ENDBRANCH  63  64
ENDBRANCH  62  63
ENDBRANCH  61  62
ENDBRANCH  60  61
ENDBRANCH   1  60
TORSDOF 22
ENDMDL
MODEL 2
REMARK VINA RESULT:      -9.6      4.093      9.671
REMARK SMILES O=C(OCCOCCOCCOCCOC(=O)[C@@H]1CN(C(=O)[C@H]2CC=CCC2)c2ccccc2O1)c1ccc(-c2c3nc(c(-c4ccccc4)c4ccc([nH]4)c(-c4ccccc4)c4nc(c(-c5ccccc5)c5ccc2[nH]5)C=C4)C=C3)cc1
REMARK SMILES IDX 9 1 8 2 7 3 6 4 5 5 4 6 3 7 2 8 1 9 36 10 37 11 83 12 38 13
REMARK SMILES IDX 82 14 39 15 40 16 41 17 76 18 42 19 81 20 75 21 77 22 43 23
REMARK SMILES IDX 80 24 74 25 73 26 44 28 66 29 51 30 65 31 52 32 55 33 64 34
REMARK SMILES IDX 78 35 53 36 54 37 63 39 79 40 56 41 45 42 46 43 50 44 47 45
REMARK SMILES IDX 49 46 48 47 67 48 68 49 72 50 69 51 71 52 70 53 57 54 58 55
REMARK SMILES IDX 62 56 59 57 61 58 60 59 10 60 11 61 12 62 13 63 14 64 15 65
REMARK SMILES IDX 16 66 17 67 18 68 19 69 35 70 20 71 34 72 29 73 33 74 30 75
REMARK SMILES IDX 32 76 31 77 21 78 22 79 23 80 24 81 28 82 25 83 27 84 26 85
REMARK H PARENT 77 27 55 38
REMARK Flexibility Score: inf
ROOT
ATOM      1  O   UNL A   1      35.238  30.479  28.890  1.00  0.00    -0.377 OA
ENDROOT
BRANCH   1   2
ATOM      2  C   UNL A   1      35.550  31.771  29.410  1.00  0.00     0.188 C 
BRANCH   2   3
ATOM      3  C   UNL A   1      34.833  32.158  30.705  1.00  0.00     0.188 C 
BRANCH   3   4
ATOM      4  O   UNL A   1      34.536  33.553  30.786  1.00  0.00    -0.376 OA
BRANCH   4   5
ATOM      5  C   UNL A   1      34.274  34.057  32.100  1.00  0.00     0.202 C 
BRANCH   5   6
ATOM      6  C   UNL A   1      34.779  33.166  33.231  1.00  0.00     0.261 C 
BRANCH   6   7
ATOM      7  O   UNL A   1      36.127  33.458  33.621  1.00  0.00    -0.460 OA
BRANCH   7   8
ATOM      8  C   UNL A   1      37.119  32.594  33.945  1.00  0.00     0.338 C 
ATOM      9  O   UNL A   1      37.308  32.355  35.138  1.00  0.00    -0.246 OA
BRANCH   8  10
ATOM     10  C   UNL A   1      37.997  31.891  32.958  1.00  0.00     0.060 A 
ATOM     11  C   UNL A   1      38.577  30.633  33.125  1.00  0.00     0.016 A 
ATOM     12  C   UNL A   1      38.191  32.536  31.724  1.00  0.00     0.016 A 
ATOM     13  C   UNL A   1      39.349  30.043  32.143  1.00  0.00     0.010 A 
ATOM     14  C   UNL A   1      38.972  31.956  30.722  1.00  0.00     0.010 A 
ATOM     15  C   UNL A   1      39.575  30.717  30.952  1.00  0.00    -0.014 A 
BRANCH  15  16
ATOM     16  C   UNL A   1      40.649  30.196  30.099  1.00  0.00     0.031 A 
ATOM     17  C   UNL A   1      41.904  31.009  30.014  1.00  0.00     0.074 A 
ATOM     18  C   UNL A   1      40.563  28.953  29.597  1.00  0.00     0.049 A 
ATOM     19  N   UNL A   1      42.980  30.802  29.309  1.00  0.00    -0.248 NA
ATOM     20  C   UNL A   1      41.960  32.215  30.863  1.00  0.00     0.031 C 
ATOM     21  C   UNL A   1      39.445  28.029  29.809  1.00  0.00     0.029 A 
ATOM     22  N   UNL A   1      41.449  28.238  28.841  1.00  0.00    -0.354 N 
ATOM     23  C   UNL A   1      43.821  31.869  29.598  1.00  0.00     0.074 A 
ATOM     24  C   UNL A   1      43.137  32.724  30.538  1.00  0.00     0.031 C 
ATOM     25  C   UNL A   1      39.721  26.862  29.202  1.00  0.00     0.029 A 
ATOM     26  C   UNL A   1      40.991  26.990  28.500  1.00  0.00     0.049 A 
ATOM     27  H   UNL A   1      42.329  28.585  28.568  1.00  0.00     0.167 HD
ATOM     28  C   UNL A   1      45.054  32.110  29.103  1.00  0.00     0.031 A 
ATOM     29  C   UNL A   1      41.532  26.085  27.665  1.00  0.00     0.031 A 
ATOM     30  C   UNL A   1      45.688  31.240  28.155  1.00  0.00     0.049 A 
ATOM     31  C   UNL A   1      42.837  26.447  27.007  1.00  0.00     0.074 A 
ATOM     32  C   UNL A   1      46.889  31.399  27.496  1.00  0.00     0.029 A 
ATOM     33  N   UNL A   1      45.147  30.030  27.733  1.00  0.00    -0.354 N 
ATOM     34  N   UNL A   1      43.592  27.505  27.197  1.00  0.00    -0.248 NA
ATOM     35  C   UNL A   1      43.356  25.505  26.011  1.00  0.00     0.031 C 
ATOM     36  C   UNL A   1      47.048  30.311  26.630  1.00  0.00     0.029 A 
ATOM     37  C   UNL A   1      45.980  29.439  26.805  1.00  0.00     0.049 A 
ATOM     38  H   UNL A   1      44.296  29.651  28.051  1.00  0.00     0.167 HD
ATOM     39  C   UNL A   1      44.688  27.347  26.362  1.00  0.00     0.074 A 
ATOM     40  C   UNL A   1      44.505  26.077  25.682  1.00  0.00     0.031 C 
ATOM     41  C   UNL A   1      45.749  28.169  26.165  1.00  0.00     0.031 A 
BRANCH  28  42
ATOM     42  C   UNL A   1      45.710  33.399  29.508  1.00  0.00    -0.014 A 
ATOM     43  C   UNL A   1      46.545  33.487  30.634  1.00  0.00     0.009 A 
ATOM     44  C   UNL A   1      45.433  34.567  28.779  1.00  0.00     0.009 A 
ATOM     45  C   UNL A   1      47.050  34.724  31.045  1.00  0.00     0.001 A 
ATOM     46  C   UNL A   1      45.963  35.795  29.174  1.00  0.00     0.001 A 
ATOM     47  C   UNL A   1      46.761  35.875  30.313  1.00  0.00     0.000 A 
ENDBRANCH  28  42
BRANCH  29  48
ATOM     48  C   UNL A   1      40.816  24.820  27.344  1.00  0.00    -0.014 A 
ATOM     49  C   UNL A   1      39.682  24.817  26.519  1.00  0.00     0.009 A 
ATOM     50  C   UNL A   1      41.251  23.600  27.890  1.00  0.00     0.009 A 
ATOM     51  C   UNL A   1      38.983  23.629  26.276  1.00  0.00     0.001 A 
ATOM     52  C   UNL A   1      40.573  22.410  27.620  1.00  0.00     0.001 A 
ATOM     53  C   UNL A   1      39.430  22.428  26.824  1.00  0.00     0.000 A 
ENDBRANCH  29  48
BRANCH  41  54
ATOM     54  C   UNL A   1      46.806  27.685  25.216  1.00  0.00    -0.014 A 
ATOM     55  C   UNL A   1      47.795  26.779  25.623  1.00  0.00     0.009 A 
ATOM     56  C   UNL A   1      46.769  28.109  23.878  1.00  0.00     0.009 A 
ATOM     57  C   UNL A   1      48.752  26.330  24.713  1.00  0.00     0.001 A 
ATOM     58  C   UNL A   1      47.704  27.630  22.963  1.00  0.00     0.001 A 
ATOM     59  C   UNL A   1      48.700  26.751  23.383  1.00  0.00     0.000 A 
ENDBRANCH  41  54
ENDBRANCH  15  16
ENDBRANCH   8  10
ENDBRANCH   7   8
ENDBRANCH   6   7
ENDBRANCH   5   6
ENDBRANCH   4   5
ENDBRANCH   3   4
ENDBRANCH   2   3
ENDBRANCH   1   2
BRANCH   1  60
ATOM     60  C   UNL A   1      34.852  30.440  27.527  1.00  0.00     0.188 C 
BRANCH  60  61
ATOM     61  C   UNL A   1      33.355  30.471  27.160  1.00  0.00     0.188 C 
BRANCH  61  62
ATOM     62  O   UNL A   1      32.931  29.641  26.086  1.00  0.00    -0.376 OA
BRANCH  62  63
ATOM     63  C   UNL A   1      31.705  28.945  26.339  1.00  0.00     0.202 C 
BRANCH  63  64
ATOM     64  C   UNL A   1      31.913  27.514  26.868  1.00  0.00     0.261 C 
BRANCH  64  65
ATOM     65  O   UNL A   1      30.774  26.651  26.693  1.00  0.00    -0.460 OA
BRANCH  65  66
ATOM     66  C   UNL A   1      31.026  25.442  26.120  1.00  0.00     0.349 C 
ATOM     67  O   UNL A   1      31.631  24.549  26.686  1.00  0.00    -0.248 OA
BRANCH  66  68
ATOM     68  C   UNL A   1      30.286  25.320  24.764  1.00  0.00     0.302 C 
ATOM     69  C   UNL A   1      30.879  24.172  23.938  1.00  0.00     0.183 C 
ATOM     70  O   UNL A   1      30.170  26.471  23.965  1.00  0.00    -0.475 OA
ATOM     71  N   UNL A   1      32.252  24.453  23.528  1.00  0.00    -0.304 N 
ATOM     72  C   UNL A   1      31.355  26.772  23.353  1.00  0.00     0.144 A 
ATOM     73  C   UNL A   1      32.432  25.863  23.186  1.00  0.00     0.086 A 
ATOM     74  C   UNL A   1      31.419  28.110  22.961  1.00  0.00     0.049 A 
ATOM     75  C   UNL A   1      33.617  26.407  22.692  1.00  0.00     0.030 A 
ATOM     76  C   UNL A   1      32.607  28.616  22.471  1.00  0.00     0.004 A 
ATOM     77  C   UNL A   1      33.708  27.770  22.361  1.00  0.00     0.002 A 
BRANCH  71  78
ATOM     78  C   UNL A   1      33.298  23.527  23.618  1.00  0.00     0.230 C 
ATOM     79  O   UNL A   1      33.413  22.594  22.810  1.00  0.00    -0.274 OA
BRANCH  78  80
ATOM     80  C   UNL A   1      34.345  23.493  24.785  1.00  0.00     0.083 C 
ATOM     81  C   UNL A   1      34.415  22.390  25.851  1.00  0.00     0.040 C 
ATOM     82  C   UNL A   1      35.750  23.858  24.299  1.00  0.00     0.018 C 
ATOM     83  C   UNL A   1      35.477  21.344  25.619  1.00  0.00    -0.030 C 
ATOM     84  C   UNL A   1      36.522  22.654  23.766  1.00  0.00     0.028 C 
ATOM     85  C   UNL A   1      36.407  21.452  24.658  1.00  0.00    -0.031 C 
ENDBRANCH  78  80
ENDBRANCH  71  78
ENDBRANCH  66  68
ENDBRANCH  65  66
ENDBRANCH  64  65
ENDBRANCH  63  64
ENDBRANCH  62  63
ENDBRANCH  61  62
ENDBRANCH  60  61
ENDBRANCH   1  60
TORSDOF 22
ENDMDL
MODEL 3
REMARK VINA RESULT:      -9.5      4.158      7.410
REMARK SMILES O=C(OCCOCCOCCOCCOC(=O)[C@@H]1CN(C(=O)[C@H]2CC=CCC2)c2ccccc2O1)c1ccc(-c2c3nc(c(-c4ccccc4)c4ccc([nH]4)c(-c4ccccc4)c4nc(c(-c5ccccc5)c5ccc2[nH]5)C=C4)C=C3)cc1
REMARK SMILES IDX 9 1 8 2 7 3 6 4 5 5 4 6 3 7 2 8 1 9 36 10 37 11 83 12 38 13
REMARK SMILES IDX 82 14 39 15 40 16 41 17 76 18 42 19 81 20 75 21 77 22 43 23
REMARK SMILES IDX 80 24 74 25 73 26 44 28 66 29 51 30 65 31 52 32 55 33 64 34
REMARK SMILES IDX 78 35 53 36 54 37 63 39 79 40 56 41 45 42 46 43 50 44 47 45
REMARK SMILES IDX 49 46 48 47 67 48 68 49 72 50 69 51 71 52 70 53 57 54 58 55
REMARK SMILES IDX 62 56 59 57 61 58 60 59 10 60 11 61 12 62 13 63 14 64 15 65
REMARK SMILES IDX 16 66 17 67 18 68 19 69 35 70 20 71 34 72 29 73 33 74 30 75
REMARK SMILES IDX 32 76 31 77 21 78 22 79 23 80 24 81 28 82 25 83 27 84 26 85
REMARK H PARENT 77 27 55 38
REMARK Flexibility Score: inf
ROOT
ATOM      1  O   UNL A   1      38.264  22.125  25.126  1.00  0.00    -0.377 OA
ENDROOT
BRANCH   1   2
ATOM      2  C   UNL A   1      38.888  21.037  25.808  1.00  0.00     0.188 C 
BRANCH   2   3
ATOM      3  C   UNL A   1      40.279  21.318  26.378  1.00  0.00     0.188 C 
BRANCH   3   4
ATOM      4  O   UNL A   1      40.609  20.483  27.489  1.00  0.00    -0.376 OA
BRANCH   4   5
ATOM      5  C   UNL A   1      41.769  19.661  27.326  1.00  0.00     0.202 C 
BRANCH   5   6
ATOM      6  C   UNL A   1      42.206  19.464  25.877  1.00  0.00     0.261 C 
BRANCH   6   7
ATOM      7  O   UNL A   1      43.556  19.881  25.633  1.00  0.00    -0.460 OA
BRANCH   7   8
ATOM      8  C   UNL A   1      43.996  21.048  25.105  1.00  0.00     0.338 C 
ATOM      9  O   UNL A   1      44.635  21.002  24.053  1.00  0.00    -0.246 OA
BRANCH   8  10
ATOM     10  C   UNL A   1      43.752  22.400  25.699  1.00  0.00     0.060 A 
ATOM     11  C   UNL A   1      43.376  23.548  24.999  1.00  0.00     0.016 A 
ATOM     12  C   UNL A   1      43.843  22.494  27.098  1.00  0.00     0.016 A 
ATOM     13  C   UNL A   1      43.137  24.752  25.635  1.00  0.00     0.010 A 
ATOM     14  C   UNL A   1      43.610  23.704  27.757  1.00  0.00     0.010 A 
ATOM     15  C   UNL A   1      43.285  24.840  27.012  1.00  0.00    -0.014 A 
BRANCH  15  16
ATOM     16  C   UNL A   1      43.338  26.192  27.578  1.00  0.00     0.031 A 
ATOM     17  C   UNL A   1      44.684  26.844  27.653  1.00  0.00     0.074 A 
ATOM     18  C   UNL A   1      42.200  26.864  27.816  1.00  0.00     0.049 A 
ATOM     19  N   UNL A   1      45.017  28.006  28.141  1.00  0.00    -0.248 NA
ATOM     20  C   UNL A   1      45.811  26.086  27.076  1.00  0.00     0.031 C 
ATOM     21  C   UNL A   1      40.847  26.353  27.575  1.00  0.00     0.029 A 
ATOM     22  N   UNL A   1      42.000  28.137  28.274  1.00  0.00    -0.354 N 
ATOM     23  C   UNL A   1      46.392  28.099  27.966  1.00  0.00     0.074 A 
ATOM     24  C   UNL A   1      46.836  26.883  27.331  1.00  0.00     0.031 C 
ATOM     25  C   UNL A   1      39.957  27.313  27.880  1.00  0.00     0.029 A 
ATOM     26  C   UNL A   1      40.674  28.465  28.409  1.00  0.00     0.049 A 
ATOM     27  H   UNL A   1      42.736  28.756  28.487  1.00  0.00     0.167 HD
ATOM     28  C   UNL A   1      47.206  29.117  28.323  1.00  0.00     0.031 A 
ATOM     29  C   UNL A   1      40.121  29.565  28.951  1.00  0.00     0.031 A 
ATOM     30  C   UNL A   1      46.720  30.302  28.970  1.00  0.00     0.049 A 
ATOM     31  C   UNL A   1      41.058  30.618  29.481  1.00  0.00     0.074 A 
ATOM     32  C   UNL A   1      47.432  31.371  29.472  1.00  0.00     0.029 A 
ATOM     33  N   UNL A   1      45.374  30.561  29.201  1.00  0.00    -0.354 N 
ATOM     34  N   UNL A   1      42.369  30.667  29.412  1.00  0.00    -0.248 NA
ATOM     35  C   UNL A   1      40.446  31.754  30.175  1.00  0.00     0.031 C 
ATOM     36  C   UNL A   1      46.516  32.252  30.061  1.00  0.00     0.029 A 
ATOM     37  C   UNL A   1      45.231  31.765  29.859  1.00  0.00     0.049 A 
ATOM     38  H   UNL A   1      44.631  29.971  28.934  1.00  0.00     0.167 HD
ATOM     39  C   UNL A   1      42.740  31.850  30.033  1.00  0.00     0.074 A 
ATOM     40  C   UNL A   1      41.509  32.496  30.451  1.00  0.00     0.031 C 
ATOM     41  C   UNL A   1      43.978  32.362  30.246  1.00  0.00     0.031 A 
BRANCH  28  42
ATOM     42  C   UNL A   1      48.678  28.917  28.108  1.00  0.00    -0.014 A 
ATOM     43  C   UNL A   1      49.318  29.314  26.921  1.00  0.00     0.009 A 
ATOM     44  C   UNL A   1      49.431  28.259  29.094  1.00  0.00     0.009 A 
ATOM     45  C   UNL A   1      50.666  29.014  26.710  1.00  0.00     0.001 A 
ATOM     46  C   UNL A   1      50.785  27.988  28.893  1.00  0.00     0.001 A 
ATOM     47  C   UNL A   1      51.399  28.354  27.696  1.00  0.00     0.000 A 
ENDBRANCH  28  42
BRANCH  29  48
ATOM     48  C   UNL A   1      38.645  29.682  29.099  1.00  0.00    -0.014 A 
ATOM     49  C   UNL A   1      38.004  29.326  30.294  1.00  0.00     0.009 A 
ATOM     50  C   UNL A   1      37.858  30.129  28.023  1.00  0.00     0.009 A 
ATOM     51  C   UNL A   1      36.610  29.384  30.397  1.00  0.00     0.001 A 
ATOM     52  C   UNL A   1      36.469  30.218  28.138  1.00  0.00     0.001 A 
ATOM     53  C   UNL A   1      35.845  29.832  29.321  1.00  0.00     0.000 A 
ENDBRANCH  29  48
BRANCH  41  54
ATOM     54  C   UNL A   1      44.044  33.703  30.916  1.00  0.00    -0.014 A 
ATOM     55  C   UNL A   1      44.190  33.819  32.306  1.00  0.00     0.009 A 
ATOM     56  C   UNL A   1      44.013  34.864  30.128  1.00  0.00     0.009 A 
ATOM     57  C   UNL A   1      44.270  35.079  32.899  1.00  0.00     0.001 A 
ATOM     58  C   UNL A   1      44.131  36.120  30.720  1.00  0.00     0.001 A 
ATOM     59  C   UNL A   1      44.248  36.226  32.105  1.00  0.00     0.000 A 
ENDBRANCH  41  54
ENDBRANCH  15  16
ENDBRANCH   8  10
ENDBRANCH   7   8
ENDBRANCH   6   7
ENDBRANCH   5   6
ENDBRANCH   4   5
ENDBRANCH   3   4
ENDBRANCH   2   3
ENDBRANCH   1   2
BRANCH   1  60
ATOM     60  C   UNL A   1      36.922  21.913  24.726  1.00  0.00     0.188 C 
BRANCH  60  61
ATOM     61  C   UNL A   1      35.935  21.239  25.701  1.00  0.00     0.188 C 
BRANCH  61  62
ATOM     62  O   UNL A   1      34.968  20.360  25.143  1.00  0.00    -0.376 OA
BRANCH  62  63
ATOM     63  C   UNL A   1      33.780  20.227  25.933  1.00  0.00     0.202 C 
BRANCH  63  64
ATOM     64  C   UNL A   1      32.486  20.467  25.135  1.00  0.00     0.261 C 
BRANCH  64  65
ATOM     65  O   UNL A   1      31.794  21.679  25.489  1.00  0.00    -0.460 OA
BRANCH  65  66
ATOM     66  C   UNL A   1      31.740  22.638  24.524  1.00  0.00     0.349 C 
ATOM     67  O   UNL A   1      30.694  23.089  24.090  1.00  0.00    -0.248 OA
BRANCH  66  68
ATOM     68  C   UNL A   1      33.159  23.177  24.214  1.00  0.00     0.302 C 
ATOM     69  C   UNL A   1      33.566  24.227  25.255  1.00  0.00     0.183 C 
ATOM     70  O   UNL A   1      33.418  23.663  22.921  1.00  0.00    -0.475 OA
ATOM     71  N   UNL A   1      32.741  25.428  25.162  1.00  0.00    -0.304 N 
ATOM     72  C   UNL A   1      32.850  24.892  22.730  1.00  0.00     0.144 A 
ATOM     73  C   UNL A   1      32.426  25.756  23.773  1.00  0.00     0.086 A 
ATOM     74  C   UNL A   1      32.671  25.184  21.377  1.00  0.00     0.049 A 
ATOM     75  C   UNL A   1      31.717  26.889  23.374  1.00  0.00     0.030 A 
ATOM     76  C   UNL A   1      31.968  26.317  21.017  1.00  0.00     0.004 A 
ATOM     77  C   UNL A   1      31.473  27.152  22.015  1.00  0.00     0.002 A 
BRANCH  71  78
ATOM     78  C   UNL A   1      32.184  26.079  26.269  1.00  0.00     0.230 C 
ATOM     79  O   UNL A   1      31.095  25.731  26.749  1.00  0.00    -0.274 OA
BRANCH  78  80
ATOM     80  C   UNL A   1      32.794  27.360  26.937  1.00  0.00     0.083 C 
ATOM     81  C   UNL A   1      34.093  28.037  26.478  1.00  0.00     0.040 C 
ATOM     82  C   UNL A   1      31.721  28.408  27.243  1.00  0.00     0.018 C 
ATOM     83  C   UNL A   1      33.905  29.262  25.618  1.00  0.00    -0.030 C 
ATOM     84  C   UNL A   1      31.448  29.334  26.061  1.00  0.00     0.028 C 
ATOM     85  C   UNL A   1      32.706  29.826  25.408  1.00  0.00    -0.031 C 
ENDBRANCH  78  80
ENDBRANCH  71  78
ENDBRANCH  66  68
ENDBRANCH  65  66
ENDBRANCH  64  65
ENDBRANCH  63  64
ENDBRANCH  62  63
ENDBRANCH  61  62
ENDBRANCH  60  61
ENDBRANCH   1  60
TORSDOF 22
ENDMDL
