MODEL 1
REMARK VINA RESULT:     -10.0      0.000      0.000
REMARK SMILES CN(C)S(=O)(=O)c1ccc(-n2c(CCC(=O)OCCOCCOCCOCCOC(=O)c3ccc(-c4c5nc(c(-c6ccccc6)c6ccc([nH]6)c(-c6ccccc6)c6nc(c(-c7ccccc7)c7ccc4[nH]7)C=C6)C=C5)cc3)ccc2-c2ccc(F)cc2)cc1
REMARK SMILES IDX 21 1 20 2 19 3 18 4 17 5 15 6 16 7 14 8 13 9 12 10 11 11
REMARK SMILES IDX 82 12 80 13 81 14 10 15 7 16 8 17 91 18 9 19 90 20 4 21 5 22
REMARK SMILES IDX 6 23 2 24 1 25 3 26 83 27 84 28 89 29 85 30 88 31 86 32
REMARK SMILES IDX 87 33 22 34 23 35 24 36 25 37 26 38 27 39 28 40 29 41 30 42
REMARK SMILES IDX 31 43 32 44 33 45 79 46 34 47 78 48 35 49 36 50 37 51 72 52
REMARK SMILES IDX 38 53 77 54 71 55 73 56 39 57 76 58 70 59 69 60 40 62 62 63
REMARK SMILES IDX 47 64 61 65 48 66 51 67 60 68 74 69 49 70 50 71 59 73 75 74
REMARK SMILES IDX 52 75 41 76 42 77 46 78 43 79 45 80 44 81 63 82 64 83 68 84
REMARK SMILES IDX 65 85 67 86 66 87 53 88 54 89 58 90 55 91 57 92 56 93
REMARK H PARENT 73 61 51 72
REMARK Flexibility Score: inf
ROOT
ATOM      1  C   UNL A   1      31.706  21.586  25.255  1.00  0.00     0.188 C 
ENDROOT
BRANCH   1   2
ATOM      2  O   UNL A   1      32.693  22.767  25.193  1.00  0.00    -0.376 OA
BRANCH   2   3
ATOM      3  C   UNL A   1      33.322  24.507  25.939  1.00  0.00     0.202 C 
BRANCH   3   4
ATOM      4  C   UNL A   1      32.649  26.103  25.870  1.00  0.00     0.261 C 
BRANCH   4   5
ATOM      5  O   UNL A   1      33.189  27.151  26.731  1.00  0.00    -0.463 OA
BRANCH   5   6
ATOM      6  C   UNL A   1      33.453  28.352  26.141  1.00  0.00     0.306 C 
ATOM      7  O   UNL A   1      32.648  28.949  25.432  1.00  0.00    -0.252 OA
BRANCH   6   8
ATOM      8  C   UNL A   1      34.801  28.979  26.520  1.00  0.00     0.129 C 
BRANCH   8   9
ATOM      9  C   UNL A   1      34.937  29.913  27.734  1.00  0.00     0.066 C 
BRANCH   9  10
ATOM     10  C   UNL A   1      36.341  30.232  28.098  1.00  0.00     0.024 A 
ATOM     11  N   UNL A   1      36.750  31.340  28.836  1.00  0.00    -0.314 N 
ATOM     12  C   UNL A   1      38.115  31.145  29.141  1.00  0.00     0.053 A 
ATOM     13  C   UNL A   1      37.463  29.512  27.732  1.00  0.00     0.024 A 
ATOM     14  C   UNL A   1      38.566  30.081  28.379  1.00  0.00     0.029 A 
BRANCH  11  15
ATOM     15  C   UNL A   1      35.927  32.437  29.279  1.00  0.00     0.046 A 
ATOM     16  C   UNL A   1      33.692  34.961  30.583  1.00  0.00     0.082 A 
ATOM     17  C   UNL A   1      34.330  33.677  31.649  1.00  0.00     0.024 A 
ATOM     18  C   UNL A   1      34.097  34.994  28.832  1.00  0.00     0.024 A 
ATOM     19  C   UNL A   1      35.470  32.450  31.024  1.00  0.00     0.028 A 
ATOM     20  C   UNL A   1      35.260  33.750  28.173  1.00  0.00     0.028 A 
BRANCH  16  21
ATOM     21  S   UNL A   1      32.924  36.299  31.433  1.00  0.00     0.242 S 
ATOM     22  O   UNL A   1      31.832  35.718  32.226  1.00  0.00    -0.207 OA
ATOM     23  O   UNL A   1      32.678  37.302  30.455  1.00  0.00    -0.207 OA
BRANCH  21  24
ATOM     24  N   UNL A   1      34.078  36.885  32.550  1.00  0.00    -0.204 NA
ATOM     25  C   UNL A   1      33.985  38.360  32.719  1.00  0.00     0.124 C 
ATOM     26  C   UNL A   1      34.094  36.225  33.877  1.00  0.00     0.124 C 
ENDBRANCH  21  24
ENDBRANCH  16  21
ENDBRANCH  11  15
BRANCH  12  27
ATOM     27  C   UNL A   1      38.913  31.840  30.163  1.00  0.00    -0.001 A 
ATOM     28  C   UNL A   1      39.021  31.312  31.461  1.00  0.00     0.013 A 
ATOM     29  C   UNL A   1      39.576  33.040  29.862  1.00  0.00     0.013 A 
ATOM     30  C   UNL A   1      39.840  31.932  32.410  1.00  0.00     0.040 A 
ATOM     31  C   UNL A   1      40.408  33.649  30.806  1.00  0.00     0.040 A 
ATOM     32  C   UNL A   1      40.538  33.085  32.068  1.00  0.00     0.123 A 
ATOM     33  F   UNL A   1      41.349  33.658  32.967  1.00  0.00    -0.207 F 
ENDBRANCH  12  27
ENDBRANCH   9  10
ENDBRANCH   8   9
ENDBRANCH   6   8
ENDBRANCH   5   6
ENDBRANCH   4   5
ENDBRANCH   3   4
ENDBRANCH   2   3
ENDBRANCH   1   2
BRANCH   1  34
ATOM     34  C   UNL A   1      32.410  20.272  24.893  1.00  0.00     0.188 C 
BRANCH  34  35
ATOM     35  O   UNL A   1      33.689  20.015  25.466  1.00  0.00    -0.377 OA
BRANCH  35  36
ATOM     36  C   UNL A   1      34.834  20.074  24.635  1.00  0.00     0.188 C 
BRANCH  36  37
ATOM     37  C   UNL A   1      35.900  21.122  24.964  1.00  0.00     0.188 C 
BRANCH  37  38
ATOM     38  O   UNL A   1      37.237  20.771  25.283  1.00  0.00    -0.376 OA
BRANCH  38  39
ATOM     39  C   UNL A   1      38.258  21.740  25.447  1.00  0.00     0.202 C 
BRANCH  39  40
ATOM     40  C   UNL A   1      39.489  21.482  26.315  1.00  0.00     0.261 C 
BRANCH  40  41
ATOM     41  O   UNL A   1      40.682  21.234  25.587  1.00  0.00    -0.460 OA
BRANCH  41  42
ATOM     42  C   UNL A   1      41.785  21.580  26.272  1.00  0.00     0.338 C 
ATOM     43  O   UNL A   1      42.329  20.957  27.173  1.00  0.00    -0.246 OA
BRANCH  42  44
ATOM     44  C   UNL A   1      42.179  22.954  25.946  1.00  0.00     0.060 A 
ATOM     45  C   UNL A   1      43.563  23.103  25.798  1.00  0.00     0.016 A 
ATOM     46  C   UNL A   1      41.400  23.878  26.649  1.00  0.00     0.016 A 
ATOM     47  C   UNL A   1      44.204  23.965  26.657  1.00  0.00     0.010 A 
ATOM     48  C   UNL A   1      42.041  24.680  27.563  1.00  0.00     0.010 A 
ATOM     49  C   UNL A   1      43.440  24.673  27.597  1.00  0.00    -0.014 A 
BRANCH  49  50
ATOM     50  C   UNL A   1      44.158  25.581  28.492  1.00  0.00     0.031 A 
ATOM     51  C   UNL A   1      44.221  24.949  29.876  1.00  0.00     0.074 A 
ATOM     52  C   UNL A   1      44.499  26.810  27.996  1.00  0.00     0.049 A 
ATOM     53  N   UNL A   1      44.091  25.513  31.030  1.00  0.00    -0.248 NA
ATOM     54  C   UNL A   1      44.306  23.464  30.004  1.00  0.00     0.031 C 
ATOM     55  C   UNL A   1      44.382  27.221  26.574  1.00  0.00     0.029 A 
ATOM     56  N   UNL A   1      44.994  27.965  28.566  1.00  0.00    -0.354 N 
ATOM     57  C   UNL A   1      44.248  24.510  32.003  1.00  0.00     0.074 A 
ATOM     58  C   UNL A   1      44.228  23.258  31.318  1.00  0.00     0.031 C 
ATOM     59  C   UNL A   1      44.717  28.523  26.416  1.00  0.00     0.029 A 
ATOM     60  C   UNL A   1      45.078  29.090  27.703  1.00  0.00     0.049 A 
ATOM     61  H   UNL A   1      45.272  28.006  29.510  1.00  0.00     0.167 HD
ATOM     62  C   UNL A   1      44.571  24.791  33.296  1.00  0.00     0.031 A 
ATOM     63  C   UNL A   1      45.360  30.395  28.016  1.00  0.00     0.031 A 
ATOM     64  C   UNL A   1      44.590  26.202  33.496  1.00  0.00     0.049 A 
ATOM     65  C   UNL A   1      45.682  30.397  29.449  1.00  0.00     0.074 A 
ATOM     66  C   UNL A   1      43.602  27.152  33.473  1.00  0.00     0.029 A 
ATOM     67  N   UNL A   1      45.808  26.809  33.299  1.00  0.00    -0.354 N 
ATOM     68  N   UNL A   1      46.792  29.972  29.967  1.00  0.00    -0.248 NA
ATOM     69  C   UNL A   1      44.655  30.851  30.398  1.00  0.00     0.031 C 
ATOM     70  C   UNL A   1      44.201  28.217  32.764  1.00  0.00     0.029 A 
ATOM     71  C   UNL A   1      45.570  27.969  32.613  1.00  0.00     0.049 A 
ATOM     72  H   UNL A   1      46.684  26.472  33.596  1.00  0.00     0.167 HD
ATOM     73  C   UNL A   1      46.423  29.738  31.268  1.00  0.00     0.074 A 
ATOM     74  C   UNL A   1      45.291  30.597  31.539  1.00  0.00     0.031 C 
ATOM     75  C   UNL A   1      46.637  28.510  31.807  1.00  0.00     0.031 A 
BRANCH  62  76
ATOM     76  C   UNL A   1      45.219  23.919  34.329  1.00  0.00    -0.014 A 
ATOM     77  C   UNL A   1      46.626  24.003  34.443  1.00  0.00     0.009 A 
ATOM     78  C   UNL A   1      44.589  22.822  34.925  1.00  0.00     0.009 A 
ATOM     79  C   UNL A   1      47.376  22.968  35.000  1.00  0.00     0.001 A 
ATOM     80  C   UNL A   1      45.340  21.804  35.525  1.00  0.00     0.001 A 
ATOM     81  C   UNL A   1      46.731  21.858  35.525  1.00  0.00     0.000 A 
ENDBRANCH  62  76
BRANCH  63  82
ATOM     82  C   UNL A   1      45.357  31.762  27.367  1.00  0.00    -0.014 A 
ATOM     83  C   UNL A   1      46.299  32.774  27.550  1.00  0.00     0.009 A 
ATOM     84  C   UNL A   1      44.299  32.080  26.463  1.00  0.00     0.009 A 
ATOM     85  C   UNL A   1      46.222  33.983  26.818  1.00  0.00     0.001 A 
ATOM     86  C   UNL A   1      44.238  33.252  25.706  1.00  0.00     0.001 A 
ATOM     87  C   UNL A   1      45.214  34.209  25.878  1.00  0.00     0.000 A 
ENDBRANCH  63  82
BRANCH  75  88
ATOM     88  C   UNL A   1      47.751  27.704  31.157  1.00  0.00    -0.014 A 
ATOM     89  C   UNL A   1      47.448  26.496  30.508  1.00  0.00     0.009 A 
ATOM     90  C   UNL A   1      49.111  28.040  31.278  1.00  0.00     0.009 A 
ATOM     91  C   UNL A   1      48.457  25.650  30.024  1.00  0.00     0.001 A 
ATOM     92  C   UNL A   1      50.126  27.194  30.799  1.00  0.00     0.001 A 
ATOM     93  C   UNL A   1      49.796  25.997  30.173  1.00  0.00     0.000 A 
ENDBRANCH  75  88
ENDBRANCH  49  50
ENDBRANCH  42  44
ENDBRANCH  41  42
ENDBRANCH  40  41
ENDBRANCH  39  40
ENDBRANCH  38  39
ENDBRANCH  37  38
ENDBRANCH  36  37
ENDBRANCH  35  36
ENDBRANCH  34  35
ENDBRANCH   1  34
TORSDOF 26
ENDMDL
MODEL 2
REMARK VINA RESULT:      -8.5      6.229     13.435
REMARK SMILES CN(C)S(=O)(=O)c1ccc(-n2c(CCC(=O)OCCOCCOCCOCCOC(=O)c3ccc(-c4c5nc(c(-c6ccccc6)c6ccc([nH]6)c(-c6ccccc6)c6nc(c(-c7ccccc7)c7ccc4[nH]7)C=C6)C=C5)cc3)ccc2-c2ccc(F)cc2)cc1
REMARK SMILES IDX 21 1 20 2 19 3 18 4 17 5 15 6 16 7 14 8 13 9 12 10 11 11
REMARK SMILES IDX 82 12 80 13 81 14 10 15 7 16 8 17 91 18 9 19 90 20 4 21 5 22
REMARK SMILES IDX 6 23 2 24 1 25 3 26 83 27 84 28 89 29 85 30 88 31 86 32
REMARK SMILES IDX 87 33 22 34 23 35 24 36 25 37 26 38 27 39 28 40 29 41 30 42
REMARK SMILES IDX 31 43 32 44 33 45 79 46 34 47 78 48 35 49 36 50 37 51 72 52
REMARK SMILES IDX 38 53 77 54 71 55 73 56 39 57 76 58 70 59 69 60 40 62 62 63
REMARK SMILES IDX 47 64 61 65 48 66 51 67 60 68 74 69 49 70 50 71 59 73 75 74
REMARK SMILES IDX 52 75 41 76 42 77 46 78 43 79 45 80 44 81 63 82 64 83 68 84
REMARK SMILES IDX 65 85 67 86 66 87 53 88 54 89 58 90 55 91 57 92 56 93
REMARK H PARENT 73 61 51 72
REMARK Flexibility Score: inf
ROOT
ATOM      1  C   UNL A   1      51.555  37.988  28.673  1.00  0.00     0.188 C 
ENDROOT
BRANCH   1   2
ATOM      2  O   UNL A   1      50.496  36.912  28.369  1.00  0.00    -0.376 OA
BRANCH   2   3
ATOM      3  C   UNL A   1      49.113  36.180  27.130  1.00  0.00     0.202 C 
BRANCH   3   4
ATOM      4  C   UNL A   1      48.298  34.651  27.085  1.00  0.00     0.261 C 
BRANCH   4   5
ATOM      5  O   UNL A   1      48.988  33.482  26.547  1.00  0.00    -0.463 OA
BRANCH   5   6
ATOM      6  C   UNL A   1      48.470  32.263  26.873  1.00  0.00     0.306 C 
ATOM      7  O   UNL A   1      49.024  31.200  26.606  1.00  0.00    -0.252 OA
BRANCH   6   8
ATOM      8  C   UNL A   1      47.186  32.305  27.710  1.00  0.00     0.129 C 
BRANCH   8   9
ATOM      9  C   UNL A   1      46.853  31.197  28.723  1.00  0.00     0.066 C 
BRANCH   9  10
ATOM     10  C   UNL A   1      46.049  30.083  28.160  1.00  0.00     0.024 A 
ATOM     11  N   UNL A   1      46.262  28.729  28.411  1.00  0.00    -0.314 N 
ATOM     12  C   UNL A   1      45.156  28.036  27.870  1.00  0.00     0.053 A 
ATOM     13  C   UNL A   1      44.997  30.203  27.272  1.00  0.00     0.024 A 
ATOM     14  C   UNL A   1      44.443  28.930  27.090  1.00  0.00     0.029 A 
BRANCH  11  15
ATOM     15  C   UNL A   1      47.353  28.147  29.150  1.00  0.00     0.046 A 
ATOM     16  C   UNL A   1      50.018  26.911  31.256  1.00  0.00     0.082 A 
ATOM     17  C   UNL A   1      48.438  27.355  31.961  1.00  0.00     0.024 A 
ATOM     18  C   UNL A   1      50.339  27.124  29.500  1.00  0.00     0.024 A 
ATOM     19  C   UNL A   1      47.100  27.926  30.922  1.00  0.00     0.028 A 
ATOM     20  C   UNL A   1      48.985  27.704  28.421  1.00  0.00     0.028 A 
BRANCH  16  21
ATOM     21  S   UNL A   1      51.069  25.999  32.337  1.00  0.00     0.242 S 
ATOM     22  O   UNL A   1      51.060  26.708  33.623  1.00  0.00    -0.207 OA
ATOM     23  O   UNL A   1      52.277  25.776  31.621  1.00  0.00    -0.207 OA
BRANCH  21  24
ATOM     24  N   UNL A   1      50.296  24.497  32.604  1.00  0.00    -0.204 NA
ATOM     25  C   UNL A   1      51.262  23.366  32.580  1.00  0.00     0.124 C 
ATOM     26  C   UNL A   1      49.444  24.408  33.813  1.00  0.00     0.124 C 
ENDBRANCH  21  24
ENDBRANCH  16  21
ENDBRANCH  11  15
BRANCH  12  27
ATOM     27  C   UNL A   1      44.736  26.656  28.158  1.00  0.00    -0.001 A 
ATOM     28  C   UNL A   1      45.695  25.650  28.368  1.00  0.00     0.013 A 
ATOM     29  C   UNL A   1      43.375  26.319  28.224  1.00  0.00     0.013 A 
ATOM     30  C   UNL A   1      45.297  24.356  28.716  1.00  0.00     0.040 A 
ATOM     31  C   UNL A   1      42.978  25.030  28.589  1.00  0.00     0.040 A 
ATOM     32  C   UNL A   1      43.943  24.062  28.839  1.00  0.00     0.123 A 
ATOM     33  F   UNL A   1      43.564  22.832  29.206  1.00  0.00    -0.207 F 
ENDBRANCH  12  27
ENDBRANCH   9  10
ENDBRANCH   8   9
ENDBRANCH   6   8
ENDBRANCH   5   6
ENDBRANCH   4   5
ENDBRANCH   3   4
ENDBRANCH   2   3
ENDBRANCH   1   2
BRANCH   1  34
ATOM     34  C   UNL A   1      51.342  39.223  27.787  1.00  0.00     0.188 C 
BRANCH  34  35
ATOM     35  O   UNL A   1      50.007  39.663  27.559  1.00  0.00    -0.377 OA
BRANCH  35  36
ATOM     36  C   UNL A   1      49.222  40.067  28.666  1.00  0.00     0.188 C 
BRANCH  36  37
ATOM     37  C   UNL A   1      47.955  40.879  28.383  1.00  0.00     0.188 C 
BRANCH  37  38
ATOM     38  O   UNL A   1      46.743  40.273  27.963  1.00  0.00    -0.376 OA
BRANCH  38  39
ATOM     39  C   UNL A   1      46.691  39.342  26.895  1.00  0.00     0.202 C 
BRANCH  39  40
ATOM     40  C   UNL A   1      45.540  38.347  26.743  1.00  0.00     0.261 C 
BRANCH  40  41
ATOM     41  O   UNL A   1      45.726  37.122  27.435  1.00  0.00    -0.460 OA
BRANCH  41  42
ATOM     42  C   UNL A   1      44.564  36.528  27.753  1.00  0.00     0.338 C 
ATOM     43  O   UNL A   1      43.437  36.992  27.648  1.00  0.00    -0.246 OA
BRANCH  42  44
ATOM     44  C   UNL A   1      44.810  35.270  28.465  1.00  0.00     0.060 A 
ATOM     45  C   UNL A   1      44.359  34.148  27.759  1.00  0.00     0.016 A 
ATOM     46  C   UNL A   1      44.598  35.424  29.838  1.00  0.00     0.016 A 
ATOM     47  C   UNL A   1      43.389  33.374  28.352  1.00  0.00     0.010 A 
ATOM     48  C   UNL A   1      43.573  34.703  30.403  1.00  0.00     0.010 A 
ATOM     49  C   UNL A   1      42.939  33.722  29.634  1.00  0.00    -0.014 A 
BRANCH  49  50
ATOM     50  C   UNL A   1      41.907  32.872  30.231  1.00  0.00     0.031 A 
ATOM     51  C   UNL A   1      42.539  31.539  30.615  1.00  0.00     0.074 A 
ATOM     52  C   UNL A   1      40.622  33.340  30.214  1.00  0.00     0.049 A 
ATOM     53  N   UNL A   1      42.048  30.351  30.505  1.00  0.00    -0.248 NA
ATOM     54  C   UNL A   1      43.964  31.500  31.055  1.00  0.00     0.031 C 
ATOM     55  C   UNL A   1      40.217  34.714  29.826  1.00  0.00     0.029 A 
ATOM     56  N   UNL A   1      39.396  32.773  30.497  1.00  0.00    -0.354 N 
ATOM     57  C   UNL A   1      43.008  29.456  31.012  1.00  0.00     0.074 A 
ATOM     58  C   UNL A   1      44.213  30.199  31.194  1.00  0.00     0.031 C 
ATOM     59  C   UNL A   1      38.869  34.843  29.828  1.00  0.00     0.029 A 
ATOM     60  C   UNL A   1      38.263  33.580  30.209  1.00  0.00     0.049 A 
ATOM     61  H   UNL A   1      39.313  31.867  30.876  1.00  0.00     0.167 HD
ATOM     62  C   UNL A   1      42.688  28.198  31.423  1.00  0.00     0.031 A 
ATOM     63  C   UNL A   1      36.936  33.235  30.221  1.00  0.00     0.031 A 
ATOM     64  C   UNL A   1      41.318  27.928  31.142  1.00  0.00     0.049 A 
ATOM     65  C   UNL A   1      36.891  31.852  30.712  1.00  0.00     0.074 A 
ATOM     66  C   UNL A   1      40.626  27.785  29.966  1.00  0.00     0.029 A 
ATOM     67  N   UNL A   1      40.437  28.236  32.152  1.00  0.00    -0.354 N 
ATOM     68  N   UNL A   1      37.055  31.492  31.948  1.00  0.00    -0.248 NA
ATOM     69  C   UNL A   1      36.714  30.766  29.738  1.00  0.00     0.031 C 
ATOM     70  C   UNL A   1      39.434  28.503  30.209  1.00  0.00     0.029 A 
ATOM     71  C   UNL A   1      39.349  28.827  31.568  1.00  0.00     0.049 A 
ATOM     72  H   UNL A   1      40.564  28.063  33.112  1.00  0.00     0.167 HD
ATOM     73  C   UNL A   1      37.399  30.171  31.811  1.00  0.00     0.074 A 
ATOM     74  C   UNL A   1      36.837  29.723  30.555  1.00  0.00     0.031 C 
ATOM     75  C   UNL A   1      38.555  29.725  32.369  1.00  0.00     0.031 A 
BRANCH  62  76
ATOM     76  C   UNL A   1      43.406  27.296  32.381  1.00  0.00    -0.014 A 
ATOM     77  C   UNL A   1      44.169  26.246  31.818  1.00  0.00     0.009 A 
ATOM     78  C   UNL A   1      43.108  27.214  33.745  1.00  0.00     0.009 A 
ATOM     79  C   UNL A   1      44.493  25.104  32.551  1.00  0.00     0.001 A 
ATOM     80  C   UNL A   1      43.472  26.087  34.492  1.00  0.00     0.001 A 
ATOM     81  C   UNL A   1      44.126  25.019  33.886  1.00  0.00     0.000 A 
ENDBRANCH  62  76
BRANCH  63  82
ATOM     82  C   UNL A   1      35.594  33.807  29.820  1.00  0.00    -0.014 A 
ATOM     83  C   UNL A   1      34.626  34.338  30.672  1.00  0.00     0.009 A 
ATOM     84  C   UNL A   1      35.254  33.828  28.434  1.00  0.00     0.009 A 
ATOM     85  C   UNL A   1      33.440  34.916  30.158  1.00  0.00     0.001 A 
ATOM     86  C   UNL A   1      34.106  34.433  27.915  1.00  0.00     0.001 A 
ATOM     87  C   UNL A   1      33.194  34.991  28.785  1.00  0.00     0.000 A 
ENDBRANCH  63  82
BRANCH  75  88
ATOM     88  C   UNL A   1      39.061  30.543  33.547  1.00  0.00    -0.014 A 
ATOM     89  C   UNL A   1      38.366  30.510  34.767  1.00  0.00     0.009 A 
ATOM     90  C   UNL A   1      40.134  31.447  33.448  1.00  0.00     0.009 A 
ATOM     91  C   UNL A   1      38.711  31.356  35.831  1.00  0.00     0.001 A 
ATOM     92  C   UNL A   1      40.480  32.301  34.508  1.00  0.00     0.001 A 
ATOM     93  C   UNL A   1      39.765  32.255  35.701  1.00  0.00     0.000 A 
ENDBRANCH  75  88
ENDBRANCH  49  50
ENDBRANCH  42  44
ENDBRANCH  41  42
ENDBRANCH  40  41
ENDBRANCH  39  40
ENDBRANCH  38  39
ENDBRANCH  37  38
ENDBRANCH  36  37
ENDBRANCH  35  36
ENDBRANCH  34  35
ENDBRANCH   1  34
TORSDOF 26
ENDMDL
MODEL 3
REMARK VINA RESULT:      -8.4      7.871     12.541
REMARK SMILES CN(C)S(=O)(=O)c1ccc(-n2c(CCC(=O)OCCOCCOCCOCCOC(=O)c3ccc(-c4c5nc(c(-c6ccccc6)c6ccc([nH]6)c(-c6ccccc6)c6nc(c(-c7ccccc7)c7ccc4[nH]7)C=C6)C=C5)cc3)ccc2-c2ccc(F)cc2)cc1
REMARK SMILES IDX 21 1 20 2 19 3 18 4 17 5 15 6 16 7 14 8 13 9 12 10 11 11
REMARK SMILES IDX 82 12 80 13 81 14 10 15 7 16 8 17 91 18 9 19 90 20 4 21 5 22
REMARK SMILES IDX 6 23 2 24 1 25 3 26 83 27 84 28 89 29 85 30 88 31 86 32
REMARK SMILES IDX 87 33 22 34 23 35 24 36 25 37 26 38 27 39 28 40 29 41 30 42
REMARK SMILES IDX 31 43 32 44 33 45 79 46 34 47 78 48 35 49 36 50 37 51 72 52
REMARK SMILES IDX 38 53 77 54 71 55 73 56 39 57 76 58 70 59 69 60 40 62 62 63
REMARK SMILES IDX 47 64 61 65 48 66 51 67 60 68 74 69 49 70 50 71 59 73 75 74
REMARK SMILES IDX 52 75 41 76 42 77 46 78 43 79 45 80 44 81 63 82 64 83 68 84
REMARK SMILES IDX 65 85 67 86 66 87 53 88 54 89 58 90 55 91 57 92 56 93
REMARK H PARENT 73 61 51 72
REMARK Flexibility Score: inf
ROOT
ATOM      1  C   UNL A   1      40.321  30.190  32.110  1.00  0.00     0.188 C 
ENDROOT
BRANCH   1   2
ATOM      2  O   UNL A   1      41.210  30.343  30.862  1.00  0.00    -0.376 OA
BRANCH   2   3
ATOM      3  C   UNL A   1      42.201  29.487  29.357  1.00  0.00     0.202 C 
BRANCH   3   4
ATOM      4  C   UNL A   1      41.654  28.607  27.968  1.00  0.00     0.261 C 
BRANCH   4   5
ATOM      5  O   UNL A   1      40.427  29.017  27.291  1.00  0.00    -0.463 OA
BRANCH   5   6
ATOM      6  C   UNL A   1      39.254  28.729  27.924  1.00  0.00     0.306 C 
ATOM      7  O   UNL A   1      38.846  27.585  28.106  1.00  0.00    -0.252 OA
BRANCH   6   8
ATOM      8  C   UNL A   1      38.517  29.940  28.509  1.00  0.00     0.129 C 
BRANCH   8   9
ATOM      9  C   UNL A   1      37.274  29.770  29.398  1.00  0.00     0.066 C 
BRANCH   9  10
ATOM     10  C   UNL A   1      36.145  30.665  29.038  1.00  0.00     0.024 A 
ATOM     11  N   UNL A   1      35.842  31.872  29.665  1.00  0.00    -0.314 N 
ATOM     12  C   UNL A   1      34.848  32.499  28.881  1.00  0.00     0.053 A 
ATOM     13  C   UNL A   1      35.196  30.429  28.061  1.00  0.00     0.024 A 
ATOM     14  C   UNL A   1      34.388  31.568  27.965  1.00  0.00     0.029 A 
BRANCH  11  15
ATOM     15  C   UNL A   1      36.474  32.420  30.838  1.00  0.00     0.046 A 
ATOM     16  C   UNL A   1      37.744  33.830  33.914  1.00  0.00     0.082 A 
ATOM     17  C   UNL A   1      36.398  32.657  33.943  1.00  0.00     0.024 A 
ATOM     18  C   UNL A   1      38.457  34.380  32.359  1.00  0.00     0.024 A 
ATOM     19  C   UNL A   1      35.791  31.921  32.430  1.00  0.00     0.028 A 
ATOM     20  C   UNL A   1      37.853  33.641  30.802  1.00  0.00     0.028 A 
BRANCH  16  21
ATOM     21  S   UNL A   1      38.476  34.140  35.486  1.00  0.00     0.242 S 
ATOM     22  O   UNL A   1      37.419  33.934  36.486  1.00  0.00    -0.207 OA
ATOM     23  O   UNL A   1      39.155  35.384  35.371  1.00  0.00    -0.207 OA
BRANCH  21  24
ATOM     24  N   UNL A   1      39.627  32.900  35.733  1.00  0.00    -0.204 NA
ATOM     25  C   UNL A   1      38.982  31.611  36.101  1.00  0.00     0.124 C 
ATOM     26  C   UNL A   1      40.598  32.683  34.635  1.00  0.00     0.124 C 
ENDBRANCH  21  24
ENDBRANCH  16  21
ENDBRANCH  11  15
BRANCH  12  27
ATOM     27  C   UNL A   1      34.438  33.912  28.917  1.00  0.00    -0.001 A 
ATOM     28  C   UNL A   1      34.790  34.781  27.871  1.00  0.00     0.013 A 
ATOM     29  C   UNL A   1      33.693  34.415  29.995  1.00  0.00     0.013 A 
ATOM     30  C   UNL A   1      34.337  36.104  27.868  1.00  0.00     0.040 A 
ATOM     31  C   UNL A   1      33.225  35.732  29.984  1.00  0.00     0.040 A 
ATOM     32  C   UNL A   1      33.545  36.562  28.917  1.00  0.00     0.123 A 
ATOM     33  F   UNL A   1      33.083  37.818  28.896  1.00  0.00    -0.207 F 
ENDBRANCH  12  27
ENDBRANCH   9  10
ENDBRANCH   8   9
ENDBRANCH   6   8
ENDBRANCH   5   6
ENDBRANCH   4   5
ENDBRANCH   3   4
ENDBRANCH   2   3
ENDBRANCH   1   2
BRANCH   1  34
ATOM     34  C   UNL A   1      40.428  28.770  32.680  1.00  0.00     0.188 C 
BRANCH  34  35
ATOM     35  O   UNL A   1      40.313  28.602  34.090  1.00  0.00    -0.377 OA
BRANCH  35  36
ATOM     36  C   UNL A   1      41.491  28.604  34.877  1.00  0.00     0.188 C 
BRANCH  36  37
ATOM     37  C   UNL A   1      42.571  29.635  34.539  1.00  0.00     0.188 C 
BRANCH  37  38
ATOM     38  O   UNL A   1      43.934  29.446  34.882  1.00  0.00    -0.376 OA
BRANCH  38  39
ATOM     39  C   UNL A   1      44.471  29.872  36.123  1.00  0.00     0.202 C 
BRANCH  39  40
ATOM     40  C   UNL A   1      44.955  31.305  36.348  1.00  0.00     0.261 C 
BRANCH  40  41
ATOM     41  O   UNL A   1      43.981  32.304  36.084  1.00  0.00    -0.460 OA
BRANCH  41  42
ATOM     42  C   UNL A   1      44.514  33.534  36.008  1.00  0.00     0.338 C 
ATOM     43  O   UNL A   1      44.977  34.204  36.921  1.00  0.00    -0.246 OA
BRANCH  42  44
ATOM     44  C   UNL A   1      44.291  34.106  34.676  1.00  0.00     0.060 A 
ATOM     45  C   UNL A   1      45.468  34.581  34.084  1.00  0.00     0.016 A 
ATOM     46  C   UNL A   1      43.092  34.824  34.635  1.00  0.00     0.016 A 
ATOM     47  C   UNL A   1      45.528  35.922  33.781  1.00  0.00     0.010 A 
ATOM     48  C   UNL A   1      43.173  36.177  34.409  1.00  0.00     0.010 A 
ATOM     49  C   UNL A   1      44.406  36.723  34.039  1.00  0.00    -0.014 A 
BRANCH  49  50
ATOM     50  C   UNL A   1      44.509  38.144  33.701  1.00  0.00     0.031 A 
ATOM     51  C   UNL A   1      44.641  38.941  34.992  1.00  0.00     0.074 A 
ATOM     52  C   UNL A   1      44.342  38.489  32.388  1.00  0.00     0.049 A 
ATOM     53  N   UNL A   1      44.108  40.075  35.301  1.00  0.00    -0.248 NA
ATOM     54  C   UNL A   1      45.353  38.341  36.159  1.00  0.00     0.031 C 
ATOM     55  C   UNL A   1      44.266  37.533  31.255  1.00  0.00     0.029 A 
ATOM     56  N   UNL A   1      44.186  39.693  31.731  1.00  0.00    -0.354 N 
ATOM     57  C   UNL A   1      44.547  40.403  36.596  1.00  0.00     0.074 A 
ATOM     58  C   UNL A   1      45.181  39.240  37.126  1.00  0.00     0.031 C 
ATOM     59  C   UNL A   1      44.011  38.178  30.092  1.00  0.00     0.029 A 
ATOM     60  C   UNL A   1      43.891  39.602  30.344  1.00  0.00     0.049 A 
ATOM     61  H   UNL A   1      44.276  40.558  32.193  1.00  0.00     0.167 HD
ATOM     62  C   UNL A   1      44.519  41.677  37.076  1.00  0.00     0.031 A 
ATOM     63  C   UNL A   1      43.519  40.597  29.477  1.00  0.00     0.031 A 
ATOM     64  C   UNL A   1      43.883  42.537  36.134  1.00  0.00     0.049 A 
ATOM     65  C   UNL A   1      43.592  41.844  30.252  1.00  0.00     0.074 A 
ATOM     66  C   UNL A   1      42.592  42.616  35.678  1.00  0.00     0.029 A 
ATOM     67  N   UNL A   1      44.723  43.140  35.227  1.00  0.00    -0.354 N 
ATOM     68  N   UNL A   1      44.687  42.458  30.579  1.00  0.00    -0.248 NA
ATOM     69  C   UNL A   1      42.344  42.426  30.765  1.00  0.00     0.031 C 
ATOM     70  C   UNL A   1      42.757  42.811  34.289  1.00  0.00     0.029 A 
ATOM     71  C   UNL A   1      44.101  43.086  34.009  1.00  0.00     0.049 A 
ATOM     72  H   UNL A   1      45.603  43.536  35.418  1.00  0.00     0.167 HD
ATOM     73  C   UNL A   1      44.272  43.223  31.639  1.00  0.00     0.074 A 
ATOM     74  C   UNL A   1      42.851  43.434  31.468  1.00  0.00     0.031 C 
ATOM     75  C   UNL A   1      44.924  43.121  32.826  1.00  0.00     0.031 A 
BRANCH  62  76
ATOM     76  C   UNL A   1      45.325  42.301  38.175  1.00  0.00    -0.014 A 
ATOM     77  C   UNL A   1      44.622  42.700  39.335  1.00  0.00     0.009 A 
ATOM     78  C   UNL A   1      46.616  42.809  37.999  1.00  0.00     0.009 A 
ATOM     79  C   UNL A   1      45.129  43.670  40.199  1.00  0.00     0.001 A 
ATOM     80  C   UNL A   1      47.145  43.749  38.892  1.00  0.00     0.001 A 
ATOM     81  C   UNL A   1      46.386  44.208  39.965  1.00  0.00     0.000 A 
ENDBRANCH  62  76
BRANCH  63  82
ATOM     82  C   UNL A   1      43.009  40.762  28.062  1.00  0.00    -0.014 A 
ATOM     83  C   UNL A   1      43.679  41.367  26.999  1.00  0.00     0.009 A 
ATOM     84  C   UNL A   1      41.714  40.250  27.746  1.00  0.00     0.009 A 
ATOM     85  C   UNL A   1      43.117  41.384  25.699  1.00  0.00     0.001 A 
ATOM     86  C   UNL A   1      41.172  40.226  26.459  1.00  0.00     0.001 A 
ATOM     87  C   UNL A   1      41.884  40.790  25.424  1.00  0.00     0.000 A 
ENDBRANCH  63  82
BRANCH  75  88
ATOM     88  C   UNL A   1      46.362  42.632  32.733  1.00  0.00    -0.014 A 
ATOM     89  C   UNL A   1      46.685  41.337  33.166  1.00  0.00     0.009 A 
ATOM     90  C   UNL A   1      47.430  43.462  32.349  1.00  0.00     0.009 A 
ATOM     91  C   UNL A   1      48.016  40.897  33.236  1.00  0.00     0.001 A 
ATOM     92  C   UNL A   1      48.764  43.029  32.421  1.00  0.00     0.001 A 
ATOM     93  C   UNL A   1      49.056  41.744  32.868  1.00  0.00     0.000 A 
ENDBRANCH  75  88
ENDBRANCH  49  50
ENDBRANCH  42  44
ENDBRANCH  41  42
ENDBRANCH  40  41
ENDBRANCH  39  40
ENDBRANCH  38  39
ENDBRANCH  37  38
ENDBRANCH  36  37
ENDBRANCH  35  36
ENDBRANCH  34  35
ENDBRANCH   1  34
TORSDOF 26
ENDMDL
