MODEL 1
REMARK VINA RESULT:      -8.0      0.000      0.000
REMARK SMILES CCc1nnc(/[NH+]=C2/S/C(=C/c3ccccc3OCCC(=O)OCCOCCOCCOCCOC(=O)c3ccc(-c4c5nc(c(-c6ccccc6)c6ccc([nH]6)c(-c6ccccc6)c6nc(c(-c7ccccc7)c7ccc4[nH]7)C=C6)C=C5)cc3)C(=O)N2C)s1
REMARK SMILES IDX 27 1 26 2 25 3 24 4 23 5 21 6 22 7 20 8 19 9 18 10 17 11
REMARK SMILES IDX 12 12 13 13 14 14 16 15 15 16 11 17 7 18 8 19 9 21 88 22
REMARK SMILES IDX 10 23 86 24 89 25 87 26 6 27 3 28 4 29 90 30 5 31 2 32 1 33
REMARK SMILES IDX 28 34 29 35 30 36 31 37 32 38 33 39 34 40 35 41 36 42 37 43
REMARK SMILES IDX 38 44 39 45 85 46 40 47 84 48 41 49 42 50 43 51 78 52 44 53
REMARK SMILES IDX 83 54 77 55 79 56 45 57 82 58 76 59 75 60 46 62 68 63 53 64
REMARK SMILES IDX 67 65 54 66 57 67 66 68 80 69 55 70 56 71 65 73 81 74 58 75
REMARK SMILES IDX 47 76 48 77 52 78 49 79 51 80 50 81 69 82 70 83 74 84 71 85
REMARK SMILES IDX 73 86 72 87 59 88 60 89 64 90 61 91 63 92 62 93
REMARK H PARENT 7 20 79 61 57 72
REMARK Flexibility Score: inf
ROOT
ATOM      1  C   UNL A   1      42.883  22.466  26.103  1.00  0.00     0.188 C 
ENDROOT
BRANCH   1   2
ATOM      2  O   UNL A   1      42.674  21.762  27.323  1.00  0.00    -0.376 OA
BRANCH   2   3
ATOM      3  C   UNL A   1      42.100  22.545  28.384  1.00  0.00     0.202 C 
BRANCH   3   4
ATOM      4  C   UNL A   1      42.300  24.077  28.270  1.00  0.00     0.261 C 
BRANCH   4   5
ATOM      5  O   UNL A   1      41.148  24.834  28.734  1.00  0.00    -0.463 OA
BRANCH   5   6
ATOM      6  C   UNL A   1      40.481  25.507  27.747  1.00  0.00     0.309 C 
ATOM      7  O   UNL A   1      40.876  26.568  27.269  1.00  0.00    -0.252 OA
BRANCH   6   8
ATOM      8  C   UNL A   1      39.102  24.943  27.397  1.00  0.00     0.164 C 
BRANCH   8   9
ATOM      9  C   UNL A   1      38.906  24.064  26.150  1.00  0.00     0.241 C 
BRANCH   9  10
ATOM     10  O   UNL A   1      37.666  23.362  25.932  1.00  0.00    -0.492 OA
BRANCH  10  11
ATOM     11  C   UNL A   1      37.843  22.029  25.731  1.00  0.00     0.126 A 
ATOM     12  C   UNL A   1      36.863  21.207  25.184  1.00  0.00     0.018 A 
ATOM     13  C   UNL A   1      37.287  19.920  24.831  1.00  0.00     0.012 A 
ATOM     14  C   UNL A   1      38.570  19.428  25.079  1.00  0.00     0.001 A 
ATOM     15  C   UNL A   1      39.102  21.515  26.106  1.00  0.00     0.047 A 
ATOM     16  C   UNL A   1      39.467  20.212  25.780  1.00  0.00     0.004 A 
BRANCH  12  17
ATOM     17  C   UNL A   1      35.396  21.435  25.202  1.00  0.00     0.035 C 
ATOM     18  N   UNL A   1      32.089  24.738  25.518  1.00  0.00    -0.226 N 
ATOM     19  C   UNL A   1      32.831  24.001  24.765  1.00  0.00     0.271 C 
ATOM     20  H   UNL A   1      31.322  24.360  26.005  1.00  0.00     0.268 HD
ATOM     21  S   UNL A   1      32.838  22.271  25.111  1.00  0.00    -0.012 SA
ATOM     22  N   UNL A   1      33.761  24.268  23.789  1.00  0.00    -0.222 N 
ATOM     23  C   UNL A   1      34.487  22.186  24.556  1.00  0.00     0.100 C 
ATOM     24  C   UNL A   1      34.568  23.191  23.468  1.00  0.00     0.321 C 
ATOM     25  C   UNL A   1      33.898  25.505  23.033  1.00  0.00     0.252 C 
ATOM     26  O   UNL A   1      35.211  23.051  22.439  1.00  0.00    -0.250 OA
BRANCH  18  27
ATOM     27  C   UNL A   1      32.404  26.045  25.615  1.00  0.00     0.345 A 
ATOM     28  C   UNL A   1      32.373  28.419  25.410  1.00  0.00     0.138 A 
ATOM     29  N   UNL A   1      33.277  28.006  26.270  1.00  0.00    -0.067 NA
ATOM     30  S   UNL A   1      31.546  27.161  24.599  1.00  0.00    -0.044 S 
ATOM     31  N   UNL A   1      33.313  26.628  26.366  1.00  0.00     0.023 NA
BRANCH  28  32
ATOM     32  C   UNL A   1      32.008  29.844  25.169  1.00  0.00     0.068 C 
ATOM     33  C   UNL A   1      30.618  29.946  24.554  1.00  0.00     0.012 C 
ENDBRANCH  28  32
ENDBRANCH  18  27
ENDBRANCH  12  17
ENDBRANCH  10  11
ENDBRANCH   9  10
ENDBRANCH   8   9
ENDBRANCH   6   8
ENDBRANCH   5   6
ENDBRANCH   4   5
ENDBRANCH   3   4
ENDBRANCH   2   3
ENDBRANCH   1   2
BRANCH   1  34
ATOM     34  C   UNL A   1      43.443  21.619  24.950  1.00  0.00     0.188 C 
BRANCH  34  35
ATOM     35  O   UNL A   1      44.400  20.634  25.335  1.00  0.00    -0.377 OA
BRANCH  35  36
ATOM     36  C   UNL A   1      45.703  21.151  25.575  1.00  0.00     0.188 C 
BRANCH  36  37
ATOM     37  C   UNL A   1      46.090  22.299  24.633  1.00  0.00     0.188 C 
BRANCH  37  38
ATOM     38  O   UNL A   1      46.292  23.533  25.318  1.00  0.00    -0.376 OA
BRANCH  38  39
ATOM     39  C   UNL A   1      46.907  24.556  24.533  1.00  0.00     0.202 C 
BRANCH  39  40
ATOM     40  C   UNL A   1      48.061  25.314  25.215  1.00  0.00     0.261 C 
BRANCH  40  41
ATOM     41  O   UNL A   1      47.675  26.244  26.244  1.00  0.00    -0.460 OA
BRANCH  41  42
ATOM     42  C   UNL A   1      47.296  27.472  25.838  1.00  0.00     0.338 C 
ATOM     43  O   UNL A   1      47.784  28.149  24.951  1.00  0.00    -0.246 OA
BRANCH  42  44
ATOM     44  C   UNL A   1      46.108  27.867  26.611  1.00  0.00     0.060 A 
ATOM     45  C   UNL A   1      45.789  29.223  26.734  1.00  0.00     0.016 A 
ATOM     46  C   UNL A   1      45.379  26.896  27.302  1.00  0.00     0.016 A 
ATOM     47  C   UNL A   1      44.759  29.616  27.589  1.00  0.00     0.010 A 
ATOM     48  C   UNL A   1      44.355  27.293  28.168  1.00  0.00     0.010 A 
ATOM     49  C   UNL A   1      44.070  28.656  28.345  1.00  0.00    -0.014 A 
BRANCH  49  50
ATOM     50  C   UNL A   1      43.215  29.102  29.473  1.00  0.00     0.031 A 
ATOM     51  C   UNL A   1      43.841  29.223  30.838  1.00  0.00     0.074 A 
ATOM     52  C   UNL A   1      41.926  29.436  29.293  1.00  0.00     0.049 A 
ATOM     53  N   UNL A   1      43.315  29.650  31.957  1.00  0.00    -0.248 NA
ATOM     54  C   UNL A   1      45.253  28.819  30.948  1.00  0.00     0.031 C 
ATOM     55  C   UNL A   1      41.209  29.403  28.020  1.00  0.00     0.029 A 
ATOM     56  N   UNL A   1      40.991  29.878  30.196  1.00  0.00    -0.354 N 
ATOM     57  C   UNL A   1      44.335  29.585  32.898  1.00  0.00     0.074 A 
ATOM     58  C   UNL A   1      45.499  29.043  32.230  1.00  0.00     0.031 C 
ATOM     59  C   UNL A   1      39.942  29.809  28.223  1.00  0.00     0.029 A 
ATOM     60  C   UNL A   1      39.757  30.111  29.643  1.00  0.00     0.049 A 
ATOM     61  H   UNL A   1      41.188  30.014  31.151  1.00  0.00     0.167 HD
ATOM     62  C   UNL A   1      44.315  29.952  34.201  1.00  0.00     0.031 A 
ATOM     63  C   UNL A   1      38.609  30.520  30.219  1.00  0.00     0.031 A 
ATOM     64  C   UNL A   1      43.153  30.446  34.887  1.00  0.00     0.049 A 
ATOM     65  C   UNL A   1      38.586  30.828  31.695  1.00  0.00     0.074 A 
ATOM     66  C   UNL A   1      43.027  30.823  36.213  1.00  0.00     0.029 A 
ATOM     67  N   UNL A   1      41.909  30.618  34.302  1.00  0.00    -0.354 N 
ATOM     68  N   UNL A   1      39.567  30.797  32.565  1.00  0.00    -0.248 NA
ATOM     69  C   UNL A   1      37.294  31.244  32.263  1.00  0.00     0.031 C 
ATOM     70  C   UNL A   1      41.694  31.178  36.441  1.00  0.00     0.029 A 
ATOM     71  C   UNL A   1      41.005  31.077  35.243  1.00  0.00     0.049 A 
ATOM     72  H   UNL A   1      41.700  30.441  33.356  1.00  0.00     0.167 HD
ATOM     73  C   UNL A   1      39.021  31.228  33.769  1.00  0.00     0.074 A 
ATOM     74  C   UNL A   1      37.626  31.521  33.516  1.00  0.00     0.031 C 
ATOM     75  C   UNL A   1      39.623  31.375  34.975  1.00  0.00     0.031 A 
BRANCH  62  76
ATOM     76  C   UNL A   1      45.593  29.800  34.975  1.00  0.00    -0.014 A 
ATOM     77  C   UNL A   1      46.458  30.890  35.165  1.00  0.00     0.009 A 
ATOM     78  C   UNL A   1      45.928  28.559  35.538  1.00  0.00     0.009 A 
ATOM     79  C   UNL A   1      47.649  30.731  35.875  1.00  0.00     0.001 A 
ATOM     80  C   UNL A   1      47.107  28.410  36.269  1.00  0.00     0.001 A 
ATOM     81  C   UNL A   1      47.970  29.493  36.430  1.00  0.00     0.000 A 
ENDBRANCH  62  76
BRANCH  63  82
ATOM     82  C   UNL A   1      37.371  30.664  29.409  1.00  0.00    -0.014 A 
ATOM     83  C   UNL A   1      36.507  29.574  29.220  1.00  0.00     0.009 A 
ATOM     84  C   UNL A   1      37.074  31.881  28.776  1.00  0.00     0.009 A 
ATOM     85  C   UNL A   1      35.391  29.690  28.387  1.00  0.00     0.001 A 
ATOM     86  C   UNL A   1      35.943  32.002  27.966  1.00  0.00     0.001 A 
ATOM     87  C   UNL A   1      35.109  30.905  27.763  1.00  0.00     0.000 A 
ENDBRANCH  63  82
BRANCH  75  88
ATOM     88  C   UNL A   1      38.793  31.928  36.100  1.00  0.00    -0.014 A 
ATOM     89  C   UNL A   1      38.105  31.088  36.989  1.00  0.00     0.009 A 
ATOM     90  C   UNL A   1      38.731  33.318  36.293  1.00  0.00     0.009 A 
ATOM     91  C   UNL A   1      37.344  31.632  38.027  1.00  0.00     0.001 A 
ATOM     92  C   UNL A   1      37.994  33.857  37.348  1.00  0.00     0.001 A 
ATOM     93  C   UNL A   1      37.292  33.014  38.208  1.00  0.00     0.000 A 
ENDBRANCH  75  88
ENDBRANCH  49  50
ENDBRANCH  42  44
ENDBRANCH  41  42
ENDBRANCH  40  41
ENDBRANCH  39  40
ENDBRANCH  38  39
ENDBRANCH  37  38
ENDBRANCH  36  37
ENDBRANCH  35  36
ENDBRANCH  34  35
ENDBRANCH   1  34
TORSDOF 26
ENDMDL
MODEL 2
REMARK VINA RESULT:      -7.8      3.506      9.676
REMARK SMILES CCc1nnc(/[NH+]=C2/S/C(=C/c3ccccc3OCCC(=O)OCCOCCOCCOCCOC(=O)c3ccc(-c4c5nc(c(-c6ccccc6)c6ccc([nH]6)c(-c6ccccc6)c6nc(c(-c7ccccc7)c7ccc4[nH]7)C=C6)C=C5)cc3)C(=O)N2C)s1
REMARK SMILES IDX 27 1 26 2 25 3 24 4 23 5 21 6 22 7 20 8 19 9 18 10 17 11
REMARK SMILES IDX 12 12 13 13 14 14 16 15 15 16 11 17 7 18 8 19 9 21 88 22
REMARK SMILES IDX 10 23 86 24 89 25 87 26 6 27 3 28 4 29 90 30 5 31 2 32 1 33
REMARK SMILES IDX 28 34 29 35 30 36 31 37 32 38 33 39 34 40 35 41 36 42 37 43
REMARK SMILES IDX 38 44 39 45 85 46 40 47 84 48 41 49 42 50 43 51 78 52 44 53
REMARK SMILES IDX 83 54 77 55 79 56 45 57 82 58 76 59 75 60 46 62 68 63 53 64
REMARK SMILES IDX 67 65 54 66 57 67 66 68 80 69 55 70 56 71 65 73 81 74 58 75
REMARK SMILES IDX 47 76 48 77 52 78 49 79 51 80 50 81 69 82 70 83 74 84 71 85
REMARK SMILES IDX 73 86 72 87 59 88 60 89 64 90 61 91 63 92 62 93
REMARK H PARENT 7 20 79 61 57 72
REMARK Flexibility Score: inf
ROOT
ATOM      1  C   UNL A   1      34.944  30.892  28.106  1.00  0.00     0.188 C 
ENDROOT
BRANCH   1   2
ATOM      2  O   UNL A   1      36.221  30.478  27.634  1.00  0.00    -0.376 OA
BRANCH   2   3
ATOM      3  C   UNL A   1      36.913  29.553  28.491  1.00  0.00     0.202 C 
BRANCH   3   4
ATOM      4  C   UNL A   1      38.459  29.587  28.404  1.00  0.00     0.261 C 
BRANCH   4   5
ATOM      5  O   UNL A   1      39.001  28.534  27.559  1.00  0.00    -0.463 OA
BRANCH   5   6
ATOM      6  C   UNL A   1      39.325  27.385  28.227  1.00  0.00     0.309 C 
ATOM      7  O   UNL A   1      39.657  27.364  29.411  1.00  0.00    -0.252 OA
BRANCH   6   8
ATOM      8  C   UNL A   1      39.424  26.134  27.353  1.00  0.00     0.164 C 
BRANCH   8   9
ATOM      9  C   UNL A   1      38.464  24.950  27.562  1.00  0.00     0.241 C 
BRANCH   9  10
ATOM     10  O   UNL A   1      38.182  24.031  26.488  1.00  0.00    -0.492 OA
BRANCH  10  11
ATOM     11  C   UNL A   1      38.964  22.919  26.527  1.00  0.00     0.126 A 
ATOM     12  C   UNL A   1      38.629  21.733  25.881  1.00  0.00     0.018 A 
ATOM     13  C   UNL A   1      39.646  20.771  25.827  1.00  0.00     0.012 A 
ATOM     14  C   UNL A   1      40.889  20.918  26.445  1.00  0.00     0.001 A 
ATOM     15  C   UNL A   1      40.161  23.038  27.264  1.00  0.00     0.047 A 
ATOM     16  C   UNL A   1      41.126  22.035  27.223  1.00  0.00     0.004 A 
BRANCH  12  17
ATOM     17  C   UNL A   1      37.267  21.273  25.512  1.00  0.00     0.035 C 
ATOM     18  N   UNL A   1      32.813  22.646  25.039  1.00  0.00    -0.226 N 
ATOM     19  C   UNL A   1      33.961  22.448  24.488  1.00  0.00     0.271 C 
ATOM     20  H   UNL A   1      32.231  21.893  25.289  1.00  0.00     0.268 HD
ATOM     21  S   UNL A   1      34.711  20.875  24.764  1.00  0.00    -0.012 SA
ATOM     22  N   UNL A   1      34.843  23.253  23.808  1.00  0.00    -0.222 N 
ATOM     23  C   UNL A   1      36.279  21.627  24.671  1.00  0.00     0.100 C 
ATOM     24  C   UNL A   1      36.112  22.718  23.680  1.00  0.00     0.321 C 
ATOM     25  C   UNL A   1      34.542  24.522  23.161  1.00  0.00     0.252 C 
ATOM     26  O   UNL A   1      36.955  23.045  22.858  1.00  0.00    -0.250 OA
BRANCH  18  27
ATOM     27  C   UNL A   1      32.441  23.922  25.261  1.00  0.00     0.345 A 
ATOM     28  C   UNL A   1      32.353  26.167  26.059  1.00  0.00     0.138 A 
ATOM     29  N   UNL A   1      31.497  25.951  25.084  1.00  0.00    -0.067 NA
ATOM     30  S   UNL A   1      33.211  24.776  26.562  1.00  0.00    -0.044 S 
ATOM     31  N   UNL A   1      31.530  24.642  24.643  1.00  0.00     0.023 NA
BRANCH  28  32
ATOM     32  C   UNL A   1      32.641  27.496  26.667  1.00  0.00     0.068 C 
ATOM     33  C   UNL A   1      33.898  28.104  26.058  1.00  0.00     0.012 C 
ENDBRANCH  28  32
ENDBRANCH  18  27
ENDBRANCH  12  17
ENDBRANCH  10  11
ENDBRANCH   9  10
ENDBRANCH   8   9
ENDBRANCH   6   8
ENDBRANCH   5   6
ENDBRANCH   4   5
ENDBRANCH   3   4
ENDBRANCH   2   3
ENDBRANCH   1   2
BRANCH   1  34
ATOM     34  C   UNL A   1      34.738  32.413  28.178  1.00  0.00     0.188 C 
BRANCH  34  35
ATOM     35  O   UNL A   1      34.896  32.982  29.476  1.00  0.00    -0.377 OA
BRANCH  35  36
ATOM     36  C   UNL A   1      35.154  32.030  30.501  1.00  0.00     0.188 C 
BRANCH  36  37
ATOM     37  C   UNL A   1      36.340  32.405  31.400  1.00  0.00     0.188 C 
BRANCH  37  38
ATOM     38  O   UNL A   1      36.693  31.367  32.312  1.00  0.00    -0.376 OA
BRANCH  38  39
ATOM     39  C   UNL A   1      37.592  30.389  31.783  1.00  0.00     0.202 C 
BRANCH  39  40
ATOM     40  C   UNL A   1      37.857  29.172  32.687  1.00  0.00     0.261 C 
BRANCH  40  41
ATOM     41  O   UNL A   1      39.158  28.569  32.558  1.00  0.00    -0.460 OA
BRANCH  41  42
ATOM     42  C   UNL A   1      40.119  29.022  33.387  1.00  0.00     0.338 C 
ATOM     43  O   UNL A   1      40.018  29.288  34.570  1.00  0.00    -0.246 OA
BRANCH  42  44
ATOM     44  C   UNL A   1      41.383  29.085  32.637  1.00  0.00     0.060 A 
ATOM     45  C   UNL A   1      41.483  29.934  31.531  1.00  0.00     0.016 A 
ATOM     46  C   UNL A   1      42.428  28.217  32.969  1.00  0.00     0.016 A 
ATOM     47  C   UNL A   1      42.620  29.886  30.724  1.00  0.00     0.010 A 
ATOM     48  C   UNL A   1      43.561  28.163  32.152  1.00  0.00     0.010 A 
ATOM     49  C   UNL A   1      43.643  28.968  31.004  1.00  0.00    -0.014 A 
BRANCH  49  50
ATOM     50  C   UNL A   1      44.677  28.701  29.974  1.00  0.00     0.031 A 
ATOM     51  C   UNL A   1      45.846  29.647  29.876  1.00  0.00     0.074 A 
ATOM     52  C   UNL A   1      44.613  27.626  29.172  1.00  0.00     0.049 A 
ATOM     53  N   UNL A   1      46.899  29.587  29.103  1.00  0.00    -0.248 NA
ATOM     54  C   UNL A   1      45.825  30.809  30.781  1.00  0.00     0.031 C 
ATOM     55  C   UNL A   1      43.561  26.612  29.190  1.00  0.00     0.029 A 
ATOM     56  N   UNL A   1      45.469  27.207  28.182  1.00  0.00    -0.354 N 
ATOM     57  C   UNL A   1      47.675  30.688  29.441  1.00  0.00     0.074 A 
ATOM     58  C   UNL A   1      46.956  31.420  30.461  1.00  0.00     0.031 C 
ATOM     59  C   UNL A   1      43.833  25.686  28.253  1.00  0.00     0.029 A 
ATOM     60  C   UNL A   1      45.068  26.052  27.559  1.00  0.00     0.049 A 
ATOM     61  H   UNL A   1      46.292  27.691  27.944  1.00  0.00     0.167 HD
ATOM     62  C   UNL A   1      48.885  31.058  28.958  1.00  0.00     0.031 A 
ATOM     63  C   UNL A   1      45.633  25.372  26.542  1.00  0.00     0.031 A 
ATOM     64  C   UNL A   1      49.585  30.366  27.911  1.00  0.00     0.049 A 
ATOM     65  C   UNL A   1      46.932  25.860  25.951  1.00  0.00     0.074 A 
ATOM     66  C   UNL A   1      50.807  30.677  27.338  1.00  0.00     0.029 A 
ATOM     67  N   UNL A   1      49.119  29.230  27.271  1.00  0.00    -0.354 N 
ATOM     68  N   UNL A   1      47.673  26.882  26.306  1.00  0.00    -0.248 NA
ATOM     69  C   UNL A   1      47.479  25.084  24.828  1.00  0.00     0.031 C 
ATOM     70  C   UNL A   1      51.056  29.754  26.316  1.00  0.00     0.029 A 
ATOM     71  C   UNL A   1      50.018  28.837  26.294  1.00  0.00     0.049 A 
ATOM     72  H   UNL A   1      48.274  28.770  27.480  1.00  0.00     0.167 HD
ATOM     73  C   UNL A   1      48.790  26.848  25.478  1.00  0.00     0.074 A 
ATOM     74  C   UNL A   1      48.633  25.700  24.610  1.00  0.00     0.031 C 
ATOM     75  C   UNL A   1      49.854  27.686  25.446  1.00  0.00     0.031 A 
BRANCH  62  76
ATOM     76  C   UNL A   1      49.508  32.292  29.544  1.00  0.00    -0.014 A 
ATOM     77  C   UNL A   1      50.362  32.211  30.656  1.00  0.00     0.009 A 
ATOM     78  C   UNL A   1      49.256  33.546  28.968  1.00  0.00     0.009 A 
ATOM     79  C   UNL A   1      50.925  33.367  31.199  1.00  0.00     0.001 A 
ATOM     80  C   UNL A   1      49.840  34.697  29.499  1.00  0.00     0.001 A 
ATOM     81  C   UNL A   1      50.667  34.608  30.617  1.00  0.00     0.000 A 
ENDBRANCH  62  76
BRANCH  63  82
ATOM     82  C   UNL A   1      44.981  24.151  26.000  1.00  0.00    -0.014 A 
ATOM     83  C   UNL A   1      45.338  22.878  26.472  1.00  0.00     0.009 A 
ATOM     84  C   UNL A   1      44.036  24.250  24.967  1.00  0.00     0.009 A 
ATOM     85  C   UNL A   1      44.787  21.729  25.899  1.00  0.00     0.001 A 
ATOM     86  C   UNL A   1      43.466  23.101  24.415  1.00  0.00     0.001 A 
ATOM     87  C   UNL A   1      43.850  21.841  24.872  1.00  0.00     0.000 A 
ENDBRANCH  63  82
BRANCH  75  88
ATOM     88  C   UNL A   1      50.960  27.365  24.478  1.00  0.00    -0.014 A 
ATOM     89  C   UNL A   1      50.905  27.770  23.137  1.00  0.00     0.009 A 
ATOM     90  C   UNL A   1      52.095  26.675  24.934  1.00  0.00     0.009 A 
ATOM     91  C   UNL A   1      51.949  27.459  22.262  1.00  0.00     0.001 A 
ATOM     92  C   UNL A   1      53.150  26.390  24.066  1.00  0.00     0.001 A 
ATOM     93  C   UNL A   1      53.071  26.773  22.728  1.00  0.00     0.000 A 
ENDBRANCH  75  88
ENDBRANCH  49  50
ENDBRANCH  42  44
ENDBRANCH  41  42
ENDBRANCH  40  41
ENDBRANCH  39  40
ENDBRANCH  38  39
ENDBRANCH  37  38
ENDBRANCH  36  37
ENDBRANCH  35  36
ENDBRANCH  34  35
ENDBRANCH   1  34
TORSDOF 26
ENDMDL
MODEL 3
REMARK VINA RESULT:      -7.3      2.954      5.019
REMARK SMILES CCc1nnc(/[NH+]=C2/S/C(=C/c3ccccc3OCCC(=O)OCCOCCOCCOCCOC(=O)c3ccc(-c4c5nc(c(-c6ccccc6)c6ccc([nH]6)c(-c6ccccc6)c6nc(c(-c7ccccc7)c7ccc4[nH]7)C=C6)C=C5)cc3)C(=O)N2C)s1
REMARK SMILES IDX 27 1 26 2 25 3 24 4 23 5 21 6 22 7 20 8 19 9 18 10 17 11
REMARK SMILES IDX 12 12 13 13 14 14 16 15 15 16 11 17 7 18 8 19 9 21 88 22
REMARK SMILES IDX 10 23 86 24 89 25 87 26 6 27 3 28 4 29 90 30 5 31 2 32 1 33
REMARK SMILES IDX 28 34 29 35 30 36 31 37 32 38 33 39 34 40 35 41 36 42 37 43
REMARK SMILES IDX 38 44 39 45 85 46 40 47 84 48 41 49 42 50 43 51 78 52 44 53
REMARK SMILES IDX 83 54 77 55 79 56 45 57 82 58 76 59 75 60 46 62 68 63 53 64
REMARK SMILES IDX 67 65 54 66 57 67 66 68 80 69 55 70 56 71 65 73 81 74 58 75
REMARK SMILES IDX 47 76 48 77 52 78 49 79 51 80 50 81 69 82 70 83 74 84 71 85
REMARK SMILES IDX 73 86 72 87 59 88 60 89 64 90 61 91 63 92 62 93
REMARK H PARENT 7 20 79 61 57 72
REMARK Flexibility Score: inf
ROOT
ATOM      1  C   UNL A   1      42.256  21.667  26.317  1.00  0.00     0.188 C 
ENDROOT
BRANCH   1   2
ATOM      2  O   UNL A   1      42.626  21.582  27.689  1.00  0.00    -0.376 OA
BRANCH   2   3
ATOM      3  C   UNL A   1      42.049  22.593  28.535  1.00  0.00     0.202 C 
BRANCH   3   4
ATOM      4  C   UNL A   1      42.222  24.053  28.048  1.00  0.00     0.261 C 
BRANCH   4   5
ATOM      5  O   UNL A   1      41.082  24.896  28.375  1.00  0.00    -0.463 OA
BRANCH   5   6
ATOM      6  C   UNL A   1      40.343  25.289  27.294  1.00  0.00     0.309 C 
ATOM      7  O   UNL A   1      40.706  26.163  26.510  1.00  0.00    -0.252 OA
BRANCH   6   8
ATOM      8  C   UNL A   1      38.935  24.692  27.221  1.00  0.00     0.164 C 
BRANCH   8   9
ATOM      9  C   UNL A   1      38.555  23.710  26.101  1.00  0.00     0.241 C 
BRANCH   9  10
ATOM     10  O   UNL A   1      37.180  23.333  25.887  1.00  0.00    -0.492 OA
BRANCH  10  11
ATOM     11  C   UNL A   1      37.031  22.005  25.635  1.00  0.00     0.126 A 
ATOM     12  C   UNL A   1      35.790  21.377  25.582  1.00  0.00     0.018 A 
ATOM     13  C   UNL A   1      35.800  20.068  25.084  1.00  0.00     0.012 A 
ATOM     14  C   UNL A   1      36.962  19.375  24.742  1.00  0.00     0.001 A 
ATOM     15  C   UNL A   1      38.224  21.284  25.418  1.00  0.00     0.047 A 
ATOM     16  C   UNL A   1      38.190  19.966  24.971  1.00  0.00     0.004 A 
BRANCH  12  17
ATOM     17  C   UNL A   1      34.538  21.820  26.245  1.00  0.00     0.035 C 
ATOM     18  N   UNL A   1      31.398  25.290  26.459  1.00  0.00    -0.226 N 
ATOM     19  C   UNL A   1      31.743  24.156  25.953  1.00  0.00     0.271 C 
ATOM     20  H   UNL A   1      31.077  25.358  27.387  1.00  0.00     0.268 HD
ATOM     21  S   UNL A   1      32.217  22.893  27.089  1.00  0.00    -0.012 SA
ATOM     22  N   UNL A   1      31.961  23.712  24.671  1.00  0.00    -0.222 N 
ATOM     23  C   UNL A   1      33.315  22.258  25.896  1.00  0.00     0.100 C 
ATOM     24  C   UNL A   1      32.644  22.512  24.598  1.00  0.00     0.321 C 
ATOM     25  C   UNL A   1      31.474  24.325  23.442  1.00  0.00     0.252 C 
ATOM     26  O   UNL A   1      32.663  21.747  23.645  1.00  0.00    -0.250 OA
BRANCH  18  27
ATOM     27  C   UNL A   1      31.495  26.379  25.671  1.00  0.00     0.345 A 
ATOM     28  C   UNL A   1      30.969  28.268  24.316  1.00  0.00     0.138 A 
ATOM     29  N   UNL A   1      32.249  28.208  24.609  1.00  0.00    -0.067 NA
ATOM     30  S   UNL A   1      30.053  26.940  24.884  1.00  0.00    -0.044 S 
ATOM     31  N   UNL A   1      32.556  27.097  25.371  1.00  0.00     0.023 NA
BRANCH  28  32
ATOM     32  C   UNL A   1      30.304  29.400  23.611  1.00  0.00     0.068 C 
ATOM     33  C   UNL A   1      29.323  28.881  22.567  1.00  0.00     0.012 C 
ENDBRANCH  28  32
ENDBRANCH  18  27
ENDBRANCH  12  17
ENDBRANCH  10  11
ENDBRANCH   9  10
ENDBRANCH   8   9
ENDBRANCH   6   8
ENDBRANCH   5   6
ENDBRANCH   4   5
ENDBRANCH   3   4
ENDBRANCH   2   3
ENDBRANCH   1   2
BRANCH   1  34
ATOM     34  C   UNL A   1      42.552  20.411  25.484  1.00  0.00     0.188 C 
BRANCH  34  35
ATOM     35  O   UNL A   1      43.707  19.678  25.889  1.00  0.00    -0.377 OA
BRANCH  35  36
ATOM     36  C   UNL A   1      44.938  20.340  25.626  1.00  0.00     0.188 C 
BRANCH  36  37
ATOM     37  C   UNL A   1      45.000  20.989  24.237  1.00  0.00     0.188 C 
BRANCH  37  38
ATOM     38  O   UNL A   1      44.628  22.366  24.253  1.00  0.00    -0.376 OA
BRANCH  38  39
ATOM     39  C   UNL A   1      45.682  23.272  23.921  1.00  0.00     0.202 C 
BRANCH  39  40
ATOM     40  C   UNL A   1      46.713  23.529  25.035  1.00  0.00     0.261 C 
BRANCH  40  41
ATOM     41  O   UNL A   1      46.230  24.262  26.176  1.00  0.00    -0.460 OA
BRANCH  41  42
ATOM     42  C   UNL A   1      47.160  24.725  27.035  1.00  0.00     0.338 C 
ATOM     43  O   UNL A   1      48.274  24.279  27.240  1.00  0.00    -0.246 OA
BRANCH  42  44
ATOM     44  C   UNL A   1      46.636  25.945  27.668  1.00  0.00     0.060 A 
ATOM     45  C   UNL A   1      47.497  26.755  28.415  1.00  0.00     0.016 A 
ATOM     46  C   UNL A   1      45.267  26.222  27.609  1.00  0.00     0.016 A 
ATOM     47  C   UNL A   1      46.980  27.826  29.145  1.00  0.00     0.010 A 
ATOM     48  C   UNL A   1      44.749  27.288  28.351  1.00  0.00     0.010 A 
ATOM     49  C   UNL A   1      45.598  28.068  29.153  1.00  0.00    -0.014 A 
BRANCH  49  50
ATOM     50  C   UNL A   1      45.031  28.987  30.170  1.00  0.00     0.031 A 
ATOM     51  C   UNL A   1      44.908  30.447  29.821  1.00  0.00     0.074 A 
ATOM     52  C   UNL A   1      44.593  28.540  31.359  1.00  0.00     0.049 A 
ATOM     53  N   UNL A   1      44.389  31.426  30.518  1.00  0.00    -0.248 NA
ATOM     54  C   UNL A   1      45.430  30.852  28.505  1.00  0.00     0.031 C 
ATOM     55  C   UNL A   1      44.616  27.149  31.806  1.00  0.00     0.029 A 
ATOM     56  N   UNL A   1      44.032  29.224  32.410  1.00  0.00    -0.354 N 
ATOM     57  C   UNL A   1      44.504  32.556  29.718  1.00  0.00     0.074 A 
ATOM     58  C   UNL A   1      45.174  32.152  28.501  1.00  0.00     0.031 C 
ATOM     59  C   UNL A   1      44.092  27.082  33.044  1.00  0.00     0.029 A 
ATOM     60  C   UNL A   1      43.715  28.426  33.480  1.00  0.00     0.049 A 
ATOM     61  H   UNL A   1      43.874  30.195  32.396  1.00  0.00     0.167 HD
ATOM     62  C   UNL A   1      44.082  33.819  29.964  1.00  0.00     0.031 A 
ATOM     63  C   UNL A   1      43.183  28.747  34.676  1.00  0.00     0.031 A 
ATOM     64  C   UNL A   1      43.459  34.242  31.188  1.00  0.00     0.049 A 
ATOM     65  C   UNL A   1      42.812  30.180  34.966  1.00  0.00     0.074 A 
ATOM     66  C   UNL A   1      43.017  35.506  31.540  1.00  0.00     0.029 A 
ATOM     67  N   UNL A   1      43.203  33.412  32.267  1.00  0.00    -0.354 N 
ATOM     68  N   UNL A   1      42.892  31.232  34.186  1.00  0.00    -0.248 NA
ATOM     69  C   UNL A   1      42.260  30.463  36.299  1.00  0.00     0.031 C 
ATOM     70  C   UNL A   1      42.536  35.449  32.852  1.00  0.00     0.029 A 
ATOM     71  C   UNL A   1      42.627  34.139  33.294  1.00  0.00     0.049 A 
ATOM     72  H   UNL A   1      43.401  32.448  32.298  1.00  0.00     0.167 HD
ATOM     73  C   UNL A   1      42.365  32.289  34.919  1.00  0.00     0.074 A 
ATOM     74  C   UNL A   1      41.961  31.750  36.201  1.00  0.00     0.031 C 
ATOM     75  C   UNL A   1      42.220  33.588  34.560  1.00  0.00     0.031 A 
BRANCH  62  76
ATOM     76  C   UNL A   1      44.313  34.840  28.887  1.00  0.00    -0.014 A 
ATOM     77  C   UNL A   1      45.546  35.504  28.774  1.00  0.00     0.009 A 
ATOM     78  C   UNL A   1      43.297  35.128  27.964  1.00  0.00     0.009 A 
ATOM     79  C   UNL A   1      45.744  36.460  27.777  1.00  0.00     0.001 A 
ATOM     80  C   UNL A   1      43.508  36.066  26.952  1.00  0.00     0.001 A 
ATOM     81  C   UNL A   1      44.726  36.737  26.864  1.00  0.00     0.000 A 
ENDBRANCH  62  76
BRANCH  63  82
ATOM     82  C   UNL A   1      42.965  27.699  35.708  1.00  0.00    -0.014 A 
ATOM     83  C   UNL A   1      44.003  27.315  36.571  1.00  0.00     0.009 A 
ATOM     84  C   UNL A   1      41.730  27.038  35.798  1.00  0.00     0.009 A 
ATOM     85  C   UNL A   1      43.820  26.270  37.480  1.00  0.00     0.001 A 
ATOM     86  C   UNL A   1      41.540  26.012  36.726  1.00  0.00     0.001 A 
ATOM     87  C   UNL A   1      42.588  25.621  37.558  1.00  0.00     0.000 A 
ENDBRANCH  63  82
BRANCH  75  88
ATOM     88  C   UNL A   1      41.549  34.508  35.543  1.00  0.00    -0.014 A 
ATOM     89  C   UNL A   1      42.288  35.277  36.454  1.00  0.00     0.009 A 
ATOM     90  C   UNL A   1      40.150  34.632  35.526  1.00  0.00     0.009 A 
ATOM     91  C   UNL A   1      41.636  36.124  37.353  1.00  0.00     0.001 A 
ATOM     92  C   UNL A   1      39.503  35.501  36.405  1.00  0.00     0.001 A 
ATOM     93  C   UNL A   1      40.246  36.239  37.326  1.00  0.00     0.000 A 
ENDBRANCH  75  88
ENDBRANCH  49  50
ENDBRANCH  42  44
ENDBRANCH  41  42
ENDBRANCH  40  41
ENDBRANCH  39  40
ENDBRANCH  38  39
ENDBRANCH  37  38
ENDBRANCH  36  37
ENDBRANCH  35  36
ENDBRANCH  34  35
ENDBRANCH   1  34
TORSDOF 26
ENDMDL
