MODEL 1
REMARK VINA RESULT:      -9.2      0.000      0.000
REMARK SMILES CC[NH+](CC)[C@@H](C(=O)OCCOCCOCCOCCOC(=O)c1ccc(-c2c3nc(c(-c4ccccc4)c4ccc([nH]4)c(-c4ccccc4)c4nc(c(-c5ccccc5)c5ccc2[nH]5)C=C4)C=C3)cc1)c1ccc(C2CC2)cc1
REMARK SMILES IDX 15 1 14 2 13 3 12 4 11 5 10 6 9 7 7 8 8 9 6 10 3 11 2 13
REMARK SMILES IDX 1 14 4 15 5 16 72 17 73 18 80 19 74 20 79 21 75 22 76 23
REMARK SMILES IDX 77 24 78 25 16 26 17 27 18 28 19 29 20 30 21 31 22 32 23 33
REMARK SMILES IDX 24 34 25 35 71 36 26 37 70 38 27 39 28 40 29 41 64 42 30 43
REMARK SMILES IDX 69 44 63 45 65 46 31 47 68 48 62 49 61 50 32 52 54 53 39 54
REMARK SMILES IDX 53 55 40 56 43 57 52 58 66 59 41 60 42 61 51 63 67 64 44 65
REMARK SMILES IDX 33 66 34 67 38 68 35 69 37 70 36 71 55 72 56 73 60 74 57 75
REMARK SMILES IDX 59 76 58 77 45 78 46 79 50 80 47 81 49 82 48 83
REMARK H PARENT 3 12 65 51 43 62
REMARK Flexibility Score: inf
ROOT
ATOM      1  O   UNL A   1      34.844  34.397  28.973  1.00  0.00    -0.377 OA
ENDROOT
BRANCH   1   2
ATOM      2  C   UNL A   1      35.090  33.323  28.082  1.00  0.00     0.188 C 
BRANCH   2   3
ATOM      3  C   UNL A   1      34.274  32.063  28.362  1.00  0.00     0.188 C 
BRANCH   3   4
ATOM      4  O   UNL A   1      33.373  31.665  27.340  1.00  0.00    -0.376 OA
BRANCH   4   5
ATOM      5  C   UNL A   1      33.463  30.314  26.877  1.00  0.00     0.202 C 
BRANCH   5   6
ATOM      6  C   UNL A   1      32.236  29.402  27.026  1.00  0.00     0.261 C 
BRANCH   6   7
ATOM      7  O   UNL A   1      32.590  28.042  27.387  1.00  0.00    -0.459 OA
BRANCH   7   8
ATOM      8  C   UNL A   1      31.938  27.080  26.682  1.00  0.00     0.369 C 
ATOM      9  O   UNL A   1      30.758  26.798  26.900  1.00  0.00    -0.245 OA
BRANCH   8  10
ATOM     10  C   UNL A   1      32.727  26.385  25.549  1.00  0.00     0.326 C 
BRANCH  10  11
ATOM     11  N   UNL A   1      32.497  26.793  24.137  1.00  0.00    -0.320 N 
ATOM     12  H   UNL A   1      33.155  27.557  24.290  1.00  0.00     0.349 HD
BRANCH  11  13
ATOM     13  C   UNL A   1      33.235  26.295  22.980  1.00  0.00     0.259 C 
ATOM     14  C   UNL A   1      32.867  24.969  22.325  1.00  0.00     0.071 C 
ENDBRANCH  11  13
BRANCH  11  15
ATOM     15  C   UNL A   1      31.140  27.244  23.815  1.00  0.00     0.259 C 
ATOM     16  C   UNL A   1      30.064  26.168  23.679  1.00  0.00     0.071 C 
ENDBRANCH  11  15
ENDBRANCH  10  11
BRANCH  10  17
ATOM     17  C   UNL A   1      32.946  24.887  25.768  1.00  0.00     0.021 A 
ATOM     18  C   UNL A   1      31.912  23.946  25.737  1.00  0.00     0.011 A 
ATOM     19  C   UNL A   1      34.248  24.409  25.978  1.00  0.00     0.011 A 
ATOM     20  C   UNL A   1      32.184  22.573  25.821  1.00  0.00     0.004 A 
ATOM     21  C   UNL A   1      34.513  23.036  26.052  1.00  0.00     0.004 A 
ATOM     22  C   UNL A   1      33.493  22.081  25.946  1.00  0.00    -0.045 A 
BRANCH  22  23
ATOM     23  C   UNL A   1      33.731  20.586  25.918  1.00  0.00     0.019 C 
ATOM     24  C   UNL A   1      32.751  19.595  25.342  1.00  0.00     0.009 C 
ATOM     25  C   UNL A   1      34.014  19.911  24.599  1.00  0.00     0.009 C 
ENDBRANCH  22  23
ENDBRANCH  10  17
ENDBRANCH   8  10
ENDBRANCH   7   8
ENDBRANCH   6   7
ENDBRANCH   5   6
ENDBRANCH   4   5
ENDBRANCH   3   4
ENDBRANCH   2   3
ENDBRANCH   1   2
BRANCH   1  26
ATOM     26  C   UNL A   1      33.504  34.807  29.230  1.00  0.00     0.188 C 
BRANCH  26  27
ATOM     27  C   UNL A   1      33.249  35.703  30.440  1.00  0.00     0.188 C 
BRANCH  27  28
ATOM     28  O   UNL A   1      33.090  35.061  31.705  1.00  0.00    -0.376 OA
BRANCH  28  29
ATOM     29  C   UNL A   1      34.252  34.808  32.491  1.00  0.00     0.202 C 
BRANCH  29  30
ATOM     30  C   UNL A   1      34.215  33.522  33.317  1.00  0.00     0.261 C 
BRANCH  30  31
ATOM     31  O   UNL A   1      34.953  32.454  32.696  1.00  0.00    -0.460 OA
BRANCH  31  32
ATOM     32  C   UNL A   1      36.145  32.180  33.273  1.00  0.00     0.338 C 
ATOM     33  O   UNL A   1      36.528  32.512  34.380  1.00  0.00    -0.246 OA
BRANCH  32  34
ATOM     34  C   UNL A   1      36.929  31.280  32.408  1.00  0.00     0.060 A 
ATOM     35  C   UNL A   1      37.942  30.520  33.007  1.00  0.00     0.016 A 
ATOM     36  C   UNL A   1      36.770  31.289  31.020  1.00  0.00     0.016 A 
ATOM     37  C   UNL A   1      38.856  29.835  32.214  1.00  0.00     0.010 A 
ATOM     38  C   UNL A   1      37.695  30.611  30.224  1.00  0.00     0.010 A 
ATOM     39  C   UNL A   1      38.774  29.934  30.819  1.00  0.00    -0.014 A 
BRANCH  39  40
ATOM     40  C   UNL A   1      39.946  29.532  30.011  1.00  0.00     0.031 A 
ATOM     41  C   UNL A   1      41.045  30.539  29.799  1.00  0.00     0.074 A 
ATOM     42  C   UNL A   1      40.061  28.283  29.531  1.00  0.00     0.049 A 
ATOM     43  N   UNL A   1      42.180  30.407  29.161  1.00  0.00    -0.248 NA
ATOM     44  C   UNL A   1      40.837  31.873  30.388  1.00  0.00     0.031 C 
ATOM     45  C   UNL A   1      39.081  27.213  29.708  1.00  0.00     0.029 A 
ATOM     46  N   UNL A   1      41.064  27.707  28.796  1.00  0.00    -0.354 N 
ATOM     47  C   UNL A   1      42.816  31.639  29.269  1.00  0.00     0.074 A 
ATOM     48  C   UNL A   1      41.933  32.514  30.007  1.00  0.00     0.031 C 
ATOM     49  C   UNL A   1      39.534  26.105  29.094  1.00  0.00     0.029 A 
ATOM     50  C   UNL A   1      40.820  26.398  28.466  1.00  0.00     0.049 A 
ATOM     51  H   UNL A   1      41.883  28.186  28.532  1.00  0.00     0.167 HD
ATOM     52  C   UNL A   1      44.032  32.008  28.801  1.00  0.00     0.031 A 
ATOM     53  C   UNL A   1      41.553  25.539  27.733  1.00  0.00     0.031 A 
ATOM     54  C   UNL A   1      44.905  31.142  28.058  1.00  0.00     0.049 A 
ATOM     55  C   UNL A   1      42.882  25.988  27.186  1.00  0.00     0.074 A 
ATOM     56  C   UNL A   1      46.158  31.416  27.540  1.00  0.00     0.029 A 
ATOM     57  N   UNL A   1      44.611  29.830  27.726  1.00  0.00    -0.354 N 
ATOM     58  N   UNL A   1      43.482  27.146  27.316  1.00  0.00    -0.248 NA
ATOM     59  C   UNL A   1      43.641  24.999  26.407  1.00  0.00     0.031 C 
ATOM     60  C   UNL A   1      46.604  30.280  26.855  1.00  0.00     0.029 A 
ATOM     61  C   UNL A   1      45.652  29.283  26.996  1.00  0.00     0.049 A 
ATOM     62  H   UNL A   1      43.784  29.355  27.974  1.00  0.00     0.167 HD
ATOM     63  C   UNL A   1      44.702  27.016  26.663  1.00  0.00     0.074 A 
ATOM     64  C   UNL A   1      44.760  25.662  26.151  1.00  0.00     0.031 C 
ATOM     65  C   UNL A   1      45.688  27.933  26.501  1.00  0.00     0.031 A 
BRANCH  52  66
ATOM     66  C   UNL A   1      44.467  33.423  29.055  1.00  0.00    -0.014 A 
ATOM     67  C   UNL A   1      43.952  34.492  28.304  1.00  0.00     0.009 A 
ATOM     68  C   UNL A   1      45.391  33.693  30.076  1.00  0.00     0.009 A 
ATOM     69  C   UNL A   1      44.376  35.799  28.551  1.00  0.00     0.001 A 
ATOM     70  C   UNL A   1      45.795  35.004  30.337  1.00  0.00     0.001 A 
ATOM     71  C   UNL A   1      45.294  36.054  29.570  1.00  0.00     0.000 A 
ENDBRANCH  52  66
BRANCH  53  72
ATOM     72  C   UNL A   1      41.048  24.167  27.466  1.00  0.00    -0.014 A 
ATOM     73  C   UNL A   1      40.001  23.948  26.559  1.00  0.00     0.009 A 
ATOM     74  C   UNL A   1      41.602  23.068  28.142  1.00  0.00     0.009 A 
ATOM     75  C   UNL A   1      39.497  22.661  26.358  1.00  0.00     0.001 A 
ATOM     76  C   UNL A   1      41.114  21.779  27.918  1.00  0.00     0.001 A 
ATOM     77  C   UNL A   1      40.055  21.578  27.034  1.00  0.00     0.000 A 
ENDBRANCH  53  72
BRANCH  65  78
ATOM     78  C   UNL A   1      46.928  27.482  25.783  1.00  0.00    -0.014 A 
ATOM     79  C   UNL A   1      47.089  27.682  24.404  1.00  0.00     0.009 A 
ATOM     80  C   UNL A   1      47.962  26.869  26.508  1.00  0.00     0.009 A 
ATOM     81  C   UNL A   1      48.244  27.239  23.757  1.00  0.00     0.001 A 
ATOM     82  C   UNL A   1      49.129  26.453  25.865  1.00  0.00     0.001 A 
ATOM     83  C   UNL A   1      49.263  26.628  24.488  1.00  0.00     0.000 A 
ENDBRANCH  65  78
ENDBRANCH  39  40
ENDBRANCH  32  34
ENDBRANCH  31  32
ENDBRANCH  30  31
ENDBRANCH  29  30
ENDBRANCH  28  29
ENDBRANCH  27  28
ENDBRANCH  26  27
ENDBRANCH   1  26
TORSDOF 25
ENDMDL
MODEL 2
REMARK VINA RESULT:      -9.1      3.469      9.231
REMARK SMILES CC[NH+](CC)[C@@H](C(=O)OCCOCCOCCOCCOC(=O)c1ccc(-c2c3nc(c(-c4ccccc4)c4ccc([nH]4)c(-c4ccccc4)c4nc(c(-c5ccccc5)c5ccc2[nH]5)C=C4)C=C3)cc1)c1ccc(C2CC2)cc1
REMARK SMILES IDX 15 1 14 2 13 3 12 4 11 5 10 6 9 7 7 8 8 9 6 10 3 11 2 13
REMARK SMILES IDX 1 14 4 15 5 16 72 17 73 18 80 19 74 20 79 21 75 22 76 23
REMARK SMILES IDX 77 24 78 25 16 26 17 27 18 28 19 29 20 30 21 31 22 32 23 33
REMARK SMILES IDX 24 34 25 35 71 36 26 37 70 38 27 39 28 40 29 41 64 42 30 43
REMARK SMILES IDX 69 44 63 45 65 46 31 47 68 48 62 49 61 50 32 52 54 53 39 54
REMARK SMILES IDX 53 55 40 56 43 57 52 58 66 59 41 60 42 61 51 63 67 64 44 65
REMARK SMILES IDX 33 66 34 67 38 68 35 69 37 70 36 71 55 72 56 73 60 74 57 75
REMARK SMILES IDX 59 76 58 77 45 78 46 79 50 80 47 81 49 82 48 83
REMARK H PARENT 3 12 65 51 43 62
REMARK Flexibility Score: inf
ROOT
ATOM      1  O   UNL A   1      34.571  21.686  24.066  1.00  0.00    -0.377 OA
ENDROOT
BRANCH   1   2
ATOM      2  C   UNL A   1      33.162  21.732  23.925  1.00  0.00     0.188 C 
BRANCH   2   3
ATOM      3  C   UNL A   1      32.393  20.863  24.919  1.00  0.00     0.188 C 
BRANCH   3   4
ATOM      4  O   UNL A   1      31.323  21.498  25.600  1.00  0.00    -0.376 OA
BRANCH   4   5
ATOM      5  C   UNL A   1      31.022  22.849  25.235  1.00  0.00     0.202 C 
BRANCH   5   6
ATOM      6  C   UNL A   1      31.270  23.962  26.264  1.00  0.00     0.261 C 
BRANCH   6   7
ATOM      7  O   UNL A   1      31.945  25.112  25.692  1.00  0.00    -0.459 OA
BRANCH   7   8
ATOM      8  C   UNL A   1      31.143  26.186  25.466  1.00  0.00     0.369 C 
ATOM      9  O   UNL A   1      30.577  26.783  26.384  1.00  0.00    -0.245 OA
BRANCH   8  10
ATOM     10  C   UNL A   1      31.011  26.667  24.002  1.00  0.00     0.326 C 
BRANCH  10  11
ATOM     11  N   UNL A   1      32.167  26.528  23.076  1.00  0.00    -0.320 N 
ATOM     12  H   UNL A   1      31.828  27.357  22.588  1.00  0.00     0.349 HD
BRANCH  11  13
ATOM     13  C   UNL A   1      33.491  27.105  23.282  1.00  0.00     0.259 C 
ATOM     14  C   UNL A   1      33.947  28.327  22.492  1.00  0.00     0.071 C 
ENDBRANCH  11  13
BRANCH  11  15
ATOM     15  C   UNL A   1      32.177  25.320  22.245  1.00  0.00     0.259 C 
ATOM     16  C   UNL A   1      32.714  25.461  20.821  1.00  0.00     0.071 C 
ENDBRANCH  11  15
ENDBRANCH  10  11
BRANCH  10  17
ATOM     17  C   UNL A   1      30.193  27.950  23.838  1.00  0.00     0.021 A 
ATOM     18  C   UNL A   1      30.684  29.220  24.153  1.00  0.00     0.011 A 
ATOM     19  C   UNL A   1      28.896  27.871  23.312  1.00  0.00     0.011 A 
ATOM     20  C   UNL A   1      29.939  30.373  23.868  1.00  0.00     0.004 A 
ATOM     21  C   UNL A   1      28.160  29.027  23.021  1.00  0.00     0.004 A 
ATOM     22  C   UNL A   1      28.674  30.309  23.264  1.00  0.00    -0.045 A 
BRANCH  22  23
ATOM     23  C   UNL A   1      27.968  31.592  22.878  1.00  0.00     0.019 C 
ATOM     24  C   UNL A   1      28.654  32.933  22.805  1.00  0.00     0.009 C 
ATOM     25  C   UNL A   1      28.268  32.223  21.541  1.00  0.00     0.009 C 
ENDBRANCH  22  23
ENDBRANCH  10  17
ENDBRANCH   8  10
ENDBRANCH   7   8
ENDBRANCH   6   7
ENDBRANCH   5   6
ENDBRANCH   4   5
ENDBRANCH   3   4
ENDBRANCH   2   3
ENDBRANCH   1   2
BRANCH   1  26
ATOM     26  C   UNL A   1      35.146  21.004  25.176  1.00  0.00     0.188 C 
BRANCH  26  27
ATOM     27  C   UNL A   1      36.173  19.910  24.891  1.00  0.00     0.188 C 
BRANCH  27  28
ATOM     28  O   UNL A   1      37.541  20.213  25.161  1.00  0.00    -0.376 OA
BRANCH  28  29
ATOM     29  C   UNL A   1      37.881  21.543  25.548  1.00  0.00     0.202 C 
BRANCH  29  30
ATOM     30  C   UNL A   1      39.330  21.742  25.997  1.00  0.00     0.261 C 
BRANCH  30  31
ATOM     31  O   UNL A   1      39.859  20.580  26.660  1.00  0.00    -0.460 OA
BRANCH  31  32
ATOM     32  C   UNL A   1      41.120  20.250  26.301  1.00  0.00     0.338 C 
ATOM     33  O   UNL A   1      41.477  19.290  25.640  1.00  0.00    -0.246 OA
BRANCH  32  34
ATOM     34  C   UNL A   1      42.058  21.306  26.720  1.00  0.00     0.060 A 
ATOM     35  C   UNL A   1      42.131  21.607  28.086  1.00  0.00     0.016 A 
ATOM     36  C   UNL A   1      42.742  22.082  25.781  1.00  0.00     0.016 A 
ATOM     37  C   UNL A   1      42.819  22.739  28.511  1.00  0.00     0.010 A 
ATOM     38  C   UNL A   1      43.422  23.226  26.206  1.00  0.00     0.010 A 
ATOM     39  C   UNL A   1      43.409  23.587  27.565  1.00  0.00    -0.014 A 
BRANCH  39  40
ATOM     40  C   UNL A   1      43.794  24.954  27.982  1.00  0.00     0.031 A 
ATOM     41  C   UNL A   1      42.698  25.950  28.255  1.00  0.00     0.074 A 
ATOM     42  C   UNL A   1      45.081  25.282  28.174  1.00  0.00     0.049 A 
ATOM     43  N   UNL A   1      42.788  27.190  28.664  1.00  0.00    -0.248 NA
ATOM     44  C   UNL A   1      41.317  25.485  28.041  1.00  0.00     0.031 C 
ATOM     45  C   UNL A   1      46.223  24.390  27.981  1.00  0.00     0.029 A 
ATOM     46  N   UNL A   1      45.640  26.465  28.582  1.00  0.00    -0.354 N 
ATOM     47  C   UNL A   1      41.479  27.651  28.751  1.00  0.00     0.074 A 
ATOM     48  C   UNL A   1      40.616  26.571  28.327  1.00  0.00     0.031 C 
ATOM     49  C   UNL A   1      47.351  25.061  28.270  1.00  0.00     0.029 A 
ATOM     50  C   UNL A   1      47.011  26.431  28.646  1.00  0.00     0.049 A 
ATOM     51  H   UNL A   1      45.110  27.263  28.809  1.00  0.00     0.167 HD
ATOM     52  C   UNL A   1      41.034  28.864  29.156  1.00  0.00     0.031 A 
ATOM     53  C   UNL A   1      47.887  27.402  28.965  1.00  0.00     0.031 A 
ATOM     54  C   UNL A   1      41.892  29.940  29.568  1.00  0.00     0.049 A 
ATOM     55  C   UNL A   1      47.367  28.756  29.369  1.00  0.00     0.074 A 
ATOM     56  C   UNL A   1      41.543  31.207  29.997  1.00  0.00     0.029 A 
ATOM     57  N   UNL A   1      43.275  29.872  29.598  1.00  0.00    -0.354 N 
ATOM     58  N   UNL A   1      46.128  29.172  29.470  1.00  0.00    -0.248 NA
ATOM     59  C   UNL A   1      48.374  29.769  29.721  1.00  0.00     0.031 C 
ATOM     60  C   UNL A   1      42.720  31.922  30.246  1.00  0.00     0.029 A 
ATOM     61  C   UNL A   1      43.798  31.080  30.023  1.00  0.00     0.049 A 
ATOM     62  H   UNL A   1      43.808  29.080  29.353  1.00  0.00     0.167 HD
ATOM     63  C   UNL A   1      46.203  30.481  29.928  1.00  0.00     0.074 A 
ATOM     64  C   UNL A   1      47.610  30.785  30.097  1.00  0.00     0.031 C 
ATOM     65  C   UNL A   1      45.200  31.357  30.187  1.00  0.00     0.031 A 
BRANCH  52  66
ATOM     66  C   UNL A   1      39.549  29.094  29.137  1.00  0.00    -0.014 A 
ATOM     67  C   UNL A   1      38.765  28.896  30.285  1.00  0.00     0.009 A 
ATOM     68  C   UNL A   1      38.930  29.538  27.959  1.00  0.00     0.009 A 
ATOM     69  C   UNL A   1      37.385  29.108  30.242  1.00  0.00     0.001 A 
ATOM     70  C   UNL A   1      37.554  29.773  27.927  1.00  0.00     0.001 A 
ATOM     71  C   UNL A   1      36.782  29.550  29.066  1.00  0.00     0.000 A 
ENDBRANCH  52  66
BRANCH  53  72
ATOM     72  C   UNL A   1      49.347  27.135  28.913  1.00  0.00    -0.014 A 
ATOM     73  C   UNL A   1      50.123  27.577  27.830  1.00  0.00     0.009 A 
ATOM     74  C   UNL A   1      49.970  26.412  29.943  1.00  0.00     0.009 A 
ATOM     75  C   UNL A   1      51.484  27.272  27.764  1.00  0.00     0.001 A 
ATOM     76  C   UNL A   1      51.337  26.133  29.887  1.00  0.00     0.001 A 
ATOM     77  C   UNL A   1      52.091  26.554  28.793  1.00  0.00     0.000 A 
ENDBRANCH  53  72
BRANCH  65  78
ATOM     78  C   UNL A   1      45.592  32.704  30.725  1.00  0.00    -0.014 A 
ATOM     79  C   UNL A   1      45.852  33.786  29.871  1.00  0.00     0.009 A 
ATOM     80  C   UNL A   1      45.675  32.895  32.113  1.00  0.00     0.009 A 
ATOM     81  C   UNL A   1      46.229  35.023  30.395  1.00  0.00     0.001 A 
ATOM     82  C   UNL A   1      46.025  34.141  32.636  1.00  0.00     0.001 A 
ATOM     83  C   UNL A   1      46.314  35.200  31.777  1.00  0.00     0.000 A 
ENDBRANCH  65  78
ENDBRANCH  39  40
ENDBRANCH  32  34
ENDBRANCH  31  32
ENDBRANCH  30  31
ENDBRANCH  29  30
ENDBRANCH  28  29
ENDBRANCH  27  28
ENDBRANCH  26  27
ENDBRANCH   1  26
TORSDOF 25
ENDMDL
MODEL 3
REMARK VINA RESULT:      -9.1      4.902     10.340
REMARK SMILES CC[NH+](CC)[C@@H](C(=O)OCCOCCOCCOCCOC(=O)c1ccc(-c2c3nc(c(-c4ccccc4)c4ccc([nH]4)c(-c4ccccc4)c4nc(c(-c5ccccc5)c5ccc2[nH]5)C=C4)C=C3)cc1)c1ccc(C2CC2)cc1
REMARK SMILES IDX 15 1 14 2 13 3 12 4 11 5 10 6 9 7 7 8 8 9 6 10 3 11 2 13
REMARK SMILES IDX 1 14 4 15 5 16 72 17 73 18 80 19 74 20 79 21 75 22 76 23
REMARK SMILES IDX 77 24 78 25 16 26 17 27 18 28 19 29 20 30 21 31 22 32 23 33
REMARK SMILES IDX 24 34 25 35 71 36 26 37 70 38 27 39 28 40 29 41 64 42 30 43
REMARK SMILES IDX 69 44 63 45 65 46 31 47 68 48 62 49 61 50 32 52 54 53 39 54
REMARK SMILES IDX 53 55 40 56 43 57 52 58 66 59 41 60 42 61 51 63 67 64 44 65
REMARK SMILES IDX 33 66 34 67 38 68 35 69 37 70 36 71 55 72 56 73 60 74 57 75
REMARK SMILES IDX 59 76 58 77 45 78 46 79 50 80 47 81 49 82 48 83
REMARK H PARENT 3 12 65 51 43 62
REMARK Flexibility Score: inf
ROOT
ATOM      1  O   UNL A   1      41.759  19.304  26.090  1.00  0.00    -0.377 OA
ENDROOT
BRANCH   1   2
ATOM      2  C   UNL A   1      41.361  19.980  27.270  1.00  0.00     0.188 C 
BRANCH   2   3
ATOM      3  C   UNL A   1      40.651  21.312  27.032  1.00  0.00     0.188 C 
BRANCH   3   4
ATOM      4  O   UNL A   1      39.551  21.278  26.137  1.00  0.00    -0.376 OA
BRANCH   4   5
ATOM      5  C   UNL A   1      38.728  22.447  26.066  1.00  0.00     0.202 C 
BRANCH   5   6
ATOM      6  C   UNL A   1      37.342  22.333  25.414  1.00  0.00     0.261 C 
BRANCH   6   7
ATOM      7  O   UNL A   1      36.852  23.604  24.914  1.00  0.00    -0.459 OA
BRANCH   7   8
ATOM      8  C   UNL A   1      35.620  23.551  24.340  1.00  0.00     0.369 C 
ATOM      9  O   UNL A   1      35.469  23.568  23.116  1.00  0.00    -0.245 OA
BRANCH   8  10
ATOM     10  C   UNL A   1      34.409  23.411  25.291  1.00  0.00     0.326 C 
BRANCH  10  11
ATOM     11  N   UNL A   1      33.495  22.246  25.149  1.00  0.00    -0.320 N 
ATOM     12  H   UNL A   1      32.718  22.907  25.117  1.00  0.00     0.349 HD
BRANCH  11  13
ATOM     13  C   UNL A   1      33.108  21.621  23.888  1.00  0.00     0.259 C 
ATOM     14  C   UNL A   1      32.186  22.337  22.908  1.00  0.00     0.071 C 
ENDBRANCH  11  13
BRANCH  11  15
ATOM     15  C   UNL A   1      33.441  21.334  26.296  1.00  0.00     0.259 C 
ATOM     16  C   UNL A   1      34.261  21.717  27.527  1.00  0.00     0.071 C 
ENDBRANCH  11  15
ENDBRANCH  10  11
BRANCH  10  17
ATOM     17  C   UNL A   1      33.728  24.738  25.634  1.00  0.00     0.021 A 
ATOM     18  C   UNL A   1      34.351  25.981  25.487  1.00  0.00     0.011 A 
ATOM     19  C   UNL A   1      32.401  24.729  26.084  1.00  0.00     0.011 A 
ATOM     20  C   UNL A   1      33.642  27.172  25.698  1.00  0.00     0.004 A 
ATOM     21  C   UNL A   1      31.695  25.923  26.284  1.00  0.00     0.004 A 
ATOM     22  C   UNL A   1      32.288  27.175  26.068  1.00  0.00    -0.045 A 
BRANCH  22  23
ATOM     23  C   UNL A   1      31.548  28.492  26.170  1.00  0.00     0.019 C 
ATOM     24  C   UNL A   1      31.943  29.601  27.112  1.00  0.00     0.009 C 
ATOM     25  C   UNL A   1      32.201  29.745  25.641  1.00  0.00     0.009 C 
ENDBRANCH  22  23
ENDBRANCH  10  17
ENDBRANCH   8  10
ENDBRANCH   7   8
ENDBRANCH   6   7
ENDBRANCH   5   6
ENDBRANCH   4   5
ENDBRANCH   3   4
ENDBRANCH   2   3
ENDBRANCH   1   2
BRANCH   1  26
ATOM     26  C   UNL A   1      42.946  18.517  26.094  1.00  0.00     0.188 C 
BRANCH  26  27
ATOM     27  C   UNL A   1      44.125  18.994  25.248  1.00  0.00     0.188 C 
BRANCH  27  28
ATOM     28  O   UNL A   1      44.067  20.327  24.742  1.00  0.00    -0.376 OA
BRANCH  28  29
ATOM     29  C   UNL A   1      45.251  20.898  24.190  1.00  0.00     0.202 C 
BRANCH  29  30
ATOM     30  C   UNL A   1      45.345  22.422  24.282  1.00  0.00     0.261 C 
BRANCH  30  31
ATOM     31  O   UNL A   1      44.909  22.919  25.560  1.00  0.00    -0.460 OA
BRANCH  31  32
ATOM     32  C   UNL A   1      43.879  23.794  25.506  1.00  0.00     0.338 C 
ATOM     33  O   UNL A   1      43.036  23.895  24.633  1.00  0.00    -0.246 OA
BRANCH  32  34
ATOM     34  C   UNL A   1      43.817  24.578  26.752  1.00  0.00     0.060 A 
ATOM     35  C   UNL A   1      43.167  24.003  27.851  1.00  0.00     0.016 A 
ATOM     36  C   UNL A   1      44.259  25.902  26.797  1.00  0.00     0.016 A 
ATOM     37  C   UNL A   1      42.877  24.778  28.969  1.00  0.00     0.010 A 
ATOM     38  C   UNL A   1      43.957  26.684  27.915  1.00  0.00     0.010 A 
ATOM     39  C   UNL A   1      43.212  26.137  28.975  1.00  0.00    -0.014 A 
BRANCH  39  40
ATOM     40  C   UNL A   1      42.573  27.020  29.977  1.00  0.00     0.031 A 
ATOM     41  C   UNL A   1      43.248  27.187  31.312  1.00  0.00     0.074 A 
ATOM     42  C   UNL A   1      41.456  27.704  29.684  1.00  0.00     0.049 A 
ATOM     43  N   UNL A   1      42.899  27.931  32.330  1.00  0.00    -0.248 NA
ATOM     44  C   UNL A   1      44.484  26.415  31.527  1.00  0.00     0.031 C 
ATOM     45  C   UNL A   1      40.739  27.653  28.412  1.00  0.00     0.029 A 
ATOM     46  N   UNL A   1      40.733  28.584  30.447  1.00  0.00    -0.354 N 
ATOM     47  C   UNL A   1      43.868  27.712  33.303  1.00  0.00     0.074 A 
ATOM     48  C   UNL A   1      44.802  26.747  32.769  1.00  0.00     0.031 C 
ATOM     49  C   UNL A   1      39.671  28.468  28.483  1.00  0.00     0.029 A 
ATOM     50  C   UNL A   1      39.623  29.079  29.810  1.00  0.00     0.049 A 
ATOM     51  H   UNL A   1      40.987  28.838  31.364  1.00  0.00     0.167 HD
ATOM     52  C   UNL A   1      43.975  28.271  34.533  1.00  0.00     0.031 A 
ATOM     53  C   UNL A   1      38.674  29.923  30.255  1.00  0.00     0.031 A 
ATOM     54  C   UNL A   1      43.041  29.222  35.069  1.00  0.00     0.049 A 
ATOM     55  C   UNL A   1      38.792  30.495  31.642  1.00  0.00     0.074 A 
ATOM     56  C   UNL A   1      43.058  29.849  36.301  1.00  0.00     0.029 A 
ATOM     57  N   UNL A   1      41.918  29.680  34.399  1.00  0.00    -0.354 N 
ATOM     58  N   UNL A   1      39.724  30.299  32.543  1.00  0.00    -0.248 NA
ATOM     59  C   UNL A   1      37.732  31.423  32.064  1.00  0.00     0.031 C 
ATOM     60  C   UNL A   1      41.918  30.655  36.395  1.00  0.00     0.029 A 
ATOM     61  C   UNL A   1      41.223  30.571  35.199  1.00  0.00     0.049 A 
ATOM     62  H   UNL A   1      41.653  29.412  33.489  1.00  0.00     0.167 HD
ATOM     63  C   UNL A   1      39.382  31.101  33.624  1.00  0.00     0.074 A 
ATOM     64  C   UNL A   1      38.164  31.796  33.260  1.00  0.00     0.031 C 
ATOM     65  C   UNL A   1      40.017  31.253  34.813  1.00  0.00     0.031 A 
BRANCH  52  66
ATOM     66  C   UNL A   1      45.130  27.834  35.390  1.00  0.00    -0.014 A 
ATOM     67  C   UNL A   1      45.032  26.717  36.233  1.00  0.00     0.009 A 
ATOM     68  C   UNL A   1      46.341  28.541  35.334  1.00  0.00     0.009 A 
ATOM     69  C   UNL A   1      46.115  26.334  37.027  1.00  0.00     0.001 A 
ATOM     70  C   UNL A   1      47.430  28.140  36.111  1.00  0.00     0.001 A 
ATOM     71  C   UNL A   1      47.314  27.043  36.962  1.00  0.00     0.000 A 
ENDBRANCH  52  66
BRANCH  53  72
ATOM     72  C   UNL A   1      37.523  30.277  29.384  1.00  0.00    -0.014 A 
ATOM     73  C   UNL A   1      36.546  29.324  29.057  1.00  0.00     0.009 A 
ATOM     74  C   UNL A   1      37.411  31.572  28.855  1.00  0.00     0.009 A 
ATOM     75  C   UNL A   1      35.499  29.652  28.193  1.00  0.00     0.001 A 
ATOM     76  C   UNL A   1      36.347  31.905  28.014  1.00  0.00     0.001 A 
ATOM     77  C   UNL A   1      35.399  30.942  27.675  1.00  0.00     0.000 A 
ENDBRANCH  53  72
BRANCH  65  78
ATOM     78  C   UNL A   1      39.429  32.241  35.780  1.00  0.00    -0.014 A 
ATOM     79  C   UNL A   1      39.835  33.585  35.790  1.00  0.00     0.009 A 
ATOM     80  C   UNL A   1      38.434  31.823  36.676  1.00  0.00     0.009 A 
ATOM     81  C   UNL A   1      39.284  34.480  36.709  1.00  0.00     0.001 A 
ATOM     82  C   UNL A   1      37.864  32.726  37.575  1.00  0.00     0.001 A 
ATOM     83  C   UNL A   1      38.299  34.051  37.598  1.00  0.00     0.000 A 
ENDBRANCH  65  78
ENDBRANCH  39  40
ENDBRANCH  32  34
ENDBRANCH  31  32
ENDBRANCH  30  31
ENDBRANCH  29  30
ENDBRANCH  28  29
ENDBRANCH  27  28
ENDBRANCH  26  27
ENDBRANCH   1  26
TORSDOF 25
ENDMDL
