MODEL 1
REMARK VINA RESULT:     -10.6      0.000      0.000
REMARK SMILES C[C@@]1(C(=O)OCCOCCOCCOCCOC(=O)c2ccc(-c3c4nc(c(-c5ccccc5)c5ccc([nH]5)c(-c5ccccc5)c5nc(c(-c6ccccc6)c6ccc3[nH]6)C=C5)C=C4)cc2)[C@@H]2C=C[C@@]3(CN(c4ccccc4)C(=O)[C@H]13)O2
REMARK SMILES IDX 12 1 11 2 10 3 9 4 8 5 7 6 6 7 5 8 3 9 4 10 2 11 1 12 68 13
REMARK SMILES IDX 82 14 69 15 83 16 71 17 80 18 70 19 72 20 73 21 81 22 74 23
REMARK SMILES IDX 75 24 79 25 76 26 78 27 77 28 13 29 14 30 15 31 16 32 17 33
REMARK SMILES IDX 18 34 19 35 20 36 21 37 67 38 22 39 66 40 23 41 24 42 25 43
REMARK SMILES IDX 60 44 26 45 65 46 59 47 61 48 27 49 64 50 58 51 57 52 28 54
REMARK SMILES IDX 50 55 35 56 49 57 36 58 39 59 48 60 62 61 37 62 38 63 47 65
REMARK SMILES IDX 63 66 40 67 29 68 30 69 34 70 31 71 33 72 32 73 51 74 52 75
REMARK SMILES IDX 56 76 53 77 55 78 54 79 41 80 42 81 46 82 43 83 45 84 44 85
REMARK H PARENT 61 53 39 64
REMARK Flexibility Score: inf
ROOT
ATOM      1  C   UNL A   1      41.157  20.368  27.380  1.00  0.00     0.188 C 
ENDROOT
BRANCH   1   2
ATOM      2  O   UNL A   1      40.043  21.245  27.472  1.00  0.00    -0.377 OA
BRANCH   2   3
ATOM      3  C   UNL A   1      39.686  22.078  26.385  1.00  0.00     0.188 C 
BRANCH   3   4
ATOM      4  C   UNL A   1      39.066  23.390  26.875  1.00  0.00     0.188 C 
BRANCH   4   5
ATOM      5  O   UNL A   1      38.262  24.112  25.948  1.00  0.00    -0.376 OA
BRANCH   5   6
ATOM      6  C   UNL A   1      36.985  23.578  25.591  1.00  0.00     0.202 C 
BRANCH   6   7
ATOM      7  C   UNL A   1      36.828  22.744  24.301  1.00  0.00     0.261 C 
BRANCH   7   8
ATOM      8  O   UNL A   1      35.493  22.233  24.016  1.00  0.00    -0.463 OA
BRANCH   8   9
ATOM      9  C   UNL A   1      35.024  21.313  24.885  1.00  0.00     0.315 C 
ATOM     10  O   UNL A   1      35.521  20.190  24.995  1.00  0.00    -0.251 OA
BRANCH   9  11
ATOM     11  C   UNL A   1      33.783  21.674  25.706  1.00  0.00     0.110 C 
ATOM     12  C   UNL A   1      34.176  21.406  27.179  1.00  0.00     0.028 C 
ATOM     13  C   UNL A   1      32.690  20.652  25.210  1.00  0.00     0.160 C 
ATOM     14  C   UNL A   1      32.920  22.958  25.676  1.00  0.00     0.137 C 
ATOM     15  C   UNL A   1      32.574  20.764  23.712  1.00  0.00     0.004 C 
ATOM     16  O   UNL A   1      31.423  21.315  25.566  1.00  0.00    -0.360 OA
ATOM     17  C   UNL A   1      31.704  22.523  24.845  1.00  0.00     0.118 C 
ATOM     18  C   UNL A   1      33.040  24.397  25.264  1.00  0.00     0.234 C 
ATOM     19  C   UNL A   1      32.038  21.968  23.487  1.00  0.00     0.009 C 
ATOM     20  C   UNL A   1      30.789  23.725  24.879  1.00  0.00     0.166 C 
ATOM     21  N   UNL A   1      31.768  24.794  24.809  1.00  0.00    -0.309 N 
ATOM     22  O   UNL A   1      33.938  25.160  25.564  1.00  0.00    -0.274 OA
BRANCH  21  23
ATOM     23  C   UNL A   1      31.510  26.005  24.157  1.00  0.00     0.044 A 
ATOM     24  C   UNL A   1      31.012  27.105  24.856  1.00  0.00     0.026 A 
ATOM     25  C   UNL A   1      31.698  26.079  22.776  1.00  0.00     0.026 A 
ATOM     26  C   UNL A   1      30.740  28.296  24.174  1.00  0.00     0.002 A 
ATOM     27  C   UNL A   1      31.347  27.241  22.092  1.00  0.00     0.002 A 
ATOM     28  C   UNL A   1      30.896  28.359  22.790  1.00  0.00     0.000 A 
ENDBRANCH  21  23
ENDBRANCH   9  11
ENDBRANCH   8   9
ENDBRANCH   7   8
ENDBRANCH   6   7
ENDBRANCH   5   6
ENDBRANCH   4   5
ENDBRANCH   3   4
ENDBRANCH   2   3
ENDBRANCH   1   2
BRANCH   1  29
ATOM     29  C   UNL A   1      41.210  19.451  26.160  1.00  0.00     0.188 C 
BRANCH  29  30
ATOM     30  O   UNL A   1      42.325  19.582  25.272  1.00  0.00    -0.376 OA
BRANCH  30  31
ATOM     31  C   UNL A   1      43.509  20.220  25.750  1.00  0.00     0.202 C 
BRANCH  31  32
ATOM     32  C   UNL A   1      44.102  21.271  24.814  1.00  0.00     0.261 C 
BRANCH  32  33
ATOM     33  O   UNL A   1      43.385  22.513  24.847  1.00  0.00    -0.460 OA
BRANCH  33  34
ATOM     34  C   UNL A   1      44.144  23.629  24.902  1.00  0.00     0.338 C 
ATOM     35  O   UNL A   1      45.142  23.898  24.251  1.00  0.00    -0.246 OA
BRANCH  34  36
ATOM     36  C   UNL A   1      43.502  24.577  25.822  1.00  0.00     0.060 A 
ATOM     37  C   UNL A   1      43.728  25.951  25.669  1.00  0.00     0.016 A 
ATOM     38  C   UNL A   1      42.716  24.096  26.867  1.00  0.00     0.016 A 
ATOM     39  C   UNL A   1      43.165  26.855  26.568  1.00  0.00     0.010 A 
ATOM     40  C   UNL A   1      42.168  24.999  27.774  1.00  0.00     0.010 A 
ATOM     41  C   UNL A   1      42.400  26.379  27.639  1.00  0.00    -0.014 A 
BRANCH  41  42
ATOM     42  C   UNL A   1      41.967  27.282  28.727  1.00  0.00     0.031 A 
ATOM     43  C   UNL A   1      42.745  27.260  30.012  1.00  0.00     0.074 A 
ATOM     44  C   UNL A   1      40.883  28.066  28.594  1.00  0.00     0.049 A 
ATOM     45  N   UNL A   1      42.477  27.835  31.154  1.00  0.00    -0.248 NA
ATOM     46  C   UNL A   1      43.982  26.460  30.012  1.00  0.00     0.031 C 
ATOM     47  C   UNL A   1      40.072  28.199  27.385  1.00  0.00     0.029 A 
ATOM     48  N   UNL A   1      40.270  28.888  29.505  1.00  0.00    -0.354 N 
ATOM     49  C   UNL A   1      43.495  27.443  32.014  1.00  0.00     0.074 A 
ATOM     50  C   UNL A   1      44.364  26.555  31.276  1.00  0.00     0.031 C 
ATOM     51  C   UNL A   1      39.060  29.049  27.631  1.00  0.00     0.029 A 
ATOM     52  C   UNL A   1      39.125  29.479  29.027  1.00  0.00     0.049 A 
ATOM     53  H   UNL A   1      40.616  29.040  30.414  1.00  0.00     0.167 HD
ATOM     54  C   UNL A   1      43.691  27.799  33.305  1.00  0.00     0.031 A 
ATOM     55  C   UNL A   1      38.220  30.252  29.657  1.00  0.00     0.031 A 
ATOM     56  C   UNL A   1      42.823  28.682  34.031  1.00  0.00     0.049 A 
ATOM     57  C   UNL A   1      38.419  30.574  31.116  1.00  0.00     0.074 A 
ATOM     58  C   UNL A   1      42.947  29.133  35.333  1.00  0.00     0.029 A 
ATOM     59  N   UNL A   1      41.665  29.245  33.518  1.00  0.00    -0.354 N 
ATOM     60  N   UNL A   1      39.401  30.225  31.914  1.00  0.00    -0.248 NA
ATOM     61  C   UNL A   1      37.384  31.393  31.762  1.00  0.00     0.031 C 
ATOM     62  C   UNL A   1      41.828  29.915  35.629  1.00  0.00     0.029 A 
ATOM     63  C   UNL A   1      41.044  30.010  34.489  1.00  0.00     0.049 A 
ATOM     64  H   UNL A   1      41.334  29.119  32.599  1.00  0.00     0.167 HD
ATOM     65  C   UNL A   1      39.116  30.806  33.144  1.00  0.00     0.074 A 
ATOM     66  C   UNL A   1      37.880  31.542  32.983  1.00  0.00     0.031 C 
ATOM     67  C   UNL A   1      39.815  30.738  34.305  1.00  0.00     0.031 A 
BRANCH  54  68
ATOM     68  C   UNL A   1      44.870  27.196  34.016  1.00  0.00    -0.014 A 
ATOM     69  C   UNL A   1      44.707  26.199  34.992  1.00  0.00     0.009 A 
ATOM     70  C   UNL A   1      46.167  27.619  33.690  1.00  0.00     0.009 A 
ATOM     71  C   UNL A   1      45.817  25.668  35.653  1.00  0.00     0.001 A 
ATOM     72  C   UNL A   1      47.276  27.064  34.328  1.00  0.00     0.001 A 
ATOM     73  C   UNL A   1      47.100  26.096  35.316  1.00  0.00     0.000 A 
ENDBRANCH  54  68
BRANCH  55  74
ATOM     74  C   UNL A   1      37.024  30.755  28.928  1.00  0.00    -0.014 A 
ATOM     75  C   UNL A   1      36.927  32.106  28.561  1.00  0.00     0.009 A 
ATOM     76  C   UNL A   1      35.962  29.893  28.616  1.00  0.00     0.009 A 
ATOM     77  C   UNL A   1      35.781  32.588  27.923  1.00  0.00     0.001 A 
ATOM     78  C   UNL A   1      34.830  30.370  27.949  1.00  0.00     0.001 A 
ATOM     79  C   UNL A   1      34.737  31.718  27.613  1.00  0.00     0.000 A 
ENDBRANCH  55  74
BRANCH  67  80
ATOM     80  C   UNL A   1      39.281  31.503  35.484  1.00  0.00    -0.014 A 
ATOM     81  C   UNL A   1      39.643  32.839  35.712  1.00  0.00     0.009 A 
ATOM     82  C   UNL A   1      38.345  30.897  36.337  1.00  0.00     0.009 A 
ATOM     83  C   UNL A   1      39.096  33.544  36.785  1.00  0.00     0.001 A 
ATOM     84  C   UNL A   1      37.775  31.613  37.389  1.00  0.00     0.001 A 
ATOM     85  C   UNL A   1      38.157  32.935  37.617  1.00  0.00     0.000 A 
ENDBRANCH  67  80
ENDBRANCH  41  42
ENDBRANCH  34  36
ENDBRANCH  33  34
ENDBRANCH  32  33
ENDBRANCH  31  32
ENDBRANCH  30  31
ENDBRANCH  29  30
ENDBRANCH   1  29
TORSDOF 21
ENDMDL
MODEL 2
REMARK VINA RESULT:     -10.3      0.879      5.670
REMARK SMILES C[C@@]1(C(=O)OCCOCCOCCOCCOC(=O)c2ccc(-c3c4nc(c(-c5ccccc5)c5ccc([nH]5)c(-c5ccccc5)c5nc(c(-c6ccccc6)c6ccc3[nH]6)C=C5)C=C4)cc2)[C@@H]2C=C[C@@]3(CN(c4ccccc4)C(=O)[C@H]13)O2
REMARK SMILES IDX 12 1 11 2 10 3 9 4 8 5 7 6 6 7 5 8 3 9 4 10 2 11 1 12 68 13
REMARK SMILES IDX 82 14 69 15 83 16 71 17 80 18 70 19 72 20 73 21 81 22 74 23
REMARK SMILES IDX 75 24 79 25 76 26 78 27 77 28 13 29 14 30 15 31 16 32 17 33
REMARK SMILES IDX 18 34 19 35 20 36 21 37 67 38 22 39 66 40 23 41 24 42 25 43
REMARK SMILES IDX 60 44 26 45 65 46 59 47 61 48 27 49 64 50 58 51 57 52 28 54
REMARK SMILES IDX 50 55 35 56 49 57 36 58 39 59 48 60 62 61 37 62 38 63 47 65
REMARK SMILES IDX 63 66 40 67 29 68 30 69 34 70 31 71 33 72 32 73 51 74 52 75
REMARK SMILES IDX 56 76 53 77 55 78 54 79 41 80 42 81 46 82 43 83 45 84 44 85
REMARK H PARENT 61 53 39 64
REMARK Flexibility Score: inf
ROOT
ATOM      1  C   UNL A   1      41.995  20.011  27.067  1.00  0.00     0.188 C 
ENDROOT
BRANCH   1   2
ATOM      2  O   UNL A   1      40.586  20.191  27.063  1.00  0.00    -0.377 OA
BRANCH   2   3
ATOM      3  C   UNL A   1      39.986  21.183  26.253  1.00  0.00     0.188 C 
BRANCH   3   4
ATOM      4  C   UNL A   1      40.098  22.567  26.902  1.00  0.00     0.188 C 
BRANCH   4   5
ATOM      5  O   UNL A   1      38.925  23.373  26.912  1.00  0.00    -0.376 OA
BRANCH   5   6
ATOM      6  C   UNL A   1      38.123  23.427  25.730  1.00  0.00     0.202 C 
BRANCH   6   7
ATOM      7  C   UNL A   1      36.591  23.590  25.840  1.00  0.00     0.261 C 
BRANCH   7   8
ATOM      8  O   UNL A   1      35.785  22.809  24.910  1.00  0.00    -0.463 OA
BRANCH   8   9
ATOM      9  C   UNL A   1      35.180  21.722  25.435  1.00  0.00     0.315 C 
ATOM     10  O   UNL A   1      35.681  20.597  25.387  1.00  0.00    -0.251 OA
BRANCH   9  11
ATOM     11  C   UNL A   1      33.788  21.905  26.044  1.00  0.00     0.110 C 
ATOM     12  C   UNL A   1      33.976  21.684  27.565  1.00  0.00     0.028 C 
ATOM     13  C   UNL A   1      32.936  20.747  25.399  1.00  0.00     0.160 C 
ATOM     14  C   UNL A   1      32.774  23.059  25.859  1.00  0.00     0.137 C 
ATOM     15  C   UNL A   1      33.044  20.851  23.900  1.00  0.00     0.004 C 
ATOM     16  O   UNL A   1      31.551  21.228  25.541  1.00  0.00    -0.360 OA
ATOM     17  C   UNL A   1      31.776  22.468  24.854  1.00  0.00     0.118 C 
ATOM     18  C   UNL A   1      32.761  24.504  25.450  1.00  0.00     0.234 C 
ATOM     19  C   UNL A   1      32.391  21.972  23.575  1.00  0.00     0.009 C 
ATOM     20  C   UNL A   1      30.712  23.534  24.726  1.00  0.00     0.166 C 
ATOM     21  N   UNL A   1      31.535  24.726  24.793  1.00  0.00    -0.309 N 
ATOM     22  O   UNL A   1      33.488  25.381  25.875  1.00  0.00    -0.274 OA
BRANCH  21  23
ATOM     23  C   UNL A   1      31.221  25.895  24.090  1.00  0.00     0.044 A 
ATOM     24  C   UNL A   1      30.532  26.941  24.706  1.00  0.00     0.026 A 
ATOM     25  C   UNL A   1      31.552  25.976  22.737  1.00  0.00     0.026 A 
ATOM     26  C   UNL A   1      30.210  28.087  23.972  1.00  0.00     0.002 A 
ATOM     27  C   UNL A   1      31.155  27.084  21.993  1.00  0.00     0.002 A 
ATOM     28  C   UNL A   1      30.511  28.153  22.612  1.00  0.00     0.000 A 
ENDBRANCH  21  23
ENDBRANCH   9  11
ENDBRANCH   8   9
ENDBRANCH   7   8
ENDBRANCH   6   7
ENDBRANCH   5   6
ENDBRANCH   4   5
ENDBRANCH   3   4
ENDBRANCH   2   3
ENDBRANCH   1   2
BRANCH   1  29
ATOM     29  C   UNL A   1      42.621  19.463  25.787  1.00  0.00     0.188 C 
BRANCH  29  30
ATOM     30  O   UNL A   1      43.480  20.330  25.038  1.00  0.00    -0.376 OA
BRANCH  30  31
ATOM     31  C   UNL A   1      43.741  21.639  25.544  1.00  0.00     0.202 C 
BRANCH  31  32
ATOM     32  C   UNL A   1      44.145  22.672  24.495  1.00  0.00     0.261 C 
BRANCH  32  33
ATOM     33  O   UNL A   1      43.519  23.946  24.700  1.00  0.00    -0.460 OA
BRANCH  33  34
ATOM     34  C   UNL A   1      44.326  24.932  25.148  1.00  0.00     0.338 C 
ATOM     35  O   UNL A   1      45.418  25.270  24.718  1.00  0.00    -0.246 OA
BRANCH  34  36
ATOM     36  C   UNL A   1      43.618  25.658  26.211  1.00  0.00     0.060 A 
ATOM     37  C   UNL A   1      43.872  27.021  26.405  1.00  0.00     0.016 A 
ATOM     38  C   UNL A   1      42.740  24.970  27.046  1.00  0.00     0.016 A 
ATOM     39  C   UNL A   1      43.245  27.707  27.444  1.00  0.00     0.010 A 
ATOM     40  C   UNL A   1      42.127  25.652  28.094  1.00  0.00     0.010 A 
ATOM     41  C   UNL A   1      42.385  27.018  28.307  1.00  0.00    -0.014 A 
BRANCH  41  42
ATOM     42  C   UNL A   1      41.871  27.653  29.539  1.00  0.00     0.031 A 
ATOM     43  C   UNL A   1      40.600  28.448  29.445  1.00  0.00     0.074 A 
ATOM     44  C   UNL A   1      42.541  27.565  30.701  1.00  0.00     0.049 A 
ATOM     45  N   UNL A   1      40.036  29.220  30.335  1.00  0.00    -0.248 NA
ATOM     46  C   UNL A   1      39.883  28.382  28.159  1.00  0.00     0.031 C 
ATOM     47  C   UNL A   1      43.762  26.793  30.924  1.00  0.00     0.029 A 
ATOM     48  N   UNL A   1      42.288  28.154  31.914  1.00  0.00    -0.354 N 
ATOM     49  C   UNL A   1      38.915  29.750  29.709  1.00  0.00     0.074 A 
ATOM     50  C   UNL A   1      38.899  29.245  28.355  1.00  0.00     0.031 C 
ATOM     51  C   UNL A   1      44.158  26.962  32.198  1.00  0.00     0.029 A 
ATOM     52  C   UNL A   1      43.247  27.891  32.863  1.00  0.00     0.049 A 
ATOM     53  H   UNL A   1      41.496  28.712  32.089  1.00  0.00     0.167 HD
ATOM     54  C   UNL A   1      37.979  30.582  30.221  1.00  0.00     0.031 A 
ATOM     55  C   UNL A   1      43.385  28.373  34.113  1.00  0.00     0.031 A 
ATOM     56  C   UNL A   1      38.002  31.080  31.568  1.00  0.00     0.049 A 
ATOM     57  C   UNL A   1      42.371  29.357  34.636  1.00  0.00     0.074 A 
ATOM     58  C   UNL A   1      37.085  31.902  32.197  1.00  0.00     0.029 A 
ATOM     59  N   UNL A   1      38.999  30.805  32.491  1.00  0.00    -0.354 N 
ATOM     60  N   UNL A   1      41.296  29.829  34.049  1.00  0.00    -0.248 NA
ATOM     61  C   UNL A   1      42.589  29.876  35.994  1.00  0.00     0.031 C 
ATOM     62  C   UNL A   1      37.563  32.179  33.481  1.00  0.00     0.029 A 
ATOM     63  C   UNL A   1      38.739  31.472  33.675  1.00  0.00     0.049 A 
ATOM     64  H   UNL A   1      39.775  30.222  32.328  1.00  0.00     0.167 HD
ATOM     65  C   UNL A   1      40.698  30.676  34.974  1.00  0.00     0.074 A 
ATOM     66  C   UNL A   1      41.519  30.640  36.167  1.00  0.00     0.031 C 
ATOM     67  C   UNL A   1      39.569  31.418  34.851  1.00  0.00     0.031 A 
BRANCH  54  68
ATOM     68  C   UNL A   1      36.876  31.030  29.303  1.00  0.00    -0.014 A 
ATOM     69  C   UNL A   1      35.829  30.169  28.938  1.00  0.00     0.009 A 
ATOM     70  C   UNL A   1      36.876  32.344  28.810  1.00  0.00     0.009 A 
ATOM     71  C   UNL A   1      34.826  30.603  28.068  1.00  0.00     0.001 A 
ATOM     72  C   UNL A   1      35.856  32.786  27.968  1.00  0.00     0.001 A 
ATOM     73  C   UNL A   1      34.838  31.912  27.589  1.00  0.00     0.000 A 
ENDBRANCH  54  68
BRANCH  55  74
ATOM     74  C   UNL A   1      44.543  27.962  34.952  1.00  0.00    -0.014 A 
ATOM     75  C   UNL A   1      45.768  28.640  34.861  1.00  0.00     0.009 A 
ATOM     76  C   UNL A   1      44.439  26.872  35.831  1.00  0.00     0.009 A 
ATOM     77  C   UNL A   1      46.871  28.220  35.611  1.00  0.00     0.001 A 
ATOM     78  C   UNL A   1      45.532  26.474  36.604  1.00  0.00     0.001 A 
ATOM     79  C   UNL A   1      46.749  27.141  36.485  1.00  0.00     0.000 A 
ENDBRANCH  55  74
BRANCH  67  80
ATOM     80  C   UNL A   1      39.134  32.225  36.042  1.00  0.00    -0.014 A 
ATOM     81  C   UNL A   1      39.596  33.534  36.246  1.00  0.00     0.009 A 
ATOM     82  C   UNL A   1      38.191  31.690  36.934  1.00  0.00     0.009 A 
ATOM     83  C   UNL A   1      39.139  34.282  37.333  1.00  0.00     0.001 A 
ATOM     84  C   UNL A   1      37.711  32.450  38.001  1.00  0.00     0.001 A 
ATOM     85  C   UNL A   1      38.192  33.743  38.204  1.00  0.00     0.000 A 
ENDBRANCH  67  80
ENDBRANCH  41  42
ENDBRANCH  34  36
ENDBRANCH  33  34
ENDBRANCH  32  33
ENDBRANCH  31  32
ENDBRANCH  30  31
ENDBRANCH  29  30
ENDBRANCH   1  29
TORSDOF 21
ENDMDL
MODEL 3
REMARK VINA RESULT:     -10.2      3.242      8.897
REMARK SMILES C[C@@]1(C(=O)OCCOCCOCCOCCOC(=O)c2ccc(-c3c4nc(c(-c5ccccc5)c5ccc([nH]5)c(-c5ccccc5)c5nc(c(-c6ccccc6)c6ccc3[nH]6)C=C5)C=C4)cc2)[C@@H]2C=C[C@@]3(CN(c4ccccc4)C(=O)[C@H]13)O2
REMARK SMILES IDX 12 1 11 2 10 3 9 4 8 5 7 6 6 7 5 8 3 9 4 10 2 11 1 12 68 13
REMARK SMILES IDX 82 14 69 15 83 16 71 17 80 18 70 19 72 20 73 21 81 22 74 23
REMARK SMILES IDX 75 24 79 25 76 26 78 27 77 28 13 29 14 30 15 31 16 32 17 33
REMARK SMILES IDX 18 34 19 35 20 36 21 37 67 38 22 39 66 40 23 41 24 42 25 43
REMARK SMILES IDX 60 44 26 45 65 46 59 47 61 48 27 49 64 50 58 51 57 52 28 54
REMARK SMILES IDX 50 55 35 56 49 57 36 58 39 59 48 60 62 61 37 62 38 63 47 65
REMARK SMILES IDX 63 66 40 67 29 68 30 69 34 70 31 71 33 72 32 73 51 74 52 75
REMARK SMILES IDX 56 76 53 77 55 78 54 79 41 80 42 81 46 82 43 83 45 84 44 85
REMARK H PARENT 61 53 39 64
REMARK Flexibility Score: inf
ROOT
ATOM      1  C   UNL A   1      32.096  29.247  25.299  1.00  0.00     0.188 C 
ENDROOT
BRANCH   1   2
ATOM      2  O   UNL A   1      30.915  28.629  24.806  1.00  0.00    -0.377 OA
BRANCH   2   3
ATOM      3  C   UNL A   1      30.387  28.985  23.542  1.00  0.00     0.188 C 
BRANCH   3   4
ATOM      4  C   UNL A   1      30.213  27.752  22.650  1.00  0.00     0.188 C 
BRANCH   4   5
ATOM      5  O   UNL A   1      31.335  27.355  21.869  1.00  0.00    -0.376 OA
BRANCH   5   6
ATOM      6  C   UNL A   1      31.545  25.961  21.637  1.00  0.00     0.202 C 
BRANCH   6   7
ATOM      7  C   UNL A   1      32.974  25.423  21.399  1.00  0.00     0.261 C 
BRANCH   7   8
ATOM      8  O   UNL A   1      33.606  24.739  22.520  1.00  0.00    -0.463 OA
BRANCH   8   9
ATOM      9  C   UNL A   1      33.441  25.323  23.726  1.00  0.00     0.315 C 
ATOM     10  O   UNL A   1      33.853  26.457  23.975  1.00  0.00    -0.251 OA
BRANCH   9  11
ATOM     11  C   UNL A   1      32.777  24.500  24.832  1.00  0.00     0.110 C 
ATOM     12  C   UNL A   1      31.398  25.164  25.064  1.00  0.00     0.028 C 
ATOM     13  C   UNL A   1      33.725  24.700  26.075  1.00  0.00     0.160 C 
ATOM     14  C   UNL A   1      32.584  22.968  24.942  1.00  0.00     0.137 C 
ATOM     15  C   UNL A   1      35.124  24.307  25.679  1.00  0.00     0.004 C 
ATOM     16  O   UNL A   1      33.416  23.537  26.925  1.00  0.00    -0.360 OA
ATOM     17  C   UNL A   1      33.700  22.560  25.913  1.00  0.00     0.118 C 
ATOM     18  C   UNL A   1      32.537  21.763  24.047  1.00  0.00     0.234 C 
ATOM     19  C   UNL A   1      35.082  22.983  25.496  1.00  0.00     0.009 C 
ATOM     20  C   UNL A   1      33.479  21.080  26.123  1.00  0.00     0.166 C 
ATOM     21  N   UNL A   1      33.071  20.690  24.787  1.00  0.00    -0.309 N 
ATOM     22  O   UNL A   1      31.881  21.645  23.030  1.00  0.00    -0.274 OA
BRANCH  21  23
ATOM     23  C   UNL A   1      33.381  19.438  24.243  1.00  0.00     0.044 A 
ATOM     24  C   UNL A   1      32.503  18.798  23.368  1.00  0.00     0.026 A 
ATOM     25  C   UNL A   1      34.560  18.806  24.640  1.00  0.00     0.026 A 
ATOM     26  C   UNL A   1      32.828  17.536  22.859  1.00  0.00     0.002 A 
ATOM     27  C   UNL A   1      34.836  17.516  24.193  1.00  0.00     0.002 A 
ATOM     28  C   UNL A   1      33.989  16.890  23.281  1.00  0.00     0.000 A 
ENDBRANCH  21  23
ENDBRANCH   9  11
ENDBRANCH   8   9
ENDBRANCH   7   8
ENDBRANCH   6   7
ENDBRANCH   5   6
ENDBRANCH   4   5
ENDBRANCH   3   4
ENDBRANCH   2   3
ENDBRANCH   1   2
BRANCH   1  29
ATOM     29  C   UNL A   1      32.144  29.539  26.797  1.00  0.00     0.188 C 
BRANCH  29  30
ATOM     30  O   UNL A   1      32.732  30.774  27.220  1.00  0.00    -0.376 OA
BRANCH  30  31
ATOM     31  C   UNL A   1      32.042  31.991  26.941  1.00  0.00     0.202 C 
BRANCH  31  32
ATOM     32  C   UNL A   1      32.845  33.265  27.195  1.00  0.00     0.261 C 
BRANCH  32  33
ATOM     33  O   UNL A   1      32.151  34.202  28.031  1.00  0.00    -0.460 OA
BRANCH  33  34
ATOM     34  C   UNL A   1      32.928  35.079  28.702  1.00  0.00     0.338 C 
ATOM     35  O   UNL A   1      32.692  36.247  28.971  1.00  0.00    -0.246 OA
BRANCH  34  36
ATOM     36  C   UNL A   1      34.114  34.362  29.190  1.00  0.00     0.060 A 
ATOM     37  C   UNL A   1      33.964  33.333  30.128  1.00  0.00     0.016 A 
ATOM     38  C   UNL A   1      35.379  34.749  28.753  1.00  0.00     0.016 A 
ATOM     39  C   UNL A   1      35.087  32.683  30.636  1.00  0.00     0.010 A 
ATOM     40  C   UNL A   1      36.501  34.110  29.273  1.00  0.00     0.010 A 
ATOM     41  C   UNL A   1      36.363  33.085  30.226  1.00  0.00    -0.014 A 
BRANCH  41  42
ATOM     42  C   UNL A   1      37.577  32.570  30.895  1.00  0.00     0.031 A 
ATOM     43  C   UNL A   1      38.280  31.397  30.275  1.00  0.00     0.074 A 
ATOM     44  C   UNL A   1      38.016  33.102  32.049  1.00  0.00     0.049 A 
ATOM     45  N   UNL A   1      39.260  30.673  30.747  1.00  0.00    -0.248 NA
ATOM     46  C   UNL A   1      37.791  30.967  28.953  1.00  0.00     0.031 C 
ATOM     47  C   UNL A   1      37.440  34.263  32.725  1.00  0.00     0.029 A 
ATOM     48  N   UNL A   1      39.047  32.714  32.866  1.00  0.00    -0.354 N 
ATOM     49  C   UNL A   1      39.486  29.688  29.793  1.00  0.00     0.074 A 
ATOM     50  C   UNL A   1      38.519  29.883  28.736  1.00  0.00     0.031 C 
ATOM     51  C   UNL A   1      38.123  34.490  33.861  1.00  0.00     0.029 A 
ATOM     52  C   UNL A   1      39.149  33.460  34.014  1.00  0.00     0.049 A 
ATOM     53  H   UNL A   1      39.656  31.970  32.650  1.00  0.00     0.167 HD
ATOM     54  C   UNL A   1      40.421  28.711  29.796  1.00  0.00     0.031 A 
ATOM     55  C   UNL A   1      39.960  33.308  35.080  1.00  0.00     0.031 A 
ATOM     56  C   UNL A   1      41.379  28.524  30.849  1.00  0.00     0.049 A 
ATOM     57  C   UNL A   1      40.944  32.166  35.094  1.00  0.00     0.074 A 
ATOM     58  C   UNL A   1      42.390  27.585  30.937  1.00  0.00     0.029 A 
ATOM     59  N   UNL A   1      41.437  29.290  32.003  1.00  0.00    -0.354 N 
ATOM     60  N   UNL A   1      41.172  31.259  34.174  1.00  0.00    -0.248 NA
ATOM     61  C   UNL A   1      41.780  32.027  36.295  1.00  0.00     0.031 C 
ATOM     62  C   UNL A   1      43.019  27.740  32.175  1.00  0.00     0.029 A 
ATOM     63  C   UNL A   1      42.446  28.821  32.827  1.00  0.00     0.049 A 
ATOM     64  H   UNL A   1      40.850  30.053  32.206  1.00  0.00     0.167 HD
ATOM     65  C   UNL A   1      42.196  30.460  34.673  1.00  0.00     0.074 A 
ATOM     66  C   UNL A   1      42.554  31.000  35.968  1.00  0.00     0.031 C 
ATOM     67  C   UNL A   1      42.787  29.377  34.111  1.00  0.00     0.031 A 
BRANCH  54  68
ATOM     68  C   UNL A   1      40.422  27.751  28.639  1.00  0.00    -0.014 A 
ATOM     69  C   UNL A   1      41.183  27.994  27.484  1.00  0.00     0.009 A 
ATOM     70  C   UNL A   1      39.663  26.574  28.715  1.00  0.00     0.009 A 
ATOM     71  C   UNL A   1      41.151  27.096  26.415  1.00  0.00     0.001 A 
ATOM     72  C   UNL A   1      39.659  25.662  27.660  1.00  0.00     0.001 A 
ATOM     73  C   UNL A   1      40.394  25.929  26.506  1.00  0.00     0.000 A 
ENDBRANCH  54  68
BRANCH  55  74
ATOM     74  C   UNL A   1      39.861  34.236  36.237  1.00  0.00    -0.014 A 
ATOM     75  C   UNL A   1      40.677  35.376  36.311  1.00  0.00     0.009 A 
ATOM     76  C   UNL A   1      38.968  33.977  37.288  1.00  0.00     0.009 A 
ATOM     77  C   UNL A   1      40.622  36.219  37.425  1.00  0.00     0.001 A 
ATOM     78  C   UNL A   1      38.889  34.839  38.385  1.00  0.00     0.001 A 
ATOM     79  C   UNL A   1      39.724  35.952  38.457  1.00  0.00     0.000 A 
ENDBRANCH  55  74
BRANCH  67  80
ATOM     80  C   UNL A   1      43.906  28.722  34.873  1.00  0.00    -0.014 A 
ATOM     81  C   UNL A   1      43.675  27.611  35.698  1.00  0.00     0.009 A 
ATOM     82  C   UNL A   1      45.221  29.182  34.704  1.00  0.00     0.009 A 
ATOM     83  C   UNL A   1      44.737  26.989  36.357  1.00  0.00     0.001 A 
ATOM     84  C   UNL A   1      46.285  28.539  35.337  1.00  0.00     0.001 A 
ATOM     85  C   UNL A   1      46.041  27.448  36.169  1.00  0.00     0.000 A 
ENDBRANCH  67  80
ENDBRANCH  41  42
ENDBRANCH  34  36
ENDBRANCH  33  34
ENDBRANCH  32  33
ENDBRANCH  31  32
ENDBRANCH  30  31
ENDBRANCH  29  30
ENDBRANCH   1  29
TORSDOF 21
ENDMDL
