MODEL 1
REMARK VINA RESULT:     -10.1      0.000      0.000
REMARK SMILES O=C(OCCOCCOCCOCCOC(=O)[C@H]1O[C@@H](Oc2c(-c3cc(O)c(O)c(O)c3)oc3cc(O)cc(O)c3c2=O)[C@H](O)[C@@H](O)[C@@H]1O)c1ccc(-c2c3nc(c(-c4ccccc4)c4ccc([nH]4)c(-c4ccccc4)c4nc(c(-c5ccccc5)c5ccc2[nH]5)C=C4)C=C3)cc1
REMARK SMILES IDX 10 1 9 2 8 3 7 4 6 5 5 6 4 7 3 8 2 9 1 10 50 11 51 12 97 13
REMARK SMILES IDX 52 14 96 15 53 16 54 17 55 18 90 19 56 20 95 21 89 22 91 23
REMARK SMILES IDX 57 24 94 25 88 26 87 27 58 29 80 30 65 31 79 32 66 33 69 34
REMARK SMILES IDX 78 35 92 36 67 37 68 38 77 40 93 41 70 42 59 43 60 44 64 45
REMARK SMILES IDX 61 46 63 47 62 48 81 49 82 50 86 51 83 52 85 53 84 54 71 55
REMARK SMILES IDX 72 56 76 57 73 58 75 59 74 60 11 61 12 62 13 63 14 64 15 65
REMARK SMILES IDX 16 66 17 67 18 68 19 69 48 70 20 71 46 72 44 73 49 74 21 76
REMARK SMILES IDX 22 77 23 78 42 79 33 80 41 81 43 82 34 83 39 84 35 85 38 86
REMARK SMILES IDX 36 87 24 88 25 89 32 90 26 91 30 92 28 93 27 94 31 96 29 98
REMARK SMILES IDX 40 100 37 102 47 104 45 106
REMARK H PARENT 91 28 69 39 49 75 27 95 31 97 29 99 40 101 37 103 47 105
REMARK H PARENT 45 107
REMARK Flexibility Score: inf
ROOT
ATOM      1  C   UNL A   1      36.535  21.056  24.739  1.00  0.00     0.188 C 
ENDROOT
BRANCH   1   2
ATOM      2  O   UNL A   1      37.892  21.086  25.160  1.00  0.00    -0.377 OA
BRANCH   2   3
ATOM      3  C   UNL A   1      38.559  19.829  25.183  1.00  0.00     0.188 C 
BRANCH   3   4
ATOM      4  C   UNL A   1      39.948  19.858  25.822  1.00  0.00     0.188 C 
BRANCH   4   5
ATOM      5  O   UNL A   1      40.418  21.198  25.981  1.00  0.00    -0.376 OA
BRANCH   5   6
ATOM      6  C   UNL A   1      40.524  21.677  27.326  1.00  0.00     0.202 C 
BRANCH   6   7
ATOM      7  C   UNL A   1      40.771  23.178  27.434  1.00  0.00     0.261 C 
BRANCH   7   8
ATOM      8  O   UNL A   1      41.806  23.634  26.552  1.00  0.00    -0.460 OA
BRANCH   8   9
ATOM      9  C   UNL A   1      43.135  23.724  26.801  1.00  0.00     0.338 C 
ATOM     10  O   UNL A   1      43.715  22.712  27.197  1.00  0.00    -0.246 OA
BRANCH   9  11
ATOM     11  C   UNL A   1      43.959  24.965  26.626  1.00  0.00     0.060 A 
ATOM     12  C   UNL A   1      44.194  25.634  25.424  1.00  0.00     0.016 A 
ATOM     13  C   UNL A   1      44.486  25.538  27.799  1.00  0.00     0.016 A 
ATOM     14  C   UNL A   1      44.933  26.802  25.364  1.00  0.00     0.010 A 
ATOM     15  C   UNL A   1      45.245  26.712  27.753  1.00  0.00     0.010 A 
ATOM     16  C   UNL A   1      45.484  27.328  26.522  1.00  0.00    -0.014 A 
BRANCH  16  17
ATOM     17  C   UNL A   1      46.490  28.382  26.343  1.00  0.00     0.031 A 
ATOM     18  C   UNL A   1      46.026  29.798  26.494  1.00  0.00     0.074 A 
ATOM     19  C   UNL A   1      47.791  28.058  26.270  1.00  0.00     0.049 A 
ATOM     20  N   UNL A   1      46.701  30.909  26.378  1.00  0.00    -0.248 NA
ATOM     21  C   UNL A   1      44.607  29.989  26.852  1.00  0.00     0.031 C 
ATOM     22  C   UNL A   1      48.328  26.695  26.318  1.00  0.00     0.029 A 
ATOM     23  N   UNL A   1      48.901  28.852  26.186  1.00  0.00    -0.354 N 
ATOM     24  C   UNL A   1      45.783  31.923  26.616  1.00  0.00     0.074 A 
ATOM     25  C   UNL A   1      44.507  31.307  26.884  1.00  0.00     0.031 C 
ATOM     26  C   UNL A   1      49.670  26.752  26.279  1.00  0.00     0.029 A 
ATOM     27  C   UNL A   1      50.076  28.144  26.128  1.00  0.00     0.049 A 
ATOM     28  H   UNL A   1      48.861  29.836  26.169  1.00  0.00     0.167 HD
ATOM     29  C   UNL A   1      45.998  33.258  26.594  1.00  0.00     0.031 A 
ATOM     30  C   UNL A   1      51.330  28.588  25.929  1.00  0.00     0.031 A 
ATOM     31  C   UNL A   1      47.282  33.830  26.307  1.00  0.00     0.049 A 
ATOM     32  C   UNL A   1      51.517  30.073  25.761  1.00  0.00     0.074 A 
ATOM     33  C   UNL A   1      47.629  35.157  26.154  1.00  0.00     0.029 A 
ATOM     34  N   UNL A   1      48.440  33.082  26.129  1.00  0.00    -0.354 N 
ATOM     35  N   UNL A   1      50.632  31.036  25.879  1.00  0.00    -0.248 NA
ATOM     36  C   UNL A   1      52.867  30.532  25.415  1.00  0.00     0.031 C 
ATOM     37  C   UNL A   1      48.989  35.208  25.829  1.00  0.00     0.029 A 
ATOM     38  C   UNL A   1      49.502  33.918  25.844  1.00  0.00     0.049 A 
ATOM     39  H   UNL A   1      48.496  32.102  26.197  1.00  0.00     0.167 HD
ATOM     40  C   UNL A   1      51.318  32.216  25.639  1.00  0.00     0.074 A 
ATOM     41  C   UNL A   1      52.701  31.846  25.395  1.00  0.00     0.031 C 
ATOM     42  C   UNL A   1      50.859  33.493  25.612  1.00  0.00     0.031 A 
BRANCH  29  43
ATOM     43  C   UNL A   1      44.800  34.143  26.779  1.00  0.00    -0.014 A 
ATOM     44  C   UNL A   1      44.410  34.610  28.046  1.00  0.00     0.009 A 
ATOM     45  C   UNL A   1      44.014  34.472  25.664  1.00  0.00     0.009 A 
ATOM     46  C   UNL A   1      43.236  35.354  28.193  1.00  0.00     0.001 A 
ATOM     47  C   UNL A   1      42.857  35.237  25.810  1.00  0.00     0.001 A 
ATOM     48  C   UNL A   1      42.462  35.668  27.076  1.00  0.00     0.000 A 
ENDBRANCH  29  43
BRANCH  30  49
ATOM     49  C   UNL A   1      52.464  27.635  25.786  1.00  0.00    -0.014 A 
ATOM     50  C   UNL A   1      53.124  27.112  26.908  1.00  0.00     0.009 A 
ATOM     51  C   UNL A   1      52.920  27.268  24.508  1.00  0.00     0.009 A 
ATOM     52  C   UNL A   1      54.231  26.271  26.752  1.00  0.00     0.001 A 
ATOM     53  C   UNL A   1      54.005  26.401  24.355  1.00  0.00     0.001 A 
ATOM     54  C   UNL A   1      54.668  25.914  25.477  1.00  0.00     0.000 A 
ENDBRANCH  30  49
BRANCH  42  55
ATOM     55  C   UNL A   1      51.872  34.565  25.346  1.00  0.00    -0.014 A 
ATOM     56  C   UNL A   1      52.037  35.110  24.064  1.00  0.00     0.009 A 
ATOM     57  C   UNL A   1      52.635  35.069  26.411  1.00  0.00     0.009 A 
ATOM     58  C   UNL A   1      52.976  36.118  23.848  1.00  0.00     0.001 A 
ATOM     59  C   UNL A   1      53.548  36.099  26.197  1.00  0.00     0.001 A 
ATOM     60  C   UNL A   1      53.725  36.616  24.914  1.00  0.00     0.000 A 
ENDBRANCH  42  55
ENDBRANCH  16  17
ENDBRANCH   9  11
ENDBRANCH   8   9
ENDBRANCH   7   8
ENDBRANCH   6   7
ENDBRANCH   5   6
ENDBRANCH   4   5
ENDBRANCH   3   4
ENDBRANCH   2   3
ENDBRANCH   1   2
BRANCH   1  61
ATOM     61  C   UNL A   1      35.449  21.772  25.574  1.00  0.00     0.188 C 
BRANCH  61  62
ATOM     62  O   UNL A   1      34.780  22.819  24.880  1.00  0.00    -0.376 OA
BRANCH  62  63
ATOM     63  C   UNL A   1      34.979  24.130  25.402  1.00  0.00     0.202 C 
BRANCH  63  64
ATOM     64  C   UNL A   1      33.715  24.926  25.753  1.00  0.00     0.261 C 
BRANCH  64  65
ATOM     65  O   UNL A   1      33.954  26.306  26.065  1.00  0.00    -0.461 OA
BRANCH  65  66
ATOM     66  C   UNL A   1      33.747  27.265  25.132  1.00  0.00     0.338 C 
ATOM     67  O   UNL A   1      34.086  27.177  23.955  1.00  0.00    -0.249 OA
BRANCH  66  68
ATOM     68  C   UNL A   1      32.967  28.465  25.724  1.00  0.00     0.263 C 
ATOM     69  O   UNL A   1      33.779  29.394  26.474  1.00  0.00    -0.322 OA
ATOM     70  C   UNL A   1      32.220  29.195  24.595  1.00  0.00     0.186 C 
ATOM     71  C   UNL A   1      33.120  30.541  27.044  1.00  0.00     0.340 C 
ATOM     72  C   UNL A   1      31.215  30.105  25.278  1.00  0.00     0.181 C 
ATOM     73  C   UNL A   1      31.918  31.056  26.241  1.00  0.00     0.214 C 
BRANCH  70  74
ATOM     74  O   UNL A   1      31.541  28.319  23.692  1.00  0.00    -0.387 OA
ATOM     75  H   UNL A   1      32.177  27.699  23.303  1.00  0.00     0.211 HD
ENDBRANCH  70  74
BRANCH  71  76
ATOM     76  O   UNL A   1      34.037  31.578  27.543  1.00  0.00    -0.454 OA
BRANCH  76  77
ATOM     77  C   UNL A   1      34.164  32.365  28.681  1.00  0.00     0.214 A 
ATOM     78  C   UNL A   1      35.019  32.284  29.741  1.00  0.00     0.181 A 
ATOM     79  C   UNL A   1      33.352  33.661  28.650  1.00  0.00     0.239 A 
ATOM     80  O   UNL A   1      35.061  33.160  30.812  1.00  0.00    -0.452 OA
ATOM     81  C   UNL A   1      33.583  34.695  29.704  1.00  0.00     0.111 A 
ATOM     82  O   UNL A   1      32.507  33.832  27.776  1.00  0.00    -0.285 OA
ATOM     83  C   UNL A   1      34.412  34.350  30.757  1.00  0.00     0.146 A 
ATOM     84  C   UNL A   1      33.005  35.978  29.732  1.00  0.00     0.134 A 
ATOM     85  C   UNL A   1      34.634  35.211  31.839  1.00  0.00     0.094 A 
ATOM     86  C   UNL A   1      33.222  36.857  30.809  1.00  0.00     0.093 A 
ATOM     87  C   UNL A   1      34.028  36.456  31.866  1.00  0.00     0.123 A 
BRANCH  78  88
ATOM     88  C   UNL A   1      36.039  31.267  30.003  1.00  0.00     0.029 A 
ATOM     89  C   UNL A   1      36.185  30.819  31.331  1.00  0.00     0.062 A 
ATOM     90  C   UNL A   1      36.833  30.724  28.983  1.00  0.00     0.062 A 
ATOM     91  C   UNL A   1      36.935  29.684  31.581  1.00  0.00     0.162 A 
ATOM     92  C   UNL A   1      37.605  29.602  29.263  1.00  0.00     0.162 A 
ATOM     93  C   UNL A   1      37.590  29.045  30.537  1.00  0.00     0.200 A 
BRANCH  91  94
ATOM     94  O   UNL A   1      36.904  29.137  32.831  1.00  0.00    -0.504 OA
ATOM     95  H   UNL A   1      37.575  28.541  33.098  1.00  0.00     0.293 HD
ENDBRANCH  91  94
BRANCH  92  96
ATOM     96  O   UNL A   1      38.250  28.967  28.240  1.00  0.00    -0.504 OA
ATOM     97  H   UNL A   1      39.128  28.660  28.358  1.00  0.00     0.293 HD
ENDBRANCH  92  96
BRANCH  93  98
ATOM     98  O   UNL A   1      38.053  27.768  30.719  1.00  0.00    -0.502 OA
ATOM     99  H   UNL A   1      38.895  27.625  31.103  1.00  0.00     0.293 HD
ENDBRANCH  93  98
ENDBRANCH  78  88
BRANCH  84 100
ATOM    100  O   UNL A   1      32.207  36.412  28.711  1.00  0.00    -0.507 OA
ATOM    101  H   UNL A   1      32.360  37.250  28.320  1.00  0.00     0.293 HD
ENDBRANCH  84 100
BRANCH  87 102
ATOM    102  O   UNL A   1      34.254  37.247  32.951  1.00  0.00    -0.508 OA
ATOM    103  H   UNL A   1      33.553  37.445  33.540  1.00  0.00     0.293 HD
ENDBRANCH  87 102
ENDBRANCH  76  77
ENDBRANCH  71  76
BRANCH  72 104
ATOM    104  O   UNL A   1      30.451  30.856  24.308  1.00  0.00    -0.387 OA
ATOM    105  H   UNL A   1      30.815  30.701  23.422  1.00  0.00     0.211 HD
ENDBRANCH  72 104
BRANCH  73 106
ATOM    106  O   UNL A   1      30.931  31.587  27.133  1.00  0.00    -0.384 OA
ATOM    107  H   UNL A   1      31.353  32.198  27.756  1.00  0.00     0.211 HD
ENDBRANCH  73 106
ENDBRANCH  66  68
ENDBRANCH  65  66
ENDBRANCH  64  65
ENDBRANCH  63  64
ENDBRANCH  62  63
ENDBRANCH  61  62
ENDBRANCH   1  61
TORSDOF 31
ENDMDL
MODEL 2
REMARK VINA RESULT:     -10.0      3.918     10.455
REMARK SMILES O=C(OCCOCCOCCOCCOC(=O)[C@H]1O[C@@H](Oc2c(-c3cc(O)c(O)c(O)c3)oc3cc(O)cc(O)c3c2=O)[C@H](O)[C@@H](O)[C@@H]1O)c1ccc(-c2c3nc(c(-c4ccccc4)c4ccc([nH]4)c(-c4ccccc4)c4nc(c(-c5ccccc5)c5ccc2[nH]5)C=C4)C=C3)cc1
REMARK SMILES IDX 10 1 9 2 8 3 7 4 6 5 5 6 4 7 3 8 2 9 1 10 50 11 51 12 97 13
REMARK SMILES IDX 52 14 96 15 53 16 54 17 55 18 90 19 56 20 95 21 89 22 91 23
REMARK SMILES IDX 57 24 94 25 88 26 87 27 58 29 80 30 65 31 79 32 66 33 69 34
REMARK SMILES IDX 78 35 92 36 67 37 68 38 77 40 93 41 70 42 59 43 60 44 64 45
REMARK SMILES IDX 61 46 63 47 62 48 81 49 82 50 86 51 83 52 85 53 84 54 71 55
REMARK SMILES IDX 72 56 76 57 73 58 75 59 74 60 11 61 12 62 13 63 14 64 15 65
REMARK SMILES IDX 16 66 17 67 18 68 19 69 48 70 20 71 46 72 44 73 49 74 21 76
REMARK SMILES IDX 22 77 23 78 42 79 33 80 41 81 43 82 34 83 39 84 35 85 38 86
REMARK SMILES IDX 36 87 24 88 25 89 32 90 26 91 30 92 28 93 27 94 31 96 29 98
REMARK SMILES IDX 40 100 37 102 47 104 45 106
REMARK H PARENT 91 28 69 39 49 75 27 95 31 97 29 99 40 101 37 103 47 105
REMARK H PARENT 45 107
REMARK Flexibility Score: inf
ROOT
ATOM      1  C   UNL A   1      34.574  34.113  30.354  1.00  0.00     0.188 C 
ENDROOT
BRANCH   1   2
ATOM      2  O   UNL A   1      33.231  34.566  30.463  1.00  0.00    -0.377 OA
BRANCH   2   3
ATOM      3  C   UNL A   1      33.049  35.976  30.401  1.00  0.00     0.188 C 
BRANCH   3   4
ATOM      4  C   UNL A   1      32.694  36.630  31.737  1.00  0.00     0.188 C 
BRANCH   4   5
ATOM      5  O   UNL A   1      33.031  35.781  32.837  1.00  0.00    -0.376 OA
BRANCH   5   6
ATOM      6  C   UNL A   1      34.124  36.208  33.656  1.00  0.00     0.202 C 
BRANCH   6   7
ATOM      7  C   UNL A   1      35.309  35.249  33.661  1.00  0.00     0.261 C 
BRANCH   7   8
ATOM      8  O   UNL A   1      35.221  34.263  34.699  1.00  0.00    -0.460 OA
BRANCH   8   9
ATOM      9  C   UNL A   1      36.229  33.730  35.431  1.00  0.00     0.338 C 
ATOM     10  O   UNL A   1      36.092  33.691  36.654  1.00  0.00    -0.246 OA
BRANCH   9  11
ATOM     11  C   UNL A   1      37.502  33.177  34.863  1.00  0.00     0.060 A 
ATOM     12  C   UNL A   1      38.795  33.580  35.196  1.00  0.00     0.016 A 
ATOM     13  C   UNL A   1      37.372  32.106  33.957  1.00  0.00     0.016 A 
ATOM     14  C   UNL A   1      39.917  32.982  34.653  1.00  0.00     0.010 A 
ATOM     15  C   UNL A   1      38.497  31.498  33.390  1.00  0.00     0.010 A 
ATOM     16  C   UNL A   1      39.771  31.959  33.728  1.00  0.00    -0.014 A 
BRANCH  16  17
ATOM     17  C   UNL A   1      40.976  31.582  32.978  1.00  0.00     0.031 A 
ATOM     18  C   UNL A   1      41.494  32.571  31.979  1.00  0.00     0.074 A 
ATOM     19  C   UNL A   1      41.682  30.501  33.347  1.00  0.00     0.049 A 
ATOM     20  N   UNL A   1      42.524  32.485  31.185  1.00  0.00    -0.248 NA
ATOM     21  C   UNL A   1      40.761  33.848  31.881  1.00  0.00     0.031 C 
ATOM     22  C   UNL A   1      41.335  29.600  34.452  1.00  0.00     0.029 A 
ATOM     23  N   UNL A   1      42.860  30.002  32.866  1.00  0.00    -0.354 N 
ATOM     24  C   UNL A   1      42.542  33.677  30.474  1.00  0.00     0.074 A 
ATOM     25  C   UNL A   1      41.427  34.474  30.926  1.00  0.00     0.031 C 
ATOM     26  C   UNL A   1      42.293  28.666  34.571  1.00  0.00     0.029 A 
ATOM     27  C   UNL A   1      43.273  28.860  33.509  1.00  0.00     0.049 A 
ATOM     28  H   UNL A   1      43.363  30.420  32.130  1.00  0.00     0.167 HD
ATOM     29  C   UNL A   1      43.414  34.058  29.514  1.00  0.00     0.031 A 
ATOM     30  C   UNL A   1      44.309  28.051  33.227  1.00  0.00     0.031 A 
ATOM     31  C   UNL A   1      44.501  33.227  29.082  1.00  0.00     0.049 A 
ATOM     32  C   UNL A   1      45.178  28.425  32.055  1.00  0.00     0.074 A 
ATOM     33  C   UNL A   1      45.403  33.436  28.059  1.00  0.00     0.029 A 
ATOM     34  N   UNL A   1      44.827  32.011  29.672  1.00  0.00    -0.354 N 
ATOM     35  N   UNL A   1      45.136  29.504  31.306  1.00  0.00    -0.248 NA
ATOM     36  C   UNL A   1      46.223  27.468  31.677  1.00  0.00     0.031 C 
ATOM     37  C   UNL A   1      46.241  32.317  27.994  1.00  0.00     0.029 A 
ATOM     38  C   UNL A   1      45.902  31.443  29.019  1.00  0.00     0.049 A 
ATOM     39  H   UNL A   1      44.359  31.613  30.442  1.00  0.00     0.167 HD
ATOM     40  C   UNL A   1      46.157  29.364  30.379  1.00  0.00     0.074 A 
ATOM     41  C   UNL A   1      46.817  28.107  30.679  1.00  0.00     0.031 C 
ATOM     42  C   UNL A   1      46.520  30.188  29.364  1.00  0.00     0.031 A 
BRANCH  29  43
ATOM     43  C   UNL A   1      43.139  35.362  28.823  1.00  0.00    -0.014 A 
ATOM     44  C   UNL A   1      42.335  35.440  27.674  1.00  0.00     0.009 A 
ATOM     45  C   UNL A   1      43.745  36.532  29.306  1.00  0.00     0.009 A 
ATOM     46  C   UNL A   1      42.178  36.655  27.003  1.00  0.00     0.001 A 
ATOM     47  C   UNL A   1      43.565  37.750  28.650  1.00  0.00     0.001 A 
ATOM     48  C   UNL A   1      42.791  37.809  27.492  1.00  0.00     0.000 A 
ENDBRANCH  29  43
BRANCH  30  49
ATOM     49  C   UNL A   1      44.521  26.788  33.986  1.00  0.00    -0.014 A 
ATOM     50  C   UNL A   1      43.998  25.568  33.532  1.00  0.00     0.009 A 
ATOM     51  C   UNL A   1      45.225  26.805  35.202  1.00  0.00     0.009 A 
ATOM     52  C   UNL A   1      44.149  24.404  34.293  1.00  0.00     0.001 A 
ATOM     53  C   UNL A   1      45.403  25.635  35.945  1.00  0.00     0.001 A 
ATOM     54  C   UNL A   1      44.853  24.438  35.496  1.00  0.00     0.000 A 
ENDBRANCH  30  49
BRANCH  42  55
ATOM     55  C   UNL A   1      47.701  29.762  28.544  1.00  0.00    -0.014 A 
ATOM     56  C   UNL A   1      47.536  29.074  27.333  1.00  0.00     0.009 A 
ATOM     57  C   UNL A   1      48.993  30.102  28.971  1.00  0.00     0.009 A 
ATOM     58  C   UNL A   1      48.650  28.704  26.581  1.00  0.00     0.001 A 
ATOM     59  C   UNL A   1      50.102  29.759  28.201  1.00  0.00     0.001 A 
ATOM     60  C   UNL A   1      49.931  29.052  27.012  1.00  0.00     0.000 A 
ENDBRANCH  42  55
ENDBRANCH  16  17
ENDBRANCH   9  11
ENDBRANCH   8   9
ENDBRANCH   7   8
ENDBRANCH   6   7
ENDBRANCH   5   6
ENDBRANCH   4   5
ENDBRANCH   3   4
ENDBRANCH   2   3
ENDBRANCH   1   2
BRANCH   1  61
ATOM     61  C   UNL A   1      34.968  32.720  30.896  1.00  0.00     0.188 C 
BRANCH  61  62
ATOM     62  O   UNL A   1      35.862  32.001  30.053  1.00  0.00    -0.376 OA
BRANCH  62  63
ATOM     63  C   UNL A   1      36.527  30.897  30.661  1.00  0.00     0.202 C 
BRANCH  63  64
ATOM     64  C   UNL A   1      36.533  29.583  29.871  1.00  0.00     0.261 C 
BRANCH  64  65
ATOM     65  O   UNL A   1      35.488  29.474  28.893  1.00  0.00    -0.461 OA
BRANCH  65  66
ATOM     66  C   UNL A   1      35.738  29.745  27.591  1.00  0.00     0.338 C 
ATOM     67  O   UNL A   1      36.860  29.835  27.100  1.00  0.00    -0.249 OA
BRANCH  66  68
ATOM     68  C   UNL A   1      34.422  29.863  26.781  1.00  0.00     0.263 C 
ATOM     69  O   UNL A   1      33.718  28.616  26.600  1.00  0.00    -0.322 OA
ATOM     70  C   UNL A   1      33.507  30.906  27.446  1.00  0.00     0.186 C 
ATOM     71  C   UNL A   1      32.479  28.655  25.865  1.00  0.00     0.340 C 
ATOM     72  C   UNL A   1      32.430  31.229  26.426  1.00  0.00     0.181 C 
ATOM     73  C   UNL A   1      31.689  29.963  26.007  1.00  0.00     0.214 C 
BRANCH  70  74
ATOM     74  O   UNL A   1      34.182  32.106  27.830  1.00  0.00    -0.387 OA
ATOM     75  H   UNL A   1      34.735  31.931  28.607  1.00  0.00     0.211 HD
ENDBRANCH  70  74
BRANCH  71  76
ATOM     76  O   UNL A   1      31.682  27.422  25.961  1.00  0.00    -0.454 OA
BRANCH  76  77
ATOM     77  C   UNL A   1      31.440  26.301  25.176  1.00  0.00     0.214 A 
ATOM     78  C   UNL A   1      30.725  26.145  24.024  1.00  0.00     0.181 A 
ATOM     79  C   UNL A   1      32.279  25.076  25.543  1.00  0.00     0.239 A 
ATOM     80  O   UNL A   1      30.583  24.964  23.317  1.00  0.00    -0.452 OA
ATOM     81  C   UNL A   1      32.279  23.890  24.635  1.00  0.00     0.111 A 
ATOM     82  O   UNL A   1      32.925  25.069  26.587  1.00  0.00    -0.285 OA
ATOM     83  C   UNL A   1      31.382  23.900  23.581  1.00  0.00     0.146 A 
ATOM     84  C   UNL A   1      33.092  22.750  24.778  1.00  0.00     0.134 A 
ATOM     85  C   UNL A   1      31.241  22.808  22.716  1.00  0.00     0.094 A 
ATOM     86  C   UNL A   1      32.967  21.646  23.914  1.00  0.00     0.093 A 
ATOM     87  C   UNL A   1      32.026  21.681  22.894  1.00  0.00     0.123 A 
BRANCH  78  88
ATOM     88  C   UNL A   1      29.939  27.151  23.306  1.00  0.00     0.029 A 
ATOM     89  C   UNL A   1      28.550  27.181  23.541  1.00  0.00     0.062 A 
ATOM     90  C   UNL A   1      30.528  28.076  22.434  1.00  0.00     0.062 A 
ATOM     91  C   UNL A   1      27.815  28.267  23.102  1.00  0.00     0.162 A 
ATOM     92  C   UNL A   1      29.764  29.144  21.977  1.00  0.00     0.162 A 
ATOM     93  C   UNL A   1      28.437  29.273  22.376  1.00  0.00     0.200 A 
BRANCH  91  94
ATOM     94  O   UNL A   1      26.519  28.392  23.509  1.00  0.00    -0.504 OA
ATOM     95  H   UNL A   1      26.245  28.015  24.322  1.00  0.00     0.293 HD
ENDBRANCH  91  94
BRANCH  92  96
ATOM     96  O   UNL A   1      30.370  30.139  21.264  1.00  0.00    -0.504 OA
ATOM     97  H   UNL A   1      30.880  30.789  21.707  1.00  0.00     0.293 HD
ENDBRANCH  92  96
BRANCH  93  98
ATOM     98  O   UNL A   1      27.803  30.479  22.224  1.00  0.00    -0.502 OA
ATOM     99  H   UNL A   1      27.500  30.746  21.380  1.00  0.00     0.293 HD
ENDBRANCH  93  98
ENDBRANCH  78  88
BRANCH  84 100
ATOM    100  O   UNL A   1      34.032  22.676  25.767  1.00  0.00    -0.507 OA
ATOM    101  H   UNL A   1      34.876  22.311  25.586  1.00  0.00     0.293 HD
ENDBRANCH  84 100
BRANCH  87 102
ATOM    102  O   UNL A   1      31.835  20.635  22.043  1.00  0.00    -0.508 OA
ATOM    103  H   UNL A   1      32.070  19.768  22.307  1.00  0.00     0.293 HD
ENDBRANCH  87 102
ENDBRANCH  76  77
ENDBRANCH  71  76
BRANCH  72 104
ATOM    104  O   UNL A   1      31.497  32.201  26.946  1.00  0.00    -0.387 OA
ATOM    105  H   UNL A   1      31.798  33.093  26.714  1.00  0.00     0.211 HD
ENDBRANCH  72 104
BRANCH  73 106
ATOM    106  O   UNL A   1      30.994  30.244  24.786  1.00  0.00    -0.384 OA
ATOM    107  H   UNL A   1      30.539  29.444  24.481  1.00  0.00     0.211 HD
ENDBRANCH  73 106
ENDBRANCH  66  68
ENDBRANCH  65  66
ENDBRANCH  64  65
ENDBRANCH  63  64
ENDBRANCH  62  63
ENDBRANCH  61  62
ENDBRANCH   1  61
TORSDOF 31
ENDMDL
MODEL 3
REMARK VINA RESULT:      -9.9      1.999      3.878
REMARK SMILES O=C(OCCOCCOCCOCCOC(=O)[C@H]1O[C@@H](Oc2c(-c3cc(O)c(O)c(O)c3)oc3cc(O)cc(O)c3c2=O)[C@H](O)[C@@H](O)[C@@H]1O)c1ccc(-c2c3nc(c(-c4ccccc4)c4ccc([nH]4)c(-c4ccccc4)c4nc(c(-c5ccccc5)c5ccc2[nH]5)C=C4)C=C3)cc1
REMARK SMILES IDX 10 1 9 2 8 3 7 4 6 5 5 6 4 7 3 8 2 9 1 10 50 11 51 12 97 13
REMARK SMILES IDX 52 14 96 15 53 16 54 17 55 18 90 19 56 20 95 21 89 22 91 23
REMARK SMILES IDX 57 24 94 25 88 26 87 27 58 29 80 30 65 31 79 32 66 33 69 34
REMARK SMILES IDX 78 35 92 36 67 37 68 38 77 40 93 41 70 42 59 43 60 44 64 45
REMARK SMILES IDX 61 46 63 47 62 48 81 49 82 50 86 51 83 52 85 53 84 54 71 55
REMARK SMILES IDX 72 56 76 57 73 58 75 59 74 60 11 61 12 62 13 63 14 64 15 65
REMARK SMILES IDX 16 66 17 67 18 68 19 69 48 70 20 71 46 72 44 73 49 74 21 76
REMARK SMILES IDX 22 77 23 78 42 79 33 80 41 81 43 82 34 83 39 84 35 85 38 86
REMARK SMILES IDX 36 87 24 88 25 89 32 90 26 91 30 92 28 93 27 94 31 96 29 98
REMARK SMILES IDX 40 100 37 102 47 104 45 106
REMARK H PARENT 91 28 69 39 49 75 27 95 31 97 29 99 40 101 37 103 47 105
REMARK H PARENT 45 107
REMARK Flexibility Score: inf
ROOT
ATOM      1  C   UNL A   1      34.911  22.423  26.431  1.00  0.00     0.188 C 
ENDROOT
BRANCH   1   2
ATOM      2  O   UNL A   1      35.189  21.090  26.023  1.00  0.00    -0.377 OA
BRANCH   2   3
ATOM      3  C   UNL A   1      36.159  20.951  24.991  1.00  0.00     0.188 C 
BRANCH   3   4
ATOM      4  C   UNL A   1      37.448  21.743  25.220  1.00  0.00     0.188 C 
BRANCH   4   5
ATOM      5  O   UNL A   1      38.494  20.901  25.709  1.00  0.00    -0.376 OA
BRANCH   5   6
ATOM      6  C   UNL A   1      39.750  21.535  25.967  1.00  0.00     0.202 C 
BRANCH   6   7
ATOM      7  C   UNL A   1      39.652  22.775  26.850  1.00  0.00     0.261 C 
BRANCH   7   8
ATOM      8  O   UNL A   1      40.826  23.596  26.786  1.00  0.00    -0.460 OA
BRANCH   8   9
ATOM      9  C   UNL A   1      40.969  24.880  27.196  1.00  0.00     0.338 C 
ATOM     10  O   UNL A   1      39.994  25.432  27.708  1.00  0.00    -0.246 OA
BRANCH   9  11
ATOM     11  C   UNL A   1      42.230  25.682  27.076  1.00  0.00     0.060 A 
ATOM     12  C   UNL A   1      43.083  26.035  28.123  1.00  0.00     0.016 A 
ATOM     13  C   UNL A   1      42.617  26.055  25.774  1.00  0.00     0.016 A 
ATOM     14  C   UNL A   1      44.254  26.742  27.914  1.00  0.00     0.010 A 
ATOM     15  C   UNL A   1      43.791  26.779  25.548  1.00  0.00     0.010 A 
ATOM     16  C   UNL A   1      44.596  27.140  26.631  1.00  0.00    -0.014 A 
BRANCH  16  17
ATOM     17  C   UNL A   1      45.676  28.130  26.523  1.00  0.00     0.031 A 
ATOM     18  C   UNL A   1      45.297  29.570  26.680  1.00  0.00     0.074 A 
ATOM     19  C   UNL A   1      46.956  27.724  26.505  1.00  0.00     0.049 A 
ATOM     20  N   UNL A   1      46.046  30.636  26.620  1.00  0.00    -0.248 NA
ATOM     21  C   UNL A   1      43.877  29.846  26.974  1.00  0.00     0.031 C 
ATOM     22  C   UNL A   1      47.401  26.327  26.551  1.00  0.00     0.029 A 
ATOM     23  N   UNL A   1      48.116  28.445  26.491  1.00  0.00    -0.354 N 
ATOM     24  C   UNL A   1      45.185  31.704  26.835  1.00  0.00     0.074 A 
ATOM     25  C   UNL A   1      43.860  31.167  27.028  1.00  0.00     0.031 C 
ATOM     26  C   UNL A   1      48.744  26.298  26.577  1.00  0.00     0.029 A 
ATOM     27  C   UNL A   1      49.245  27.663  26.475  1.00  0.00     0.049 A 
ATOM     28  H   UNL A   1      48.141  29.429  26.493  1.00  0.00     0.167 HD
ATOM     29  C   UNL A   1      45.485  33.022  26.850  1.00  0.00     0.031 A 
ATOM     30  C   UNL A   1      50.534  28.028  26.346  1.00  0.00     0.031 A 
ATOM     31  C   UNL A   1      46.816  33.515  26.637  1.00  0.00     0.049 A 
ATOM     32  C   UNL A   1      50.824  29.500  26.218  1.00  0.00     0.074 A 
ATOM     33  C   UNL A   1      47.254  34.819  26.529  1.00  0.00     0.029 A 
ATOM     34  N   UNL A   1      47.931  32.696  26.500  1.00  0.00    -0.354 N 
ATOM     35  N   UNL A   1      49.997  30.517  26.313  1.00  0.00    -0.248 NA
ATOM     36  C   UNL A   1      52.215  29.877  25.947  1.00  0.00     0.031 C 
ATOM     37  C   UNL A   1      48.628  34.787  26.270  1.00  0.00     0.029 A 
ATOM     38  C   UNL A   1      49.056  33.466  26.283  1.00  0.00     0.049 A 
ATOM     39  H   UNL A   1      47.921  31.713  26.550  1.00  0.00     0.167 HD
ATOM     40  C   UNL A   1      50.769  31.654  26.131  1.00  0.00     0.074 A 
ATOM     41  C   UNL A   1      52.135  31.199  25.946  1.00  0.00     0.031 C 
ATOM     42  C   UNL A   1      50.394  32.958  26.108  1.00  0.00     0.031 A 
BRANCH  29  43
ATOM     43  C   UNL A   1      44.338  33.980  26.996  1.00  0.00    -0.014 A 
ATOM     44  C   UNL A   1      43.688  34.535  25.882  1.00  0.00     0.009 A 
ATOM     45  C   UNL A   1      43.938  34.375  28.282  1.00  0.00     0.009 A 
ATOM     46  C   UNL A   1      42.687  35.495  26.055  1.00  0.00     0.001 A 
ATOM     47  C   UNL A   1      42.920  35.314  28.452  1.00  0.00     0.001 A 
ATOM     48  C   UNL A   1      42.303  35.882  27.339  1.00  0.00     0.000 A 
ENDBRANCH  29  43
BRANCH  30  49
ATOM     49  C   UNL A   1      51.610  27.006  26.237  1.00  0.00    -0.014 A 
ATOM     50  C   UNL A   1      51.879  26.356  25.024  1.00  0.00     0.009 A 
ATOM     51  C   UNL A   1      52.358  26.646  27.372  1.00  0.00     0.009 A 
ATOM     52  C   UNL A   1      52.848  25.350  24.957  1.00  0.00     0.001 A 
ATOM     53  C   UNL A   1      53.349  25.664  27.295  1.00  0.00     0.001 A 
ATOM     54  C   UNL A   1      53.584  25.007  26.091  1.00  0.00     0.000 A 
ENDBRANCH  30  49
BRANCH  42  55
ATOM     55  C   UNL A   1      51.485  33.967  25.914  1.00  0.00    -0.014 A 
ATOM     56  C   UNL A   1      52.186  34.500  27.006  1.00  0.00     0.009 A 
ATOM     57  C   UNL A   1      51.846  34.347  24.613  1.00  0.00     0.009 A 
ATOM     58  C   UNL A   1      53.209  35.425  26.796  1.00  0.00     0.001 A 
ATOM     59  C   UNL A   1      52.890  35.246  24.406  1.00  0.00     0.001 A 
ATOM     60  C   UNL A   1      53.564  35.792  25.498  1.00  0.00     0.000 A 
ENDBRANCH  42  55
ENDBRANCH  16  17
ENDBRANCH   9  11
ENDBRANCH   8   9
ENDBRANCH   7   8
ENDBRANCH   6   7
ENDBRANCH   5   6
ENDBRANCH   4   5
ENDBRANCH   3   4
ENDBRANCH   2   3
ENDBRANCH   1   2
BRANCH   1  61
ATOM     61  C   UNL A   1      33.693  22.718  27.335  1.00  0.00     0.188 C 
BRANCH  61  62
ATOM     62  O   UNL A   1      32.827  23.729  26.830  1.00  0.00    -0.376 OA
BRANCH  62  63
ATOM     63  C   UNL A   1      31.433  23.483  26.995  1.00  0.00     0.202 C 
BRANCH  63  64
ATOM     64  C   UNL A   1      30.518  23.934  25.850  1.00  0.00     0.261 C 
BRANCH  64  65
ATOM     65  O   UNL A   1      30.624  25.326  25.520  1.00  0.00    -0.461 OA
BRANCH  65  66
ATOM     66  C   UNL A   1      30.542  25.733  24.232  1.00  0.00     0.338 C 
ATOM     67  O   UNL A   1      30.570  24.982  23.260  1.00  0.00    -0.249 OA
BRANCH  66  68
ATOM     68  C   UNL A   1      30.341  27.266  24.140  1.00  0.00     0.263 C 
ATOM     69  O   UNL A   1      31.096  28.027  25.107  1.00  0.00    -0.322 OA
ATOM     70  C   UNL A   1      30.667  27.738  22.712  1.00  0.00     0.186 C 
ATOM     71  C   UNL A   1      30.965  29.462  25.071  1.00  0.00     0.340 C 
ATOM     72  C   UNL A   1      30.110  29.146  22.599  1.00  0.00     0.181 C 
ATOM     73  C   UNL A   1      30.704  30.048  23.677  1.00  0.00     0.214 C 
BRANCH  70  74
ATOM     74  O   UNL A   1      30.104  26.914  21.689  1.00  0.00    -0.387 OA
ATOM     75  H   UNL A   1      30.222  25.981  21.924  1.00  0.00     0.211 HD
ENDBRANCH  70  74
BRANCH  71  76
ATOM     76  O   UNL A   1      31.963  30.179  25.880  1.00  0.00    -0.454 OA
BRANCH  76  77
ATOM     77  C   UNL A   1      33.224  29.924  26.405  1.00  0.00     0.214 A 
ATOM     78  C   UNL A   1      34.229  29.105  25.978  1.00  0.00     0.181 A 
ATOM     79  C   UNL A   1      33.645  30.867  27.533  1.00  0.00     0.239 A 
ATOM     80  O   UNL A   1      35.465  28.961  26.583  1.00  0.00    -0.452 OA
ATOM     81  C   UNL A   1      35.058  30.844  28.018  1.00  0.00     0.111 A 
ATOM     82  O   UNL A   1      32.817  31.616  28.043  1.00  0.00    -0.285 OA
ATOM     83  C   UNL A   1      35.879  29.845  27.526  1.00  0.00     0.146 A 
ATOM     84  C   UNL A   1      35.615  31.734  28.955  1.00  0.00     0.134 A 
ATOM     85  C   UNL A   1      37.197  29.681  27.971  1.00  0.00     0.094 A 
ATOM     86  C   UNL A   1      36.940  31.586  29.410  1.00  0.00     0.093 A 
ATOM     87  C   UNL A   1      37.717  30.545  28.920  1.00  0.00     0.123 A 
BRANCH  78  88
ATOM     88  C   UNL A   1      34.225  28.192  24.832  1.00  0.00     0.029 A 
ATOM     89  C   UNL A   1      34.146  26.811  25.102  1.00  0.00     0.062 A 
ATOM     90  C   UNL A   1      34.269  28.652  23.509  1.00  0.00     0.062 A 
ATOM     91  C   UNL A   1      33.870  25.937  24.067  1.00  0.00     0.162 A 
ATOM     92  C   UNL A   1      34.021  27.751  22.480  1.00  0.00     0.162 A 
ATOM     93  C   UNL A   1      33.748  26.418  22.770  1.00  0.00     0.200 A 
BRANCH  91  94
ATOM     94  O   UNL A   1      33.591  24.634  24.362  1.00  0.00    -0.504 OA
ATOM     95  H   UNL A   1      33.328  24.397  25.230  1.00  0.00     0.293 HD
ENDBRANCH  91  94
BRANCH  92  96
ATOM     96  O   UNL A   1      33.896  28.218  21.203  1.00  0.00    -0.504 OA
ATOM     97  H   UNL A   1      33.324  28.938  21.021  1.00  0.00     0.293 HD
ENDBRANCH  92  96
BRANCH  93  98
ATOM     98  O   UNL A   1      33.165  25.627  21.815  1.00  0.00    -0.502 OA
ATOM     99  H   UNL A   1      32.416  25.108  22.030  1.00  0.00     0.293 HD
ENDBRANCH  93  98
ENDBRANCH  78  88
BRANCH  84 100
ATOM    100  O   UNL A   1      34.885  32.772  29.460  1.00  0.00    -0.507 OA
ATOM    101  H   UNL A   1      35.320  33.511  29.838  1.00  0.00     0.293 HD
ENDBRANCH  84 100
BRANCH  87 102
ATOM    102  O   UNL A   1      38.994  30.329  29.340  1.00  0.00    -0.508 OA
ATOM    103  H   UNL A   1      39.267  29.467  29.584  1.00  0.00     0.293 HD
ENDBRANCH  87 102
ENDBRANCH  76  77
ENDBRANCH  71  76
BRANCH  72 104
ATOM    104  O   UNL A   1      30.366  29.702  21.291  1.00  0.00    -0.387 OA
ATOM    105  H   UNL A   1      29.523  29.893  20.851  1.00  0.00     0.211 HD
ENDBRANCH  72 104
BRANCH  73 106
ATOM    106  O   UNL A   1      29.871  31.207  23.787  1.00  0.00    -0.384 OA
ATOM    107  H   UNL A   1      28.982  30.941  24.071  1.00  0.00     0.211 HD
ENDBRANCH  73 106
ENDBRANCH  66  68
ENDBRANCH  65  66
ENDBRANCH  64  65
ENDBRANCH  63  64
ENDBRANCH  62  63
ENDBRANCH  61  62
ENDBRANCH   1  61
TORSDOF 31
ENDMDL
