MODEL 1
REMARK VINA RESULT:      -9.8      0.000      0.000
REMARK SMILES C[N@H+]1[C@H](C(=O)OCCOCCOCCOCCOC(=O)c2ccc(-c3c4nc(c(-c5ccccc5)c5ccc([nH]5)c(-c5ccccc5)c5nc(c(-c6ccccc6)c6ccc3[nH]6)C=C5)C=C4)cc2)C[C@H](C(=O)NCC2(CO)CCCC2)[C@@H]1c1ccccc1F
REMARK SMILES IDX 10 1 9 2 8 3 7 4 6 5 4 6 5 7 3 8 1 9 2 10 82 11 69 13 70 14
REMARK SMILES IDX 83 15 84 16 88 17 85 18 87 19 89 20 86 21 71 22 72 23 73 24
REMARK SMILES IDX 74 26 75 27 78 28 81 29 79 30 80 31 76 32 77 33 11 35 12 36
REMARK SMILES IDX 13 37 14 38 15 39 16 40 17 41 18 42 19 43 20 44 21 45 22 46
REMARK SMILES IDX 68 47 23 48 67 49 24 50 25 51 26 52 61 53 27 54 66 55 60 56
REMARK SMILES IDX 62 57 28 58 65 59 59 60 58 61 29 63 51 64 36 65 50 66 37 67
REMARK SMILES IDX 40 68 49 69 63 70 38 71 39 72 48 74 64 75 41 76 30 77 31 78
REMARK SMILES IDX 35 79 32 80 34 81 33 82 52 83 53 84 57 85 54 86 56 87 55 88
REMARK SMILES IDX 42 89 43 90 47 91 44 92 46 93 45 94
REMARK H PARENT 2 12 73 25 77 34 62 62 40 73
REMARK Flexibility Score: inf
ROOT
ATOM      1  C   UNL A   1      31.685  29.113  24.846  1.00  0.00     0.188 C 
ENDROOT
BRANCH   1   2
ATOM      2  O   UNL A   1      32.319  29.185  23.567  1.00  0.00    -0.376 OA
BRANCH   2   3
ATOM      3  C   UNL A   1      31.609  28.786  22.410  1.00  0.00     0.202 C 
BRANCH   3   4
ATOM      4  C   UNL A   1      30.485  27.763  22.624  1.00  0.00     0.261 C 
BRANCH   4   5
ATOM      5  O   UNL A   1      30.846  26.372  22.513  1.00  0.00    -0.459 OA
BRANCH   5   6
ATOM      6  C   UNL A   1      31.901  26.080  21.702  1.00  0.00     0.365 C 
ATOM      7  O   UNL A   1      31.864  26.162  20.476  1.00  0.00    -0.245 OA
BRANCH   6   8
ATOM      8  C   UNL A   1      33.082  25.407  22.412  1.00  0.00     0.296 C 
ATOM      9  C   UNL A   1      33.709  26.274  24.608  1.00  0.00     0.333 C 
ATOM     10  N   UNL A   1      33.057  25.172  23.888  1.00  0.00    -0.319 N 
ATOM     11  C   UNL A   1      33.837  23.912  24.068  1.00  0.00     0.231 C 
ATOM     12  H   UNL A   1      32.106  25.111  24.253  1.00  0.00     0.349 HD
ATOM     13  C   UNL A   1      33.139  24.028  21.792  1.00  0.00     0.097 C 
ATOM     14  C   UNL A   1      33.363  23.016  22.911  1.00  0.00     0.148 C 
BRANCH  11  15
ATOM     15  C   UNL A   1      33.928  23.205  25.406  1.00  0.00     0.046 A 
ATOM     16  C   UNL A   1      32.810  23.307  26.266  1.00  0.00     0.013 A 
ATOM     17  C   UNL A   1      35.063  22.558  25.904  1.00  0.00     0.132 A 
ATOM     18  C   UNL A   1      32.848  22.831  27.578  1.00  0.00     0.001 A 
ATOM     19  C   UNL A   1      35.103  22.077  27.216  1.00  0.00     0.040 A 
ATOM     20  F   UNL A   1      36.156  22.396  25.147  1.00  0.00    -0.206 F 
ATOM     21  C   UNL A   1      34.004  22.226  28.060  1.00  0.00     0.003 A 
ENDBRANCH  11  15
BRANCH  14  22
ATOM     22  C   UNL A   1      32.145  22.112  23.167  1.00  0.00     0.229 C 
ATOM     23  O   UNL A   1      30.975  22.462  23.025  1.00  0.00    -0.275 OA
ATOM     24  N   UNL A   1      32.344  20.870  23.714  1.00  0.00    -0.355 N 
ATOM     25  H   UNL A   1      31.525  20.388  23.969  1.00  0.00     0.163 HD
BRANCH  24  26
ATOM     26  C   UNL A   1      33.580  20.164  23.972  1.00  0.00     0.125 C 
BRANCH  26  27
ATOM     27  C   UNL A   1      33.430  18.687  24.332  1.00  0.00     0.011 C 
ATOM     28  C   UNL A   1      32.882  17.934  23.101  1.00  0.00     0.011 C 
ATOM     29  C   UNL A   1      34.783  17.985  24.530  1.00  0.00     0.011 C 
ATOM     30  C   UNL A   1      33.283  16.483  23.309  1.00  0.00     0.001 C 
ATOM     31  C   UNL A   1      34.524  16.517  24.199  1.00  0.00     0.001 C 
BRANCH  27  32
ATOM     32  C   UNL A   1      32.488  18.537  25.538  1.00  0.00     0.164 C 
BRANCH  32  33
ATOM     33  O   UNL A   1      33.067  19.071  26.722  1.00  0.00    -0.396 OA
ATOM     34  H   UNL A   1      32.565  19.851  27.004  1.00  0.00     0.210 HD
ENDBRANCH  32  33
ENDBRANCH  27  32
ENDBRANCH  26  27
ENDBRANCH  24  26
ENDBRANCH  14  22
ENDBRANCH   6   8
ENDBRANCH   5   6
ENDBRANCH   4   5
ENDBRANCH   3   4
ENDBRANCH   2   3
ENDBRANCH   1   2
BRANCH   1  35
ATOM     35  C   UNL A   1      31.523  30.363  25.747  1.00  0.00     0.188 C 
BRANCH  35  36
ATOM     36  O   UNL A   1      32.263  30.288  26.953  1.00  0.00    -0.377 OA
BRANCH  36  37
ATOM     37  C   UNL A   1      33.580  30.791  26.873  1.00  0.00     0.188 C 
BRANCH  37  38
ATOM     38  C   UNL A   1      34.115  31.380  28.186  1.00  0.00     0.188 C 
BRANCH  38  39
ATOM     39  O   UNL A   1      33.803  32.760  28.330  1.00  0.00    -0.376 OA
BRANCH  39  40
ATOM     40  C   UNL A   1      34.604  33.597  29.141  1.00  0.00     0.202 C 
BRANCH  40  41
ATOM     41  C   UNL A   1      34.668  33.326  30.653  1.00  0.00     0.261 C 
BRANCH  41  42
ATOM     42  O   UNL A   1      35.122  32.035  31.076  1.00  0.00    -0.460 OA
BRANCH  42  43
ATOM     43  C   UNL A   1      36.104  31.971  32.007  1.00  0.00     0.338 C 
ATOM     44  O   UNL A   1      36.031  32.274  33.171  1.00  0.00    -0.246 OA
BRANCH  43  45
ATOM     45  C   UNL A   1      37.238  31.248  31.376  1.00  0.00     0.060 A 
ATOM     46  C   UNL A   1      38.143  30.561  32.197  1.00  0.00     0.016 A 
ATOM     47  C   UNL A   1      37.371  31.201  29.986  1.00  0.00     0.016 A 
ATOM     48  C   UNL A   1      39.192  29.836  31.631  1.00  0.00     0.010 A 
ATOM     49  C   UNL A   1      38.445  30.509  29.421  1.00  0.00     0.010 A 
ATOM     50  C   UNL A   1      39.374  29.847  30.243  1.00  0.00    -0.014 A 
BRANCH  50  51
ATOM     51  C   UNL A   1      40.657  29.377  29.670  1.00  0.00     0.031 A 
ATOM     52  C   UNL A   1      41.777  30.374  29.557  1.00  0.00     0.074 A 
ATOM     53  C   UNL A   1      40.834  28.107  29.269  1.00  0.00     0.049 A 
ATOM     54  N   UNL A   1      42.970  30.231  29.041  1.00  0.00    -0.248 NA
ATOM     55  C   UNL A   1      41.511  31.717  30.101  1.00  0.00     0.031 C 
ATOM     56  C   UNL A   1      39.846  27.036  29.374  1.00  0.00     0.029 A 
ATOM     57  N   UNL A   1      41.919  27.510  28.677  1.00  0.00    -0.354 N 
ATOM     58  C   UNL A   1      43.590  31.466  29.189  1.00  0.00     0.074 A 
ATOM     59  C   UNL A   1      42.637  32.352  29.817  1.00  0.00     0.031 C 
ATOM     60  C   UNL A   1      40.368  25.911  28.851  1.00  0.00     0.029 A 
ATOM     61  C   UNL A   1      41.708  26.195  28.341  1.00  0.00     0.049 A 
ATOM     62  H   UNL A   1      42.769  27.979  28.510  1.00  0.00     0.167 HD
ATOM     63  C   UNL A   1      44.844  31.831  28.835  1.00  0.00     0.031 A 
ATOM     64  C   UNL A   1      42.499  25.332  27.673  1.00  0.00     0.031 A 
ATOM     65  C   UNL A   1      45.781  30.956  28.184  1.00  0.00     0.049 A 
ATOM     66  C   UNL A   1      43.856  25.790  27.199  1.00  0.00     0.074 A 
ATOM     67  C   UNL A   1      47.079  31.225  27.789  1.00  0.00     0.029 A 
ATOM     68  N   UNL A   1      45.513  29.645  27.822  1.00  0.00    -0.354 N 
ATOM     69  N   UNL A   1      44.445  26.950  27.368  1.00  0.00    -0.248 NA
ATOM     70  C   UNL A   1      44.658  24.816  26.444  1.00  0.00     0.031 C 
ATOM     71  C   UNL A   1      47.574  30.097  27.128  1.00  0.00     0.029 A 
ATOM     72  C   UNL A   1      46.610  29.102  27.178  1.00  0.00     0.049 A 
ATOM     73  H   UNL A   1      44.668  29.171  27.998  1.00  0.00     0.167 HD
ATOM     74  C   UNL A   1      45.696  26.833  26.771  1.00  0.00     0.074 A 
ATOM     75  C   UNL A   1      45.785  25.486  26.247  1.00  0.00     0.031 C 
ATOM     76  C   UNL A   1      46.683  27.758  26.666  1.00  0.00     0.031 A 
BRANCH  63  77
ATOM     77  C   UNL A   1      45.251  33.252  29.102  1.00  0.00    -0.014 A 
ATOM     78  C   UNL A   1      45.965  33.605  30.258  1.00  0.00     0.009 A 
ATOM     79  C   UNL A   1      44.927  34.252  28.172  1.00  0.00     0.009 A 
ATOM     80  C   UNL A   1      46.317  34.936  30.493  1.00  0.00     0.001 A 
ATOM     81  C   UNL A   1      45.308  35.577  28.394  1.00  0.00     0.001 A 
ATOM     82  C   UNL A   1      45.993  35.919  29.558  1.00  0.00     0.000 A 
ENDBRANCH  63  77
BRANCH  64  83
ATOM     83  C   UNL A   1      42.026  23.952  27.381  1.00  0.00    -0.014 A 
ATOM     84  C   UNL A   1      41.590  23.108  28.414  1.00  0.00     0.009 A 
ATOM     85  C   UNL A   1      42.039  23.458  26.066  1.00  0.00     0.009 A 
ATOM     86  C   UNL A   1      41.203  21.794  28.141  1.00  0.00     0.001 A 
ATOM     87  C   UNL A   1      41.621  22.154  25.792  1.00  0.00     0.001 A 
ATOM     88  C   UNL A   1      41.214  21.319  26.830  1.00  0.00     0.000 A 
ENDBRANCH  64  83
BRANCH  76  89
ATOM     89  C   UNL A   1      47.964  27.334  26.001  1.00  0.00    -0.014 A 
ATOM     90  C   UNL A   1      49.018  26.766  26.733  1.00  0.00     0.009 A 
ATOM     91  C   UNL A   1      48.091  27.453  24.607  1.00  0.00     0.009 A 
ATOM     92  C   UNL A   1      50.185  26.355  26.085  1.00  0.00     0.001 A 
ATOM     93  C   UNL A   1      49.245  27.012  23.959  1.00  0.00     0.001 A 
ATOM     94  C   UNL A   1      50.295  26.472  24.700  1.00  0.00     0.000 A 
ENDBRANCH  76  89
ENDBRANCH  50  51
ENDBRANCH  43  45
ENDBRANCH  42  43
ENDBRANCH  41  42
ENDBRANCH  40  41
ENDBRANCH  39  40
ENDBRANCH  38  39
ENDBRANCH  37  38
ENDBRANCH  36  37
ENDBRANCH  35  36
ENDBRANCH   1  35
TORSDOF 26
ENDMDL
MODEL 2
REMARK VINA RESULT:      -9.7      4.529      7.862
REMARK SMILES C[N@H+]1[C@H](C(=O)OCCOCCOCCOCCOC(=O)c2ccc(-c3c4nc(c(-c5ccccc5)c5ccc([nH]5)c(-c5ccccc5)c5nc(c(-c6ccccc6)c6ccc3[nH]6)C=C5)C=C4)cc2)C[C@H](C(=O)NCC2(CO)CCCC2)[C@@H]1c1ccccc1F
REMARK SMILES IDX 10 1 9 2 8 3 7 4 6 5 4 6 5 7 3 8 1 9 2 10 82 11 69 13 70 14
REMARK SMILES IDX 83 15 84 16 88 17 85 18 87 19 89 20 86 21 71 22 72 23 73 24
REMARK SMILES IDX 74 26 75 27 78 28 81 29 79 30 80 31 76 32 77 33 11 35 12 36
REMARK SMILES IDX 13 37 14 38 15 39 16 40 17 41 18 42 19 43 20 44 21 45 22 46
REMARK SMILES IDX 68 47 23 48 67 49 24 50 25 51 26 52 61 53 27 54 66 55 60 56
REMARK SMILES IDX 62 57 28 58 65 59 59 60 58 61 29 63 51 64 36 65 50 66 37 67
REMARK SMILES IDX 40 68 49 69 63 70 38 71 39 72 48 74 64 75 41 76 30 77 31 78
REMARK SMILES IDX 35 79 32 80 34 81 33 82 52 83 53 84 57 85 54 86 56 87 55 88
REMARK SMILES IDX 42 89 43 90 47 91 44 92 46 93 45 94
REMARK H PARENT 2 12 73 25 77 34 62 62 40 73
REMARK Flexibility Score: inf
ROOT
ATOM      1  C   UNL A   1      32.083  28.744  25.606  1.00  0.00     0.188 C 
ENDROOT
BRANCH   1   2
ATOM      2  O   UNL A   1      31.435  29.784  24.871  1.00  0.00    -0.376 OA
BRANCH   2   3
ATOM      3  C   UNL A   1      30.681  29.462  23.717  1.00  0.00     0.202 C 
BRANCH   3   4
ATOM      4  C   UNL A   1      29.539  28.454  23.914  1.00  0.00     0.261 C 
BRANCH   4   5
ATOM      5  O   UNL A   1      29.650  27.204  23.208  1.00  0.00    -0.459 OA
BRANCH   5   6
ATOM      6  C   UNL A   1      30.112  26.140  23.922  1.00  0.00     0.365 C 
ATOM      7  O   UNL A   1      29.797  25.909  25.087  1.00  0.00    -0.245 OA
BRANCH   6   8
ATOM      8  C   UNL A   1      31.252  25.367  23.245  1.00  0.00     0.296 C 
ATOM      9  C   UNL A   1      33.336  26.573  22.840  1.00  0.00     0.333 C 
ATOM     10  N   UNL A   1      32.671  25.561  23.672  1.00  0.00    -0.319 N 
ATOM     11  C   UNL A   1      33.301  24.226  23.456  1.00  0.00     0.231 C 
ATOM     12  H   UNL A   1      32.742  25.888  24.636  1.00  0.00     0.349 HD
ATOM     13  C   UNL A   1      30.940  23.918  23.555  1.00  0.00     0.097 C 
ATOM     14  C   UNL A   1      32.240  23.231  23.957  1.00  0.00     0.148 C 
BRANCH  11  15
ATOM     15  C   UNL A   1      34.712  23.917  23.917  1.00  0.00     0.046 A 
ATOM     16  C   UNL A   1      35.421  22.925  23.202  1.00  0.00     0.013 A 
ATOM     17  C   UNL A   1      35.326  24.450  25.054  1.00  0.00     0.132 A 
ATOM     18  C   UNL A   1      36.661  22.452  23.637  1.00  0.00     0.001 A 
ATOM     19  C   UNL A   1      36.569  23.981  25.491  1.00  0.00     0.040 A 
ATOM     20  F   UNL A   1      34.734  25.412  25.775  1.00  0.00    -0.206 F 
ATOM     21  C   UNL A   1      37.231  22.972  24.794  1.00  0.00     0.003 A 
ENDBRANCH  11  15
BRANCH  14  22
ATOM     22  C   UNL A   1      32.286  22.836  25.444  1.00  0.00     0.229 C 
ATOM     23  O   UNL A   1      32.680  23.570  26.348  1.00  0.00    -0.275 OA
ATOM     24  N   UNL A   1      31.995  21.543  25.794  1.00  0.00    -0.355 N 
ATOM     25  H   UNL A   1      32.160  21.318  26.739  1.00  0.00     0.163 HD
BRANCH  24  26
ATOM     26  C   UNL A   1      31.483  20.460  24.983  1.00  0.00     0.125 C 
BRANCH  26  27
ATOM     27  C   UNL A   1      32.540  19.559  24.346  1.00  0.00     0.011 C 
ATOM     28  C   UNL A   1      33.932  20.016  24.830  1.00  0.00     0.011 C 
ATOM     29  C   UNL A   1      32.496  18.121  24.885  1.00  0.00     0.011 C 
ATOM     30  C   UNL A   1      34.834  18.807  24.649  1.00  0.00     0.001 C 
ATOM     31  C   UNL A   1      33.917  17.588  24.719  1.00  0.00     0.001 C 
BRANCH  27  32
ATOM     32  C   UNL A   1      32.434  19.634  22.814  1.00  0.00     0.164 C 
BRANCH  32  33
ATOM     33  O   UNL A   1      32.136  18.363  22.248  1.00  0.00    -0.396 OA
ATOM     34  H   UNL A   1      32.914  18.031  21.773  1.00  0.00     0.210 HD
ENDBRANCH  32  33
ENDBRANCH  27  32
ENDBRANCH  26  27
ENDBRANCH  24  26
ENDBRANCH  14  22
ENDBRANCH   6   8
ENDBRANCH   5   6
ENDBRANCH   4   5
ENDBRANCH   3   4
ENDBRANCH   2   3
ENDBRANCH   1   2
BRANCH   1  35
ATOM     35  C   UNL A   1      33.513  28.917  26.175  1.00  0.00     0.188 C 
BRANCH  35  36
ATOM     36  O   UNL A   1      33.539  29.495  27.469  1.00  0.00    -0.377 OA
BRANCH  36  37
ATOM     37  C   UNL A   1      34.203  30.739  27.547  1.00  0.00     0.188 C 
BRANCH  37  38
ATOM     38  C   UNL A   1      33.275  31.960  27.480  1.00  0.00     0.188 C 
BRANCH  38  39
ATOM     39  O   UNL A   1      33.916  33.155  27.908  1.00  0.00    -0.376 OA
BRANCH  39  40
ATOM     40  C   UNL A   1      33.216  34.105  28.688  1.00  0.00     0.202 C 
BRANCH  40  41
ATOM     41  C   UNL A   1      33.983  34.891  29.764  1.00  0.00     0.261 C 
BRANCH  41  42
ATOM     42  O   UNL A   1      33.225  35.750  30.623  1.00  0.00    -0.460 OA
BRANCH  42  43
ATOM     43  C   UNL A   1      32.882  35.294  31.851  1.00  0.00     0.338 C 
ATOM     44  O   UNL A   1      31.773  35.203  32.316  1.00  0.00    -0.246 OA
BRANCH  43  45
ATOM     45  C   UNL A   1      34.114  34.718  32.448  1.00  0.00     0.060 A 
ATOM     46  C   UNL A   1      35.295  35.474  32.423  1.00  0.00     0.016 A 
ATOM     47  C   UNL A   1      34.088  33.472  33.078  1.00  0.00     0.016 A 
ATOM     48  C   UNL A   1      36.456  34.979  33.016  1.00  0.00     0.010 A 
ATOM     49  C   UNL A   1      35.262  32.958  33.635  1.00  0.00     0.010 A 
ATOM     50  C   UNL A   1      36.456  33.699  33.582  1.00  0.00    -0.014 A 
BRANCH  50  51
ATOM     51  C   UNL A   1      37.744  33.038  33.898  1.00  0.00     0.031 A 
ATOM     52  C   UNL A   1      38.244  31.991  32.941  1.00  0.00     0.074 A 
ATOM     53  C   UNL A   1      38.457  33.357  34.991  1.00  0.00     0.049 A 
ATOM     54  N   UNL A   1      39.304  31.230  33.019  1.00  0.00    -0.248 NA
ATOM     55  C   UNL A   1      37.432  31.774  31.731  1.00  0.00     0.031 C 
ATOM     56  C   UNL A   1      38.107  34.388  35.965  1.00  0.00     0.029 A 
ATOM     57  N   UNL A   1      39.630  32.825  35.467  1.00  0.00    -0.354 N 
ATOM     58  C   UNL A   1      39.281  30.440  31.876  1.00  0.00     0.074 A 
ATOM     59  C   UNL A   1      38.091  30.792  31.135  1.00  0.00     0.031 C 
ATOM     60  C   UNL A   1      39.042  34.405  36.933  1.00  0.00     0.029 A 
ATOM     61  C   UNL A   1      40.031  33.363  36.665  1.00  0.00     0.049 A 
ATOM     62  H   UNL A   1      40.137  32.125  34.994  1.00  0.00     0.167 HD
ATOM     63  C   UNL A   1      40.171  29.503  31.477  1.00  0.00     0.031 A 
ATOM     64  C   UNL A   1      41.064  33.029  37.464  1.00  0.00     0.031 A 
ATOM     65  C   UNL A   1      41.339  29.133  32.229  1.00  0.00     0.049 A 
ATOM     66  C   UNL A   1      41.989  31.913  37.048  1.00  0.00     0.074 A 
ATOM     67  C   UNL A   1      42.310  28.201  31.910  1.00  0.00     0.029 A 
ATOM     68  N   UNL A   1      41.686  29.671  33.459  1.00  0.00    -0.354 N 
ATOM     69  N   UNL A   1      41.976  31.191  35.953  1.00  0.00    -0.248 NA
ATOM     70  C   UNL A   1      43.075  31.569  37.978  1.00  0.00     0.031 C 
ATOM     71  C   UNL A   1      43.209  28.128  32.978  1.00  0.00     0.029 A 
ATOM     72  C   UNL A   1      42.839  29.067  33.928  1.00  0.00     0.049 A 
ATOM     73  H   UNL A   1      41.187  30.379  33.928  1.00  0.00     0.167 HD
ATOM     74  C   UNL A   1      43.066  30.333  36.048  1.00  0.00     0.074 A 
ATOM     75  C   UNL A   1      43.727  30.634  37.301  1.00  0.00     0.031 C 
ATOM     76  C   UNL A   1      43.485  29.381  35.176  1.00  0.00     0.031 A 
BRANCH  63  77
ATOM     77  C   UNL A   1      39.884  28.782  30.191  1.00  0.00    -0.014 A 
ATOM     78  C   UNL A   1      40.177  29.359  28.945  1.00  0.00     0.009 A 
ATOM     79  C   UNL A   1      39.327  27.495  30.228  1.00  0.00     0.009 A 
ATOM     80  C   UNL A   1      39.886  28.677  27.763  1.00  0.00     0.001 A 
ATOM     81  C   UNL A   1      39.065  26.801  29.044  1.00  0.00     0.001 A 
ATOM     82  C   UNL A   1      39.335  27.396  27.814  1.00  0.00     0.000 A 
ENDBRANCH  63  77
BRANCH  64  83
ATOM     83  C   UNL A   1      41.270  33.735  38.759  1.00  0.00    -0.014 A 
ATOM     84  C   UNL A   1      42.024  34.917  38.820  1.00  0.00     0.009 A 
ATOM     85  C   UNL A   1      40.740  33.209  39.948  1.00  0.00     0.009 A 
ATOM     86  C   UNL A   1      42.263  35.543  40.046  1.00  0.00     0.001 A 
ATOM     87  C   UNL A   1      40.955  33.853  41.168  1.00  0.00     0.001 A 
ATOM     88  C   UNL A   1      41.726  35.013  41.218  1.00  0.00     0.000 A 
ENDBRANCH  64  83
BRANCH  76  89
ATOM     89  C   UNL A   1      44.740  28.627  35.521  1.00  0.00    -0.014 A 
ATOM     90  C   UNL A   1      44.700  27.433  36.257  1.00  0.00     0.009 A 
ATOM     91  C   UNL A   1      45.978  29.094  35.048  1.00  0.00     0.009 A 
ATOM     92  C   UNL A   1      45.879  26.738  36.537  1.00  0.00     0.001 A 
ATOM     93  C   UNL A   1      47.150  28.380  35.302  1.00  0.00     0.001 A 
ATOM     94  C   UNL A   1      47.100  27.208  36.055  1.00  0.00     0.000 A 
ENDBRANCH  76  89
ENDBRANCH  50  51
ENDBRANCH  43  45
ENDBRANCH  42  43
ENDBRANCH  41  42
ENDBRANCH  40  41
ENDBRANCH  39  40
ENDBRANCH  38  39
ENDBRANCH  37  38
ENDBRANCH  36  37
ENDBRANCH  35  36
ENDBRANCH   1  35
TORSDOF 26
ENDMDL
MODEL 3
REMARK VINA RESULT:      -9.7      4.136      9.304
REMARK SMILES C[N@H+]1[C@H](C(=O)OCCOCCOCCOCCOC(=O)c2ccc(-c3c4nc(c(-c5ccccc5)c5ccc([nH]5)c(-c5ccccc5)c5nc(c(-c6ccccc6)c6ccc3[nH]6)C=C5)C=C4)cc2)C[C@H](C(=O)NCC2(CO)CCCC2)[C@@H]1c1ccccc1F
REMARK SMILES IDX 10 1 9 2 8 3 7 4 6 5 4 6 5 7 3 8 1 9 2 10 82 11 69 13 70 14
REMARK SMILES IDX 83 15 84 16 88 17 85 18 87 19 89 20 86 21 71 22 72 23 73 24
REMARK SMILES IDX 74 26 75 27 78 28 81 29 79 30 80 31 76 32 77 33 11 35 12 36
REMARK SMILES IDX 13 37 14 38 15 39 16 40 17 41 18 42 19 43 20 44 21 45 22 46
REMARK SMILES IDX 68 47 23 48 67 49 24 50 25 51 26 52 61 53 27 54 66 55 60 56
REMARK SMILES IDX 62 57 28 58 65 59 59 60 58 61 29 63 51 64 36 65 50 66 37 67
REMARK SMILES IDX 40 68 49 69 63 70 38 71 39 72 48 74 64 75 41 76 30 77 31 78
REMARK SMILES IDX 35 79 32 80 34 81 33 82 52 83 53 84 57 85 54 86 56 87 55 88
REMARK SMILES IDX 42 89 43 90 47 91 44 92 46 93 45 94
REMARK H PARENT 2 12 73 25 77 34 62 62 40 73
REMARK Flexibility Score: inf
ROOT
ATOM      1  C   UNL A   1      37.530  21.602  24.911  1.00  0.00     0.188 C 
ENDROOT
BRANCH   1   2
ATOM      2  O   UNL A   1      36.675  20.459  24.833  1.00  0.00    -0.376 OA
BRANCH   2   3
ATOM      3  C   UNL A   1      35.274  20.623  24.946  1.00  0.00     0.202 C 
BRANCH   3   4
ATOM      4  C   UNL A   1      34.682  21.869  24.271  1.00  0.00     0.261 C 
BRANCH   4   5
ATOM      5  O   UNL A   1      33.350  21.743  23.737  1.00  0.00    -0.459 OA
BRANCH   5   6
ATOM      6  C   UNL A   1      32.373  21.379  24.614  1.00  0.00     0.365 C 
ATOM      7  O   UNL A   1      31.912  20.243  24.691  1.00  0.00    -0.245 OA
BRANCH   6   8
ATOM      8  C   UNL A   1      31.710  22.551  25.350  1.00  0.00     0.296 C 
ATOM      9  C   UNL A   1      32.722  23.266  27.455  1.00  0.00     0.333 C 
ATOM     10  N   UNL A   1      32.536  23.593  26.035  1.00  0.00    -0.319 N 
ATOM     11  C   UNL A   1      31.729  24.841  25.900  1.00  0.00     0.231 C 
ATOM     12  H   UNL A   1      33.469  23.672  25.632  1.00  0.00     0.349 HD
ATOM     13  C   UNL A   1      30.966  23.289  24.259  1.00  0.00     0.097 C 
ATOM     14  C   UNL A   1      31.199  24.783  24.456  1.00  0.00     0.148 C 
BRANCH  11  15
ATOM     15  C   UNL A   1      32.268  26.197  26.311  1.00  0.00     0.046 A 
ATOM     16  C   UNL A   1      31.340  27.128  26.832  1.00  0.00     0.013 A 
ATOM     17  C   UNL A   1      33.579  26.639  26.115  1.00  0.00     0.132 A 
ATOM     18  C   UNL A   1      31.698  28.453  27.093  1.00  0.00     0.001 A 
ATOM     19  C   UNL A   1      33.942  27.964  26.378  1.00  0.00     0.040 A 
ATOM     20  F   UNL A   1      34.527  25.815  25.649  1.00  0.00    -0.206 F 
ATOM     21  C   UNL A   1      33.000  28.876  26.851  1.00  0.00     0.003 A 
ENDBRANCH  11  15
BRANCH  14  22
ATOM     22  C   UNL A   1      32.069  25.414  23.356  1.00  0.00     0.229 C 
ATOM     23  O   UNL A   1      33.188  25.015  23.037  1.00  0.00    -0.275 OA
ATOM     24  N   UNL A   1      31.649  26.577  22.764  1.00  0.00    -0.355 N 
ATOM     25  H   UNL A   1      32.301  26.999  22.158  1.00  0.00     0.163 HD
BRANCH  24  26
ATOM     26  C   UNL A   1      30.390  27.277  22.896  1.00  0.00     0.125 C 
BRANCH  26  27
ATOM     27  C   UNL A   1      30.474  28.801  22.827  1.00  0.00     0.011 C 
ATOM     28  C   UNL A   1      29.320  29.317  21.941  1.00  0.00     0.011 C 
ATOM     29  C   UNL A   1      30.142  29.475  24.167  1.00  0.00     0.011 C 
ATOM     30  C   UNL A   1      29.113  30.763  22.358  1.00  0.00     0.001 C 
ATOM     31  C   UNL A   1      29.610  30.857  23.799  1.00  0.00     0.001 C 
BRANCH  27  32
ATOM     32  C   UNL A   1      31.839  29.223  22.259  1.00  0.00     0.164 C 
BRANCH  32  33
ATOM     33  O   UNL A   1      32.799  29.412  23.292  1.00  0.00    -0.396 OA
ATOM     34  H   UNL A   1      32.712  28.702  23.947  1.00  0.00     0.210 HD
ENDBRANCH  32  33
ENDBRANCH  27  32
ENDBRANCH  26  27
ENDBRANCH  24  26
ENDBRANCH  14  22
ENDBRANCH   6   8
ENDBRANCH   5   6
ENDBRANCH   4   5
ENDBRANCH   3   4
ENDBRANCH   2   3
ENDBRANCH   1   2
BRANCH   1  35
ATOM     35  C   UNL A   1      38.861  21.572  25.702  1.00  0.00     0.188 C 
BRANCH  35  36
ATOM     36  O   UNL A   1      38.931  22.549  26.727  1.00  0.00    -0.377 OA
BRANCH  36  37
ATOM     37  C   UNL A   1      38.409  23.813  26.374  1.00  0.00     0.188 C 
BRANCH  37  38
ATOM     38  C   UNL A   1      39.385  24.981  26.576  1.00  0.00     0.188 C 
BRANCH  38  39
ATOM     39  O   UNL A   1      40.202  24.814  27.729  1.00  0.00    -0.376 OA
BRANCH  39  40
ATOM     40  C   UNL A   1      41.612  24.810  27.616  1.00  0.00     0.202 C 
BRANCH  40  41
ATOM     41  C   UNL A   1      42.453  25.314  28.799  1.00  0.00     0.261 C 
BRANCH  41  42
ATOM     42  O   UNL A   1      43.482  24.451  29.296  1.00  0.00    -0.460 OA
BRANCH  42  43
ATOM     43  C   UNL A   1      44.372  23.937  28.414  1.00  0.00     0.338 C 
ATOM     44  O   UNL A   1      44.365  22.836  27.923  1.00  0.00    -0.246 OA
BRANCH  43  45
ATOM     45  C   UNL A   1      45.248  25.060  27.992  1.00  0.00     0.060 A 
ATOM     46  C   UNL A   1      45.925  25.796  28.974  1.00  0.00     0.016 A 
ATOM     47  C   UNL A   1      45.442  25.345  26.638  1.00  0.00     0.016 A 
ATOM     48  C   UNL A   1      46.790  26.827  28.606  1.00  0.00     0.010 A 
ATOM     49  C   UNL A   1      46.275  26.405  26.271  1.00  0.00     0.010 A 
ATOM     50  C   UNL A   1      46.930  27.166  27.255  1.00  0.00    -0.014 A 
BRANCH  50  51
ATOM     51  C   UNL A   1      47.561  28.455  26.885  1.00  0.00     0.031 A 
ATOM     52  C   UNL A   1      49.036  28.451  26.591  1.00  0.00     0.074 A 
ATOM     53  C   UNL A   1      46.854  29.594  26.803  1.00  0.00     0.049 A 
ATOM     54  N   UNL A   1      49.831  29.449  26.306  1.00  0.00    -0.248 NA
ATOM     55  C   UNL A   1      49.703  27.138  26.628  1.00  0.00     0.031 C 
ATOM     56  C   UNL A   1      45.414  29.720  27.012  1.00  0.00     0.029 A 
ATOM     57  N   UNL A   1      47.270  30.874  26.528  1.00  0.00    -0.354 N 
ATOM     58  C   UNL A   1      51.090  28.886  26.138  1.00  0.00     0.074 A 
ATOM     59  C   UNL A   1      50.961  27.466  26.379  1.00  0.00     0.031 C 
ATOM     60  C   UNL A   1      45.066  31.012  26.869  1.00  0.00     0.029 A 
ATOM     61  C   UNL A   1      46.263  31.806  26.598  1.00  0.00     0.049 A 
ATOM     62  H   UNL A   1      48.200  31.103  26.301  1.00  0.00     0.167 HD
ATOM     63  C   UNL A   1      52.252  29.495  25.811  1.00  0.00     0.031 A 
ATOM     64  C   UNL A   1      46.313  33.148  26.484  1.00  0.00     0.031 A 
ATOM     65  C   UNL A   1      52.385  30.911  25.599  1.00  0.00     0.049 A 
ATOM     66  C   UNL A   1      47.637  33.817  26.217  1.00  0.00     0.074 A 
ATOM     67  C   UNL A   1      53.517  31.629  25.256  1.00  0.00     0.029 A 
ATOM     68  N   UNL A   1      51.350  31.825  25.722  1.00  0.00    -0.354 N 
ATOM     69  N   UNL A   1      48.818  33.275  26.032  1.00  0.00    -0.248 NA
ATOM     70  C   UNL A   1      47.635  35.286  26.140  1.00  0.00     0.031 C 
ATOM     71  C   UNL A   1      53.181  32.985  25.237  1.00  0.00     0.029 A 
ATOM     72  C   UNL A   1      51.824  33.105  25.495  1.00  0.00     0.049 A 
ATOM     73  H   UNL A   1      50.417  31.597  25.938  1.00  0.00     0.167 HD
ATOM     74  C   UNL A   1      49.688  34.331  25.785  1.00  0.00     0.074 A 
ATOM     75  C   UNL A   1      48.898  35.543  25.830  1.00  0.00     0.031 C 
ATOM     76  C   UNL A   1      51.023  34.300  25.541  1.00  0.00     0.031 A 
BRANCH  63  77
ATOM     77  C   UNL A   1      53.480  28.634  25.712  1.00  0.00    -0.014 A 
ATOM     78  C   UNL A   1      54.268  28.349  26.838  1.00  0.00     0.009 A 
ATOM     79  C   UNL A   1      53.843  28.085  24.473  1.00  0.00     0.009 A 
ATOM     80  C   UNL A   1      55.414  27.560  26.719  1.00  0.00     0.001 A 
ATOM     81  C   UNL A   1      54.972  27.271  24.362  1.00  0.00     0.001 A 
ATOM     82  C   UNL A   1      55.761  27.018  25.482  1.00  0.00     0.000 A 
ENDBRANCH  63  77
BRANCH  64  83
ATOM     83  C   UNL A   1      45.078  33.962  26.649  1.00  0.00    -0.014 A 
ATOM     84  C   UNL A   1      44.673  34.403  27.918  1.00  0.00     0.009 A 
ATOM     85  C   UNL A   1      44.277  34.274  25.538  1.00  0.00     0.009 A 
ATOM     86  C   UNL A   1      43.482  35.116  28.075  1.00  0.00     0.001 A 
ATOM     87  C   UNL A   1      43.103  35.014  25.693  1.00  0.00     0.001 A 
ATOM     88  C   UNL A   1      42.700  35.425  26.962  1.00  0.00     0.000 A 
ENDBRANCH  64  83
BRANCH  76  89
ATOM     89  C   UNL A   1      51.707  35.610  25.257  1.00  0.00    -0.014 A 
ATOM     90  C   UNL A   1      51.979  36.533  26.279  1.00  0.00     0.009 A 
ATOM     91  C   UNL A   1      52.139  35.894  23.952  1.00  0.00     0.009 A 
ATOM     92  C   UNL A   1      52.642  37.728  25.992  1.00  0.00     0.001 A 
ATOM     93  C   UNL A   1      52.830  37.075  23.674  1.00  0.00     0.001 A 
ATOM     94  C   UNL A   1      53.072  37.994  24.692  1.00  0.00     0.000 A 
ENDBRANCH  76  89
ENDBRANCH  50  51
ENDBRANCH  43  45
ENDBRANCH  42  43
ENDBRANCH  41  42
ENDBRANCH  40  41
ENDBRANCH  39  40
ENDBRANCH  38  39
ENDBRANCH  37  38
ENDBRANCH  36  37
ENDBRANCH  35  36
ENDBRANCH   1  35
TORSDOF 26
ENDMDL
