MODEL 1
REMARK VINA RESULT:      -7.2      0.000      0.000
REMARK SMILES CC(C)C[C@@H](C[NH3+])C(=O)N1CCC(CC(=O)OCCOCCOCCOCCOC(=O)c2ccc(-c3c4nc(c(-c5ccccc5)c5ccc([nH]5)c(-c5ccccc5)c5nc(c(-c6ccccc6)c6ccc3[nH]6)C=C5)C=C4)cc2)CC1
REMARK SMILES IDX 22 1 21 2 20 3 19 4 18 5 17 6 15 7 16 8 14 9 13 10 8 11 9 12
REMARK SMILES IDX 10 13 11 14 81 15 12 16 80 17 5 18 4 19 2 20 1 21 3 22 6 23
REMARK SMILES IDX 7 24 23 28 24 29 25 30 26 31 27 32 28 33 29 34 30 35 31 36
REMARK SMILES IDX 32 37 33 38 79 39 34 40 78 41 35 42 36 43 37 44 72 45 38 46
REMARK SMILES IDX 77 47 71 48 73 49 39 50 76 51 70 52 69 53 40 55 62 56 47 57
REMARK SMILES IDX 61 58 48 59 51 60 60 61 74 62 49 63 50 64 59 66 75 67 52 68
REMARK SMILES IDX 41 69 42 70 46 71 43 72 45 73 44 74 63 75 64 76 68 77 65 78
REMARK SMILES IDX 67 79 66 80 53 81 54 82 58 83 55 84 57 85 56 86
REMARK H PARENT 7 25 7 26 7 27 73 54 51 65
REMARK Flexibility Score: inf
ROOT
ATOM      1  C   UNL A   1      33.221  34.432  28.530  1.00  0.00     0.188 C 
ENDROOT
BRANCH   1   2
ATOM      2  C   UNL A   1      34.125  33.206  28.359  1.00  0.00     0.188 C 
BRANCH   2   3
ATOM      3  O   UNL A   1      35.523  33.376  28.456  1.00  0.00    -0.376 OA
BRANCH   3   4
ATOM      4  C   UNL A   1      36.363  32.311  28.877  1.00  0.00     0.202 C 
BRANCH   4   5
ATOM      5  C   UNL A   1      36.480  30.949  28.170  1.00  0.00     0.261 C 
BRANCH   5   6
ATOM      6  O   UNL A   1      36.892  29.833  28.972  1.00  0.00    -0.463 OA
BRANCH   6   7
ATOM      7  C   UNL A   1      38.225  29.605  29.019  1.00  0.00     0.306 C 
ATOM      8  O   UNL A   1      39.070  30.477  29.206  1.00  0.00    -0.252 OA
BRANCH   7   9
ATOM      9  C   UNL A   1      38.634  28.155  28.884  1.00  0.00     0.126 C 
BRANCH   9  10
ATOM     10  C   UNL A   1      39.941  27.747  28.195  1.00  0.00     0.003 C 
ATOM     11  C   UNL A   1      42.980  24.927  28.204  1.00  0.00     0.231 C 
ATOM     12  O   UNL A   1      43.529  24.996  29.313  1.00  0.00    -0.274 OA
ATOM     13  N   UNL A   1      42.182  25.962  27.761  1.00  0.00    -0.342 N 
ATOM     14  C   UNL A   1      42.403  27.298  28.309  1.00  0.00     0.120 C 
ATOM     15  C   UNL A   1      41.029  25.858  26.882  1.00  0.00     0.120 C 
ATOM     16  C   UNL A   1      41.185  27.788  29.091  1.00  0.00     0.026 C 
ATOM     17  C   UNL A   1      39.768  26.335  27.604  1.00  0.00     0.026 C 
BRANCH  11  18
ATOM     18  C   UNL A   1      43.386  23.762  27.278  1.00  0.00     0.133 C 
BRANCH  18  19
ATOM     19  C   UNL A   1      44.805  23.741  26.692  1.00  0.00     0.022 C 
BRANCH  19  20
ATOM     20  C   UNL A   1      44.986  22.951  25.378  1.00  0.00    -0.016 C 
ATOM     21  C   UNL A   1      43.778  23.034  24.447  1.00  0.00     0.007 C 
ATOM     22  C   UNL A   1      46.233  23.469  24.652  1.00  0.00     0.007 C 
ENDBRANCH  19  20
ENDBRANCH  18  19
BRANCH  18  23
ATOM     23  C   UNL A   1      42.925  22.436  27.912  1.00  0.00     0.272 C 
BRANCH  23  24
ATOM     24  N   UNL A   1      42.120  22.576  29.126  1.00  0.00    -0.357 N 
ATOM     25  H   UNL A   1      41.150  22.335  28.921  1.00  0.00     0.344 HD
ATOM     26  H   UNL A   1      42.169  23.539  29.458  1.00  0.00     0.344 HD
ATOM     27  H   UNL A   1      42.480  21.949  29.847  1.00  0.00     0.344 HD
ENDBRANCH  23  24
ENDBRANCH  18  23
ENDBRANCH  11  18
ENDBRANCH   9  10
ENDBRANCH   7   9
ENDBRANCH   6   7
ENDBRANCH   5   6
ENDBRANCH   4   5
ENDBRANCH   3   4
ENDBRANCH   2   3
ENDBRANCH   1   2
BRANCH   1  28
ATOM     28  O   UNL A   1      33.744  35.518  29.271  1.00  0.00    -0.377 OA
BRANCH  28  29
ATOM     29  C   UNL A   1      32.980  36.090  30.329  1.00  0.00     0.188 C 
BRANCH  29  30
ATOM     30  C   UNL A   1      33.148  35.620  31.788  1.00  0.00     0.188 C 
BRANCH  30  31
ATOM     31  O   UNL A   1      33.591  34.284  31.948  1.00  0.00    -0.376 OA
BRANCH  31  32
ATOM     32  C   UNL A   1      34.985  34.038  32.068  1.00  0.00     0.202 C 
BRANCH  32  33
ATOM     33  C   UNL A   1      35.551  33.905  33.491  1.00  0.00     0.261 C 
BRANCH  33  34
ATOM     34  O   UNL A   1      36.165  32.642  33.800  1.00  0.00    -0.460 OA
BRANCH  34  35
ATOM     35  C   UNL A   1      37.123  32.634  34.749  1.00  0.00     0.338 C 
ATOM     36  O   UNL A   1      37.051  33.070  35.881  1.00  0.00    -0.246 OA
BRANCH  35  37
ATOM     37  C   UNL A   1      38.258  31.834  34.248  1.00  0.00     0.060 A 
ATOM     38  C   UNL A   1      39.547  32.168  34.677  1.00  0.00     0.016 A 
ATOM     39  C   UNL A   1      38.056  30.807  33.323  1.00  0.00     0.016 A 
ATOM     40  C   UNL A   1      40.650  31.518  34.127  1.00  0.00     0.010 A 
ATOM     41  C   UNL A   1      39.165  30.167  32.762  1.00  0.00     0.010 A 
ATOM     42  C   UNL A   1      40.467  30.555  33.125  1.00  0.00    -0.014 A 
BRANCH  42  43
ATOM     43  C   UNL A   1      41.640  30.123  32.329  1.00  0.00     0.031 A 
ATOM     44  C   UNL A   1      42.320  28.830  32.694  1.00  0.00     0.074 A 
ATOM     45  C   UNL A   1      42.054  30.827  31.261  1.00  0.00     0.049 A 
ATOM     46  N   UNL A   1      43.327  28.228  32.114  1.00  0.00    -0.248 NA
ATOM     47  C   UNL A   1      41.793  28.117  33.871  1.00  0.00     0.031 C 
ATOM     48  C   UNL A   1      41.460  32.075  30.785  1.00  0.00     0.029 A 
ATOM     49  N   UNL A   1      43.077  30.581  30.379  1.00  0.00    -0.354 N 
ATOM     50  C   UNL A   1      43.560  27.078  32.859  1.00  0.00     0.074 A 
ATOM     51  C   UNL A   1      42.608  27.076  33.947  1.00  0.00     0.031 C 
ATOM     52  C   UNL A   1      42.133  32.489  29.697  1.00  0.00     0.029 A 
ATOM     53  C   UNL A   1      43.216  31.550  29.417  1.00  0.00     0.049 A 
ATOM     54  H   UNL A   1      43.654  29.785  30.432  1.00  0.00     0.167 HD
ATOM     55  C   UNL A   1      44.480  26.107  32.652  1.00  0.00     0.031 A 
ATOM     56  C   UNL A   1      44.127  31.670  28.430  1.00  0.00     0.031 A 
ATOM     57  C   UNL A   1      45.430  26.108  31.572  1.00  0.00     0.049 A 
ATOM     58  C   UNL A   1      45.168  30.595  28.251  1.00  0.00     0.074 A 
ATOM     59  C   UNL A   1      46.380  25.151  31.260  1.00  0.00     0.029 A 
ATOM     60  N   UNL A   1      45.556  27.119  30.633  1.00  0.00    -0.354 N 
ATOM     61  N   UNL A   1      45.343  29.487  28.931  1.00  0.00    -0.248 NA
ATOM     62  C   UNL A   1      46.125  30.781  27.152  1.00  0.00     0.031 C 
ATOM     63  C   UNL A   1      47.126  25.615  30.173  1.00  0.00     0.029 A 
ATOM     64  C   UNL A   1      46.591  26.825  29.761  1.00  0.00     0.049 A 
ATOM     65  H   UNL A   1      44.994  27.926  30.593  1.00  0.00     0.167 HD
ATOM     66  C   UNL A   1      46.407  28.831  28.321  1.00  0.00     0.074 A 
ATOM     67  C   UNL A   1      46.818  29.653  27.202  1.00  0.00     0.031 C 
ATOM     68  C   UNL A   1      46.991  27.653  28.654  1.00  0.00     0.031 A 
BRANCH  55  69
ATOM     69  C   UNL A   1      44.536  24.976  33.643  1.00  0.00    -0.014 A 
ATOM     70  C   UNL A   1      45.256  25.084  34.843  1.00  0.00     0.009 A 
ATOM     71  C   UNL A   1      43.807  23.804  33.391  1.00  0.00     0.009 A 
ATOM     72  C   UNL A   1      45.262  24.029  35.759  1.00  0.00     0.001 A 
ATOM     73  C   UNL A   1      43.791  22.764  34.320  1.00  0.00     0.001 A 
ATOM     74  C   UNL A   1      44.524  22.875  35.501  1.00  0.00     0.000 A 
ENDBRANCH  55  69
BRANCH  56  75
ATOM     75  C   UNL A   1      44.120  32.864  27.542  1.00  0.00    -0.014 A 
ATOM     76  C   UNL A   1      43.779  32.759  26.185  1.00  0.00     0.009 A 
ATOM     77  C   UNL A   1      44.514  34.115  28.045  1.00  0.00     0.009 A 
ATOM     78  C   UNL A   1      43.870  33.870  25.343  1.00  0.00     0.001 A 
ATOM     79  C   UNL A   1      44.570  35.232  27.209  1.00  0.00     0.001 A 
ATOM     80  C   UNL A   1      44.262  35.106  25.856  1.00  0.00     0.000 A 
ENDBRANCH  56  75
BRANCH  68  81
ATOM     81  C   UNL A   1      48.105  27.163  27.767  1.00  0.00    -0.014 A 
ATOM     82  C   UNL A   1      49.451  27.438  28.054  1.00  0.00     0.009 A 
ATOM     83  C   UNL A   1      47.797  26.406  26.626  1.00  0.00     0.009 A 
ATOM     84  C   UNL A   1      50.460  27.013  27.186  1.00  0.00     0.001 A 
ATOM     85  C   UNL A   1      48.810  25.949  25.781  1.00  0.00     0.001 A 
ATOM     86  C   UNL A   1      50.139  26.267  26.053  1.00  0.00     0.000 A 
ENDBRANCH  68  81
ENDBRANCH  42  43
ENDBRANCH  35  37
ENDBRANCH  34  35
ENDBRANCH  33  34
ENDBRANCH  32  33
ENDBRANCH  31  32
ENDBRANCH  30  31
ENDBRANCH  29  30
ENDBRANCH  28  29
ENDBRANCH   1  28
TORSDOF 26
ENDMDL
MODEL 2
REMARK VINA RESULT:      -7.1      5.979     11.722
REMARK SMILES CC(C)C[C@@H](C[NH3+])C(=O)N1CCC(CC(=O)OCCOCCOCCOCCOC(=O)c2ccc(-c3c4nc(c(-c5ccccc5)c5ccc([nH]5)c(-c5ccccc5)c5nc(c(-c6ccccc6)c6ccc3[nH]6)C=C5)C=C4)cc2)CC1
REMARK SMILES IDX 22 1 21 2 20 3 19 4 18 5 17 6 15 7 16 8 14 9 13 10 8 11 9 12
REMARK SMILES IDX 10 13 11 14 81 15 12 16 80 17 5 18 4 19 2 20 1 21 3 22 6 23
REMARK SMILES IDX 7 24 23 28 24 29 25 30 26 31 27 32 28 33 29 34 30 35 31 36
REMARK SMILES IDX 32 37 33 38 79 39 34 40 78 41 35 42 36 43 37 44 72 45 38 46
REMARK SMILES IDX 77 47 71 48 73 49 39 50 76 51 70 52 69 53 40 55 62 56 47 57
REMARK SMILES IDX 61 58 48 59 51 60 60 61 74 62 49 63 50 64 59 66 75 67 52 68
REMARK SMILES IDX 41 69 42 70 46 71 43 72 45 73 44 74 63 75 64 76 68 77 65 78
REMARK SMILES IDX 67 79 66 80 53 81 54 82 58 83 55 84 57 85 56 86
REMARK H PARENT 7 25 7 26 7 27 73 54 51 65
REMARK Flexibility Score: inf
ROOT
ATOM      1  C   UNL A   1      38.274  23.522  26.141  1.00  0.00     0.188 C 
ENDROOT
BRANCH   1   2
ATOM      2  C   UNL A   1      36.941  23.943  25.512  1.00  0.00     0.188 C 
BRANCH   2   3
ATOM      3  O   UNL A   1      35.990  22.947  25.207  1.00  0.00    -0.376 OA
BRANCH   3   4
ATOM      4  C   UNL A   1      35.077  22.478  26.189  1.00  0.00     0.202 C 
BRANCH   4   5
ATOM      5  C   UNL A   1      34.419  21.087  26.187  1.00  0.00     0.261 C 
BRANCH   5   6
ATOM      6  O   UNL A   1      34.040  20.548  24.913  1.00  0.00    -0.463 OA
BRANCH   6   7
ATOM      7  C   UNL A   1      32.753  20.748  24.550  1.00  0.00     0.306 C 
ATOM      8  O   UNL A   1      31.785  20.290  25.150  1.00  0.00    -0.252 OA
BRANCH   7   9
ATOM      9  C   UNL A   1      32.556  21.653  23.353  1.00  0.00     0.126 C 
BRANCH   9  10
ATOM     10  C   UNL A   1      32.908  23.144  23.404  1.00  0.00     0.003 C 
ATOM     11  C   UNL A   1      31.440  26.948  22.649  1.00  0.00     0.231 C 
ATOM     12  O   UNL A   1      31.187  26.999  21.436  1.00  0.00    -0.274 OA
ATOM     13  N   UNL A   1      32.266  25.958  23.142  1.00  0.00    -0.342 N 
ATOM     14  C   UNL A   1      33.229  25.336  22.236  1.00  0.00     0.120 C 
ATOM     15  C   UNL A   1      32.206  25.350  24.461  1.00  0.00     0.120 C 
ATOM     16  C   UNL A   1      32.935  23.850  22.044  1.00  0.00     0.026 C 
ATOM     17  C   UNL A   1      31.913  23.854  24.342  1.00  0.00     0.026 C 
BRANCH  11  18
ATOM     18  C   UNL A   1      30.977  28.129  23.526  1.00  0.00     0.133 C 
BRANCH  18  19
ATOM     19  C   UNL A   1      32.005  28.835  24.421  1.00  0.00     0.022 C 
BRANCH  19  20
ATOM     20  C   UNL A   1      31.528  29.203  25.842  1.00  0.00    -0.016 C 
ATOM     21  C   UNL A   1      31.702  28.072  26.854  1.00  0.00     0.007 C 
ATOM     22  C   UNL A   1      32.293  30.443  26.319  1.00  0.00     0.007 C 
ENDBRANCH  19  20
ENDBRANCH  18  19
BRANCH  18  23
ATOM     23  C   UNL A   1      30.101  29.068  22.675  1.00  0.00     0.272 C 
BRANCH  23  24
ATOM     24  N   UNL A   1      30.833  29.919  21.736  1.00  0.00    -0.357 N 
ATOM     25  H   UNL A   1      31.016  29.398  20.878  1.00  0.00     0.344 HD
ATOM     26  H   UNL A   1      31.718  30.206  22.154  1.00  0.00     0.344 HD
ATOM     27  H   UNL A   1      30.275  30.745  21.519  1.00  0.00     0.344 HD
ENDBRANCH  23  24
ENDBRANCH  18  23
ENDBRANCH  11  18
ENDBRANCH   9  10
ENDBRANCH   7   9
ENDBRANCH   6   7
ENDBRANCH   5   6
ENDBRANCH   4   5
ENDBRANCH   3   4
ENDBRANCH   2   3
ENDBRANCH   1   2
BRANCH   1  28
ATOM     28  O   UNL A   1      38.468  22.138  26.365  1.00  0.00    -0.377 OA
BRANCH  28  29
ATOM     29  C   UNL A   1      39.778  21.583  26.280  1.00  0.00     0.188 C 
BRANCH  29  30
ATOM     30  C   UNL A   1      40.681  21.457  27.524  1.00  0.00     0.188 C 
BRANCH  30  31
ATOM     31  O   UNL A   1      41.057  22.682  28.126  1.00  0.00    -0.376 OA
BRANCH  31  32
ATOM     32  C   UNL A   1      42.053  23.475  27.494  1.00  0.00     0.202 C 
BRANCH  32  33
ATOM     33  C   UNL A   1      43.181  22.727  26.764  1.00  0.00     0.261 C 
BRANCH  33  34
ATOM     34  O   UNL A   1      44.462  22.742  27.418  1.00  0.00    -0.460 OA
BRANCH  34  35
ATOM     35  C   UNL A   1      45.555  22.852  26.637  1.00  0.00     0.338 C 
ATOM     36  O   UNL A   1      46.057  21.996  25.936  1.00  0.00    -0.246 OA
BRANCH  35  37
ATOM     37  C   UNL A   1      45.967  24.269  26.622  1.00  0.00     0.060 A 
ATOM     38  C   UNL A   1      45.832  24.988  25.429  1.00  0.00     0.016 A 
ATOM     39  C   UNL A   1      46.533  24.862  27.753  1.00  0.00     0.016 A 
ATOM     40  C   UNL A   1      46.328  26.287  25.344  1.00  0.00     0.010 A 
ATOM     41  C   UNL A   1      47.043  26.160  27.661  1.00  0.00     0.010 A 
ATOM     42  C   UNL A   1      46.987  26.858  26.441  1.00  0.00    -0.014 A 
BRANCH  42  43
ATOM     43  C   UNL A   1      47.787  28.089  26.230  1.00  0.00     0.031 A 
ATOM     44  C   UNL A   1      47.123  29.423  26.442  1.00  0.00     0.074 A 
ATOM     45  C   UNL A   1      49.095  28.024  25.924  1.00  0.00     0.049 A 
ATOM     46  N   UNL A   1      47.633  30.626  26.366  1.00  0.00    -0.248 NA
ATOM     47  C   UNL A   1      45.691  29.400  26.787  1.00  0.00     0.031 C 
ATOM     48  C   UNL A   1      49.861  26.795  25.726  1.00  0.00     0.029 A 
ATOM     49  N   UNL A   1      50.011  29.028  25.732  1.00  0.00    -0.354 N 
ATOM     50  C   UNL A   1      46.587  31.498  26.642  1.00  0.00     0.074 A 
ATOM     51  C   UNL A   1      45.407  30.692  26.861  1.00  0.00     0.031 C 
ATOM     52  C   UNL A   1      51.134  27.118  25.436  1.00  0.00     0.029 A 
ATOM     53  C   UNL A   1      51.264  28.573  25.404  1.00  0.00     0.049 A 
ATOM     54  H   UNL A   1      49.790  29.983  25.822  1.00  0.00     0.167 HD
ATOM     55  C   UNL A   1      46.607  32.851  26.711  1.00  0.00     0.031 A 
ATOM     56  C   UNL A   1      52.385  29.257  25.098  1.00  0.00     0.031 A 
ATOM     57  C   UNL A   1      47.778  33.655  26.490  1.00  0.00     0.049 A 
ATOM     58  C   UNL A   1      52.365  30.763  25.140  1.00  0.00     0.074 A 
ATOM     59  C   UNL A   1      47.905  35.031  26.571  1.00  0.00     0.029 A 
ATOM     60  N   UNL A   1      49.022  33.158  26.135  1.00  0.00    -0.354 N 
ATOM     61  N   UNL A   1      51.382  31.573  25.453  1.00  0.00    -0.248 NA
ATOM     62  C   UNL A   1      53.622  31.448  24.806  1.00  0.00     0.031 C 
ATOM     63  C   UNL A   1      49.208  35.372  26.199  1.00  0.00     0.029 A 
ATOM     64  C   UNL A   1      49.914  34.203  25.960  1.00  0.00     0.049 A 
ATOM     65  H   UNL A   1      49.238  32.204  26.022  1.00  0.00     0.167 HD
ATOM     66  C   UNL A   1      51.911  32.856  25.385  1.00  0.00     0.074 A 
ATOM     67  C   UNL A   1      53.306  32.715  25.026  1.00  0.00     0.031 C 
ATOM     68  C   UNL A   1      51.299  34.048  25.602  1.00  0.00     0.031 A 
BRANCH  55  69
ATOM     69  C   UNL A   1      45.308  33.554  26.998  1.00  0.00    -0.014 A 
ATOM     70  C   UNL A   1      44.884  33.809  28.311  1.00  0.00     0.009 A 
ATOM     71  C   UNL A   1      44.526  34.017  25.928  1.00  0.00     0.009 A 
ATOM     72  C   UNL A   1      43.689  34.494  28.545  1.00  0.00     0.001 A 
ATOM     73  C   UNL A   1      43.348  34.726  26.165  1.00  0.00     0.001 A 
ATOM     74  C   UNL A   1      42.927  34.958  27.474  1.00  0.00     0.000 A 
ENDBRANCH  55  69
BRANCH  56  75
ATOM     75  C   UNL A   1      53.621  28.532  24.698  1.00  0.00    -0.014 A 
ATOM     76  C   UNL A   1      54.664  28.315  25.612  1.00  0.00     0.009 A 
ATOM     77  C   UNL A   1      53.784  28.101  23.371  1.00  0.00     0.009 A 
ATOM     78  C   UNL A   1      55.857  27.718  25.196  1.00  0.00     0.001 A 
ATOM     79  C   UNL A   1      54.964  27.473  22.967  1.00  0.00     0.001 A 
ATOM     80  C   UNL A   1      56.006  27.296  23.876  1.00  0.00     0.000 A 
ENDBRANCH  56  75
BRANCH  68  81
ATOM     81  C   UNL A   1      52.150  35.286  25.502  1.00  0.00    -0.014 A 
ATOM     82  C   UNL A   1      52.123  36.110  24.367  1.00  0.00     0.009 A 
ATOM     83  C   UNL A   1      52.989  35.635  26.573  1.00  0.00     0.009 A 
ATOM     84  C   UNL A   1      52.961  37.225  24.283  1.00  0.00     0.001 A 
ATOM     85  C   UNL A   1      53.796  36.771  26.502  1.00  0.00     0.001 A 
ATOM     86  C   UNL A   1      53.793  37.556  25.351  1.00  0.00     0.000 A 
ENDBRANCH  68  81
ENDBRANCH  42  43
ENDBRANCH  35  37
ENDBRANCH  34  35
ENDBRANCH  33  34
ENDBRANCH  32  33
ENDBRANCH  31  32
ENDBRANCH  30  31
ENDBRANCH  29  30
ENDBRANCH  28  29
ENDBRANCH   1  28
TORSDOF 26
ENDMDL
MODEL 3
REMARK VINA RESULT:      -7.0      1.197      5.963
REMARK SMILES CC(C)C[C@@H](C[NH3+])C(=O)N1CCC(CC(=O)OCCOCCOCCOCCOC(=O)c2ccc(-c3c4nc(c(-c5ccccc5)c5ccc([nH]5)c(-c5ccccc5)c5nc(c(-c6ccccc6)c6ccc3[nH]6)C=C5)C=C4)cc2)CC1
REMARK SMILES IDX 22 1 21 2 20 3 19 4 18 5 17 6 15 7 16 8 14 9 13 10 8 11 9 12
REMARK SMILES IDX 10 13 11 14 81 15 12 16 80 17 5 18 4 19 2 20 1 21 3 22 6 23
REMARK SMILES IDX 7 24 23 28 24 29 25 30 26 31 27 32 28 33 29 34 30 35 31 36
REMARK SMILES IDX 32 37 33 38 79 39 34 40 78 41 35 42 36 43 37 44 72 45 38 46
REMARK SMILES IDX 77 47 71 48 73 49 39 50 76 51 70 52 69 53 40 55 62 56 47 57
REMARK SMILES IDX 61 58 48 59 51 60 60 61 74 62 49 63 50 64 59 66 75 67 52 68
REMARK SMILES IDX 41 69 42 70 46 71 43 72 45 73 44 74 63 75 64 76 68 77 65 78
REMARK SMILES IDX 67 79 66 80 53 81 54 82 58 83 55 84 57 85 56 86
REMARK H PARENT 7 25 7 26 7 27 73 54 51 65
REMARK Flexibility Score: inf
ROOT
ATOM      1  C   UNL A   1      33.396  33.450  27.912  1.00  0.00     0.188 C 
ENDROOT
BRANCH   1   2
ATOM      2  C   UNL A   1      34.310  32.234  28.101  1.00  0.00     0.188 C 
BRANCH   2   3
ATOM      3  O   UNL A   1      33.965  31.022  27.468  1.00  0.00    -0.376 OA
BRANCH   3   4
ATOM      4  C   UNL A   1      34.880  29.936  27.416  1.00  0.00     0.202 C 
BRANCH   4   5
ATOM      5  C   UNL A   1      35.936  29.623  28.491  1.00  0.00     0.261 C 
BRANCH   5   6
ATOM      6  O   UNL A   1      37.141  30.402  28.466  1.00  0.00    -0.463 OA
BRANCH   6   7
ATOM      7  C   UNL A   1      38.287  29.705  28.291  1.00  0.00     0.306 C 
ATOM      8  O   UNL A   1      38.874  29.596  27.218  1.00  0.00    -0.252 OA
BRANCH   7   9
ATOM      9  C   UNL A   1      38.865  29.091  29.548  1.00  0.00     0.126 C 
BRANCH   9  10
ATOM     10  C   UNL A   1      39.688  27.800  29.510  1.00  0.00     0.003 C 
ATOM     11  C   UNL A   1      42.343  25.601  27.206  1.00  0.00     0.231 C 
ATOM     12  O   UNL A   1      41.751  25.312  26.156  1.00  0.00    -0.274 OA
ATOM     13  N   UNL A   1      41.628  26.010  28.313  1.00  0.00    -0.342 N 
ATOM     14  C   UNL A   1      40.229  25.605  28.430  1.00  0.00     0.120 C 
ATOM     15  C   UNL A   1      42.073  26.929  29.348  1.00  0.00     0.120 C 
ATOM     16  C   UNL A   1      39.295  26.814  28.403  1.00  0.00     0.026 C 
ATOM     17  C   UNL A   1      41.178  28.168  29.378  1.00  0.00     0.026 C 
BRANCH  11  18
ATOM     18  C   UNL A   1      43.851  25.288  27.284  1.00  0.00     0.133 C 
BRANCH  18  19
ATOM     19  C   UNL A   1      44.317  23.837  27.102  1.00  0.00     0.022 C 
BRANCH  19  20
ATOM     20  C   UNL A   1      44.058  22.885  28.290  1.00  0.00    -0.016 C 
ATOM     21  C   UNL A   1      44.141  23.575  29.650  1.00  0.00     0.007 C 
ATOM     22  C   UNL A   1      42.676  22.243  28.122  1.00  0.00     0.007 C 
ENDBRANCH  19  20
ENDBRANCH  18  19
BRANCH  18  23
ATOM     23  C   UNL A   1      44.621  26.329  26.449  1.00  0.00     0.272 C 
BRANCH  23  24
ATOM     24  N   UNL A   1      44.423  26.232  25.002  1.00  0.00    -0.357 N 
ATOM     25  H   UNL A   1      43.425  26.184  24.798  1.00  0.00     0.344 HD
ATOM     26  H   UNL A   1      44.883  25.392  24.651  1.00  0.00     0.344 HD
ATOM     27  H   UNL A   1      44.823  27.055  24.548  1.00  0.00     0.344 HD
ENDBRANCH  23  24
ENDBRANCH  18  23
ENDBRANCH  11  18
ENDBRANCH   9  10
ENDBRANCH   7   9
ENDBRANCH   6   7
ENDBRANCH   5   6
ENDBRANCH   4   5
ENDBRANCH   3   4
ENDBRANCH   2   3
ENDBRANCH   1   2
BRANCH   1  28
ATOM     28  O   UNL A   1      33.942  34.718  28.225  1.00  0.00    -0.377 OA
BRANCH  28  29
ATOM     29  C   UNL A   1      33.268  35.573  29.145  1.00  0.00     0.188 C 
BRANCH  29  30
ATOM     30  C   UNL A   1      33.143  35.207  30.639  1.00  0.00     0.188 C 
BRANCH  30  31
ATOM     31  O   UNL A   1      33.914  34.096  31.058  1.00  0.00    -0.376 OA
BRANCH  31  32
ATOM     32  C   UNL A   1      35.332  34.198  31.021  1.00  0.00     0.202 C 
BRANCH  32  33
ATOM     33  C   UNL A   1      36.069  34.162  32.369  1.00  0.00     0.261 C 
BRANCH  33  34
ATOM     34  O   UNL A   1      35.928  32.945  33.123  1.00  0.00    -0.460 OA
BRANCH  34  35
ATOM     35  C   UNL A   1      36.667  32.820  34.244  1.00  0.00     0.338 C 
ATOM     36  O   UNL A   1      36.394  33.214  35.361  1.00  0.00    -0.246 OA
BRANCH  35  37
ATOM     37  C   UNL A   1      37.819  31.951  33.939  1.00  0.00     0.060 A 
ATOM     38  C   UNL A   1      39.061  32.272  34.500  1.00  0.00     0.016 A 
ATOM     39  C   UNL A   1      37.689  30.870  33.065  1.00  0.00     0.016 A 
ATOM     40  C   UNL A   1      40.194  31.550  34.133  1.00  0.00     0.010 A 
ATOM     41  C   UNL A   1      38.830  30.156  32.686  1.00  0.00     0.010 A 
ATOM     42  C   UNL A   1      40.093  30.526  33.181  1.00  0.00    -0.014 A 
BRANCH  42  43
ATOM     43  C   UNL A   1      41.336  30.002  32.564  1.00  0.00     0.031 A 
ATOM     44  C   UNL A   1      41.983  30.797  31.462  1.00  0.00     0.074 A 
ATOM     45  C   UNL A   1      41.917  28.878  33.019  1.00  0.00     0.049 A 
ATOM     46  N   UNL A   1      43.095  30.563  30.812  1.00  0.00    -0.248 NA
ATOM     47  C   UNL A   1      41.284  32.022  31.034  1.00  0.00     0.031 C 
ATOM     48  C   UNL A   1      41.409  28.037  34.102  1.00  0.00     0.029 A 
ATOM     49  N   UNL A   1      43.074  28.255  32.623  1.00  0.00    -0.354 N 
ATOM     50  C   UNL A   1      43.221  31.601  29.896  1.00  0.00     0.074 A 
ATOM     51  C   UNL A   1      42.063  32.452  30.053  1.00  0.00     0.031 C 
ATOM     52  C   UNL A   1      42.250  27.004  34.281  1.00  0.00     0.029 A 
ATOM     53  C   UNL A   1      43.339  27.098  33.312  1.00  0.00     0.049 A 
ATOM     54  H   UNL A   1      43.658  28.606  31.912  1.00  0.00     0.167 HD
ATOM     55  C   UNL A   1      44.216  31.829  29.005  1.00  0.00     0.031 A 
ATOM     56  C   UNL A   1      44.341  26.208  33.164  1.00  0.00     0.031 A 
ATOM     57  C   UNL A   1      45.367  30.982  28.844  1.00  0.00     0.049 A 
ATOM     58  C   UNL A   1      45.410  26.464  32.134  1.00  0.00     0.074 A 
ATOM     59  C   UNL A   1      46.445  31.147  27.992  1.00  0.00     0.029 A 
ATOM     60  N   UNL A   1      45.586  29.805  29.543  1.00  0.00    -0.354 N 
ATOM     61  N   UNL A   1      45.545  27.476  31.310  1.00  0.00    -0.248 NA
ATOM     62  C   UNL A   1      46.479  25.461  32.030  1.00  0.00     0.031 C 
ATOM     63  C   UNL A   1      47.282  30.037  28.126  1.00  0.00     0.029 A 
ATOM     64  C   UNL A   1      46.765  29.217  29.117  1.00  0.00     0.049 A 
ATOM     65  H   UNL A   1      44.991  29.442  30.238  1.00  0.00     0.167 HD
ATOM     66  C   UNL A   1      46.727  27.247  30.617  1.00  0.00     0.074 A 
ATOM     67  C   UNL A   1      47.283  26.014  31.134  1.00  0.00     0.031 C 
ATOM     68  C   UNL A   1      47.305  27.990  29.639  1.00  0.00     0.031 A 
BRANCH  55  69
ATOM     69  C   UNL A   1      44.083  33.023  28.101  1.00  0.00    -0.014 A 
ATOM     70  C   UNL A   1      44.272  34.330  28.575  1.00  0.00     0.009 A 
ATOM     71  C   UNL A   1      43.819  32.826  26.736  1.00  0.00     0.009 A 
ATOM     72  C   UNL A   1      44.175  35.417  27.703  1.00  0.00     0.001 A 
ATOM     73  C   UNL A   1      43.751  33.911  25.862  1.00  0.00     0.001 A 
ATOM     74  C   UNL A   1      43.922  35.207  26.348  1.00  0.00     0.000 A 
ENDBRANCH  55  69
BRANCH  56  75
ATOM     75  C   UNL A   1      44.376  24.972  33.992  1.00  0.00    -0.014 A 
ATOM     76  C   UNL A   1      44.932  24.976  35.281  1.00  0.00     0.009 A 
ATOM     77  C   UNL A   1      43.898  23.760  33.466  1.00  0.00     0.009 A 
ATOM     78  C   UNL A   1      45.045  23.788  36.008  1.00  0.00     0.001 A 
ATOM     79  C   UNL A   1      43.980  22.581  34.209  1.00  0.00     0.001 A 
ATOM     80  C   UNL A   1      44.567  22.593  35.473  1.00  0.00     0.000 A 
ENDBRANCH  56  75
BRANCH  68  81
ATOM     81  C   UNL A   1      48.628  27.511  29.103  1.00  0.00    -0.014 A 
ATOM     82  C   UNL A   1      48.710  26.676  27.979  1.00  0.00     0.009 A 
ATOM     83  C   UNL A   1      49.816  27.913  29.736  1.00  0.00     0.009 A 
ATOM     84  C   UNL A   1      49.949  26.207  27.534  1.00  0.00     0.001 A 
ATOM     85  C   UNL A   1      51.055  27.475  29.266  1.00  0.00     0.001 A 
ATOM     86  C   UNL A   1      51.119  26.609  28.176  1.00  0.00     0.000 A 
ENDBRANCH  68  81
ENDBRANCH  42  43
ENDBRANCH  35  37
ENDBRANCH  34  35
ENDBRANCH  33  34
ENDBRANCH  32  33
ENDBRANCH  31  32
ENDBRANCH  30  31
ENDBRANCH  29  30
ENDBRANCH  28  29
ENDBRANCH   1  28
TORSDOF 26
ENDMDL
