MODEL 1
REMARK VINA RESULT:      -7.2      0.000      0.000
REMARK SMILES C[C@@H](C(=O)OCCOCCOCCOCCOC(=O)c1ccc(-c2c3nc(c(-c4ccccc4)c4ccc([nH]4)c(-c4ccccc4)c4nc(c(-c5ccccc5)c5ccc2[nH]5)C=C4)C=C3)cc1)c1ccc(C[C@@H]2CCC[C@@H]2O)cc1Br
REMARK SMILES IDX 10 1 9 2 8 3 7 4 6 5 5 6 3 7 4 8 2 9 1 10 68 11 69 12 80 13
REMARK SMILES IDX 70 14 79 15 81 16 71 17 72 18 73 19 74 20 77 21 75 22 76 23
REMARK SMILES IDX 78 24 11 26 12 27 13 28 14 29 15 30 16 31 17 32 18 33 19 34
REMARK SMILES IDX 20 35 21 36 67 37 22 38 66 39 23 40 24 41 25 42 60 43 26 44
REMARK SMILES IDX 65 45 59 46 61 47 27 48 64 49 58 50 57 51 28 53 50 54 35 55
REMARK SMILES IDX 49 56 36 57 39 58 48 59 62 60 37 61 38 62 47 64 63 65 40 66
REMARK SMILES IDX 29 67 30 68 34 69 31 70 33 71 32 72 51 73 52 74 56 75 53 76
REMARK SMILES IDX 55 77 54 78 41 79 42 80 46 81 43 82 45 83 44 84
REMARK H PARENT 78 25 61 52 39 63
REMARK Flexibility Score: inf
ROOT
ATOM      1  C   UNL A   1      41.119  21.832  27.926  1.00  0.00     0.188 C 
ENDROOT
BRANCH   1   2
ATOM      2  C   UNL A   1      42.584  21.995  28.357  1.00  0.00     0.188 C 
BRANCH   2   3
ATOM      3  O   UNL A   1      42.828  22.715  29.551  1.00  0.00    -0.376 OA
BRANCH   3   4
ATOM      4  C   UNL A   1      44.049  23.411  29.742  1.00  0.00     0.202 C 
BRANCH   4   5
ATOM      5  C   UNL A   1      45.153  23.628  28.678  1.00  0.00     0.261 C 
BRANCH   5   6
ATOM      6  O   UNL A   1      45.918  24.842  28.698  1.00  0.00    -0.463 OA
BRANCH   6   7
ATOM      7  C   UNL A   1      47.026  24.883  27.923  1.00  0.00     0.313 C 
ATOM      8  O   UNL A   1      47.374  23.955  27.198  1.00  0.00    -0.252 OA
BRANCH   7   9
ATOM      9  C   UNL A   1      47.808  26.215  28.021  1.00  0.00     0.127 C 
ATOM     10  C   UNL A   1      48.621  26.656  26.798  1.00  0.00     0.025 C 
BRANCH   9  11
ATOM     11  C   UNL A   1      48.393  26.394  29.428  1.00  0.00    -0.020 A 
ATOM     12  C   UNL A   1      49.259  25.344  29.827  1.00  0.00     0.006 A 
ATOM     13  C   UNL A   1      48.272  27.472  30.324  1.00  0.00     0.022 A 
ATOM     14  C   UNL A   1      49.926  25.338  31.051  1.00  0.00     0.004 A 
ATOM     15  C   UNL A   1      49.029  27.506  31.506  1.00  0.00     0.019 A 
ATOM     16  Br  UNL A   1      47.007  28.887  30.262  1.00  0.00    -0.050 Br
ATOM     17  C   UNL A   1      49.785  26.411  31.919  1.00  0.00    -0.047 A 
BRANCH  17  18
ATOM     18  C   UNL A   1      50.299  26.355  33.332  1.00  0.00     0.041 C 
BRANCH  18  19
ATOM     19  C   UNL A   1      50.595  24.936  33.879  1.00  0.00     0.022 C 
ATOM     20  C   UNL A   1      49.437  24.297  34.656  1.00  0.00     0.007 C 
ATOM     21  C   UNL A   1      51.771  24.763  34.851  1.00  0.00     0.117 C 
ATOM     22  C   UNL A   1      49.743  24.483  36.146  1.00  0.00     0.003 C 
ATOM     23  C   UNL A   1      51.185  24.962  36.245  1.00  0.00     0.032 C 
BRANCH  21  24
ATOM     24  O   UNL A   1      52.861  25.620  34.581  1.00  0.00    -0.393 OA
ATOM     25  H   UNL A   1      53.531  25.520  35.275  1.00  0.00     0.210 HD
ENDBRANCH  21  24
ENDBRANCH  18  19
ENDBRANCH  17  18
ENDBRANCH   9  11
ENDBRANCH   7   9
ENDBRANCH   6   7
ENDBRANCH   5   6
ENDBRANCH   4   5
ENDBRANCH   3   4
ENDBRANCH   2   3
ENDBRANCH   1   2
BRANCH   1  26
ATOM     26  O   UNL A   1      40.790  20.537  27.467  1.00  0.00    -0.377 OA
BRANCH  26  27
ATOM     27  C   UNL A   1      41.201  20.210  26.153  1.00  0.00     0.188 C 
BRANCH  27  28
ATOM     28  C   UNL A   1      42.520  19.442  25.927  1.00  0.00     0.188 C 
BRANCH  28  29
ATOM     29  O   UNL A   1      43.381  19.987  24.935  1.00  0.00    -0.376 OA
BRANCH  29  30
ATOM     30  C   UNL A   1      44.137  21.151  25.237  1.00  0.00     0.202 C 
BRANCH  30  31
ATOM     31  C   UNL A   1      44.087  22.290  24.207  1.00  0.00     0.261 C 
BRANCH  31  32
ATOM     32  O   UNL A   1      43.512  23.517  24.676  1.00  0.00    -0.460 OA
BRANCH  32  33
ATOM     33  C   UNL A   1      44.368  24.489  25.054  1.00  0.00     0.338 C 
ATOM     34  O   UNL A   1      45.486  24.704  24.621  1.00  0.00    -0.246 OA
BRANCH  33  35
ATOM     35  C   UNL A   1      43.638  25.390  25.965  1.00  0.00     0.060 A 
ATOM     36  C   UNL A   1      44.129  26.687  26.165  1.00  0.00     0.016 A 
ATOM     37  C   UNL A   1      42.458  24.971  26.584  1.00  0.00     0.016 A 
ATOM     38  C   UNL A   1      43.453  27.564  27.009  1.00  0.00     0.010 A 
ATOM     39  C   UNL A   1      41.799  25.840  27.455  1.00  0.00     0.010 A 
ATOM     40  C   UNL A   1      42.312  27.127  27.694  1.00  0.00    -0.014 A 
BRANCH  40  41
ATOM     41  C   UNL A   1      41.796  27.930  28.825  1.00  0.00     0.031 A 
ATOM     42  C   UNL A   1      42.556  27.886  30.122  1.00  0.00     0.074 A 
ATOM     43  C   UNL A   1      40.703  28.701  28.701  1.00  0.00     0.049 A 
ATOM     44  N   UNL A   1      42.295  28.473  31.260  1.00  0.00    -0.248 NA
ATOM     45  C   UNL A   1      43.780  27.064  30.133  1.00  0.00     0.031 C 
ATOM     46  C   UNL A   1      39.918  28.872  27.480  1.00  0.00     0.029 A 
ATOM     47  N   UNL A   1      40.066  29.488  29.626  1.00  0.00    -0.354 N 
ATOM     48  C   UNL A   1      43.312  28.085  32.122  1.00  0.00     0.074 A 
ATOM     49  C   UNL A   1      44.180  27.192  31.387  1.00  0.00     0.031 C 
ATOM     50  C   UNL A   1      38.898  29.711  27.734  1.00  0.00     0.029 A 
ATOM     51  C   UNL A   1      38.939  30.104  29.142  1.00  0.00     0.049 A 
ATOM     52  H   UNL A   1      40.388  29.602  30.550  1.00  0.00     0.167 HD
ATOM     53  C   UNL A   1      43.510  28.443  33.412  1.00  0.00     0.031 A 
ATOM     54  C   UNL A   1      38.033  30.876  29.774  1.00  0.00     0.031 A 
ATOM     55  C   UNL A   1      42.633  29.314  34.145  1.00  0.00     0.049 A 
ATOM     56  C   UNL A   1      38.223  31.183  31.238  1.00  0.00     0.074 A 
ATOM     57  C   UNL A   1      42.747  29.747  35.455  1.00  0.00     0.029 A 
ATOM     58  N   UNL A   1      41.472  29.873  33.635  1.00  0.00    -0.354 N 
ATOM     59  N   UNL A   1      39.201  30.833  32.039  1.00  0.00    -0.248 NA
ATOM     60  C   UNL A   1      37.182  31.997  31.883  1.00  0.00     0.031 C 
ATOM     61  C   UNL A   1      41.617  30.514  35.757  1.00  0.00     0.029 A 
ATOM     62  C   UNL A   1      40.840  30.622  34.615  1.00  0.00     0.049 A 
ATOM     63  H   UNL A   1      41.146  29.758  32.714  1.00  0.00     0.167 HD
ATOM     64  C   UNL A   1      38.912  31.412  33.269  1.00  0.00     0.074 A 
ATOM     65  C   UNL A   1      37.676  32.147  33.105  1.00  0.00     0.031 C 
ATOM     66  C   UNL A   1      39.609  31.347  34.431  1.00  0.00     0.031 A 
BRANCH  53  67
ATOM     67  C   UNL A   1      44.693  27.847  34.122  1.00  0.00    -0.014 A 
ATOM     68  C   UNL A   1      45.951  28.472  34.107  1.00  0.00     0.009 A 
ATOM     69  C   UNL A   1      44.540  26.646  34.832  1.00  0.00     0.009 A 
ATOM     70  C   UNL A   1      47.038  27.886  34.760  1.00  0.00     0.001 A 
ATOM     71  C   UNL A   1      45.621  26.080  35.511  1.00  0.00     0.001 A 
ATOM     72  C   UNL A   1      46.871  26.696  35.466  1.00  0.00     0.000 A 
ENDBRANCH  53  67
BRANCH  54  73
ATOM     73  C   UNL A   1      36.851  31.401  29.040  1.00  0.00    -0.014 A 
ATOM     74  C   UNL A   1      36.809  32.734  28.604  1.00  0.00     0.009 A 
ATOM     75  C   UNL A   1      35.739  30.577  28.800  1.00  0.00     0.009 A 
ATOM     76  C   UNL A   1      35.670  33.238  27.970  1.00  0.00     0.001 A 
ATOM     77  C   UNL A   1      34.615  31.074  28.137  1.00  0.00     0.001 A 
ATOM     78  C   UNL A   1      34.576  32.406  27.732  1.00  0.00     0.000 A 
ENDBRANCH  54  73
BRANCH  66  79
ATOM     79  C   UNL A   1      39.078  32.126  35.603  1.00  0.00    -0.014 A 
ATOM     80  C   UNL A   1      39.380  33.486  35.779  1.00  0.00     0.009 A 
ATOM     81  C   UNL A   1      38.218  31.498  36.519  1.00  0.00     0.009 A 
ATOM     82  C   UNL A   1      38.861  34.189  36.870  1.00  0.00     0.001 A 
ATOM     83  C   UNL A   1      37.674  32.211  37.588  1.00  0.00     0.001 A 
ATOM     84  C   UNL A   1      38.004  33.553  37.768  1.00  0.00     0.000 A 
ENDBRANCH  66  79
ENDBRANCH  40  41
ENDBRANCH  33  35
ENDBRANCH  32  33
ENDBRANCH  31  32
ENDBRANCH  30  31
ENDBRANCH  29  30
ENDBRANCH  28  29
ENDBRANCH  27  28
ENDBRANCH  26  27
ENDBRANCH   1  26
TORSDOF 24
ENDMDL
MODEL 2
REMARK VINA RESULT:      -7.1      4.793     11.473
REMARK SMILES C[C@@H](C(=O)OCCOCCOCCOCCOC(=O)c1ccc(-c2c3nc(c(-c4ccccc4)c4ccc([nH]4)c(-c4ccccc4)c4nc(c(-c5ccccc5)c5ccc2[nH]5)C=C4)C=C3)cc1)c1ccc(C[C@@H]2CCC[C@@H]2O)cc1Br
REMARK SMILES IDX 10 1 9 2 8 3 7 4 6 5 5 6 3 7 4 8 2 9 1 10 68 11 69 12 80 13
REMARK SMILES IDX 70 14 79 15 81 16 71 17 72 18 73 19 74 20 77 21 75 22 76 23
REMARK SMILES IDX 78 24 11 26 12 27 13 28 14 29 15 30 16 31 17 32 18 33 19 34
REMARK SMILES IDX 20 35 21 36 67 37 22 38 66 39 23 40 24 41 25 42 60 43 26 44
REMARK SMILES IDX 65 45 59 46 61 47 27 48 64 49 58 50 57 51 28 53 50 54 35 55
REMARK SMILES IDX 49 56 36 57 39 58 48 59 62 60 37 61 38 62 47 64 63 65 40 66
REMARK SMILES IDX 29 67 30 68 34 69 31 70 33 71 32 72 51 73 52 74 56 75 53 76
REMARK SMILES IDX 55 77 54 78 41 79 42 80 46 81 43 82 45 83 44 84
REMARK H PARENT 78 25 61 52 39 63
REMARK Flexibility Score: inf
ROOT
ATOM      1  C   UNL A   1      35.028  34.766  28.720  1.00  0.00     0.188 C 
ENDROOT
BRANCH   1   2
ATOM      2  C   UNL A   1      34.978  33.415  27.992  1.00  0.00     0.188 C 
BRANCH   2   3
ATOM      3  O   UNL A   1      36.137  32.607  28.055  1.00  0.00    -0.376 OA
BRANCH   3   4
ATOM      4  C   UNL A   1      36.654  32.173  29.303  1.00  0.00     0.202 C 
BRANCH   4   5
ATOM      5  C   UNL A   1      37.940  31.337  29.517  1.00  0.00     0.261 C 
BRANCH   5   6
ATOM      6  O   UNL A   1      38.411  30.490  28.459  1.00  0.00    -0.463 OA
BRANCH   6   7
ATOM      7  C   UNL A   1      37.785  29.302  28.297  1.00  0.00     0.313 C 
ATOM      8  O   UNL A   1      36.676  29.191  27.781  1.00  0.00    -0.252 OA
BRANCH   7   9
ATOM      9  C   UNL A   1      38.600  28.090  28.811  1.00  0.00     0.127 C 
ATOM     10  C   UNL A   1      38.903  28.018  30.312  1.00  0.00     0.025 C 
BRANCH   9  11
ATOM     11  C   UNL A   1      39.685  27.703  27.797  1.00  0.00    -0.020 A 
ATOM     12  C   UNL A   1      40.494  28.790  27.379  1.00  0.00     0.006 A 
ATOM     13  C   UNL A   1      40.045  26.436  27.303  1.00  0.00     0.022 A 
ATOM     14  C   UNL A   1      41.563  28.641  26.496  1.00  0.00     0.004 A 
ATOM     15  C   UNL A   1      41.186  26.281  26.499  1.00  0.00     0.019 A 
ATOM     16  Br  UNL A   1      39.042  24.827  27.409  1.00  0.00    -0.050 Br
ATOM     17  C   UNL A   1      41.895  27.381  26.019  1.00  0.00    -0.047 A 
BRANCH  17  18
ATOM     18  C   UNL A   1      42.886  27.196  24.903  1.00  0.00     0.041 C 
BRANCH  18  19
ATOM     19  C   UNL A   1      44.023  26.182  25.183  1.00  0.00     0.022 C 
ATOM     20  C   UNL A   1      43.977  25.540  26.574  1.00  0.00     0.007 C 
ATOM     21  C   UNL A   1      45.475  26.679  25.103  1.00  0.00     0.117 C 
ATOM     22  C   UNL A   1      44.993  26.287  27.445  1.00  0.00     0.003 C 
ATOM     23  C   UNL A   1      45.823  27.157  26.509  1.00  0.00     0.032 C 
BRANCH  21  24
ATOM     24  O   UNL A   1      45.682  27.668  24.116  1.00  0.00    -0.393 OA
ATOM     25  H   UNL A   1      46.017  28.477  24.533  1.00  0.00     0.210 HD
ENDBRANCH  21  24
ENDBRANCH  18  19
ENDBRANCH  17  18
ENDBRANCH   9  11
ENDBRANCH   7   9
ENDBRANCH   6   7
ENDBRANCH   5   6
ENDBRANCH   4   5
ENDBRANCH   3   4
ENDBRANCH   2   3
ENDBRANCH   1   2
BRANCH   1  26
ATOM     26  O   UNL A   1      33.760  35.325  28.995  1.00  0.00    -0.377 OA
BRANCH  26  27
ATOM     27  C   UNL A   1      33.433  35.507  30.360  1.00  0.00     0.188 C 
BRANCH  27  28
ATOM     28  C   UNL A   1      34.190  34.712  31.446  1.00  0.00     0.188 C 
BRANCH  28  29
ATOM     29  O   UNL A   1      33.395  34.259  32.535  1.00  0.00    -0.376 OA
BRANCH  29  30
ATOM     30  C   UNL A   1      33.975  33.403  33.507  1.00  0.00     0.202 C 
BRANCH  30  31
ATOM     31  C   UNL A   1      35.465  33.621  33.815  1.00  0.00     0.261 C 
BRANCH  31  32
ATOM     32  O   UNL A   1      36.264  32.432  33.863  1.00  0.00    -0.460 OA
BRANCH  32  33
ATOM     33  C   UNL A   1      37.246  32.391  34.788  1.00  0.00     0.338 C 
ATOM     34  O   UNL A   1      37.134  32.506  35.995  1.00  0.00    -0.246 OA
BRANCH  33  35
ATOM     35  C   UNL A   1      38.484  31.983  34.098  1.00  0.00     0.060 A 
ATOM     36  C   UNL A   1      38.418  30.952  33.152  1.00  0.00     0.016 A 
ATOM     37  C   UNL A   1      39.690  32.640  34.356  1.00  0.00     0.016 A 
ATOM     38  C   UNL A   1      39.570  30.555  32.476  1.00  0.00     0.010 A 
ATOM     39  C   UNL A   1      40.849  32.220  33.701  1.00  0.00     0.010 A 
ATOM     40  C   UNL A   1      40.797  31.156  32.783  1.00  0.00    -0.014 A 
BRANCH  40  41
ATOM     41  C   UNL A   1      42.050  30.518  32.320  1.00  0.00     0.031 A 
ATOM     42  C   UNL A   1      42.762  31.138  31.149  1.00  0.00     0.074 A 
ATOM     43  C   UNL A   1      42.561  29.439  32.936  1.00  0.00     0.049 A 
ATOM     44  N   UNL A   1      43.853  30.754  30.542  1.00  0.00    -0.248 NA
ATOM     45  C   UNL A   1      42.156  32.359  30.590  1.00  0.00     0.031 C 
ATOM     46  C   UNL A   1      41.994  28.786  34.115  1.00  0.00     0.029 A 
ATOM     47  N   UNL A   1      43.681  28.703  32.646  1.00  0.00    -0.354 N 
ATOM     48  C   UNL A   1      44.059  31.678  29.525  1.00  0.00     0.074 A 
ATOM     49  C   UNL A   1      42.967  32.624  29.579  1.00  0.00     0.031 C 
ATOM     50  C   UNL A   1      42.771  27.739  34.446  1.00  0.00     0.029 A 
ATOM     51  C   UNL A   1      43.864  27.628  33.481  1.00  0.00     0.049 A 
ATOM     52  H   UNL A   1      44.296  28.924  31.910  1.00  0.00     0.167 HD
ATOM     53  C   UNL A   1      45.070  31.736  28.627  1.00  0.00     0.031 A 
ATOM     54  C   UNL A   1      44.797  26.656  33.451  1.00  0.00     0.031 A 
ATOM     55  C   UNL A   1      46.142  30.781  28.564  1.00  0.00     0.049 A 
ATOM     56  C   UNL A   1      45.858  26.688  32.380  1.00  0.00     0.074 A 
ATOM     57  C   UNL A   1      47.220  30.753  27.697  1.00  0.00     0.029 A 
ATOM     58  N   UNL A   1      46.262  29.676  29.392  1.00  0.00    -0.354 N 
ATOM     59  N   UNL A   1      46.060  27.579  31.438  1.00  0.00    -0.248 NA
ATOM     60  C   UNL A   1      46.824  25.580  32.373  1.00  0.00     0.031 C 
ATOM     61  C   UNL A   1      47.956  29.593  27.958  1.00  0.00     0.029 A 
ATOM     62  C   UNL A   1      47.379  28.940  29.036  1.00  0.00     0.049 A 
ATOM     63  H   UNL A   1      45.645  29.450  30.126  1.00  0.00     0.167 HD
ATOM     64  C   UNL A   1      47.193  27.159  30.752  1.00  0.00     0.074 A 
ATOM     65  C   UNL A   1      47.642  25.941  31.394  1.00  0.00     0.031 C 
ATOM     66  C   UNL A   1      47.810  27.730  29.688  1.00  0.00     0.031 A 
BRANCH  53  67
ATOM     67  C   UNL A   1      45.028  32.842  27.610  1.00  0.00    -0.014 A 
ATOM     68  C   UNL A   1      44.369  32.684  26.380  1.00  0.00     0.009 A 
ATOM     69  C   UNL A   1      45.645  34.069  27.897  1.00  0.00     0.009 A 
ATOM     70  C   UNL A   1      44.361  33.723  25.445  1.00  0.00     0.001 A 
ATOM     71  C   UNL A   1      45.607  35.116  26.974  1.00  0.00     0.001 A 
ATOM     72  C   UNL A   1      44.974  34.938  25.745  1.00  0.00     0.000 A 
ENDBRANCH  53  67
BRANCH  54  73
ATOM     73  C   UNL A   1      44.766  25.554  34.449  1.00  0.00    -0.014 A 
ATOM     74  C   UNL A   1      44.004  24.398  34.220  1.00  0.00     0.009 A 
ATOM     75  C   UNL A   1      45.476  25.666  35.656  1.00  0.00     0.009 A 
ATOM     76  C   UNL A   1      43.930  23.393  35.188  1.00  0.00     0.001 A 
ATOM     77  C   UNL A   1      45.427  24.645  36.608  1.00  0.00     0.001 A 
ATOM     78  C   UNL A   1      44.646  23.515  36.379  1.00  0.00     0.000 A 
ENDBRANCH  54  73
BRANCH  66  79
ATOM     79  C   UNL A   1      49.064  27.073  29.180  1.00  0.00    -0.014 A 
ATOM     80  C   UNL A   1      50.331  27.427  29.671  1.00  0.00     0.009 A 
ATOM     81  C   UNL A   1      48.969  26.044  28.227  1.00  0.00     0.009 A 
ATOM     82  C   UNL A   1      51.478  26.790  29.190  1.00  0.00     0.001 A 
ATOM     83  C   UNL A   1      50.114  25.387  27.774  1.00  0.00     0.001 A 
ATOM     84  C   UNL A   1      51.367  25.767  28.248  1.00  0.00     0.000 A 
ENDBRANCH  66  79
ENDBRANCH  40  41
ENDBRANCH  33  35
ENDBRANCH  32  33
ENDBRANCH  31  32
ENDBRANCH  30  31
ENDBRANCH  29  30
ENDBRANCH  28  29
ENDBRANCH  27  28
ENDBRANCH  26  27
ENDBRANCH   1  26
TORSDOF 24
ENDMDL
MODEL 3
REMARK VINA RESULT:      -7.1      5.648     12.040
REMARK SMILES C[C@@H](C(=O)OCCOCCOCCOCCOC(=O)c1ccc(-c2c3nc(c(-c4ccccc4)c4ccc([nH]4)c(-c4ccccc4)c4nc(c(-c5ccccc5)c5ccc2[nH]5)C=C4)C=C3)cc1)c1ccc(C[C@@H]2CCC[C@@H]2O)cc1Br
REMARK SMILES IDX 10 1 9 2 8 3 7 4 6 5 5 6 3 7 4 8 2 9 1 10 68 11 69 12 80 13
REMARK SMILES IDX 70 14 79 15 81 16 71 17 72 18 73 19 74 20 77 21 75 22 76 23
REMARK SMILES IDX 78 24 11 26 12 27 13 28 14 29 15 30 16 31 17 32 18 33 19 34
REMARK SMILES IDX 20 35 21 36 67 37 22 38 66 39 23 40 24 41 25 42 60 43 26 44
REMARK SMILES IDX 65 45 59 46 61 47 27 48 64 49 58 50 57 51 28 53 50 54 35 55
REMARK SMILES IDX 49 56 36 57 39 58 48 59 62 60 37 61 38 62 47 64 63 65 40 66
REMARK SMILES IDX 29 67 30 68 34 69 31 70 33 71 32 72 51 73 52 74 56 75 53 76
REMARK SMILES IDX 55 77 54 78 41 79 42 80 46 81 43 82 45 83 44 84
REMARK H PARENT 78 25 61 52 39 63
REMARK Flexibility Score: inf
ROOT
ATOM      1  C   UNL A   1      41.029  28.443  31.679  1.00  0.00     0.188 C 
ENDROOT
BRANCH   1   2
ATOM      2  C   UNL A   1      41.025  29.115  33.060  1.00  0.00     0.188 C 
BRANCH   2   3
ATOM      3  O   UNL A   1      39.794  29.150  33.755  1.00  0.00    -0.376 OA
BRANCH   3   4
ATOM      4  C   UNL A   1      39.004  30.329  33.776  1.00  0.00     0.202 C 
BRANCH   4   5
ATOM      5  C   UNL A   1      37.890  30.699  32.766  1.00  0.00     0.261 C 
BRANCH   5   6
ATOM      6  O   UNL A   1      38.228  31.453  31.593  1.00  0.00    -0.463 OA
BRANCH   6   7
ATOM      7  C   UNL A   1      37.227  32.133  30.990  1.00  0.00     0.313 C 
ATOM      8  O   UNL A   1      36.255  32.576  31.596  1.00  0.00    -0.252 OA
BRANCH   7   9
ATOM      9  C   UNL A   1      37.425  32.317  29.466  1.00  0.00     0.127 C 
ATOM     10  C   UNL A   1      38.063  33.625  28.982  1.00  0.00     0.025 C 
BRANCH   9  11
ATOM     11  C   UNL A   1      36.245  31.715  28.692  1.00  0.00    -0.020 A 
ATOM     12  C   UNL A   1      36.377  30.327  28.435  1.00  0.00     0.006 A 
ATOM     13  C   UNL A   1      35.033  32.308  28.292  1.00  0.00     0.022 A 
ATOM     14  C   UNL A   1      35.394  29.582  27.785  1.00  0.00     0.004 A 
ATOM     15  C   UNL A   1      34.008  31.528  27.733  1.00  0.00     0.019 A 
ATOM     16  Br  UNL A   1      34.627  34.161  28.210  1.00  0.00    -0.050 Br
ATOM     17  C   UNL A   1      34.210  30.191  27.395  1.00  0.00    -0.047 A 
BRANCH  17  18
ATOM     18  C   UNL A   1      33.221  29.495  26.500  1.00  0.00     0.041 C 
BRANCH  18  19
ATOM     19  C   UNL A   1      33.200  27.949  26.606  1.00  0.00     0.022 C 
ATOM     20  C   UNL A   1      33.502  27.215  25.294  1.00  0.00     0.007 C 
ATOM     21  C   UNL A   1      31.900  27.270  27.065  1.00  0.00     0.117 C 
ATOM     22  C   UNL A   1      32.156  26.779  24.706  1.00  0.00     0.003 C 
ATOM     23  C   UNL A   1      31.108  26.996  25.791  1.00  0.00     0.032 C 
BRANCH  21  24
ATOM     24  O   UNL A   1      31.174  28.020  28.017  1.00  0.00    -0.393 OA
ATOM     25  H   UNL A   1      30.267  27.681  28.072  1.00  0.00     0.210 HD
ENDBRANCH  21  24
ENDBRANCH  18  19
ENDBRANCH  17  18
ENDBRANCH   9  11
ENDBRANCH   7   9
ENDBRANCH   6   7
ENDBRANCH   5   6
ENDBRANCH   4   5
ENDBRANCH   3   4
ENDBRANCH   2   3
ENDBRANCH   1   2
BRANCH   1  26
ATOM     26  O   UNL A   1      40.341  29.166  30.679  1.00  0.00    -0.377 OA
BRANCH  26  27
ATOM     27  C   UNL A   1      40.726  28.915  29.341  1.00  0.00     0.188 C 
BRANCH  27  28
ATOM     28  C   UNL A   1      40.935  27.464  28.858  1.00  0.00     0.188 C 
BRANCH  28  29
ATOM     29  O   UNL A   1      39.782  26.633  28.909  1.00  0.00    -0.376 OA
BRANCH  29  30
ATOM     30  C   UNL A   1      39.371  25.946  27.736  1.00  0.00     0.202 C 
BRANCH  30  31
ATOM     31  C   UNL A   1      39.708  24.449  27.662  1.00  0.00     0.261 C 
BRANCH  31  32
ATOM     32  O   UNL A   1      40.996  24.135  27.114  1.00  0.00    -0.460 OA
BRANCH  32  33
ATOM     33  C   UNL A   1      41.990  23.887  27.992  1.00  0.00     0.338 C 
ATOM     34  O   UNL A   1      42.067  22.965  28.785  1.00  0.00    -0.246 OA
BRANCH  33  35
ATOM     35  C   UNL A   1      43.086  24.828  27.695  1.00  0.00     0.060 A 
ATOM     36  C   UNL A   1      43.854  25.322  28.758  1.00  0.00     0.016 A 
ATOM     37  C   UNL A   1      43.376  25.188  26.377  1.00  0.00     0.016 A 
ATOM     38  C   UNL A   1      44.904  26.202  28.506  1.00  0.00     0.010 A 
ATOM     39  C   UNL A   1      44.408  26.094  26.129  1.00  0.00     0.010 A 
ATOM     40  C   UNL A   1      45.153  26.628  27.195  1.00  0.00    -0.014 A 
BRANCH  40  41
ATOM     41  C   UNL A   1      46.032  27.797  26.970  1.00  0.00     0.031 A 
ATOM     42  C   UNL A   1      47.498  27.543  26.756  1.00  0.00     0.074 A 
ATOM     43  C   UNL A   1      45.542  29.048  26.924  1.00  0.00     0.049 A 
ATOM     44  N   UNL A   1      48.471  28.394  26.568  1.00  0.00    -0.248 NA
ATOM     45  C   UNL A   1      47.922  26.131  26.755  1.00  0.00     0.031 C 
ATOM     46  C   UNL A   1      44.134  29.414  27.057  1.00  0.00     0.029 A 
ATOM     47  N   UNL A   1      46.189  30.245  26.752  1.00  0.00    -0.354 N 
ATOM     48  C   UNL A   1      49.620  27.625  26.436  1.00  0.00     0.074 A 
ATOM     49  C   UNL A   1      49.230  26.242  26.594  1.00  0.00     0.031 C 
ATOM     50  C   UNL A   1      44.023  30.752  26.966  1.00  0.00     0.029 A 
ATOM     51  C   UNL A   1      45.355  31.334  26.806  1.00  0.00     0.049 A 
ATOM     52  H   UNL A   1      47.160  30.316  26.602  1.00  0.00     0.167 HD
ATOM     53  C   UNL A   1      50.889  28.033  26.202  1.00  0.00     0.031 A 
ATOM     54  C   UNL A   1      45.642  32.649  26.755  1.00  0.00     0.031 A 
ATOM     55  C   UNL A   1      51.276  29.410  26.068  1.00  0.00     0.049 A 
ATOM     56  C   UNL A   1      47.077  33.083  26.592  1.00  0.00     0.074 A 
ATOM     57  C   UNL A   1      52.535  29.931  25.822  1.00  0.00     0.029 A 
ATOM     58  N   UNL A   1      50.411  30.486  26.184  1.00  0.00    -0.354 N 
ATOM     59  N   UNL A   1      48.154  32.348  26.443  1.00  0.00    -0.248 NA
ATOM     60  C   UNL A   1      47.334  34.531  26.583  1.00  0.00     0.031 C 
ATOM     61  C   UNL A   1      52.440  31.326  25.856  1.00  0.00     0.029 A 
ATOM     62  C   UNL A   1      51.112  31.672  26.048  1.00  0.00     0.049 A 
ATOM     63  H   UNL A   1      49.441  30.418  26.339  1.00  0.00     0.167 HD
ATOM     64  C   UNL A   1      49.207  33.242  26.289  1.00  0.00     0.074 A 
ATOM     65  C   UNL A   1      48.638  34.572  26.347  1.00  0.00     0.031 C 
ATOM     66  C   UNL A   1      50.527  32.987  26.110  1.00  0.00     0.031 A 
BRANCH  53  67
ATOM     67  C   UNL A   1      51.954  26.974  26.131  1.00  0.00    -0.014 A 
ATOM     68  C   UNL A   1      52.231  26.290  24.936  1.00  0.00     0.009 A 
ATOM     69  C   UNL A   1      52.704  26.669  27.277  1.00  0.00     0.009 A 
ATOM     70  C   UNL A   1      53.214  25.298  24.902  1.00  0.00     0.001 A 
ATOM     71  C   UNL A   1      53.707  25.700  27.232  1.00  0.00     0.001 A 
ATOM     72  C   UNL A   1      53.955  25.008  26.047  1.00  0.00     0.000 A 
ENDBRANCH  53  67
BRANCH  54  73
ATOM     73  C   UNL A   1      44.559  33.661  26.882  1.00  0.00    -0.014 A 
ATOM     74  C   UNL A   1      44.114  34.084  28.144  1.00  0.00     0.009 A 
ATOM     75  C   UNL A   1      43.940  34.187  25.737  1.00  0.00     0.009 A 
ATOM     76  C   UNL A   1      43.055  34.988  28.257  1.00  0.00     0.001 A 
ATOM     77  C   UNL A   1      42.903  35.116  25.852  1.00  0.00     0.001 A 
ATOM     78  C   UNL A   1      42.453  35.507  27.111  1.00  0.00     0.000 A 
ENDBRANCH  54  73
BRANCH  66  79
ATOM     79  C   UNL A   1      51.441  34.167  25.917  1.00  0.00    -0.014 A 
ATOM     80  C   UNL A   1      52.121  34.753  26.996  1.00  0.00     0.009 A 
ATOM     81  C   UNL A   1      51.662  34.666  24.623  1.00  0.00     0.009 A 
ATOM     82  C   UNL A   1      52.975  35.839  26.785  1.00  0.00     0.001 A 
ATOM     83  C   UNL A   1      52.541  35.729  24.412  1.00  0.00     0.001 A 
ATOM     84  C   UNL A   1      53.189  36.321  25.494  1.00  0.00     0.000 A 
ENDBRANCH  66  79
ENDBRANCH  40  41
ENDBRANCH  33  35
ENDBRANCH  32  33
ENDBRANCH  31  32
ENDBRANCH  30  31
ENDBRANCH  29  30
ENDBRANCH  28  29
ENDBRANCH  27  28
ENDBRANCH  26  27
ENDBRANCH   1  26
TORSDOF 24
ENDMDL
