MODEL 1
REMARK VINA RESULT:      -9.3      0.000      0.000
REMARK SMILES O=C(Cn1cc(/C=C(/Cl)c2nnc(C(=O)Nc3ccc(Cl)cc3)s2)nn1)OCCOCCOCCOCCOC(=O)c1ccc(-c2c3nc(c(-c4ccccc4)c4ccc([nH]4)c(-c4ccccc4)c4nc(c(-c5ccccc5)c5ccc2[nH]5)C=C4)C=C3)cc1
REMARK SMILES IDX 31 1 30 2 29 3 28 4 27 5 2 6 1 7 3 8 4 9 5 10 26 11 6 12
REMARK SMILES IDX 25 13 7 14 8 15 9 16 10 17 11 18 24 19 12 20 13 21 14 22
REMARK SMILES IDX 15 23 16 24 17 26 18 27 23 28 19 29 22 30 20 31 21 32 32 33
REMARK SMILES IDX 33 34 34 35 35 36 36 37 37 38 38 39 39 40 40 41 41 42 42 43
REMARK SMILES IDX 43 44 89 45 44 46 88 47 45 48 46 49 47 50 82 51 48 52 87 53
REMARK SMILES IDX 81 54 83 55 49 56 86 57 80 58 79 59 50 61 72 62 57 63 71 64
REMARK SMILES IDX 58 65 61 66 70 67 84 68 59 69 60 70 69 72 85 73 62 74 51 75
REMARK SMILES IDX 52 76 56 77 53 78 55 79 54 80 73 81 74 82 78 83 75 84 77 85
REMARK SMILES IDX 76 86 63 87 64 88 68 89 65 90 67 91 66 92
REMARK H PARENT 16 25 83 60 61 71
REMARK Flexibility Score: inf
ROOT
ATOM      1  C   UNL A   1      32.477  23.928  26.577  1.00  0.00     0.188 C 
ENDROOT
BRANCH   1   2
ATOM      2  O   UNL A   1      32.458  24.900  25.553  1.00  0.00    -0.376 OA
BRANCH   2   3
ATOM      3  C   UNL A   1      32.774  26.264  25.824  1.00  0.00     0.202 C 
BRANCH   3   4
ATOM      4  C   UNL A   1      33.008  27.271  24.694  1.00  0.00     0.261 C 
BRANCH   4   5
ATOM      5  O   UNL A   1      32.972  28.701  24.956  1.00  0.00    -0.462 OA
BRANCH   5   6
ATOM      6  C   UNL A   1      32.073  29.491  25.569  1.00  0.00     0.327 C 
ATOM      7  O   UNL A   1      31.158  29.983  24.907  1.00  0.00    -0.250 OA
BRANCH   6   8
ATOM      8  C   UNL A   1      32.168  29.775  27.031  1.00  0.00     0.268 C 
BRANCH   8   9
ATOM      9  N   UNL A   1      33.519  30.082  27.397  1.00  0.00    -0.241 N 
ATOM     10  C   UNL A   1      34.581  29.246  27.589  1.00  0.00     0.139 A 
ATOM     11  N   UNL A   1      33.884  31.360  27.493  1.00  0.00    -0.066 NA
ATOM     12  C   UNL A   1      35.641  30.116  27.683  1.00  0.00     0.107 A 
ATOM     13  N   UNL A   1      35.182  31.394  27.658  1.00  0.00    -0.131 NA
BRANCH  12  14
ATOM     14  C   UNL A   1      37.032  29.837  27.786  1.00  0.00     0.055 C 
ATOM     15  C   UNL A   1      37.765  29.832  28.920  1.00  0.00     0.081 C 
ATOM     16  Cl  UNL A   1      39.449  29.455  28.862  1.00  0.00    -0.081 Cl
BRANCH  15  17
ATOM     17  C   UNL A   1      37.198  30.151  30.190  1.00  0.00     0.159 A 
ATOM     18  N   UNL A   1      36.539  29.340  30.999  1.00  0.00    -0.137 NA
ATOM     19  S   UNL A   1      37.513  31.688  30.934  1.00  0.00    -0.086 S 
ATOM     20  N   UNL A   1      36.553  29.787  32.310  1.00  0.00    -0.133 NA
ATOM     21  C   UNL A   1      37.222  30.919  32.438  1.00  0.00     0.206 A 
BRANCH  21  22
ATOM     22  C   UNL A   1      37.526  31.486  33.747  1.00  0.00     0.286 C 
ATOM     23  O   UNL A   1      38.393  31.003  34.485  1.00  0.00    -0.266 OA
ATOM     24  N   UNL A   1      37.029  32.728  34.142  1.00  0.00    -0.320 N 
ATOM     25  H   UNL A   1      37.495  33.126  34.911  1.00  0.00     0.170 HD
BRANCH  24  26
ATOM     26  C   UNL A   1      35.980  33.507  33.632  1.00  0.00     0.041 A 
ATOM     27  C   UNL A   1      34.656  33.073  33.635  1.00  0.00     0.027 A 
ATOM     28  C   UNL A   1      36.266  34.798  33.176  1.00  0.00     0.027 A 
ATOM     29  C   UNL A   1      33.656  33.829  33.018  1.00  0.00     0.022 A 
ATOM     30  C   UNL A   1      35.269  35.563  32.558  1.00  0.00     0.022 A 
ATOM     31  C   UNL A   1      33.978  35.054  32.442  1.00  0.00     0.041 A 
ATOM     32  Cl  UNL A   1      32.782  35.931  31.572  1.00  0.00    -0.084 Cl
ENDBRANCH  24  26
ENDBRANCH  21  22
ENDBRANCH  15  17
ENDBRANCH  12  14
ENDBRANCH   8   9
ENDBRANCH   6   8
ENDBRANCH   5   6
ENDBRANCH   4   5
ENDBRANCH   3   4
ENDBRANCH   2   3
ENDBRANCH   1   2
BRANCH   1  33
ATOM     33  C   UNL A   1      33.830  23.273  26.859  1.00  0.00     0.188 C 
BRANCH  33  34
ATOM     34  O   UNL A   1      34.730  22.995  25.805  1.00  0.00    -0.377 OA
BRANCH  34  35
ATOM     35  C   UNL A   1      35.789  23.880  25.513  1.00  0.00     0.188 C 
BRANCH  35  36
ATOM     36  C   UNL A   1      37.271  23.421  25.439  1.00  0.00     0.188 C 
BRANCH  36  37
ATOM     37  O   UNL A   1      37.843  22.240  25.977  1.00  0.00    -0.376 OA
BRANCH  37  38
ATOM     38  C   UNL A   1      38.228  21.081  25.257  1.00  0.00     0.202 C 
BRANCH  38  39
ATOM     39  C   UNL A   1      39.019  19.928  25.877  1.00  0.00     0.261 C 
BRANCH  39  40
ATOM     40  O   UNL A   1      40.409  20.113  25.752  1.00  0.00    -0.460 OA
BRANCH  40  41
ATOM     41  C   UNL A   1      40.930  20.835  26.762  1.00  0.00     0.338 C 
ATOM     42  O   UNL A   1      40.803  20.639  27.957  1.00  0.00    -0.246 OA
BRANCH  41  43
ATOM     43  C   UNL A   1      41.696  21.949  26.196  1.00  0.00     0.060 A 
ATOM     44  C   UNL A   1      43.000  21.639  25.817  1.00  0.00     0.016 A 
ATOM     45  C   UNL A   1      41.247  23.265  26.380  1.00  0.00     0.016 A 
ATOM     46  C   UNL A   1      43.946  22.602  26.024  1.00  0.00     0.010 A 
ATOM     47  C   UNL A   1      42.186  24.234  26.566  1.00  0.00     0.010 A 
ATOM     48  C   UNL A   1      43.513  23.819  26.551  1.00  0.00    -0.014 A 
BRANCH  48  49
ATOM     49  C   UNL A   1      44.477  24.581  27.297  1.00  0.00     0.031 A 
ATOM     50  C   UNL A   1      44.333  24.455  28.749  1.00  0.00     0.074 A 
ATOM     51  C   UNL A   1      45.441  25.262  26.648  1.00  0.00     0.049 A 
ATOM     52  N   UNL A   1      44.062  25.382  29.601  1.00  0.00    -0.248 NA
ATOM     53  C   UNL A   1      44.348  23.090  29.295  1.00  0.00     0.031 C 
ATOM     54  C   UNL A   1      45.804  25.190  25.224  1.00  0.00     0.029 A 
ATOM     55  N   UNL A   1      46.403  26.060  27.170  1.00  0.00    -0.354 N 
ATOM     56  C   UNL A   1      44.050  24.742  30.830  1.00  0.00     0.074 A 
ATOM     57  C   UNL A   1      44.044  23.325  30.567  1.00  0.00     0.031 C 
ATOM     58  C   UNL A   1      47.047  25.698  25.064  1.00  0.00     0.029 A 
ATOM     59  C   UNL A   1      47.496  26.235  26.338  1.00  0.00     0.049 A 
ATOM     60  H   UNL A   1      46.331  26.477  28.058  1.00  0.00     0.167 HD
ATOM     61  C   UNL A   1      44.337  25.407  31.977  1.00  0.00     0.031 A 
ATOM     62  C   UNL A   1      48.717  26.677  26.720  1.00  0.00     0.031 A 
ATOM     63  C   UNL A   1      44.189  26.829  31.839  1.00  0.00     0.049 A 
ATOM     64  C   UNL A   1      48.563  27.335  28.041  1.00  0.00     0.074 A 
ATOM     65  C   UNL A   1      43.134  27.664  31.527  1.00  0.00     0.029 A 
ATOM     66  N   UNL A   1      45.330  27.574  31.656  1.00  0.00    -0.354 N 
ATOM     67  N   UNL A   1      47.909  28.447  28.221  1.00  0.00    -0.248 NA
ATOM     68  C   UNL A   1      48.749  26.525  29.238  1.00  0.00     0.031 C 
ATOM     69  C   UNL A   1      43.704  28.711  30.747  1.00  0.00     0.029 A 
ATOM     70  C   UNL A   1      45.077  28.476  30.652  1.00  0.00     0.049 A 
ATOM     71  H   UNL A   1      46.173  27.478  32.153  1.00  0.00     0.167 HD
ATOM     72  C   UNL A   1      47.247  28.284  29.432  1.00  0.00     0.074 A 
ATOM     73  C   UNL A   1      47.891  27.134  30.063  1.00  0.00     0.031 C 
ATOM     74  C   UNL A   1      46.057  28.909  29.677  1.00  0.00     0.031 A 
BRANCH  61  75
ATOM     75  C   UNL A   1      45.146  24.764  33.066  1.00  0.00    -0.014 A 
ATOM     76  C   UNL A   1      44.495  24.304  34.217  1.00  0.00     0.009 A 
ATOM     77  C   UNL A   1      46.555  24.826  33.107  1.00  0.00     0.009 A 
ATOM     78  C   UNL A   1      45.222  23.958  35.362  1.00  0.00     0.001 A 
ATOM     79  C   UNL A   1      47.285  24.437  34.228  1.00  0.00     0.001 A 
ATOM     80  C   UNL A   1      46.614  24.024  35.367  1.00  0.00     0.000 A 
ENDBRANCH  61  75
BRANCH  62  81
ATOM     81  C   UNL A   1      50.024  26.245  26.179  1.00  0.00    -0.014 A 
ATOM     82  C   UNL A   1      50.435  26.631  24.896  1.00  0.00     0.009 A 
ATOM     83  C   UNL A   1      50.982  25.645  27.020  1.00  0.00     0.009 A 
ATOM     84  C   UNL A   1      51.760  26.441  24.480  1.00  0.00     0.001 A 
ATOM     85  C   UNL A   1      52.301  25.449  26.604  1.00  0.00     0.001 A 
ATOM     86  C   UNL A   1      52.694  25.860  25.337  1.00  0.00     0.000 A 
ENDBRANCH  62  81
BRANCH  74  87
ATOM     87  C   UNL A   1      45.591  29.938  28.674  1.00  0.00    -0.014 A 
ATOM     88  C   UNL A   1      44.624  29.650  27.693  1.00  0.00     0.009 A 
ATOM     89  C   UNL A   1      46.009  31.268  28.823  1.00  0.00     0.009 A 
ATOM     90  C   UNL A   1      44.114  30.657  26.866  1.00  0.00     0.001 A 
ATOM     91  C   UNL A   1      45.485  32.277  28.010  1.00  0.00     0.001 A 
ATOM     92  C   UNL A   1      44.542  31.972  27.030  1.00  0.00     0.000 A 
ENDBRANCH  74  87
ENDBRANCH  48  49
ENDBRANCH  41  43
ENDBRANCH  40  41
ENDBRANCH  39  40
ENDBRANCH  38  39
ENDBRANCH  37  38
ENDBRANCH  36  37
ENDBRANCH  35  36
ENDBRANCH  34  35
ENDBRANCH  33  34
ENDBRANCH   1  33
TORSDOF 25
ENDMDL
MODEL 2
REMARK VINA RESULT:      -9.3      2.028      3.361
REMARK SMILES O=C(Cn1cc(/C=C(/Cl)c2nnc(C(=O)Nc3ccc(Cl)cc3)s2)nn1)OCCOCCOCCOCCOC(=O)c1ccc(-c2c3nc(c(-c4ccccc4)c4ccc([nH]4)c(-c4ccccc4)c4nc(c(-c5ccccc5)c5ccc2[nH]5)C=C4)C=C3)cc1
REMARK SMILES IDX 31 1 30 2 29 3 28 4 27 5 2 6 1 7 3 8 4 9 5 10 26 11 6 12
REMARK SMILES IDX 25 13 7 14 8 15 9 16 10 17 11 18 24 19 12 20 13 21 14 22
REMARK SMILES IDX 15 23 16 24 17 26 18 27 23 28 19 29 22 30 20 31 21 32 32 33
REMARK SMILES IDX 33 34 34 35 35 36 36 37 37 38 38 39 39 40 40 41 41 42 42 43
REMARK SMILES IDX 43 44 89 45 44 46 88 47 45 48 46 49 47 50 82 51 48 52 87 53
REMARK SMILES IDX 81 54 83 55 49 56 86 57 80 58 79 59 50 61 72 62 57 63 71 64
REMARK SMILES IDX 58 65 61 66 70 67 84 68 59 69 60 70 69 72 85 73 62 74 51 75
REMARK SMILES IDX 52 76 56 77 53 78 55 79 54 80 73 81 74 82 78 83 75 84 77 85
REMARK SMILES IDX 76 86 63 87 64 88 68 89 65 90 67 91 66 92
REMARK H PARENT 16 25 83 60 61 71
REMARK Flexibility Score: inf
ROOT
ATOM      1  C   UNL A   1      32.629  22.595  27.300  1.00  0.00     0.188 C 
ENDROOT
BRANCH   1   2
ATOM      2  O   UNL A   1      32.234  22.647  25.945  1.00  0.00    -0.376 OA
BRANCH   2   3
ATOM      3  C   UNL A   1      32.516  23.788  25.137  1.00  0.00     0.202 C 
BRANCH   3   4
ATOM      4  C   UNL A   1      31.590  24.206  23.991  1.00  0.00     0.261 C 
BRANCH   4   5
ATOM      5  O   UNL A   1      31.460  25.605  23.615  1.00  0.00    -0.462 OA
BRANCH   5   6
ATOM      6  C   UNL A   1      31.703  26.750  24.277  1.00  0.00     0.327 C 
ATOM      7  O   UNL A   1      30.754  27.434  24.659  1.00  0.00    -0.250 OA
BRANCH   6   8
ATOM      8  C   UNL A   1      33.100  27.198  24.552  1.00  0.00     0.268 C 
BRANCH   8   9
ATOM      9  N   UNL A   1      33.112  28.227  25.549  1.00  0.00    -0.241 N 
ATOM     10  C   UNL A   1      33.174  29.582  25.401  1.00  0.00     0.139 A 
ATOM     11  N   UNL A   1      32.953  27.884  26.827  1.00  0.00    -0.066 NA
ATOM     12  C   UNL A   1      32.912  30.040  26.671  1.00  0.00     0.107 A 
ATOM     13  N   UNL A   1      32.819  28.986  27.522  1.00  0.00    -0.131 NA
BRANCH  12  14
ATOM     14  C   UNL A   1      32.739  31.374  27.133  1.00  0.00     0.055 C 
ATOM     15  C   UNL A   1      33.637  32.101  27.833  1.00  0.00     0.081 C 
ATOM     16  Cl  UNL A   1      33.265  33.720  28.303  1.00  0.00    -0.081 Cl
BRANCH  15  17
ATOM     17  C   UNL A   1      34.900  31.568  28.227  1.00  0.00     0.159 A 
ATOM     18  N   UNL A   1      35.794  30.973  27.455  1.00  0.00    -0.137 NA
ATOM     19  S   UNL A   1      35.514  31.846  29.827  1.00  0.00    -0.086 S 
ATOM     20  N   UNL A   1      37.067  31.016  28.002  1.00  0.00    -0.133 NA
ATOM     21  C   UNL A   1      37.082  31.642  29.166  1.00  0.00     0.206 A 
BRANCH  21  22
ATOM     22  C   UNL A   1      38.331  31.970  29.843  1.00  0.00     0.286 C 
ATOM     23  O   UNL A   1      38.551  33.096  30.305  1.00  0.00    -0.266 OA
ATOM     24  N   UNL A   1      39.246  30.984  30.212  1.00  0.00    -0.320 N 
ATOM     25  H   UNL A   1      39.909  31.274  30.879  1.00  0.00     0.170 HD
BRANCH  24  26
ATOM     26  C   UNL A   1      39.386  29.652  29.797  1.00  0.00     0.041 A 
ATOM     27  C   UNL A   1      38.753  28.596  30.451  1.00  0.00     0.027 A 
ATOM     28  C   UNL A   1      40.125  29.384  28.640  1.00  0.00     0.027 A 
ATOM     29  C   UNL A   1      39.006  27.273  30.078  1.00  0.00     0.022 A 
ATOM     30  C   UNL A   1      40.381  28.061  28.259  1.00  0.00     0.022 A 
ATOM     31  C   UNL A   1      39.856  27.011  29.008  1.00  0.00     0.041 A 
ATOM     32  Cl  UNL A   1      40.270  25.387  28.622  1.00  0.00    -0.084 Cl
ENDBRANCH  24  26
ENDBRANCH  21  22
ENDBRANCH  15  17
ENDBRANCH  12  14
ENDBRANCH   8   9
ENDBRANCH   6   8
ENDBRANCH   5   6
ENDBRANCH   4   5
ENDBRANCH   3   4
ENDBRANCH   2   3
ENDBRANCH   1   2
BRANCH   1  33
ATOM     33  C   UNL A   1      34.074  22.173  27.564  1.00  0.00     0.188 C 
BRANCH  33  34
ATOM     34  O   UNL A   1      34.902  21.730  26.507  1.00  0.00    -0.377 OA
BRANCH  34  35
ATOM     35  C   UNL A   1      35.768  22.628  25.850  1.00  0.00     0.188 C 
BRANCH  35  36
ATOM     36  C   UNL A   1      37.030  22.160  25.074  1.00  0.00     0.188 C 
BRANCH  36  37
ATOM     37  O   UNL A   1      38.100  21.362  25.555  1.00  0.00    -0.376 OA
BRANCH  37  38
ATOM     38  C   UNL A   1      38.503  20.097  25.058  1.00  0.00     0.202 C 
BRANCH  38  39
ATOM     39  C   UNL A   1      39.449  19.160  25.810  1.00  0.00     0.261 C 
BRANCH  39  40
ATOM     40  O   UNL A   1      40.790  19.583  25.728  1.00  0.00    -0.460 OA
BRANCH  40  41
ATOM     41  C   UNL A   1      41.124  20.442  26.711  1.00  0.00     0.338 C 
ATOM     42  O   UNL A   1      40.883  20.339  27.899  1.00  0.00    -0.246 OA
BRANCH  41  43
ATOM     43  C   UNL A   1      41.838  21.577  26.119  1.00  0.00     0.060 A 
ATOM     44  C   UNL A   1      43.166  21.327  25.777  1.00  0.00     0.016 A 
ATOM     45  C   UNL A   1      41.314  22.871  26.245  1.00  0.00     0.016 A 
ATOM     46  C   UNL A   1      44.053  22.348  25.967  1.00  0.00     0.010 A 
ATOM     47  C   UNL A   1      42.194  23.897  26.413  1.00  0.00     0.010 A 
ATOM     48  C   UNL A   1      43.542  23.557  26.439  1.00  0.00    -0.014 A 
BRANCH  48  49
ATOM     49  C   UNL A   1      44.446  24.397  27.176  1.00  0.00     0.031 A 
ATOM     50  C   UNL A   1      44.290  24.302  28.628  1.00  0.00     0.074 A 
ATOM     51  C   UNL A   1      45.375  25.119  26.519  1.00  0.00     0.049 A 
ATOM     52  N   UNL A   1      43.950  25.234  29.451  1.00  0.00    -0.248 NA
ATOM     53  C   UNL A   1      44.382  22.956  29.213  1.00  0.00     0.031 C 
ATOM     54  C   UNL A   1      45.761  25.032  25.103  1.00  0.00     0.029 A 
ATOM     55  N   UNL A   1      46.278  25.990  27.030  1.00  0.00    -0.354 N 
ATOM     56  C   UNL A   1      43.961  24.627  30.697  1.00  0.00     0.074 A 
ATOM     57  C   UNL A   1      44.047  23.206  30.474  1.00  0.00     0.031 C 
ATOM     58  C   UNL A   1      46.972  25.612  24.944  1.00  0.00     0.029 A 
ATOM     59  C   UNL A   1      47.369  26.211  26.207  1.00  0.00     0.049 A 
ATOM     60  H   UNL A   1      46.167  26.426  27.906  1.00  0.00     0.167 HD
ATOM     61  C   UNL A   1      44.190  25.340  31.828  1.00  0.00     0.031 A 
ATOM     62  C   UNL A   1      48.555  26.739  26.591  1.00  0.00     0.031 A 
ATOM     63  C   UNL A   1      43.956  26.746  31.649  1.00  0.00     0.049 A 
ATOM     64  C   UNL A   1      48.342  27.421  27.892  1.00  0.00     0.074 A 
ATOM     65  C   UNL A   1      42.855  27.504  31.301  1.00  0.00     0.029 A 
ATOM     66  N   UNL A   1      45.050  27.555  31.459  1.00  0.00    -0.354 N 
ATOM     67  N   UNL A   1      47.617  28.494  28.033  1.00  0.00    -0.248 NA
ATOM     68  C   UNL A   1      48.561  26.658  29.113  1.00  0.00     0.031 C 
ATOM     69  C   UNL A   1      43.370  28.563  30.499  1.00  0.00     0.029 A 
ATOM     70  C   UNL A   1      44.756  28.412  30.427  1.00  0.00     0.049 A 
ATOM     71  H   UNL A   1      45.891  27.526  31.969  1.00  0.00     0.167 HD
ATOM     72  C   UNL A   1      46.950  28.323  29.240  1.00  0.00     0.074 A 
ATOM     73  C   UNL A   1      47.655  27.233  29.910  1.00  0.00     0.031 C 
ATOM     74  C   UNL A   1      45.720  28.879  29.452  1.00  0.00     0.031 A 
BRANCH  61  75
ATOM     75  C   UNL A   1      45.022  24.779  32.945  1.00  0.00    -0.014 A 
ATOM     76  C   UNL A   1      46.370  25.142  33.040  1.00  0.00     0.009 A 
ATOM     77  C   UNL A   1      44.588  23.707  33.755  1.00  0.00     0.009 A 
ATOM     78  C   UNL A   1      47.245  24.442  33.879  1.00  0.00     0.001 A 
ATOM     79  C   UNL A   1      45.444  23.039  34.627  1.00  0.00     0.001 A 
ATOM     80  C   UNL A   1      46.782  23.394  34.671  1.00  0.00     0.000 A 
ENDBRANCH  61  75
BRANCH  62  81
ATOM     81  C   UNL A   1      49.893  26.375  26.079  1.00  0.00    -0.014 A 
ATOM     82  C   UNL A   1      50.538  27.170  25.122  1.00  0.00     0.009 A 
ATOM     83  C   UNL A   1      50.649  25.366  26.708  1.00  0.00     0.009 A 
ATOM     84  C   UNL A   1      51.894  26.976  24.824  1.00  0.00     0.001 A 
ATOM     85  C   UNL A   1      51.999  25.167  26.406  1.00  0.00     0.001 A 
ATOM     86  C   UNL A   1      52.625  25.982  25.472  1.00  0.00     0.000 A 
ENDBRANCH  62  81
BRANCH  74  87
ATOM     87  C   UNL A   1      45.205  29.849  28.416  1.00  0.00    -0.014 A 
ATOM     88  C   UNL A   1      44.273  29.475  27.430  1.00  0.00     0.009 A 
ATOM     89  C   UNL A   1      45.536  31.207  28.533  1.00  0.00     0.009 A 
ATOM     90  C   UNL A   1      43.713  30.424  26.569  1.00  0.00     0.001 A 
ATOM     91  C   UNL A   1      44.961  32.158  27.686  1.00  0.00     0.001 A 
ATOM     92  C   UNL A   1      44.054  31.768  26.702  1.00  0.00     0.000 A 
ENDBRANCH  74  87
ENDBRANCH  48  49
ENDBRANCH  41  43
ENDBRANCH  40  41
ENDBRANCH  39  40
ENDBRANCH  38  39
ENDBRANCH  37  38
ENDBRANCH  36  37
ENDBRANCH  35  36
ENDBRANCH  34  35
ENDBRANCH  33  34
ENDBRANCH   1  33
TORSDOF 25
ENDMDL
MODEL 3
REMARK VINA RESULT:      -8.5      2.784      4.593
REMARK SMILES O=C(Cn1cc(/C=C(/Cl)c2nnc(C(=O)Nc3ccc(Cl)cc3)s2)nn1)OCCOCCOCCOCCOC(=O)c1ccc(-c2c3nc(c(-c4ccccc4)c4ccc([nH]4)c(-c4ccccc4)c4nc(c(-c5ccccc5)c5ccc2[nH]5)C=C4)C=C3)cc1
REMARK SMILES IDX 31 1 30 2 29 3 28 4 27 5 2 6 1 7 3 8 4 9 5 10 26 11 6 12
REMARK SMILES IDX 25 13 7 14 8 15 9 16 10 17 11 18 24 19 12 20 13 21 14 22
REMARK SMILES IDX 15 23 16 24 17 26 18 27 23 28 19 29 22 30 20 31 21 32 32 33
REMARK SMILES IDX 33 34 34 35 35 36 36 37 37 38 38 39 39 40 40 41 41 42 42 43
REMARK SMILES IDX 43 44 89 45 44 46 88 47 45 48 46 49 47 50 82 51 48 52 87 53
REMARK SMILES IDX 81 54 83 55 49 56 86 57 80 58 79 59 50 61 72 62 57 63 71 64
REMARK SMILES IDX 58 65 61 66 70 67 84 68 59 69 60 70 69 72 85 73 62 74 51 75
REMARK SMILES IDX 52 76 56 77 53 78 55 79 54 80 73 81 74 82 78 83 75 84 77 85
REMARK SMILES IDX 76 86 63 87 64 88 68 89 65 90 67 91 66 92
REMARK H PARENT 16 25 83 60 61 71
REMARK Flexibility Score: inf
ROOT
ATOM      1  C   UNL A   1      33.514  22.026  25.791  1.00  0.00     0.188 C 
ENDROOT
BRANCH   1   2
ATOM      2  O   UNL A   1      32.861  22.963  24.961  1.00  0.00    -0.376 OA
BRANCH   2   3
ATOM      3  C   UNL A   1      32.138  24.061  25.513  1.00  0.00     0.202 C 
BRANCH   3   4
ATOM      4  C   UNL A   1      31.521  25.143  24.623  1.00  0.00     0.261 C 
BRANCH   4   5
ATOM      5  O   UNL A   1      30.913  26.328  25.207  1.00  0.00    -0.462 OA
BRANCH   5   6
ATOM      6  C   UNL A   1      31.395  27.552  25.488  1.00  0.00     0.327 C 
ATOM      7  O   UNL A   1      31.822  28.252  24.570  1.00  0.00    -0.250 OA
BRANCH   6   8
ATOM      8  C   UNL A   1      31.419  28.066  26.889  1.00  0.00     0.268 C 
BRANCH   8   9
ATOM      9  N   UNL A   1      32.607  28.832  27.124  1.00  0.00    -0.241 N 
ATOM     10  C   UNL A   1      33.867  28.410  27.436  1.00  0.00     0.139 A 
ATOM     11  N   UNL A   1      32.568  30.151  26.940  1.00  0.00    -0.066 NA
ATOM     12  C   UNL A   1      34.614  29.556  27.303  1.00  0.00     0.107 A 
ATOM     13  N   UNL A   1      33.793  30.605  27.037  1.00  0.00    -0.131 NA
BRANCH  12  14
ATOM     14  C   UNL A   1      36.022  29.733  27.399  1.00  0.00     0.055 C 
ATOM     15  C   UNL A   1      36.689  30.297  28.429  1.00  0.00     0.081 C 
ATOM     16  Cl  UNL A   1      38.411  30.418  28.386  1.00  0.00    -0.081 Cl
BRANCH  15  17
ATOM     17  C   UNL A   1      36.014  30.826  29.569  1.00  0.00     0.159 A 
ATOM     18  N   UNL A   1      36.101  30.403  30.819  1.00  0.00    -0.137 NA
ATOM     19  S   UNL A   1      35.106  32.301  29.450  1.00  0.00    -0.086 S 
ATOM     20  N   UNL A   1      35.738  31.384  31.728  1.00  0.00    -0.133 NA
ATOM     21  C   UNL A   1      35.392  32.509  31.127  1.00  0.00     0.206 A 
BRANCH  21  22
ATOM     22  C   UNL A   1      35.147  33.734  31.878  1.00  0.00     0.286 C 
ATOM     23  O   UNL A   1      34.012  34.063  32.245  1.00  0.00    -0.266 OA
ATOM     24  N   UNL A   1      36.191  34.482  32.424  1.00  0.00    -0.320 N 
ATOM     25  H   UNL A   1      35.913  35.123  33.116  1.00  0.00     0.170 HD
BRANCH  24  26
ATOM     26  C   UNL A   1      37.567  34.477  32.158  1.00  0.00     0.041 A 
ATOM     27  C   UNL A   1      38.078  34.425  30.862  1.00  0.00     0.027 A 
ATOM     28  C   UNL A   1      38.457  34.606  33.230  1.00  0.00     0.027 A 
ATOM     29  C   UNL A   1      39.453  34.309  30.642  1.00  0.00     0.022 A 
ATOM     30  C   UNL A   1      39.837  34.493  33.016  1.00  0.00     0.022 A 
ATOM     31  C   UNL A   1      40.324  34.299  31.726  1.00  0.00     0.041 A 
ATOM     32  Cl  UNL A   1      42.003  34.031  31.472  1.00  0.00    -0.084 Cl
ENDBRANCH  24  26
ENDBRANCH  21  22
ENDBRANCH  15  17
ENDBRANCH  12  14
ENDBRANCH   8   9
ENDBRANCH   6   8
ENDBRANCH   5   6
ENDBRANCH   4   5
ENDBRANCH   3   4
ENDBRANCH   2   3
ENDBRANCH   1   2
BRANCH   1  33
ATOM     33  C   UNL A   1      35.020  22.222  25.971  1.00  0.00     0.188 C 
BRANCH  33  34
ATOM     34  O   UNL A   1      35.905  22.052  24.882  1.00  0.00    -0.377 OA
BRANCH  34  35
ATOM     35  C   UNL A   1      37.277  22.352  25.019  1.00  0.00     0.188 C 
BRANCH  35  36
ATOM     36  C   UNL A   1      38.335  21.282  25.404  1.00  0.00     0.188 C 
BRANCH  36  37
ATOM     37  O   UNL A   1      39.568  21.481  26.078  1.00  0.00    -0.376 OA
BRANCH  37  38
ATOM     38  C   UNL A   1      40.491  20.479  26.470  1.00  0.00     0.202 C 
BRANCH  38  39
ATOM     39  C   UNL A   1      41.991  20.557  26.185  1.00  0.00     0.261 C 
BRANCH  39  40
ATOM     40  O   UNL A   1      42.311  21.627  25.327  1.00  0.00    -0.460 OA
BRANCH  40  41
ATOM     41  C   UNL A   1      43.289  22.412  25.818  1.00  0.00     0.338 C 
ATOM     42  O   UNL A   1      44.444  22.104  26.044  1.00  0.00    -0.246 OA
BRANCH  41  43
ATOM     43  C   UNL A   1      42.738  23.747  26.066  1.00  0.00     0.060 A 
ATOM     44  C   UNL A   1      43.404  24.791  25.427  1.00  0.00     0.016 A 
ATOM     45  C   UNL A   1      41.859  23.948  27.140  1.00  0.00     0.016 A 
ATOM     46  C   UNL A   1      43.512  25.965  26.115  1.00  0.00     0.010 A 
ATOM     47  C   UNL A   1      41.946  25.126  27.818  1.00  0.00     0.010 A 
ATOM     48  C   UNL A   1      42.907  26.026  27.371  1.00  0.00    -0.014 A 
BRANCH  48  49
ATOM     49  C   UNL A   1      43.468  26.954  28.315  1.00  0.00     0.031 A 
ATOM     50  C   UNL A   1      44.389  26.338  29.272  1.00  0.00     0.074 A 
ATOM     51  C   UNL A   1      43.182  28.267  28.215  1.00  0.00     0.049 A 
ATOM     52  N   UNL A   1      44.272  26.271  30.553  1.00  0.00    -0.248 NA
ATOM     53  C   UNL A   1      45.509  25.571  28.706  1.00  0.00     0.031 C 
ATOM     54  C   UNL A   1      42.505  28.969  27.115  1.00  0.00     0.029 A 
ATOM     55  N   UNL A   1      43.578  29.277  29.025  1.00  0.00    -0.354 N 
ATOM     56  C   UNL A   1      45.409  25.601  30.978  1.00  0.00     0.074 A 
ATOM     57  C   UNL A   1      46.029  25.038  29.806  1.00  0.00     0.031 C 
ATOM     58  C   UNL A   1      42.776  30.291  27.207  1.00  0.00     0.029 A 
ATOM     59  C   UNL A   1      43.527  30.525  28.428  1.00  0.00     0.049 A 
ATOM     60  H   UNL A   1      43.875  29.136  29.953  1.00  0.00     0.167 HD
ATOM     61  C   UNL A   1      45.922  25.796  32.218  1.00  0.00     0.031 A 
ATOM     62  C   UNL A   1      44.170  31.635  28.861  1.00  0.00     0.031 A 
ATOM     63  C   UNL A   1      44.961  26.354  33.130  1.00  0.00     0.049 A 
ATOM     64  C   UNL A   1      44.566  31.403  30.273  1.00  0.00     0.074 A 
ATOM     65  C   UNL A   1      43.737  25.937  33.615  1.00  0.00     0.029 A 
ATOM     66  N   UNL A   1      45.031  27.703  33.382  1.00  0.00    -0.354 N 
ATOM     67  N   UNL A   1      43.713  31.300  31.253  1.00  0.00    -0.248 NA
ATOM     68  C   UNL A   1      45.881  30.834  30.535  1.00  0.00     0.031 C 
ATOM     69  C   UNL A   1      42.955  27.123  33.724  1.00  0.00     0.029 A 
ATOM     70  C   UNL A   1      43.752  28.200  33.330  1.00  0.00     0.049 A 
ATOM     71  H   UNL A   1      45.848  28.219  33.567  1.00  0.00     0.167 HD
ATOM     72  C   UNL A   1      44.228  30.305  32.075  1.00  0.00     0.074 A 
ATOM     73  C   UNL A   1      45.613  30.137  31.643  1.00  0.00     0.031 C 
ATOM     74  C   UNL A   1      43.405  29.512  32.825  1.00  0.00     0.031 A 
BRANCH  61  75
ATOM     75  C   UNL A   1      47.405  25.857  32.445  1.00  0.00    -0.014 A 
ATOM     76  C   UNL A   1      47.974  25.062  33.447  1.00  0.00     0.009 A 
ATOM     77  C   UNL A   1      48.222  26.859  31.878  1.00  0.00     0.009 A 
ATOM     78  C   UNL A   1      49.286  25.286  33.880  1.00  0.00     0.001 A 
ATOM     79  C   UNL A   1      49.544  27.053  32.273  1.00  0.00     0.001 A 
ATOM     80  C   UNL A   1      50.069  26.278  33.294  1.00  0.00     0.000 A 
ENDBRANCH  61  75
BRANCH  62  81
ATOM     81  C   UNL A   1      44.757  32.702  28.023  1.00  0.00    -0.014 A 
ATOM     82  C   UNL A   1      45.932  32.479  27.293  1.00  0.00     0.009 A 
ATOM     83  C   UNL A   1      44.028  33.876  27.747  1.00  0.00     0.009 A 
ATOM     84  C   UNL A   1      46.350  33.387  26.310  1.00  0.00     0.001 A 
ATOM     85  C   UNL A   1      44.448  34.786  26.772  1.00  0.00     0.001 A 
ATOM     86  C   UNL A   1      45.603  34.534  26.044  1.00  0.00     0.000 A 
ENDBRANCH  62  81
BRANCH  74  87
ATOM     87  C   UNL A   1      41.943  29.887  32.888  1.00  0.00    -0.014 A 
ATOM     88  C   UNL A   1      41.431  30.760  33.865  1.00  0.00     0.009 A 
ATOM     89  C   UNL A   1      41.095  29.487  31.846  1.00  0.00     0.009 A 
ATOM     90  C   UNL A   1      40.102  31.196  33.817  1.00  0.00     0.001 A 
ATOM     91  C   UNL A   1      39.773  29.937  31.788  1.00  0.00     0.001 A 
ATOM     92  C   UNL A   1      39.275  30.787  32.774  1.00  0.00     0.000 A 
ENDBRANCH  74  87
ENDBRANCH  48  49
ENDBRANCH  41  43
ENDBRANCH  40  41
ENDBRANCH  39  40
ENDBRANCH  38  39
ENDBRANCH  37  38
ENDBRANCH  36  37
ENDBRANCH  35  36
ENDBRANCH  34  35
ENDBRANCH  33  34
ENDBRANCH   1  33
TORSDOF 25
ENDMDL
