MODEL 1
REMARK VINA RESULT:     -10.3      0.000      0.000
REMARK SMILES Cc1ccc(N2C(=O)C[C@H](Sc3ccccc3C(=O)OCCOCCOCCOCCOC(=O)c3ccc(-c4c5nc(c(-c6ccccc6)c6ccc([nH]6)c(-c6ccccc6)c6nc(c(-c7ccccc7)c7ccc4[nH]7)C=C6)C=C5)cc3)C2=O)cc1
REMARK SMILES IDX 25 1 24 2 23 3 22 4 21 5 20 6 18 7 19 8 17 9 12 10 13 11
REMARK SMILES IDX 14 12 16 13 15 14 11 15 10 16 6 17 7 18 83 19 8 20 9 21
REMARK SMILES IDX 84 22 5 23 1 24 2 25 3 26 86 27 4 28 85 29 26 30 27 31 28 32
REMARK SMILES IDX 29 33 30 34 31 35 32 36 33 37 34 38 35 39 36 40 82 41 37 42
REMARK SMILES IDX 81 43 38 44 39 45 40 46 75 47 41 48 80 49 74 50 76 51 42 52
REMARK SMILES IDX 79 53 73 54 72 55 43 57 65 58 50 59 64 60 51 61 54 62 63 63
REMARK SMILES IDX 77 64 52 65 53 66 62 68 78 69 55 70 44 71 45 72 49 73 46 74
REMARK SMILES IDX 48 75 47 76 66 77 67 78 71 79 68 80 70 81 69 82 56 83 57 84
REMARK SMILES IDX 61 85 58 86 60 87 59 88
REMARK H PARENT 76 56 54 67
REMARK Flexibility Score: inf
ROOT
ATOM      1  C   UNL A   1      28.793  31.897  23.552  1.00  0.00     0.188 C 
ENDROOT
BRANCH   1   2
ATOM      2  C   UNL A   1      28.449  31.023  22.339  1.00  0.00     0.188 C 
BRANCH   2   3
ATOM      3  O   UNL A   1      27.274  30.244  22.483  1.00  0.00    -0.376 OA
BRANCH   3   4
ATOM      4  C   UNL A   1      27.295  29.094  23.320  1.00  0.00     0.202 C 
BRANCH   4   5
ATOM      5  C   UNL A   1      28.274  27.951  23.096  1.00  0.00     0.261 C 
BRANCH   5   6
ATOM      6  O   UNL A   1      29.457  28.084  23.857  1.00  0.00    -0.460 OA
BRANCH   6   7
ATOM      7  C   UNL A   1      30.600  27.846  23.197  1.00  0.00     0.339 C 
ATOM      8  O   UNL A   1      30.774  27.895  21.990  1.00  0.00    -0.246 OA
BRANCH   7   9
ATOM      9  C   UNL A   1      31.635  27.843  24.248  1.00  0.00     0.073 A 
ATOM     10  C   UNL A   1      31.763  26.758  25.137  1.00  0.00     0.023 A 
ATOM     11  C   UNL A   1      32.768  26.847  26.108  1.00  0.00     0.016 A 
ATOM     12  C   UNL A   1      33.671  27.919  26.137  1.00  0.00     0.001 A 
ATOM     13  C   UNL A   1      32.570  28.910  24.258  1.00  0.00     0.017 A 
ATOM     14  C   UNL A   1      33.597  28.935  25.191  1.00  0.00     0.001 A 
BRANCH  10  15
ATOM     15  S   UNL A   1      30.645  25.354  25.289  1.00  0.00    -0.111 SA
BRANCH  15  16
ATOM     16  C   UNL A   1      31.485  23.877  24.570  1.00  0.00     0.151 C 
ATOM     17  N   UNL A   1      33.815  23.699  24.491  1.00  0.00    -0.250 N 
ATOM     18  C   UNL A   1      33.413  23.867  23.197  1.00  0.00     0.235 C 
ATOM     19  C   UNL A   1      32.741  23.463  25.306  1.00  0.00     0.247 C 
ATOM     20  O   UNL A   1      34.108  23.797  22.214  1.00  0.00    -0.274 OA
ATOM     21  C   UNL A   1      31.925  23.978  23.143  1.00  0.00     0.126 C 
ATOM     22  O   UNL A   1      32.750  22.940  26.412  1.00  0.00    -0.273 OA
BRANCH  17  23
ATOM     23  C   UNL A   1      35.151  23.325  24.730  1.00  0.00     0.052 A 
ATOM     24  C   UNL A   1      39.027  21.944  26.025  1.00  0.00     0.044 C 
ATOM     25  C   UNL A   1      37.666  22.407  25.597  1.00  0.00    -0.051 A 
ATOM     26  C   UNL A   1      37.259  23.724  25.853  1.00  0.00     0.005 A 
ATOM     27  C   UNL A   1      36.800  21.549  24.911  1.00  0.00     0.005 A 
ATOM     28  C   UNL A   1      36.012  24.185  25.417  1.00  0.00     0.027 A 
ATOM     29  C   UNL A   1      35.547  22.003  24.491  1.00  0.00     0.027 A 
ENDBRANCH  17  23
ENDBRANCH  15  16
ENDBRANCH  10  15
ENDBRANCH   7   9
ENDBRANCH   6   7
ENDBRANCH   5   6
ENDBRANCH   4   5
ENDBRANCH   3   4
ENDBRANCH   2   3
ENDBRANCH   1   2
BRANCH   1  30
ATOM     30  O   UNL A   1      29.774  31.411  24.463  1.00  0.00    -0.377 OA
BRANCH  30  31
ATOM     31  C   UNL A   1      30.323  32.406  25.326  1.00  0.00     0.188 C 
BRANCH  31  32
ATOM     32  C   UNL A   1      31.267  31.937  26.418  1.00  0.00     0.188 C 
BRANCH  32  33
ATOM     33  O   UNL A   1      31.769  33.109  27.049  1.00  0.00    -0.376 OA
BRANCH  33  34
ATOM     34  C   UNL A   1      32.999  32.975  27.741  1.00  0.00     0.202 C 
BRANCH  34  35
ATOM     35  C   UNL A   1      33.570  31.557  27.634  1.00  0.00     0.261 C 
BRANCH  35  36
ATOM     36  O   UNL A   1      34.962  31.617  27.227  1.00  0.00    -0.460 OA
BRANCH  36  37
ATOM     37  C   UNL A   1      35.891  31.787  28.214  1.00  0.00     0.338 C 
ATOM     38  O   UNL A   1      36.150  32.851  28.750  1.00  0.00    -0.246 OA
BRANCH  37  39
ATOM     39  C   UNL A   1      36.657  30.522  28.457  1.00  0.00     0.060 A 
ATOM     40  C   UNL A   1      36.528  29.803  29.657  1.00  0.00     0.016 A 
ATOM     41  C   UNL A   1      37.704  30.210  27.605  1.00  0.00     0.016 A 
ATOM     42  C   UNL A   1      37.540  28.907  30.069  1.00  0.00     0.010 A 
ATOM     43  C   UNL A   1      38.756  29.456  28.090  1.00  0.00     0.010 A 
ATOM     44  C   UNL A   1      38.718  28.806  29.336  1.00  0.00    -0.014 A 
BRANCH  44  45
ATOM     45  C   UNL A   1      39.985  28.168  29.800  1.00  0.00     0.031 A 
ATOM     46  C   UNL A   1      40.347  26.827  29.195  1.00  0.00     0.074 A 
ATOM     47  C   UNL A   1      40.927  28.943  30.420  1.00  0.00     0.049 A 
ATOM     48  N   UNL A   1      41.458  26.194  29.372  1.00  0.00    -0.248 NA
ATOM     49  C   UNL A   1      39.502  26.113  28.227  1.00  0.00     0.031 C 
ATOM     50  C   UNL A   1      42.379  28.750  30.479  1.00  0.00     0.029 A 
ATOM     51  N   UNL A   1      40.795  30.147  31.118  1.00  0.00    -0.354 N 
ATOM     52  C   UNL A   1      41.637  25.288  28.333  1.00  0.00     0.074 A 
ATOM     53  C   UNL A   1      40.348  25.223  27.694  1.00  0.00     0.031 C 
ATOM     54  C   UNL A   1      42.998  29.723  31.170  1.00  0.00     0.029 A 
ATOM     55  C   UNL A   1      41.946  30.342  31.918  1.00  0.00     0.049 A 
ATOM     56  H   UNL A   1      40.025  30.760  31.064  1.00  0.00     0.167 HD
ATOM     57  C   UNL A   1      42.896  24.819  28.055  1.00  0.00     0.031 A 
ATOM     58  C   UNL A   1      41.844  30.164  33.268  1.00  0.00     0.031 A 
ATOM     59  C   UNL A   1      43.881  25.256  29.080  1.00  0.00     0.049 A 
ATOM     60  C   UNL A   1      42.501  28.824  33.681  1.00  0.00     0.074 A 
ATOM     61  C   UNL A   1      45.142  25.830  29.058  1.00  0.00     0.029 A 
ATOM     62  N   UNL A   1      43.481  25.316  30.421  1.00  0.00    -0.354 N 
ATOM     63  N   UNL A   1      42.770  27.834  32.851  1.00  0.00    -0.248 NA
ATOM     64  C   UNL A   1      43.080  28.556  34.988  1.00  0.00     0.031 C 
ATOM     65  C   UNL A   1      45.436  26.319  30.372  1.00  0.00     0.029 A 
ATOM     66  C   UNL A   1      44.386  25.984  31.220  1.00  0.00     0.049 A 
ATOM     67  H   UNL A   1      42.644  24.922  30.757  1.00  0.00     0.167 HD
ATOM     68  C   UNL A   1      43.637  26.926  33.393  1.00  0.00     0.074 A 
ATOM     69  C   UNL A   1      43.729  27.391  34.772  1.00  0.00     0.031 C 
ATOM     70  C   UNL A   1      44.248  25.910  32.684  1.00  0.00     0.031 A 
BRANCH  57  71
ATOM     71  C   UNL A   1      43.322  24.116  26.749  1.00  0.00    -0.014 A 
ATOM     72  C   UNL A   1      42.951  22.771  26.523  1.00  0.00     0.009 A 
ATOM     73  C   UNL A   1      44.140  24.667  25.740  1.00  0.00     0.009 A 
ATOM     74  C   UNL A   1      43.382  22.027  25.406  1.00  0.00     0.001 A 
ATOM     75  C   UNL A   1      44.549  23.941  24.599  1.00  0.00     0.001 A 
ATOM     76  C   UNL A   1      44.178  22.615  24.437  1.00  0.00     0.000 A 
ENDBRANCH  57  71
BRANCH  58  77
ATOM     77  C   UNL A   1      40.655  30.965  33.741  1.00  0.00    -0.014 A 
ATOM     78  C   UNL A   1      39.772  30.256  34.607  1.00  0.00     0.009 A 
ATOM     79  C   UNL A   1      40.783  32.348  33.960  1.00  0.00     0.009 A 
ATOM     80  C   UNL A   1      39.275  30.839  35.785  1.00  0.00     0.001 A 
ATOM     81  C   UNL A   1      40.244  32.934  35.125  1.00  0.00     0.001 A 
ATOM     82  C   UNL A   1      39.556  32.169  36.068  1.00  0.00     0.000 A 
ENDBRANCH  58  77
BRANCH  70  83
ATOM     83  C   UNL A   1      44.760  24.601  33.271  1.00  0.00    -0.014 A 
ATOM     84  C   UNL A   1      46.077  24.328  33.619  1.00  0.00     0.009 A 
ATOM     85  C   UNL A   1      43.815  23.588  33.604  1.00  0.00     0.009 A 
ATOM     86  C   UNL A   1      46.413  23.173  34.341  1.00  0.00     0.001 A 
ATOM     87  C   UNL A   1      44.135  22.446  34.331  1.00  0.00     0.001 A 
ATOM     88  C   UNL A   1      45.443  22.250  34.721  1.00  0.00     0.000 A 
ENDBRANCH  70  83
ENDBRANCH  44  45
ENDBRANCH  37  39
ENDBRANCH  36  37
ENDBRANCH  35  36
ENDBRANCH  34  35
ENDBRANCH  33  34
ENDBRANCH  32  33
ENDBRANCH  31  32
ENDBRANCH  30  31
ENDBRANCH   1  30
TORSDOF 23
ENDMDL
MODEL 2
REMARK VINA RESULT:      -9.5      3.479      7.037
REMARK SMILES Cc1ccc(N2C(=O)C[C@H](Sc3ccccc3C(=O)OCCOCCOCCOCCOC(=O)c3ccc(-c4c5nc(c(-c6ccccc6)c6ccc([nH]6)c(-c6ccccc6)c6nc(c(-c7ccccc7)c7ccc4[nH]7)C=C6)C=C5)cc3)C2=O)cc1
REMARK SMILES IDX 25 1 24 2 23 3 22 4 21 5 20 6 18 7 19 8 17 9 12 10 13 11
REMARK SMILES IDX 14 12 16 13 15 14 11 15 10 16 6 17 7 18 83 19 8 20 9 21
REMARK SMILES IDX 84 22 5 23 1 24 2 25 3 26 86 27 4 28 85 29 26 30 27 31 28 32
REMARK SMILES IDX 29 33 30 34 31 35 32 36 33 37 34 38 35 39 36 40 82 41 37 42
REMARK SMILES IDX 81 43 38 44 39 45 40 46 75 47 41 48 80 49 74 50 76 51 42 52
REMARK SMILES IDX 79 53 73 54 72 55 43 57 65 58 50 59 64 60 51 61 54 62 63 63
REMARK SMILES IDX 77 64 52 65 53 66 62 68 78 69 55 70 44 71 45 72 49 73 46 74
REMARK SMILES IDX 48 75 47 76 66 77 67 78 71 79 68 80 70 81 69 82 56 83 57 84
REMARK SMILES IDX 61 85 58 86 60 87 59 88
REMARK H PARENT 76 56 54 67
REMARK Flexibility Score: inf
ROOT
ATOM      1  C   UNL A   1      30.222  31.817  25.229  1.00  0.00     0.188 C 
ENDROOT
BRANCH   1   2
ATOM      2  C   UNL A   1      29.496  31.727  23.881  1.00  0.00     0.188 C 
BRANCH   2   3
ATOM      3  O   UNL A   1      28.165  31.246  23.954  1.00  0.00    -0.376 OA
BRANCH   3   4
ATOM      4  C   UNL A   1      27.800  30.083  23.220  1.00  0.00     0.202 C 
BRANCH   4   5
ATOM      5  C   UNL A   1      28.394  29.772  21.854  1.00  0.00     0.261 C 
BRANCH   5   6
ATOM      6  O   UNL A   1      29.504  28.898  21.924  1.00  0.00    -0.460 OA
BRANCH   6   7
ATOM      7  C   UNL A   1      29.546  28.103  23.003  1.00  0.00     0.339 C 
ATOM      8  O   UNL A   1      28.671  27.347  23.392  1.00  0.00    -0.246 OA
BRANCH   7   9
ATOM      9  C   UNL A   1      30.967  28.102  23.401  1.00  0.00     0.073 A 
ATOM     10  C   UNL A   1      31.444  27.211  24.383  1.00  0.00     0.023 A 
ATOM     11  C   UNL A   1      32.805  27.289  24.703  1.00  0.00     0.016 A 
ATOM     12  C   UNL A   1      33.676  28.144  24.013  1.00  0.00     0.001 A 
ATOM     13  C   UNL A   1      31.855  28.942  22.683  1.00  0.00     0.017 A 
ATOM     14  C   UNL A   1      33.211  28.947  22.979  1.00  0.00     0.001 A 
BRANCH  10  15
ATOM     15  S   UNL A   1      30.455  26.115  25.414  1.00  0.00    -0.111 SA
BRANCH  15  16
ATOM     16  C   UNL A   1      30.841  24.377  24.933  1.00  0.00     0.151 C 
ATOM     17  N   UNL A   1      33.020  23.687  24.441  1.00  0.00    -0.250 N 
ATOM     18  C   UNL A   1      32.350  23.670  23.252  1.00  0.00     0.235 C 
ATOM     19  C   UNL A   1      32.151  23.861  25.485  1.00  0.00     0.247 C 
ATOM     20  O   UNL A   1      32.765  23.252  22.200  1.00  0.00    -0.274 OA
ATOM     21  C   UNL A   1      30.932  24.087  23.467  1.00  0.00     0.126 C 
ATOM     22  O   UNL A   1      32.341  23.585  26.662  1.00  0.00    -0.273 OA
BRANCH  17  23
ATOM     23  C   UNL A   1      34.294  23.090  24.498  1.00  0.00     0.052 A 
ATOM     24  C   UNL A   1      38.123  21.279  25.311  1.00  0.00     0.044 C 
ATOM     25  C   UNL A   1      36.782  21.903  25.057  1.00  0.00    -0.051 A 
ATOM     26  C   UNL A   1      36.675  23.291  24.887  1.00  0.00     0.005 A 
ATOM     27  C   UNL A   1      35.632  21.114  24.954  1.00  0.00     0.005 A 
ATOM     28  C   UNL A   1      35.440  23.882  24.601  1.00  0.00     0.027 A 
ATOM     29  C   UNL A   1      34.395  21.707  24.687  1.00  0.00     0.027 A 
ENDBRANCH  17  23
ENDBRANCH  15  16
ENDBRANCH  10  15
ENDBRANCH   7   9
ENDBRANCH   6   7
ENDBRANCH   5   6
ENDBRANCH   4   5
ENDBRANCH   3   4
ENDBRANCH   2   3
ENDBRANCH   1   2
BRANCH   1  30
ATOM     30  O   UNL A   1      31.210  30.832  25.516  1.00  0.00    -0.377 OA
BRANCH  30  31
ATOM     31  C   UNL A   1      31.957  31.074  26.708  1.00  0.00     0.188 C 
BRANCH  31  32
ATOM     32  C   UNL A   1      32.957  30.015  27.131  1.00  0.00     0.188 C 
BRANCH  32  33
ATOM     33  O   UNL A   1      34.227  30.654  27.183  1.00  0.00    -0.376 OA
BRANCH  33  34
ATOM     34  C   UNL A   1      35.344  29.820  27.435  1.00  0.00     0.202 C 
BRANCH  34  35
ATOM     35  C   UNL A   1      36.560  30.615  27.922  1.00  0.00     0.261 C 
BRANCH  35  36
ATOM     36  O   UNL A   1      37.751  29.788  27.847  1.00  0.00    -0.460 OA
BRANCH  36  37
ATOM     37  C   UNL A   1      38.139  29.150  28.990  1.00  0.00     0.338 C 
ATOM     38  O   UNL A   1      37.652  29.339  30.093  1.00  0.00    -0.246 OA
BRANCH  37  39
ATOM     39  C   UNL A   1      39.340  28.288  28.745  1.00  0.00     0.060 A 
ATOM     40  C   UNL A   1      40.306  28.070  29.743  1.00  0.00     0.016 A 
ATOM     41  C   UNL A   1      39.639  27.928  27.442  1.00  0.00     0.016 A 
ATOM     42  C   UNL A   1      41.613  27.660  29.399  1.00  0.00     0.010 A 
ATOM     43  C   UNL A   1      40.957  27.682  27.104  1.00  0.00     0.010 A 
ATOM     44  C   UNL A   1      41.981  27.564  28.061  1.00  0.00    -0.014 A 
BRANCH  44  45
ATOM     45  C   UNL A   1      43.376  27.463  27.541  1.00  0.00     0.031 A 
ATOM     46  C   UNL A   1      44.075  28.758  27.177  1.00  0.00     0.074 A 
ATOM     47  C   UNL A   1      44.085  26.315  27.768  1.00  0.00     0.049 A 
ATOM     48  N   UNL A   1      45.315  28.877  26.841  1.00  0.00    -0.248 NA
ATOM     49  C   UNL A   1      43.439  30.081  27.263  1.00  0.00     0.031 C 
ATOM     50  C   UNL A   1      45.536  26.139  27.870  1.00  0.00     0.029 A 
ATOM     51  N   UNL A   1      43.645  25.012  28.017  1.00  0.00    -0.354 N 
ATOM     52  C   UNL A   1      45.717  30.193  27.045  1.00  0.00     0.074 A 
ATOM     53  C   UNL A   1      44.485  30.915  27.230  1.00  0.00     0.031 C 
ATOM     54  C   UNL A   1      45.883  24.863  28.114  1.00  0.00     0.029 A 
ATOM     55  C   UNL A   1      44.712  24.114  27.772  1.00  0.00     0.049 A 
ATOM     56  H   UNL A   1      42.741  24.759  28.314  1.00  0.00     0.167 HD
ATOM     57  C   UNL A   1      47.053  30.477  27.177  1.00  0.00     0.031 A 
ATOM     58  C   UNL A   1      44.674  23.342  26.647  1.00  0.00     0.031 A 
ATOM     59  C   UNL A   1      47.896  29.286  26.895  1.00  0.00     0.049 A 
ATOM     60  C   UNL A   1      45.666  23.888  25.591  1.00  0.00     0.074 A 
ATOM     61  C   UNL A   1      48.960  28.657  27.522  1.00  0.00     0.029 A 
ATOM     62  N   UNL A   1      47.509  28.408  25.875  1.00  0.00    -0.354 N 
ATOM     63  N   UNL A   1      46.179  25.105  25.604  1.00  0.00    -0.248 NA
ATOM     64  C   UNL A   1      46.308  23.083  24.565  1.00  0.00     0.031 C 
ATOM     65  C   UNL A   1      49.127  27.362  26.931  1.00  0.00     0.029 A 
ATOM     66  C   UNL A   1      48.211  27.221  25.894  1.00  0.00     0.049 A 
ATOM     67  H   UNL A   1      46.809  28.616  25.215  1.00  0.00     0.167 HD
ATOM     68  C   UNL A   1      47.262  25.218  24.775  1.00  0.00     0.074 A 
ATOM     69  C   UNL A   1      47.241  23.933  24.084  1.00  0.00     0.031 C 
ATOM     70  C   UNL A   1      48.113  26.305  24.746  1.00  0.00     0.031 A 
BRANCH  57  71
ATOM     71  C   UNL A   1      47.637  31.783  27.756  1.00  0.00    -0.014 A 
ATOM     72  C   UNL A   1      47.476  32.997  27.050  1.00  0.00     0.009 A 
ATOM     73  C   UNL A   1      48.412  31.896  28.930  1.00  0.00     0.009 A 
ATOM     74  C   UNL A   1      48.063  34.212  27.458  1.00  0.00     0.001 A 
ATOM     75  C   UNL A   1      48.974  33.117  29.366  1.00  0.00     0.001 A 
ATOM     76  C   UNL A   1      48.809  34.275  28.623  1.00  0.00     0.000 A 
ENDBRANCH  57  71
BRANCH  58  77
ATOM     77  C   UNL A   1      43.320  22.676  26.601  1.00  0.00    -0.014 A 
ATOM     78  C   UNL A   1      42.955  21.995  27.799  1.00  0.00     0.009 A 
ATOM     79  C   UNL A   1      42.277  23.258  25.859  1.00  0.00     0.009 A 
ATOM     80  C   UNL A   1      41.674  22.133  28.360  1.00  0.00     0.001 A 
ATOM     81  C   UNL A   1      40.982  23.355  26.413  1.00  0.00     0.001 A 
ATOM     82  C   UNL A   1      40.702  22.859  27.687  1.00  0.00     0.000 A 
ENDBRANCH  58  77
BRANCH  70  83
ATOM     83  C   UNL A   1      48.959  26.739  23.556  1.00  0.00    -0.014 A 
ATOM     84  C   UNL A   1      48.530  26.803  22.236  1.00  0.00     0.009 A 
ATOM     85  C   UNL A   1      50.275  27.228  23.798  1.00  0.00     0.009 A 
ATOM     86  C   UNL A   1      49.317  27.408  21.245  1.00  0.00     0.001 A 
ATOM     87  C   UNL A   1      51.058  27.841  22.826  1.00  0.00     0.001 A 
ATOM     88  C   UNL A   1      50.564  27.951  21.543  1.00  0.00     0.000 A 
ENDBRANCH  70  83
ENDBRANCH  44  45
ENDBRANCH  37  39
ENDBRANCH  36  37
ENDBRANCH  35  36
ENDBRANCH  34  35
ENDBRANCH  33  34
ENDBRANCH  32  33
ENDBRANCH  31  32
ENDBRANCH  30  31
ENDBRANCH   1  30
TORSDOF 23
ENDMDL
MODEL 3
REMARK VINA RESULT:      -9.5      3.814      7.410
REMARK SMILES Cc1ccc(N2C(=O)C[C@H](Sc3ccccc3C(=O)OCCOCCOCCOCCOC(=O)c3ccc(-c4c5nc(c(-c6ccccc6)c6ccc([nH]6)c(-c6ccccc6)c6nc(c(-c7ccccc7)c7ccc4[nH]7)C=C6)C=C5)cc3)C2=O)cc1
REMARK SMILES IDX 25 1 24 2 23 3 22 4 21 5 20 6 18 7 19 8 17 9 12 10 13 11
REMARK SMILES IDX 14 12 16 13 15 14 11 15 10 16 6 17 7 18 83 19 8 20 9 21
REMARK SMILES IDX 84 22 5 23 1 24 2 25 3 26 86 27 4 28 85 29 26 30 27 31 28 32
REMARK SMILES IDX 29 33 30 34 31 35 32 36 33 37 34 38 35 39 36 40 82 41 37 42
REMARK SMILES IDX 81 43 38 44 39 45 40 46 75 47 41 48 80 49 74 50 76 51 42 52
REMARK SMILES IDX 79 53 73 54 72 55 43 57 65 58 50 59 64 60 51 61 54 62 63 63
REMARK SMILES IDX 77 64 52 65 53 66 62 68 78 69 55 70 44 71 45 72 49 73 46 74
REMARK SMILES IDX 48 75 47 76 66 77 67 78 71 79 68 80 70 81 69 82 56 83 57 84
REMARK SMILES IDX 61 85 58 86 60 87 59 88
REMARK H PARENT 76 56 54 67
REMARK Flexibility Score: inf
ROOT
ATOM      1  C   UNL A   1      35.101  33.747  28.660  1.00  0.00     0.188 C 
ENDROOT
BRANCH   1   2
ATOM      2  C   UNL A   1      33.955  33.090  27.879  1.00  0.00     0.188 C 
BRANCH   2   3
ATOM      3  O   UNL A   1      34.130  31.708  27.620  1.00  0.00    -0.376 OA
BRANCH   3   4
ATOM      4  C   UNL A   1      33.005  30.919  27.248  1.00  0.00     0.202 C 
BRANCH   4   5
ATOM      5  C   UNL A   1      33.105  29.413  27.053  1.00  0.00     0.261 C 
BRANCH   5   6
ATOM      6  O   UNL A   1      32.940  29.022  25.705  1.00  0.00    -0.460 OA
BRANCH   6   7
ATOM      7  C   UNL A   1      32.520  27.762  25.516  1.00  0.00     0.339 C 
ATOM      8  O   UNL A   1      32.807  26.785  26.188  1.00  0.00    -0.246 OA
BRANCH   7   9
ATOM      9  C   UNL A   1      31.410  27.888  24.553  1.00  0.00     0.073 A 
ATOM     10  C   UNL A   1      30.365  26.943  24.524  1.00  0.00     0.023 A 
ATOM     11  C   UNL A   1      29.359  27.138  23.569  1.00  0.00     0.016 A 
ATOM     12  C   UNL A   1      29.337  28.271  22.744  1.00  0.00     0.001 A 
ATOM     13  C   UNL A   1      31.367  29.049  23.740  1.00  0.00     0.017 A 
ATOM     14  C   UNL A   1      30.321  29.246  22.851  1.00  0.00     0.001 A 
BRANCH  10  15
ATOM     15  S   UNL A   1      30.283  25.401  25.450  1.00  0.00    -0.111 SA
BRANCH  15  16
ATOM     16  C   UNL A   1      31.209  24.117  24.503  1.00  0.00     0.151 C 
ATOM     17  N   UNL A   1      33.501  23.771  24.810  1.00  0.00    -0.250 N 
ATOM     18  C   UNL A   1      33.374  24.327  23.570  1.00  0.00     0.235 C 
ATOM     19  C   UNL A   1      32.277  23.409  25.307  1.00  0.00     0.247 C 
ATOM     20  O   UNL A   1      34.252  24.475  22.756  1.00  0.00    -0.274 OA
ATOM     21  C   UNL A   1      31.931  24.575  23.275  1.00  0.00     0.126 C 
ATOM     22  O   UNL A   1      32.047  22.600  26.194  1.00  0.00    -0.273 OA
BRANCH  17  23
ATOM     23  C   UNL A   1      34.750  23.232  25.175  1.00  0.00     0.052 A 
ATOM     24  C   UNL A   1      38.794  21.846  25.745  1.00  0.00     0.044 C 
ATOM     25  C   UNL A   1      37.397  22.348  25.525  1.00  0.00    -0.051 A 
ATOM     26  C   UNL A   1      36.448  21.530  24.895  1.00  0.00     0.005 A 
ATOM     27  C   UNL A   1      37.013  23.617  25.970  1.00  0.00     0.005 A 
ATOM     28  C   UNL A   1      35.129  21.964  24.727  1.00  0.00     0.027 A 
ATOM     29  C   UNL A   1      35.700  24.059  25.786  1.00  0.00     0.027 A 
ENDBRANCH  17  23
ENDBRANCH  15  16
ENDBRANCH  10  15
ENDBRANCH   7   9
ENDBRANCH   6   7
ENDBRANCH   5   6
ENDBRANCH   4   5
ENDBRANCH   3   4
ENDBRANCH   2   3
ENDBRANCH   1   2
BRANCH   1  30
ATOM     30  O   UNL A   1      35.490  33.150  29.892  1.00  0.00    -0.377 OA
BRANCH  30  31
ATOM     31  C   UNL A   1      34.631  33.448  30.992  1.00  0.00     0.188 C 
BRANCH  31  32
ATOM     32  C   UNL A   1      34.883  32.711  32.294  1.00  0.00     0.188 C 
BRANCH  32  33
ATOM     33  O   UNL A   1      36.229  32.255  32.248  1.00  0.00    -0.376 OA
BRANCH  33  34
ATOM     34  C   UNL A   1      36.427  30.857  32.374  1.00  0.00     0.202 C 
BRANCH  34  35
ATOM     35  C   UNL A   1      37.814  30.424  31.886  1.00  0.00     0.261 C 
BRANCH  35  36
ATOM     36  O   UNL A   1      37.860  30.463  30.436  1.00  0.00    -0.460 OA
BRANCH  36  37
ATOM     37  C   UNL A   1      38.284  29.333  29.797  1.00  0.00     0.338 C 
ATOM     38  O   UNL A   1      37.835  28.215  29.987  1.00  0.00    -0.246 OA
BRANCH  37  39
ATOM     39  C   UNL A   1      39.473  29.619  28.930  1.00  0.00     0.060 A 
ATOM     40  C   UNL A   1      39.592  29.072  27.641  1.00  0.00     0.016 A 
ATOM     41  C   UNL A   1      40.588  30.201  29.510  1.00  0.00     0.016 A 
ATOM     42  C   UNL A   1      40.858  28.961  27.023  1.00  0.00     0.010 A 
ATOM     43  C   UNL A   1      41.833  29.944  28.966  1.00  0.00     0.010 A 
ATOM     44  C   UNL A   1      42.007  29.301  27.728  1.00  0.00    -0.014 A 
BRANCH  44  45
ATOM     45  C   UNL A   1      43.405  28.944  27.348  1.00  0.00     0.031 A 
ATOM     46  C   UNL A   1      44.332  30.082  26.968  1.00  0.00     0.074 A 
ATOM     47  C   UNL A   1      43.898  27.721  27.713  1.00  0.00     0.049 A 
ATOM     48  N   UNL A   1      45.598  29.980  26.742  1.00  0.00    -0.248 NA
ATOM     49  C   UNL A   1      43.914  31.490  26.909  1.00  0.00     0.031 C 
ATOM     50  C   UNL A   1      45.289  27.330  27.960  1.00  0.00     0.029 A 
ATOM     51  N   UNL A   1      43.234  26.525  28.003  1.00  0.00    -0.354 N 
ATOM     52  C   UNL A   1      46.190  31.229  26.898  1.00  0.00     0.074 A 
ATOM     53  C   UNL A   1      45.080  32.147  26.921  1.00  0.00     0.031 C 
ATOM     54  C   UNL A   1      45.403  26.039  28.317  1.00  0.00     0.029 A 
ATOM     55  C   UNL A   1      44.157  25.456  27.917  1.00  0.00     0.049 A 
ATOM     56  H   UNL A   1      42.280  26.440  28.230  1.00  0.00     0.167 HD
ATOM     57  C   UNL A   1      47.539  31.312  27.136  1.00  0.00     0.031 A 
ATOM     58  C   UNL A   1      44.087  24.615  26.845  1.00  0.00     0.031 A 
ATOM     59  C   UNL A   1      48.199  29.985  27.009  1.00  0.00     0.049 A 
ATOM     60  C   UNL A   1      45.238  24.915  25.853  1.00  0.00     0.074 A 
ATOM     61  C   UNL A   1      49.092  29.249  27.772  1.00  0.00     0.029 A 
ATOM     62  N   UNL A   1      47.758  29.102  26.017  1.00  0.00    -0.354 N 
ATOM     63  N   UNL A   1      45.938  26.034  25.836  1.00  0.00    -0.248 NA
ATOM     64  C   UNL A   1      45.822  23.942  24.945  1.00  0.00     0.031 C 
ATOM     65  C   UNL A   1      49.094  27.902  27.283  1.00  0.00     0.029 A 
ATOM     66  C   UNL A   1      48.256  27.825  26.177  1.00  0.00     0.049 A 
ATOM     67  H   UNL A   1      47.158  29.363  25.282  1.00  0.00     0.167 HD
ATOM     68  C   UNL A   1      47.089  25.912  25.105  1.00  0.00     0.074 A 
ATOM     69  C   UNL A   1      46.917  24.597  24.499  1.00  0.00     0.031 C 
ATOM     70  C   UNL A   1      48.104  26.849  25.086  1.00  0.00     0.031 A 
BRANCH  57  71
ATOM     71  C   UNL A   1      48.277  32.552  27.681  1.00  0.00    -0.014 A 
ATOM     72  C   UNL A   1      47.811  33.185  28.856  1.00  0.00     0.009 A 
ATOM     73  C   UNL A   1      49.373  33.199  27.072  1.00  0.00     0.009 A 
ATOM     74  C   UNL A   1      48.365  34.377  29.363  1.00  0.00     0.001 A 
ATOM     75  C   UNL A   1      49.959  34.374  27.593  1.00  0.00     0.001 A 
ATOM     76  C   UNL A   1      49.448  34.972  28.734  1.00  0.00     0.000 A 
ENDBRANCH  57  71
BRANCH  58  77
ATOM     77  C   UNL A   1      42.651  24.165  26.715  1.00  0.00    -0.014 A 
ATOM     78  C   UNL A   1      42.137  23.491  27.862  1.00  0.00     0.009 A 
ATOM     79  C   UNL A   1      41.741  24.935  25.971  1.00  0.00     0.009 A 
ATOM     80  C   UNL A   1      40.870  23.796  28.385  1.00  0.00     0.001 A 
ATOM     81  C   UNL A   1      40.453  25.202  26.483  1.00  0.00     0.001 A 
ATOM     82  C   UNL A   1      40.047  24.693  27.718  1.00  0.00     0.000 A 
ENDBRANCH  58  77
BRANCH  70  83
ATOM     83  C   UNL A   1      49.103  27.051  23.954  1.00  0.00    -0.014 A 
ATOM     84  C   UNL A   1      50.481  26.902  24.052  1.00  0.00     0.009 A 
ATOM     85  C   UNL A   1      48.606  27.311  22.644  1.00  0.00     0.009 A 
ATOM     86  C   UNL A   1      51.295  26.908  22.910  1.00  0.00     0.001 A 
ATOM     87  C   UNL A   1      49.402  27.306  21.504  1.00  0.00     0.001 A 
ATOM     88  C   UNL A   1      50.756  27.080  21.638  1.00  0.00     0.000 A 
ENDBRANCH  70  83
ENDBRANCH  44  45
ENDBRANCH  37  39
ENDBRANCH  36  37
ENDBRANCH  35  36
ENDBRANCH  34  35
ENDBRANCH  33  34
ENDBRANCH  32  33
ENDBRANCH  31  32
ENDBRANCH  30  31
ENDBRANCH   1  30
TORSDOF 23
ENDMDL
