MODEL 1
REMARK VINA RESULT:     -10.1      0.000      0.000
REMARK SMILES Cc1ccc(NC(=O)C[N@H+]2CCC[C@@H](C(=O)OCCOCCOCCOCCOC(=O)c3ccc(-c4c5nc(c(-c6ccccc6)c6ccc([nH]6)c(-c6ccccc6)c6nc(c(-c7ccccc7)c7ccc4[nH]7)C=C6)C=C5)cc3)C2)cc1F
REMARK SMILES IDX 22 1 21 2 20 3 19 4 18 5 17 6 15 7 16 8 14 9 10 10 11 11
REMARK SMILES IDX 80 12 12 14 13 15 9 16 7 17 6 18 8 20 5 21 1 22 2 23 3 24
REMARK SMILES IDX 82 25 4 26 81 27 83 28 23 29 24 30 25 31 26 32 27 33 28 34
REMARK SMILES IDX 29 35 30 36 31 37 32 38 33 39 79 40 34 41 78 42 35 43 36 44
REMARK SMILES IDX 37 45 72 46 38 47 77 48 71 49 73 50 39 51 76 52 70 53 69 54
REMARK SMILES IDX 40 56 62 57 47 58 61 59 48 60 51 61 60 62 74 63 49 64 50 65
REMARK SMILES IDX 59 67 75 68 52 69 41 70 42 71 46 72 43 73 45 74 44 75 63 76
REMARK SMILES IDX 64 77 68 78 65 79 67 80 66 81 53 82 54 83 58 84 55 85 57 86
REMARK SMILES IDX 56 87
REMARK H PARENT 10 13 6 19 73 55 51 66
REMARK Flexibility Score: inf
ROOT
ATOM      1  C   UNL A   1      34.270  34.877  29.087  1.00  0.00     0.188 C 
ENDROOT
BRANCH   1   2
ATOM      2  C   UNL A   1      33.992  33.798  28.020  1.00  0.00     0.188 C 
BRANCH   2   3
ATOM      3  O   UNL A   1      33.998  32.450  28.450  1.00  0.00    -0.376 OA
BRANCH   3   4
ATOM      4  C   UNL A   1      33.621  31.350  27.638  1.00  0.00     0.202 C 
BRANCH   4   5
ATOM      5  C   UNL A   1      34.433  30.072  27.381  1.00  0.00     0.261 C 
BRANCH   5   6
ATOM      6  O   UNL A   1      33.955  29.180  26.391  1.00  0.00    -0.463 OA
BRANCH   6   7
ATOM      7  C   UNL A   1      32.937  28.356  26.729  1.00  0.00     0.314 C 
ATOM      8  O   UNL A   1      32.012  28.631  27.477  1.00  0.00    -0.252 OA
BRANCH   7   9
ATOM      9  C   UNL A   1      33.173  27.029  26.053  1.00  0.00     0.154 C 
ATOM     10  N   UNL A   1      31.903  25.041  25.549  1.00  0.00    -0.326 N 
ATOM     11  C   UNL A   1      32.415  25.008  24.164  1.00  0.00     0.262 C 
ATOM     12  C   UNL A   1      31.792  26.436  25.953  1.00  0.00     0.278 C 
ATOM     13  H   UNL A   1      32.559  24.568  26.171  1.00  0.00     0.348 HD
ATOM     14  C   UNL A   1      33.801  25.675  24.054  1.00  0.00     0.062 C 
ATOM     15  C   UNL A   1      33.852  27.067  24.694  1.00  0.00     0.027 C 
BRANCH  10  16
ATOM     16  C   UNL A   1      30.647  24.268  25.719  1.00  0.00     0.363 C 
BRANCH  16  17
ATOM     17  C   UNL A   1      30.667  23.167  26.799  1.00  0.00     0.279 C 
ATOM     18  N   UNL A   1      31.698  22.283  26.998  1.00  0.00    -0.321 N 
ATOM     19  H   UNL A   1      31.524  21.626  27.711  1.00  0.00     0.170 HD
ATOM     20  O   UNL A   1      29.734  23.107  27.613  1.00  0.00    -0.268 OA
BRANCH  18  21
ATOM     21  C   UNL A   1      32.956  22.130  26.381  1.00  0.00     0.044 A 
ATOM     22  C   UNL A   1      36.818  21.027  24.787  1.00  0.00     0.047 C 
ATOM     23  C   UNL A   1      35.461  21.436  25.273  1.00  0.00    -0.015 A 
ATOM     24  C   UNL A   1      34.304  20.771  24.862  1.00  0.00     0.008 A 
ATOM     25  C   UNL A   1      35.333  22.479  26.192  1.00  0.00     0.128 A 
ATOM     26  C   UNL A   1      33.060  21.129  25.398  1.00  0.00     0.026 A 
ATOM     27  C   UNL A   1      34.100  22.828  26.745  1.00  0.00     0.065 A 
ATOM     28  F   UNL A   1      36.423  23.161  26.575  1.00  0.00    -0.207 F 
ENDBRANCH  18  21
ENDBRANCH  16  17
ENDBRANCH  10  16
ENDBRANCH   7   9
ENDBRANCH   6   7
ENDBRANCH   5   6
ENDBRANCH   4   5
ENDBRANCH   3   4
ENDBRANCH   2   3
ENDBRANCH   1   2
BRANCH   1  29
ATOM     29  O   UNL A   1      33.511  34.695  30.272  1.00  0.00    -0.377 OA
BRANCH  29  30
ATOM     30  C   UNL A   1      33.437  35.808  31.157  1.00  0.00     0.188 C 
BRANCH  30  31
ATOM     31  C   UNL A   1      33.393  35.571  32.685  1.00  0.00     0.188 C 
BRANCH  31  32
ATOM     32  O   UNL A   1      34.664  35.562  33.315  1.00  0.00    -0.376 OA
BRANCH  32  33
ATOM     33  C   UNL A   1      35.828  35.235  32.581  1.00  0.00     0.202 C 
BRANCH  33  34
ATOM     34  C   UNL A   1      36.727  34.126  33.142  1.00  0.00     0.261 C 
BRANCH  34  35
ATOM     35  O   UNL A   1      36.064  32.899  33.479  1.00  0.00    -0.460 OA
BRANCH  35  36
ATOM     36  C   UNL A   1      35.500  32.211  32.466  1.00  0.00     0.338 C 
ATOM     37  O   UNL A   1      34.348  32.290  32.069  1.00  0.00    -0.246 OA
BRANCH  36  38
ATOM     38  C   UNL A   1      36.574  31.475  31.772  1.00  0.00     0.060 A 
ATOM     39  C   UNL A   1      37.457  30.695  32.528  1.00  0.00     0.016 A 
ATOM     40  C   UNL A   1      36.701  31.552  30.383  1.00  0.00     0.016 A 
ATOM     41  C   UNL A   1      38.497  30.015  31.898  1.00  0.00     0.010 A 
ATOM     42  C   UNL A   1      37.760  30.893  29.757  1.00  0.00     0.010 A 
ATOM     43  C   UNL A   1      38.682  30.152  30.517  1.00  0.00    -0.014 A 
BRANCH  43  44
ATOM     44  C   UNL A   1      39.945  29.681  29.907  1.00  0.00     0.031 A 
ATOM     45  C   UNL A   1      41.098  30.642  29.818  1.00  0.00     0.074 A 
ATOM     46  C   UNL A   1      40.082  28.415  29.479  1.00  0.00     0.049 A 
ATOM     47  N   UNL A   1      42.293  30.462  29.316  1.00  0.00    -0.248 NA
ATOM     48  C   UNL A   1      40.872  31.990  30.371  1.00  0.00     0.031 C 
ATOM     49  C   UNL A   1      39.056  27.376  29.559  1.00  0.00     0.029 A 
ATOM     50  N   UNL A   1      41.151  27.790  28.889  1.00  0.00    -0.354 N 
ATOM     51  C   UNL A   1      42.958  31.670  29.489  1.00  0.00     0.074 A 
ATOM     52  C   UNL A   1      42.026  32.586  30.109  1.00  0.00     0.031 C 
ATOM     53  C   UNL A   1      39.546  26.239  29.032  1.00  0.00     0.029 A 
ATOM     54  C   UNL A   1      40.904  26.483  28.548  1.00  0.00     0.049 A 
ATOM     55  H   UNL A   1      42.013  28.235  28.727  1.00  0.00     0.167 HD
ATOM     56  C   UNL A   1      44.233  31.989  29.163  1.00  0.00     0.031 A 
ATOM     57  C   UNL A   1      41.680  25.594  27.898  1.00  0.00     0.031 A 
ATOM     58  C   UNL A   1      45.153  31.084  28.527  1.00  0.00     0.049 A 
ATOM     59  C   UNL A   1      43.063  26.004  27.462  1.00  0.00     0.074 A 
ATOM     60  C   UNL A   1      46.468  31.308  28.163  1.00  0.00     0.029 A 
ATOM     61  N   UNL A   1      44.847  29.786  28.148  1.00  0.00    -0.354 N 
ATOM     62  N   UNL A   1      43.691  27.139  27.654  1.00  0.00    -0.248 NA
ATOM     63  C   UNL A   1      43.847  25.001  26.728  1.00  0.00     0.031 C 
ATOM     64  C   UNL A   1      46.938  30.168  27.504  1.00  0.00     0.029 A 
ATOM     65  C   UNL A   1      45.939  29.207  27.523  1.00  0.00     0.049 A 
ATOM     66  H   UNL A   1      43.982  29.342  28.301  1.00  0.00     0.167 HD
ATOM     67  C   UNL A   1      44.952  26.977  27.091  1.00  0.00     0.074 A 
ATOM     68  C   UNL A   1      45.006  25.625  26.572  1.00  0.00     0.031 C 
ATOM     69  C   UNL A   1      45.975  27.863  27.008  1.00  0.00     0.031 A 
BRANCH  56  70
ATOM     70  C   UNL A   1      44.693  33.390  29.453  1.00  0.00    -0.014 A 
ATOM     71  C   UNL A   1      44.508  34.430  28.528  1.00  0.00     0.009 A 
ATOM     72  C   UNL A   1      45.292  33.683  30.689  1.00  0.00     0.009 A 
ATOM     73  C   UNL A   1      44.941  35.725  28.821  1.00  0.00     0.001 A 
ATOM     74  C   UNL A   1      45.695  34.984  30.992  1.00  0.00     0.001 A 
ATOM     75  C   UNL A   1      45.528  36.002  30.056  1.00  0.00     0.000 A 
ENDBRANCH  56  70
BRANCH  57  76
ATOM     76  C   UNL A   1      41.164  24.234  27.588  1.00  0.00    -0.014 A 
ATOM     77  C   UNL A   1      40.145  24.049  26.641  1.00  0.00     0.009 A 
ATOM     78  C   UNL A   1      41.664  23.112  28.269  1.00  0.00     0.009 A 
ATOM     79  C   UNL A   1      39.614  22.778  26.408  1.00  0.00     0.001 A 
ATOM     80  C   UNL A   1      41.157  21.838  28.009  1.00  0.00     0.001 A 
ATOM     81  C   UNL A   1      40.124  21.674  27.089  1.00  0.00     0.000 A 
ENDBRANCH  57  76
BRANCH  69  82
ATOM     82  C   UNL A   1      47.251  27.386  26.366  1.00  0.00    -0.014 A 
ATOM     83  C   UNL A   1      48.254  26.747  27.111  1.00  0.00     0.009 A 
ATOM     84  C   UNL A   1      47.437  27.558  24.985  1.00  0.00     0.009 A 
ATOM     85  C   UNL A   1      49.437  26.334  26.494  1.00  0.00     0.001 A 
ATOM     86  C   UNL A   1      48.605  27.110  24.365  1.00  0.00     0.001 A 
ATOM     87  C   UNL A   1      49.609  26.512  25.122  1.00  0.00     0.000 A 
ENDBRANCH  69  82
ENDBRANCH  43  44
ENDBRANCH  36  38
ENDBRANCH  35  36
ENDBRANCH  34  35
ENDBRANCH  33  34
ENDBRANCH  32  33
ENDBRANCH  31  32
ENDBRANCH  30  31
ENDBRANCH  29  30
ENDBRANCH   1  29
TORSDOF 23
ENDMDL
MODEL 2
REMARK VINA RESULT:      -9.8      4.646     10.083
REMARK SMILES Cc1ccc(NC(=O)C[N@H+]2CCC[C@@H](C(=O)OCCOCCOCCOCCOC(=O)c3ccc(-c4c5nc(c(-c6ccccc6)c6ccc([nH]6)c(-c6ccccc6)c6nc(c(-c7ccccc7)c7ccc4[nH]7)C=C6)C=C5)cc3)C2)cc1F
REMARK SMILES IDX 22 1 21 2 20 3 19 4 18 5 17 6 15 7 16 8 14 9 10 10 11 11
REMARK SMILES IDX 80 12 12 14 13 15 9 16 7 17 6 18 8 20 5 21 1 22 2 23 3 24
REMARK SMILES IDX 82 25 4 26 81 27 83 28 23 29 24 30 25 31 26 32 27 33 28 34
REMARK SMILES IDX 29 35 30 36 31 37 32 38 33 39 79 40 34 41 78 42 35 43 36 44
REMARK SMILES IDX 37 45 72 46 38 47 77 48 71 49 73 50 39 51 76 52 70 53 69 54
REMARK SMILES IDX 40 56 62 57 47 58 61 59 48 60 51 61 60 62 74 63 49 64 50 65
REMARK SMILES IDX 59 67 75 68 52 69 41 70 42 71 46 72 43 73 45 74 44 75 63 76
REMARK SMILES IDX 64 77 68 78 65 79 67 80 66 81 53 82 54 83 58 84 55 85 57 86
REMARK SMILES IDX 56 87
REMARK H PARENT 10 13 6 19 73 55 51 66
REMARK Flexibility Score: inf
ROOT
ATOM      1  C   UNL A   1      40.683  21.387  27.657  1.00  0.00     0.188 C 
ENDROOT
BRANCH   1   2
ATOM      2  C   UNL A   1      39.863  21.891  26.452  1.00  0.00     0.188 C 
BRANCH   2   3
ATOM      3  O   UNL A   1      39.257  23.165  26.573  1.00  0.00    -0.376 OA
BRANCH   3   4
ATOM      4  C   UNL A   1      38.220  23.638  25.731  1.00  0.00     0.202 C 
BRANCH   4   5
ATOM      5  C   UNL A   1      36.763  23.916  26.129  1.00  0.00     0.261 C 
BRANCH   5   6
ATOM      6  O   UNL A   1      35.822  24.102  25.088  1.00  0.00    -0.463 OA
BRANCH   6   7
ATOM      7  C   UNL A   1      35.590  23.057  24.260  1.00  0.00     0.314 C 
ATOM      8  O   UNL A   1      36.053  22.915  23.140  1.00  0.00    -0.252 OA
BRANCH   7   9
ATOM      9  C   UNL A   1      34.627  22.125  24.951  1.00  0.00     0.154 C 
ATOM     10  N   UNL A   1      32.259  22.030  25.400  1.00  0.00    -0.326 N 
ATOM     11  C   UNL A   1      32.190  20.613  24.987  1.00  0.00     0.262 C 
ATOM     12  C   UNL A   1      33.277  22.684  24.589  1.00  0.00     0.278 C 
ATOM     13  H   UNL A   1      32.530  22.090  26.382  1.00  0.00     0.348 HD
ATOM     14  C   UNL A   1      33.538  19.894  25.195  1.00  0.00     0.062 C 
ATOM     15  C   UNL A   1      34.725  20.652  24.589  1.00  0.00     0.027 C 
BRANCH  10  16
ATOM     16  C   UNL A   1      30.938  22.707  25.364  1.00  0.00     0.363 C 
BRANCH  16  17
ATOM     17  C   UNL A   1      30.568  23.542  26.607  1.00  0.00     0.279 C 
ATOM     18  N   UNL A   1      30.782  24.891  26.737  1.00  0.00    -0.321 N 
ATOM     19  H   UNL A   1      30.513  25.252  27.613  1.00  0.00     0.170 HD
ATOM     20  O   UNL A   1      29.955  22.995  27.536  1.00  0.00    -0.268 OA
BRANCH  18  21
ATOM     21  C   UNL A   1      31.313  25.862  25.864  1.00  0.00     0.044 A 
ATOM     22  C   UNL A   1      33.257  29.092  23.755  1.00  0.00     0.047 C 
ATOM     23  C   UNL A   1      32.603  27.926  24.431  1.00  0.00    -0.015 A 
ATOM     24  C   UNL A   1      33.351  26.892  24.995  1.00  0.00     0.008 A 
ATOM     25  C   UNL A   1      31.213  27.876  24.545  1.00  0.00     0.128 A 
ATOM     26  C   UNL A   1      32.708  25.858  25.689  1.00  0.00     0.026 A 
ATOM     27  C   UNL A   1      30.567  26.861  25.252  1.00  0.00     0.065 A 
ATOM     28  F   UNL A   1      30.467  28.836  23.979  1.00  0.00    -0.207 F 
ENDBRANCH  18  21
ENDBRANCH  16  17
ENDBRANCH  10  16
ENDBRANCH   7   9
ENDBRANCH   6   7
ENDBRANCH   5   6
ENDBRANCH   4   5
ENDBRANCH   3   4
ENDBRANCH   2   3
ENDBRANCH   1   2
BRANCH   1  29
ATOM     29  O   UNL A   1      40.881  19.981  27.645  1.00  0.00    -0.377 OA
BRANCH  29  30
ATOM     30  C   UNL A   1      42.193  19.526  27.329  1.00  0.00     0.188 C 
BRANCH  30  31
ATOM     31  C   UNL A   1      42.523  19.086  25.883  1.00  0.00     0.188 C 
BRANCH  31  32
ATOM     32  O   UNL A   1      43.484  19.898  25.227  1.00  0.00    -0.376 OA
BRANCH  32  33
ATOM     33  C   UNL A   1      43.712  21.227  25.652  1.00  0.00     0.202 C 
BRANCH  33  34
ATOM     34  C   UNL A   1      43.289  22.354  24.701  1.00  0.00     0.261 C 
BRANCH  34  35
ATOM     35  O   UNL A   1      42.848  23.565  25.329  1.00  0.00    -0.460 OA
BRANCH  35  36
ATOM     36  C   UNL A   1      43.752  24.559  25.447  1.00  0.00     0.338 C 
ATOM     37  O   UNL A   1      44.588  24.901  24.626  1.00  0.00    -0.246 OA
BRANCH  36  38
ATOM     38  C   UNL A   1      43.431  25.311  26.675  1.00  0.00     0.060 A 
ATOM     39  C   UNL A   1      42.371  24.874  27.479  1.00  0.00     0.016 A 
ATOM     40  C   UNL A   1      44.178  26.436  27.032  1.00  0.00     0.016 A 
ATOM     41  C   UNL A   1      42.030  25.585  28.627  1.00  0.00     0.010 A 
ATOM     42  C   UNL A   1      43.819  27.163  28.167  1.00  0.00     0.010 A 
ATOM     43  C   UNL A   1      42.722  26.760  28.949  1.00  0.00    -0.014 A 
BRANCH  43  44
ATOM     44  C   UNL A   1      42.170  27.662  29.984  1.00  0.00     0.031 A 
ATOM     45  C   UNL A   1      42.834  27.691  31.334  1.00  0.00     0.074 A 
ATOM     46  C   UNL A   1      41.130  28.471  29.721  1.00  0.00     0.049 A 
ATOM     47  N   UNL A   1      42.524  28.388  32.397  1.00  0.00    -0.248 NA
ATOM     48  C   UNL A   1      44.006  26.815  31.507  1.00  0.00     0.031 C 
ATOM     49  C   UNL A   1      40.438  28.573  28.437  1.00  0.00     0.029 A 
ATOM     50  N   UNL A   1      40.476  29.364  30.530  1.00  0.00    -0.354 N 
ATOM     51  C   UNL A   1      43.457  28.031  33.363  1.00  0.00     0.074 A 
ATOM     52  C   UNL A   1      44.323  27.034  32.774  1.00  0.00     0.031 C 
ATOM     53  C   UNL A   1      39.449  29.479  28.548  1.00  0.00     0.029 A 
ATOM     54  C   UNL A   1      39.420  29.991  29.917  1.00  0.00     0.049 A 
ATOM     55  H   UNL A   1      40.740  29.541  31.462  1.00  0.00     0.167 HD
ATOM     56  C   UNL A   1      43.585  28.497  34.628  1.00  0.00     0.031 A 
ATOM     57  C   UNL A   1      38.520  30.861  30.414  1.00  0.00     0.031 A 
ATOM     58  C   UNL A   1      42.711  29.473  35.220  1.00  0.00     0.049 A 
ATOM     59  C   UNL A   1      38.628  31.292  31.854  1.00  0.00     0.074 A 
ATOM     60  C   UNL A   1      42.760  30.015  36.493  1.00  0.00     0.029 A 
ATOM     61  N   UNL A   1      41.619  30.043  34.584  1.00  0.00    -0.354 N 
ATOM     62  N   UNL A   1      39.530  30.970  32.750  1.00  0.00    -0.248 NA
ATOM     63  C   UNL A   1      37.596  32.216  32.345  1.00  0.00     0.031 C 
ATOM     64  C   UNL A   1      41.660  30.864  36.647  1.00  0.00     0.029 A 
ATOM     65  C   UNL A   1      40.967  30.907  35.448  1.00  0.00     0.049 A 
ATOM     66  H   UNL A   1      41.348  29.861  33.655  1.00  0.00     0.167 HD
ATOM     67  C   UNL A   1      39.191  31.674  33.901  1.00  0.00     0.074 A 
ATOM     68  C   UNL A   1      38.016  32.458  33.579  1.00  0.00     0.031 C 
ATOM     69  C   UNL A   1      39.795  31.675  35.115  1.00  0.00     0.031 A 
BRANCH  56  70
ATOM     70  C   UNL A   1      44.689  27.920  35.470  1.00  0.00    -0.014 A 
ATOM     71  C   UNL A   1      44.451  26.877  36.379  1.00  0.00     0.009 A 
ATOM     72  C   UNL A   1      45.998  28.408  35.328  1.00  0.00     0.009 A 
ATOM     73  C   UNL A   1      45.493  26.355  37.148  1.00  0.00     0.001 A 
ATOM     74  C   UNL A   1      47.043  27.864  36.075  1.00  0.00     0.001 A 
ATOM     75  C   UNL A   1      46.790  26.845  36.990  1.00  0.00     0.000 A 
ENDBRANCH  56  70
BRANCH  57  76
ATOM     76  C   UNL A   1      37.413  31.367  29.557  1.00  0.00    -0.014 A 
ATOM     77  C   UNL A   1      37.506  32.618  28.927  1.00  0.00     0.009 A 
ATOM     78  C   UNL A   1      36.239  30.616  29.396  1.00  0.00     0.009 A 
ATOM     79  C   UNL A   1      36.434  33.119  28.185  1.00  0.00     0.001 A 
ATOM     80  C   UNL A   1      35.183  31.103  28.624  1.00  0.00     0.001 A 
ATOM     81  C   UNL A   1      35.276  32.359  28.030  1.00  0.00     0.000 A 
ENDBRANCH  57  76
BRANCH  69  82
ATOM     82  C   UNL A   1      39.217  32.577  36.173  1.00  0.00    -0.014 A 
ATOM     83  C   UNL A   1      38.236  32.124  37.068  1.00  0.00     0.009 A 
ATOM     84  C   UNL A   1      39.684  33.896  36.289  1.00  0.00     0.009 A 
ATOM     85  C   UNL A   1      37.700  32.988  38.026  1.00  0.00     0.001 A 
ATOM     86  C   UNL A   1      39.174  34.746  37.272  1.00  0.00     0.001 A 
ATOM     87  C   UNL A   1      38.173  34.295  38.130  1.00  0.00     0.000 A 
ENDBRANCH  69  82
ENDBRANCH  43  44
ENDBRANCH  36  38
ENDBRANCH  35  36
ENDBRANCH  34  35
ENDBRANCH  33  34
ENDBRANCH  32  33
ENDBRANCH  31  32
ENDBRANCH  30  31
ENDBRANCH  29  30
ENDBRANCH   1  29
TORSDOF 23
ENDMDL
MODEL 3
REMARK VINA RESULT:      -9.7      4.640     10.213
REMARK SMILES Cc1ccc(NC(=O)C[N@H+]2CCC[C@@H](C(=O)OCCOCCOCCOCCOC(=O)c3ccc(-c4c5nc(c(-c6ccccc6)c6ccc([nH]6)c(-c6ccccc6)c6nc(c(-c7ccccc7)c7ccc4[nH]7)C=C6)C=C5)cc3)C2)cc1F
REMARK SMILES IDX 22 1 21 2 20 3 19 4 18 5 17 6 15 7 16 8 14 9 10 10 11 11
REMARK SMILES IDX 80 12 12 14 13 15 9 16 7 17 6 18 8 20 5 21 1 22 2 23 3 24
REMARK SMILES IDX 82 25 4 26 81 27 83 28 23 29 24 30 25 31 26 32 27 33 28 34
REMARK SMILES IDX 29 35 30 36 31 37 32 38 33 39 79 40 34 41 78 42 35 43 36 44
REMARK SMILES IDX 37 45 72 46 38 47 77 48 71 49 73 50 39 51 76 52 70 53 69 54
REMARK SMILES IDX 40 56 62 57 47 58 61 59 48 60 51 61 60 62 74 63 49 64 50 65
REMARK SMILES IDX 59 67 75 68 52 69 41 70 42 71 46 72 43 73 45 74 44 75 63 76
REMARK SMILES IDX 64 77 68 78 65 79 67 80 66 81 53 82 54 83 58 84 55 85 57 86
REMARK SMILES IDX 56 87
REMARK H PARENT 10 13 6 19 73 55 51 66
REMARK Flexibility Score: inf
ROOT
ATOM      1  C   UNL A   1      40.723  21.830  27.578  1.00  0.00     0.188 C 
ENDROOT
BRANCH   1   2
ATOM      2  C   UNL A   1      39.907  22.388  26.393  1.00  0.00     0.188 C 
BRANCH   2   3
ATOM      3  O   UNL A   1      39.129  23.545  26.636  1.00  0.00    -0.376 OA
BRANCH   3   4
ATOM      4  C   UNL A   1      37.865  23.795  26.045  1.00  0.00     0.202 C 
BRANCH   4   5
ATOM      5  C   UNL A   1      36.507  23.240  26.500  1.00  0.00     0.261 C 
BRANCH   5   6
ATOM      6  O   UNL A   1      35.541  22.970  25.502  1.00  0.00    -0.463 OA
BRANCH   6   7
ATOM      7  C   UNL A   1      34.366  22.429  25.897  1.00  0.00     0.314 C 
ATOM      8  O   UNL A   1      34.233  21.488  26.663  1.00  0.00    -0.252 OA
BRANCH   7   9
ATOM      9  C   UNL A   1      33.256  23.167  25.193  1.00  0.00     0.154 C 
ATOM     10  N   UNL A   1      32.746  23.885  22.947  1.00  0.00    -0.326 N 
ATOM     11  C   UNL A   1      31.357  23.393  23.054  1.00  0.00     0.262 C 
ATOM     12  C   UNL A   1      33.597  23.003  23.735  1.00  0.00     0.278 C 
ATOM     13  H   UNL A   1      32.808  24.830  23.328  1.00  0.00     0.348 HD
ATOM     14  C   UNL A   1      30.865  23.393  24.516  1.00  0.00     0.062 C 
ATOM     15  C   UNL A   1      31.837  22.702  25.479  1.00  0.00     0.027 C 
BRANCH  10  16
ATOM     16  C   UNL A   1      33.193  24.049  21.541  1.00  0.00     0.363 C 
BRANCH  16  17
ATOM     17  C   UNL A   1      32.825  25.384  20.861  1.00  0.00     0.279 C 
ATOM     18  N   UNL A   1      32.463  26.528  21.527  1.00  0.00    -0.321 N 
ATOM     19  H   UNL A   1      32.229  27.275  20.930  1.00  0.00     0.170 HD
ATOM     20  O   UNL A   1      32.936  25.481  19.630  1.00  0.00    -0.268 OA
BRANCH  18  21
ATOM     21  C   UNL A   1      32.359  26.844  22.896  1.00  0.00     0.044 A 
ATOM     22  C   UNL A   1      32.362  27.200  27.202  1.00  0.00     0.047 C 
ATOM     23  C   UNL A   1      32.383  27.147  25.705  1.00  0.00    -0.015 A 
ATOM     24  C   UNL A   1      33.579  27.171  24.987  1.00  0.00     0.008 A 
ATOM     25  C   UNL A   1      31.188  27.030  24.994  1.00  0.00     0.128 A 
ATOM     26  C   UNL A   1      33.565  27.041  23.592  1.00  0.00     0.026 A 
ATOM     27  C   UNL A   1      31.166  26.878  23.607  1.00  0.00     0.065 A 
ATOM     28  F   UNL A   1      30.020  27.043  25.654  1.00  0.00    -0.207 F 
ENDBRANCH  18  21
ENDBRANCH  16  17
ENDBRANCH  10  16
ENDBRANCH   7   9
ENDBRANCH   6   7
ENDBRANCH   5   6
ENDBRANCH   4   5
ENDBRANCH   3   4
ENDBRANCH   2   3
ENDBRANCH   1   2
BRANCH   1  29
ATOM     29  O   UNL A   1      40.743  20.412  27.620  1.00  0.00    -0.377 OA
BRANCH  29  30
ATOM     30  C   UNL A   1      41.977  19.783  27.288  1.00  0.00     0.188 C 
BRANCH  30  31
ATOM     31  C   UNL A   1      42.294  19.449  25.812  1.00  0.00     0.188 C 
BRANCH  31  32
ATOM     32  O   UNL A   1      43.464  20.073  25.306  1.00  0.00    -0.376 OA
BRANCH  32  33
ATOM     33  C   UNL A   1      43.742  21.427  25.605  1.00  0.00     0.202 C 
BRANCH  33  34
ATOM     34  C   UNL A   1      44.070  22.357  24.429  1.00  0.00     0.261 C 
BRANCH  34  35
ATOM     35  O   UNL A   1      43.593  23.703  24.549  1.00  0.00    -0.460 OA
BRANCH  35  36
ATOM     36  C   UNL A   1      44.432  24.604  25.100  1.00  0.00     0.338 C 
ATOM     37  O   UNL A   1      45.566  24.876  24.740  1.00  0.00    -0.246 OA
BRANCH  36  38
ATOM     38  C   UNL A   1      43.670  25.367  26.106  1.00  0.00     0.060 A 
ATOM     39  C   UNL A   1      43.844  26.755  26.177  1.00  0.00     0.016 A 
ATOM     40  C   UNL A   1      42.786  24.716  26.970  1.00  0.00     0.016 A 
ATOM     41  C   UNL A   1      43.158  27.493  27.139  1.00  0.00     0.010 A 
ATOM     42  C   UNL A   1      42.121  25.452  27.951  1.00  0.00     0.010 A 
ATOM     43  C   UNL A   1      42.332  26.838  28.061  1.00  0.00    -0.014 A 
BRANCH  43  44
ATOM     44  C   UNL A   1      41.851  27.574  29.251  1.00  0.00     0.031 A 
ATOM     45  C   UNL A   1      40.540  28.306  29.156  1.00  0.00     0.074 A 
ATOM     46  C   UNL A   1      42.539  27.560  30.404  1.00  0.00     0.049 A 
ATOM     47  N   UNL A   1      39.924  29.026  30.058  1.00  0.00    -0.248 NA
ATOM     48  C   UNL A   1      39.828  28.211  27.869  1.00  0.00     0.031 C 
ATOM     49  C   UNL A   1      43.793  26.845  30.636  1.00  0.00     0.029 A 
ATOM     50  N   UNL A   1      42.272  28.172  31.602  1.00  0.00    -0.354 N 
ATOM     51  C   UNL A   1      38.758  29.473  29.448  1.00  0.00     0.074 A 
ATOM     52  C   UNL A   1      38.767  28.972  28.091  1.00  0.00     0.031 C 
ATOM     53  C   UNL A   1      44.190  27.062  31.902  1.00  0.00     0.029 A 
ATOM     54  C   UNL A   1      43.237  27.959  32.555  1.00  0.00     0.049 A 
ATOM     55  H   UNL A   1      41.464  28.711  31.764  1.00  0.00     0.167 HD
ATOM     56  C   UNL A   1      37.765  30.230  29.972  1.00  0.00     0.031 A 
ATOM     57  C   UNL A   1      43.348  28.452  33.804  1.00  0.00     0.031 A 
ATOM     58  C   UNL A   1      37.767  30.745  31.315  1.00  0.00     0.049 A 
ATOM     59  C   UNL A   1      42.274  29.369  34.332  1.00  0.00     0.074 A 
ATOM     60  C   UNL A   1      36.805  31.515  31.943  1.00  0.00     0.029 A 
ATOM     61  N   UNL A   1      38.789  30.553  32.231  1.00  0.00    -0.354 N 
ATOM     62  N   UNL A   1      41.163  29.763  33.757  1.00  0.00    -0.248 NA
ATOM     63  C   UNL A   1      42.469  29.901  35.688  1.00  0.00     0.031 C 
ATOM     64  C   UNL A   1      37.275  31.844  33.218  1.00  0.00     0.029 A 
ATOM     65  C   UNL A   1      38.496  31.218  33.410  1.00  0.00     0.049 A 
ATOM     66  H   UNL A   1      39.602  30.022  32.069  1.00  0.00     0.167 HD
ATOM     67  C   UNL A   1      40.514  30.563  34.691  1.00  0.00     0.074 A 
ATOM     68  C   UNL A   1      41.346  30.578  35.877  1.00  0.00     0.031 C 
ATOM     69  C   UNL A   1      39.337  31.227  34.580  1.00  0.00     0.031 A 
BRANCH  56  70
ATOM     70  C   UNL A   1      36.612  30.580  29.073  1.00  0.00    -0.014 A 
ATOM     71  C   UNL A   1      36.347  31.909  28.704  1.00  0.00     0.009 A 
ATOM     72  C   UNL A   1      35.797  29.559  28.558  1.00  0.00     0.009 A 
ATOM     73  C   UNL A   1      35.271  32.209  27.865  1.00  0.00     0.001 A 
ATOM     74  C   UNL A   1      34.743  29.859  27.695  1.00  0.00     0.001 A 
ATOM     75  C   UNL A   1      34.475  31.183  27.355  1.00  0.00     0.000 A 
ENDBRANCH  56  70
BRANCH  57  76
ATOM     76  C   UNL A   1      44.532  28.118  34.641  1.00  0.00    -0.014 A 
ATOM     77  C   UNL A   1      45.696  28.899  34.584  1.00  0.00     0.009 A 
ATOM     78  C   UNL A   1      44.517  26.989  35.474  1.00  0.00     0.009 A 
ATOM     79  C   UNL A   1      46.830  28.538  35.316  1.00  0.00     0.001 A 
ATOM     80  C   UNL A   1      45.638  26.650  36.233  1.00  0.00     0.001 A 
ATOM     81  C   UNL A   1      46.797  27.416  36.143  1.00  0.00     0.000 A 
ENDBRANCH  57  76
BRANCH  69  82
ATOM     82  C   UNL A   1      38.862  31.994  35.785  1.00  0.00    -0.014 A 
ATOM     83  C   UNL A   1      38.094  31.384  36.789  1.00  0.00     0.009 A 
ATOM     84  C   UNL A   1      39.214  33.346  35.929  1.00  0.00     0.009 A 
ATOM     85  C   UNL A   1      37.648  32.124  37.887  1.00  0.00     0.001 A 
ATOM     86  C   UNL A   1      38.798  34.074  37.046  1.00  0.00     0.001 A 
ATOM     87  C   UNL A   1      38.004  33.465  38.016  1.00  0.00     0.000 A 
ENDBRANCH  69  82
ENDBRANCH  43  44
ENDBRANCH  36  38
ENDBRANCH  35  36
ENDBRANCH  34  35
ENDBRANCH  33  34
ENDBRANCH  32  33
ENDBRANCH  31  32
ENDBRANCH  30  31
ENDBRANCH  29  30
ENDBRANCH   1  29
TORSDOF 23
ENDMDL
