MODEL 1
REMARK VINA RESULT:      -9.2      0.000      0.000
REMARK SMILES CO[C@H]1C[C@@H](C(=O)OCCOCCOCCOCCOC(=O)c2ccc(-c3c4nc(c(-c5ccccc5)c5ccc([nH]5)c(-c5ccccc5)c5nc(c(-c6ccccc6)c6ccc3[nH]6)C=C5)C=C4)cc2)N(C(=O)c2cc(SC)ccc2C)C1
REMARK SMILES IDX 13 1 12 2 11 3 10 4 9 5 8 6 6 7 7 8 5 9 3 10 4 11 83 12
REMARK SMILES IDX 71 13 2 14 1 15 72 16 73 17 74 18 75 19 81 20 76 21 80 22
REMARK SMILES IDX 82 23 79 24 77 25 78 26 14 27 15 28 16 29 17 30 18 31 19 32
REMARK SMILES IDX 20 33 21 34 22 35 23 36 24 37 70 38 25 39 69 40 26 41 27 42
REMARK SMILES IDX 28 43 63 44 29 45 68 46 62 47 64 48 30 49 67 50 61 51 60 52
REMARK SMILES IDX 31 54 53 55 38 56 52 57 39 58 42 59 51 60 65 61 40 62 41 63
REMARK SMILES IDX 50 65 66 66 43 67 32 68 33 69 37 70 34 71 36 72 35 73 54 74
REMARK SMILES IDX 55 75 59 76 56 77 58 78 57 79 44 80 45 81 49 82 46 83 48 84
REMARK SMILES IDX 47 85
REMARK H PARENT 64 53 42 64
REMARK Flexibility Score: inf
ROOT
ATOM      1  C   UNL A   1      39.002  23.270  26.476  1.00  0.00     0.188 C 
ENDROOT
BRANCH   1   2
ATOM      2  C   UNL A   1      37.596  23.776  26.226  1.00  0.00     0.188 C 
BRANCH   2   3
ATOM      3  O   UNL A   1      36.627  22.793  25.911  1.00  0.00    -0.376 OA
BRANCH   3   4
ATOM      4  C   UNL A   1      35.264  23.108  26.208  1.00  0.00     0.202 C 
BRANCH   4   5
ATOM      5  C   UNL A   1      34.406  22.237  27.159  1.00  0.00     0.261 C 
BRANCH   5   6
ATOM      6  O   UNL A   1      33.096  21.886  26.680  1.00  0.00    -0.462 OA
BRANCH   6   7
ATOM      7  C   UNL A   1      32.127  22.834  26.771  1.00  0.00     0.329 C 
ATOM      8  O   UNL A   1      31.912  23.462  27.797  1.00  0.00    -0.250 OA
BRANCH   7   9
ATOM      9  C   UNL A   1      31.393  23.076  25.416  1.00  0.00     0.198 C 
ATOM     10  C   UNL A   1      31.597  23.171  22.951  1.00  0.00     0.140 C 
ATOM     11  C   UNL A   1      32.129  22.449  24.193  1.00  0.00     0.071 C 
ATOM     12  C   UNL A   1      30.938  24.442  23.491  1.00  0.00     0.152 C 
ATOM     13  N   UNL A   1      31.108  24.456  24.938  1.00  0.00    -0.322 N 
BRANCH  10  14
ATOM     14  O   UNL A   1      32.642  23.569  22.057  1.00  0.00    -0.380 OA
ATOM     15  C   UNL A   1      32.823  24.971  21.925  1.00  0.00     0.195 C 
ENDBRANCH  10  14
BRANCH  13  16
ATOM     16  C   UNL A   1      30.571  25.566  25.597  1.00  0.00     0.254 C 
ATOM     17  O   UNL A   1      29.636  25.472  26.393  1.00  0.00    -0.269 OA
BRANCH  16  18
ATOM     18  C   UNL A   1      30.955  26.935  25.191  1.00  0.00     0.044 A 
ATOM     19  C   UNL A   1      30.219  27.591  24.200  1.00  0.00     0.029 A 
ATOM     20  C   UNL A   1      32.147  27.516  25.662  1.00  0.00    -0.038 A 
ATOM     21  C   UNL A   1      30.564  28.895  23.810  1.00  0.00     0.008 A 
ATOM     22  C   UNL A   1      32.412  28.857  25.367  1.00  0.00     0.005 A 
ATOM     23  C   UNL A   1      33.250  26.747  26.325  1.00  0.00     0.045 C 
ATOM     24  C   UNL A   1      31.603  29.551  24.476  1.00  0.00     0.015 A 
BRANCH  21  25
ATOM     25  S   UNL A   1      29.684  29.646  22.446  1.00  0.00    -0.130 SA
ATOM     26  C   UNL A   1      27.988  29.045  22.721  1.00  0.00     0.091 C 
ENDBRANCH  21  25
ENDBRANCH  16  18
ENDBRANCH  13  16
ENDBRANCH   7   9
ENDBRANCH   6   7
ENDBRANCH   5   6
ENDBRANCH   4   5
ENDBRANCH   3   4
ENDBRANCH   2   3
ENDBRANCH   1   2
BRANCH   1  27
ATOM     27  O   UNL A   1      39.370  22.125  25.739  1.00  0.00    -0.377 OA
BRANCH  27  28
ATOM     28  C   UNL A   1      39.888  21.042  26.497  1.00  0.00     0.188 C 
BRANCH  28  29
ATOM     29  C   UNL A   1      41.152  21.308  27.332  1.00  0.00     0.188 C 
BRANCH  29  30
ATOM     30  O   UNL A   1      42.302  20.500  27.084  1.00  0.00    -0.376 OA
BRANCH  30  31
ATOM     31  C   UNL A   1      42.769  20.438  25.741  1.00  0.00     0.202 C 
BRANCH  31  32
ATOM     32  C   UNL A   1      43.651  21.636  25.365  1.00  0.00     0.261 C 
BRANCH  32  33
ATOM     33  O   UNL A   1      42.989  22.891  25.555  1.00  0.00    -0.460 OA
BRANCH  33  34
ATOM     34  C   UNL A   1      43.802  23.973  25.412  1.00  0.00     0.338 C 
ATOM     35  O   UNL A   1      44.427  24.310  24.435  1.00  0.00    -0.246 OA
BRANCH  34  36
ATOM     36  C   UNL A   1      43.704  24.797  26.636  1.00  0.00     0.060 A 
ATOM     37  C   UNL A   1      43.264  24.174  27.814  1.00  0.00     0.016 A 
ATOM     38  C   UNL A   1      44.074  26.145  26.638  1.00  0.00     0.016 A 
ATOM     39  C   UNL A   1      43.086  24.929  28.969  1.00  0.00     0.010 A 
ATOM     40  C   UNL A   1      43.874  26.908  27.788  1.00  0.00     0.010 A 
ATOM     41  C   UNL A   1      43.304  26.313  28.927  1.00  0.00    -0.014 A 
BRANCH  41  42
ATOM     42  C   UNL A   1      42.586  27.150  29.913  1.00  0.00     0.031 A 
ATOM     43  C   UNL A   1      43.234  27.310  31.266  1.00  0.00     0.074 A 
ATOM     44  C   UNL A   1      41.467  27.824  29.596  1.00  0.00     0.049 A 
ATOM     45  N   UNL A   1      42.854  28.027  32.292  1.00  0.00    -0.248 NA
ATOM     46  C   UNL A   1      44.488  26.566  31.487  1.00  0.00     0.031 C 
ATOM     47  C   UNL A   1      40.788  27.790  28.302  1.00  0.00     0.029 A 
ATOM     48  N   UNL A   1      40.716  28.687  30.351  1.00  0.00    -0.354 N 
ATOM     49  C   UNL A   1      43.830  27.828  33.264  1.00  0.00     0.074 A 
ATOM     50  C   UNL A   1      44.787  26.888  32.734  1.00  0.00     0.031 C 
ATOM     51  C   UNL A   1      39.718  28.603  28.354  1.00  0.00     0.029 A 
ATOM     52  C   UNL A   1      39.626  29.193  29.688  1.00  0.00     0.049 A 
ATOM     53  H   UNL A   1      40.938  28.924  31.281  1.00  0.00     0.167 HD
ATOM     54  C   UNL A   1      43.933  28.396  34.486  1.00  0.00     0.031 A 
ATOM     55  C   UNL A   1      38.664  30.030  30.123  1.00  0.00     0.031 A 
ATOM     56  C   UNL A   1      42.971  29.316  35.021  1.00  0.00     0.049 A 
ATOM     57  C   UNL A   1      38.751  30.567  31.530  1.00  0.00     0.074 A 
ATOM     58  C   UNL A   1      42.959  29.930  36.259  1.00  0.00     0.029 A 
ATOM     59  N   UNL A   1      41.848  29.755  34.338  1.00  0.00    -0.354 N 
ATOM     60  N   UNL A   1      39.681  30.381  32.436  1.00  0.00    -0.248 NA
ATOM     61  C   UNL A   1      37.658  31.448  31.967  1.00  0.00     0.031 C 
ATOM     62  C   UNL A   1      41.798  30.704  36.345  1.00  0.00     0.029 A 
ATOM     63  C   UNL A   1      41.123  30.620  35.137  1.00  0.00     0.049 A 
ATOM     64  H   UNL A   1      41.602  29.489  33.422  1.00  0.00     0.167 HD
ATOM     65  C   UNL A   1      39.303  31.146  33.534  1.00  0.00     0.074 A 
ATOM     66  C   UNL A   1      38.074  31.819  33.168  1.00  0.00     0.031 C 
ATOM     67  C   UNL A   1      39.908  31.279  34.740  1.00  0.00     0.031 A 
BRANCH  54  68
ATOM     68  C   UNL A   1      45.120  28.019  35.326  1.00  0.00    -0.014 A 
ATOM     69  C   UNL A   1      46.336  28.716  35.218  1.00  0.00     0.009 A 
ATOM     70  C   UNL A   1      45.016  26.975  36.257  1.00  0.00     0.009 A 
ATOM     71  C   UNL A   1      47.428  28.358  36.012  1.00  0.00     0.001 A 
ATOM     72  C   UNL A   1      46.100  26.639  37.069  1.00  0.00     0.001 A 
ATOM     73  C   UNL A   1      47.306  27.327  36.942  1.00  0.00     0.000 A 
ENDBRANCH  54  68
BRANCH  55  74
ATOM     74  C   UNL A   1      37.515  30.393  29.249  1.00  0.00    -0.014 A 
ATOM     75  C   UNL A   1      37.374  31.693  28.739  1.00  0.00     0.009 A 
ATOM     76  C   UNL A   1      36.506  29.452  28.982  1.00  0.00     0.009 A 
ATOM     77  C   UNL A   1      36.227  32.057  28.026  1.00  0.00     0.001 A 
ATOM     78  C   UNL A   1      35.379  29.807  28.238  1.00  0.00     0.001 A 
ATOM     79  C   UNL A   1      35.232  31.113  27.776  1.00  0.00     0.000 A 
ENDBRANCH  55  74
BRANCH  67  80
ATOM     80  C   UNL A   1      39.270  32.220  35.724  1.00  0.00    -0.014 A 
ATOM     81  C   UNL A   1      39.602  33.583  35.755  1.00  0.00     0.009 A 
ATOM     82  C   UNL A   1      38.302  31.733  36.618  1.00  0.00     0.009 A 
ATOM     83  C   UNL A   1      39.016  34.430  36.697  1.00  0.00     0.001 A 
ATOM     84  C   UNL A   1      37.691  32.591  37.533  1.00  0.00     0.001 A 
ATOM     85  C   UNL A   1      38.059  33.934  37.582  1.00  0.00     0.000 A 
ENDBRANCH  67  80
ENDBRANCH  41  42
ENDBRANCH  34  36
ENDBRANCH  33  34
ENDBRANCH  32  33
ENDBRANCH  31  32
ENDBRANCH  30  31
ENDBRANCH  29  30
ENDBRANCH  28  29
ENDBRANCH  27  28
ENDBRANCH   1  27
TORSDOF 24
ENDMDL
MODEL 2
REMARK VINA RESULT:      -9.2      3.779      5.188
REMARK SMILES CO[C@H]1C[C@@H](C(=O)OCCOCCOCCOCCOC(=O)c2ccc(-c3c4nc(c(-c5ccccc5)c5ccc([nH]5)c(-c5ccccc5)c5nc(c(-c6ccccc6)c6ccc3[nH]6)C=C5)C=C4)cc2)N(C(=O)c2cc(SC)ccc2C)C1
REMARK SMILES IDX 13 1 12 2 11 3 10 4 9 5 8 6 6 7 7 8 5 9 3 10 4 11 83 12
REMARK SMILES IDX 71 13 2 14 1 15 72 16 73 17 74 18 75 19 81 20 76 21 80 22
REMARK SMILES IDX 82 23 79 24 77 25 78 26 14 27 15 28 16 29 17 30 18 31 19 32
REMARK SMILES IDX 20 33 21 34 22 35 23 36 24 37 70 38 25 39 69 40 26 41 27 42
REMARK SMILES IDX 28 43 63 44 29 45 68 46 62 47 64 48 30 49 67 50 61 51 60 52
REMARK SMILES IDX 31 54 53 55 38 56 52 57 39 58 42 59 51 60 65 61 40 62 41 63
REMARK SMILES IDX 50 65 66 66 43 67 32 68 33 69 37 70 34 71 36 72 35 73 54 74
REMARK SMILES IDX 55 75 59 76 56 77 58 78 57 79 44 80 45 81 49 82 46 83 48 84
REMARK SMILES IDX 47 85
REMARK H PARENT 64 53 42 64
REMARK Flexibility Score: inf
ROOT
ATOM      1  C   UNL A   1      40.387  21.942  26.194  1.00  0.00     0.188 C 
ENDROOT
BRANCH   1   2
ATOM      2  C   UNL A   1      39.333  22.963  26.567  1.00  0.00     0.188 C 
BRANCH   2   3
ATOM      3  O   UNL A   1      37.999  22.640  26.218  1.00  0.00    -0.376 OA
BRANCH   3   4
ATOM      4  C   UNL A   1      37.276  23.608  25.452  1.00  0.00     0.202 C 
BRANCH   4   5
ATOM      5  C   UNL A   1      35.829  24.027  25.812  1.00  0.00     0.261 C 
BRANCH   5   6
ATOM      6  O   UNL A   1      35.089  24.687  24.770  1.00  0.00    -0.462 OA
BRANCH   6   7
ATOM      7  C   UNL A   1      33.914  25.273  25.120  1.00  0.00     0.329 C 
ATOM      8  O   UNL A   1      33.798  25.981  26.109  1.00  0.00    -0.250 OA
BRANCH   7   9
ATOM      9  C   UNL A   1      32.778  25.008  24.084  1.00  0.00     0.198 C 
ATOM     10  C   UNL A   1      30.897  25.972  22.798  1.00  0.00     0.140 C 
ATOM     11  C   UNL A   1      32.281  26.300  23.367  1.00  0.00     0.071 C 
ATOM     12  C   UNL A   1      30.453  24.715  23.548  1.00  0.00     0.152 C 
ATOM     13  N   UNL A   1      31.501  24.366  24.499  1.00  0.00    -0.322 N 
BRANCH  10  14
ATOM     14  O   UNL A   1      29.936  27.000  23.066  1.00  0.00    -0.380 OA
ATOM     15  C   UNL A   1      28.814  26.593  23.835  1.00  0.00     0.195 C 
ENDBRANCH  10  14
BRANCH  13  16
ATOM     16  C   UNL A   1      31.251  23.238  25.285  1.00  0.00     0.254 C 
ATOM     17  O   UNL A   1      30.417  23.236  26.190  1.00  0.00    -0.269 OA
BRANCH  16  18
ATOM     18  C   UNL A   1      32.145  22.063  25.213  1.00  0.00     0.044 A 
ATOM     19  C   UNL A   1      31.942  21.102  24.217  1.00  0.00     0.029 A 
ATOM     20  C   UNL A   1      33.083  21.810  26.232  1.00  0.00    -0.038 A 
ATOM     21  C   UNL A   1      32.787  19.985  24.129  1.00  0.00     0.008 A 
ATOM     22  C   UNL A   1      34.001  20.768  26.066  1.00  0.00     0.005 A 
ATOM     23  C   UNL A   1      33.064  22.477  27.574  1.00  0.00     0.045 C 
ATOM     24  C   UNL A   1      33.875  19.886  25.000  1.00  0.00     0.015 A 
BRANCH  21  25
ATOM     25  S   UNL A   1      32.411  18.714  22.928  1.00  0.00    -0.130 SA
ATOM     26  C   UNL A   1      33.529  17.373  23.441  1.00  0.00     0.091 C 
ENDBRANCH  21  25
ENDBRANCH  16  18
ENDBRANCH  13  16
ENDBRANCH   7   9
ENDBRANCH   6   7
ENDBRANCH   5   6
ENDBRANCH   4   5
ENDBRANCH   3   4
ENDBRANCH   2   3
ENDBRANCH   1   2
BRANCH   1  27
ATOM     27  O   UNL A   1      39.890  20.715  25.705  1.00  0.00    -0.377 OA
BRANCH  27  28
ATOM     28  C   UNL A   1      40.603  19.555  26.107  1.00  0.00     0.188 C 
BRANCH  28  29
ATOM     29  C   UNL A   1      41.712  19.739  27.157  1.00  0.00     0.188 C 
BRANCH  29  30
ATOM     30  O   UNL A   1      42.960  19.082  26.937  1.00  0.00    -0.376 OA
BRANCH  30  31
ATOM     31  C   UNL A   1      43.202  18.581  25.626  1.00  0.00     0.202 C 
BRANCH  31  32
ATOM     32  C   UNL A   1      44.460  19.181  24.985  1.00  0.00     0.261 C 
BRANCH  32  33
ATOM     33  O   UNL A   1      44.256  20.517  24.513  1.00  0.00    -0.460 OA
BRANCH  33  34
ATOM     34  C   UNL A   1      45.195  21.404  24.941  1.00  0.00     0.338 C 
ATOM     35  O   UNL A   1      46.388  21.374  24.752  1.00  0.00    -0.246 OA
BRANCH  34  36
ATOM     36  C   UNL A   1      44.504  22.542  25.588  1.00  0.00     0.060 A 
ATOM     37  C   UNL A   1      44.289  23.699  24.823  1.00  0.00     0.016 A 
ATOM     38  C   UNL A   1      44.044  22.460  26.905  1.00  0.00     0.016 A 
ATOM     39  C   UNL A   1      43.711  24.818  25.414  1.00  0.00     0.010 A 
ATOM     40  C   UNL A   1      43.485  23.589  27.505  1.00  0.00     0.010 A 
ATOM     41  C   UNL A   1      43.395  24.789  26.779  1.00  0.00    -0.014 A 
BRANCH  41  42
ATOM     42  C   UNL A   1      43.346  26.082  27.498  1.00  0.00     0.031 A 
ATOM     43  C   UNL A   1      44.671  26.705  27.862  1.00  0.00     0.074 A 
ATOM     44  C   UNL A   1      42.190  26.727  27.728  1.00  0.00     0.049 A 
ATOM     45  N   UNL A   1      44.921  27.851  28.440  1.00  0.00    -0.248 NA
ATOM     46  C   UNL A   1      45.879  25.934  27.515  1.00  0.00     0.031 C 
ATOM     47  C   UNL A   1      40.858  26.245  27.367  1.00  0.00     0.029 A 
ATOM     48  N   UNL A   1      41.963  27.946  28.312  1.00  0.00    -0.354 N 
ATOM     49  C   UNL A   1      46.308  27.937  28.508  1.00  0.00     0.074 A 
ATOM     50  C   UNL A   1      46.847  26.714  27.967  1.00  0.00     0.031 C 
ATOM     51  C   UNL A   1      39.950  27.166  27.737  1.00  0.00     0.029 A 
ATOM     52  C   UNL A   1      40.635  28.287  28.379  1.00  0.00     0.049 A 
ATOM     53  H   UNL A   1      42.684  28.524  28.651  1.00  0.00     0.167 HD
ATOM     54  C   UNL A   1      47.071  28.956  28.963  1.00  0.00     0.031 A 
ATOM     55  C   UNL A   1      40.050  29.378  28.910  1.00  0.00     0.031 A 
ATOM     56  C   UNL A   1      46.536  30.164  29.521  1.00  0.00     0.049 A 
ATOM     57  C   UNL A   1      40.925  30.454  29.504  1.00  0.00     0.074 A 
ATOM     58  C   UNL A   1      47.214  31.250  30.041  1.00  0.00     0.029 A 
ATOM     59  N   UNL A   1      45.182  30.442  29.625  1.00  0.00    -0.354 N 
ATOM     60  N   UNL A   1      42.234  30.529  29.555  1.00  0.00    -0.248 NA
ATOM     61  C   UNL A   1      40.236  31.607  30.101  1.00  0.00     0.031 C 
ATOM     62  C   UNL A   1      46.268  32.167  30.508  1.00  0.00     0.029 A 
ATOM     63  C   UNL A   1      45.003  31.678  30.219  1.00  0.00     0.049 A 
ATOM     64  H   UNL A   1      44.457  29.848  29.323  1.00  0.00     0.167 HD
ATOM     65  C   UNL A   1      42.523  31.748  30.157  1.00  0.00     0.074 A 
ATOM     66  C   UNL A   1      41.253  32.390  30.427  1.00  0.00     0.031 C 
ATOM     67  C   UNL A   1      43.726  32.292  30.468  1.00  0.00     0.031 A 
BRANCH  54  68
ATOM     68  C   UNL A   1      48.562  28.790  28.890  1.00  0.00    -0.014 A 
ATOM     69  C   UNL A   1      49.266  28.112  29.900  1.00  0.00     0.009 A 
ATOM     70  C   UNL A   1      49.270  29.292  27.788  1.00  0.00     0.009 A 
ATOM     71  C   UNL A   1      50.652  27.959  29.814  1.00  0.00     0.001 A 
ATOM     72  C   UNL A   1      50.651  29.112  27.692  1.00  0.00     0.001 A 
ATOM     73  C   UNL A   1      51.341  28.451  28.707  1.00  0.00     0.000 A 
ENDBRANCH  54  68
BRANCH  55  74
ATOM     74  C   UNL A   1      38.568  29.510  28.943  1.00  0.00    -0.014 A 
ATOM     75  C   UNL A   1      37.858  30.001  27.835  1.00  0.00     0.009 A 
ATOM     76  C   UNL A   1      37.860  29.215  30.119  1.00  0.00     0.009 A 
ATOM     77  C   UNL A   1      36.483  30.241  27.922  1.00  0.00     0.001 A 
ATOM     78  C   UNL A   1      36.480  29.421  30.191  1.00  0.00     0.001 A 
ATOM     79  C   UNL A   1      35.796  29.950  29.099  1.00  0.00     0.000 A 
ENDBRANCH  55  74
BRANCH  67  80
ATOM     80  C   UNL A   1      43.717  33.660  31.089  1.00  0.00    -0.014 A 
ATOM     81  C   UNL A   1      43.724  34.822  30.302  1.00  0.00     0.009 A 
ATOM     82  C   UNL A   1      43.677  33.785  32.487  1.00  0.00     0.009 A 
ATOM     83  C   UNL A   1      43.744  36.081  30.903  1.00  0.00     0.001 A 
ATOM     84  C   UNL A   1      43.659  35.045  33.085  1.00  0.00     0.001 A 
ATOM     85  C   UNL A   1      43.708  36.192  32.294  1.00  0.00     0.000 A 
ENDBRANCH  67  80
ENDBRANCH  41  42
ENDBRANCH  34  36
ENDBRANCH  33  34
ENDBRANCH  32  33
ENDBRANCH  31  32
ENDBRANCH  30  31
ENDBRANCH  29  30
ENDBRANCH  28  29
ENDBRANCH  27  28
ENDBRANCH   1  27
TORSDOF 24
ENDMDL
MODEL 3
REMARK VINA RESULT:      -9.1      4.485      6.732
REMARK SMILES CO[C@H]1C[C@@H](C(=O)OCCOCCOCCOCCOC(=O)c2ccc(-c3c4nc(c(-c5ccccc5)c5ccc([nH]5)c(-c5ccccc5)c5nc(c(-c6ccccc6)c6ccc3[nH]6)C=C5)C=C4)cc2)N(C(=O)c2cc(SC)ccc2C)C1
REMARK SMILES IDX 13 1 12 2 11 3 10 4 9 5 8 6 6 7 7 8 5 9 3 10 4 11 83 12
REMARK SMILES IDX 71 13 2 14 1 15 72 16 73 17 74 18 75 19 81 20 76 21 80 22
REMARK SMILES IDX 82 23 79 24 77 25 78 26 14 27 15 28 16 29 17 30 18 31 19 32
REMARK SMILES IDX 20 33 21 34 22 35 23 36 24 37 70 38 25 39 69 40 26 41 27 42
REMARK SMILES IDX 28 43 63 44 29 45 68 46 62 47 64 48 30 49 67 50 61 51 60 52
REMARK SMILES IDX 31 54 53 55 38 56 52 57 39 58 42 59 51 60 65 61 40 62 41 63
REMARK SMILES IDX 50 65 66 66 43 67 32 68 33 69 37 70 34 71 36 72 35 73 54 74
REMARK SMILES IDX 55 75 59 76 56 77 58 78 57 79 44 80 45 81 49 82 46 83 48 84
REMARK SMILES IDX 47 85
REMARK H PARENT 64 53 42 64
REMARK Flexibility Score: inf
ROOT
ATOM      1  C   UNL A   1      37.361  22.779  24.608  1.00  0.00     0.188 C 
ENDROOT
BRANCH   1   2
ATOM      2  C   UNL A   1      35.866  22.904  24.406  1.00  0.00     0.188 C 
BRANCH   2   3
ATOM      3  O   UNL A   1      35.058  22.011  25.152  1.00  0.00    -0.376 OA
BRANCH   3   4
ATOM      4  C   UNL A   1      33.844  22.535  25.697  1.00  0.00     0.202 C 
BRANCH   4   5
ATOM      5  C   UNL A   1      33.441  24.021  25.527  1.00  0.00     0.261 C 
BRANCH   5   6
ATOM      6  O   UNL A   1      32.532  24.542  26.513  1.00  0.00    -0.462 OA
BRANCH   6   7
ATOM      7  C   UNL A   1      31.836  25.662  26.185  1.00  0.00     0.329 C 
ATOM      8  O   UNL A   1      30.655  25.810  26.459  1.00  0.00    -0.250 OA
BRANCH   7   9
ATOM      9  C   UNL A   1      32.728  26.747  25.505  1.00  0.00     0.198 C 
ATOM     10  C   UNL A   1      33.827  28.952  25.738  1.00  0.00     0.140 C 
ATOM     11  C   UNL A   1      33.429  27.697  26.523  1.00  0.00     0.071 C 
ATOM     12  C   UNL A   1      32.990  28.895  24.459  1.00  0.00     0.152 C 
ATOM     13  N   UNL A   1      32.152  27.705  24.524  1.00  0.00    -0.322 N 
BRANCH  10  14
ATOM     14  O   UNL A   1      33.489  30.160  26.426  1.00  0.00    -0.380 OA
ATOM     15  C   UNL A   1      32.240  30.143  27.101  1.00  0.00     0.195 C 
ENDBRANCH  10  14
BRANCH  13  16
ATOM     16  C   UNL A   1      31.304  27.504  23.431  1.00  0.00     0.254 C 
ATOM     17  O   UNL A   1      31.665  26.907  22.417  1.00  0.00    -0.269 OA
BRANCH  16  18
ATOM     18  C   UNL A   1      30.004  28.204  23.354  1.00  0.00     0.044 A 
ATOM     19  C   UNL A   1      29.975  29.602  23.321  1.00  0.00     0.029 A 
ATOM     20  C   UNL A   1      28.796  27.494  23.488  1.00  0.00    -0.038 A 
ATOM     21  C   UNL A   1      28.750  30.282  23.238  1.00  0.00     0.008 A 
ATOM     22  C   UNL A   1      27.587  28.164  23.277  1.00  0.00     0.005 A 
ATOM     23  C   UNL A   1      28.701  26.093  24.012  1.00  0.00     0.045 C 
ATOM     24  C   UNL A   1      27.570  29.544  23.115  1.00  0.00     0.015 A 
BRANCH  21  25
ATOM     25  S   UNL A   1      28.750  32.068  23.335  1.00  0.00    -0.130 SA
ATOM     26  C   UNL A   1      28.311  32.534  21.631  1.00  0.00     0.091 C 
ENDBRANCH  21  25
ENDBRANCH  16  18
ENDBRANCH  13  16
ENDBRANCH   7   9
ENDBRANCH   6   7
ENDBRANCH   5   6
ENDBRANCH   4   5
ENDBRANCH   3   4
ENDBRANCH   2   3
ENDBRANCH   1   2
BRANCH   1  27
ATOM     27  O   UNL A   1      37.755  22.070  25.763  1.00  0.00    -0.377 OA
BRANCH  27  28
ATOM     28  C   UNL A   1      38.864  22.606  26.469  1.00  0.00     0.188 C 
BRANCH  28  29
ATOM     29  C   UNL A   1      40.252  22.027  26.146  1.00  0.00     0.188 C 
BRANCH  29  30
ATOM     30  O   UNL A   1      40.416  20.610  26.190  1.00  0.00    -0.376 OA
BRANCH  30  31
ATOM     31  C   UNL A   1      41.631  20.119  26.744  1.00  0.00     0.202 C 
BRANCH  31  32
ATOM     32  C   UNL A   1      42.456  19.306  25.739  1.00  0.00     0.261 C 
BRANCH  32  33
ATOM     33  O   UNL A   1      43.852  19.623  25.785  1.00  0.00    -0.460 OA
BRANCH  33  34
ATOM     34  C   UNL A   1      44.341  20.139  24.624  1.00  0.00     0.338 C 
ATOM     35  O   UNL A   1      44.236  19.689  23.508  1.00  0.00    -0.246 OA
BRANCH  34  36
ATOM     36  C   UNL A   1      44.931  21.464  24.913  1.00  0.00     0.060 A 
ATOM     37  C   UNL A   1      45.541  21.653  26.163  1.00  0.00     0.016 A 
ATOM     38  C   UNL A   1      44.920  22.489  23.962  1.00  0.00     0.016 A 
ATOM     39  C   UNL A   1      46.041  22.905  26.504  1.00  0.00     0.010 A 
ATOM     40  C   UNL A   1      45.400  23.751  24.312  1.00  0.00     0.010 A 
ATOM     41  C   UNL A   1      45.886  23.975  25.612  1.00  0.00    -0.014 A 
BRANCH  41  42
ATOM     42  C   UNL A   1      45.873  25.342  26.176  1.00  0.00     0.031 A 
ATOM     43  C   UNL A   1      47.181  26.094  26.162  1.00  0.00     0.074 A 
ATOM     44  C   UNL A   1      44.739  25.934  26.587  1.00  0.00     0.049 A 
ATOM     45  N   UNL A   1      47.442  27.319  26.539  1.00  0.00    -0.248 NA
ATOM     46  C   UNL A   1      48.353  25.366  25.641  1.00  0.00     0.031 C 
ATOM     47  C   UNL A   1      43.411  25.323  26.589  1.00  0.00     0.029 A 
ATOM     48  N   UNL A   1      44.531  27.200  27.068  1.00  0.00    -0.354 N 
ATOM     49  C   UNL A   1      48.798  27.504  26.285  1.00  0.00     0.074 A 
ATOM     50  C   UNL A   1      49.319  26.259  25.775  1.00  0.00     0.031 C 
ATOM     51  C   UNL A   1      42.521  26.222  27.048  1.00  0.00     0.029 A 
ATOM     52  C   UNL A   1      43.222  27.458  27.392  1.00  0.00     0.049 A 
ATOM     53  H   UNL A   1      45.251  27.864  27.170  1.00  0.00     0.167 HD
ATOM     54  C   UNL A   1      49.543  28.621  26.441  1.00  0.00     0.031 A 
ATOM     55  C   UNL A   1      42.666  28.568  27.917  1.00  0.00     0.031 A 
ATOM     56  C   UNL A   1      49.030  29.853  26.968  1.00  0.00     0.049 A 
ATOM     57  C   UNL A   1      43.544  29.766  28.177  1.00  0.00     0.074 A 
ATOM     58  C   UNL A   1      49.701  31.039  27.199  1.00  0.00     0.029 A 
ATOM     59  N   UNL A   1      47.710  30.052  27.342  1.00  0.00    -0.354 N 
ATOM     60  N   UNL A   1      44.820  29.934  27.924  1.00  0.00    -0.248 NA
ATOM     61  C   UNL A   1      42.895  30.939  28.782  1.00  0.00     0.031 C 
ATOM     62  C   UNL A   1      48.795  31.944  27.762  1.00  0.00     0.029 A 
ATOM     63  C   UNL A   1      47.549  31.339  27.820  1.00  0.00     0.049 A 
ATOM     64  H   UNL A   1      46.995  29.378  27.278  1.00  0.00     0.167 HD
ATOM     65  C   UNL A   1      45.117  31.236  28.308  1.00  0.00     0.074 A 
ATOM     66  C   UNL A   1      43.882  31.822  28.783  1.00  0.00     0.031 C 
ATOM     67  C   UNL A   1      46.304  31.894  28.279  1.00  0.00     0.031 A 
BRANCH  54  68
ATOM     68  C   UNL A   1      50.993  28.546  26.055  1.00  0.00    -0.014 A 
ATOM     69  C   UNL A   1      51.415  28.883  24.758  1.00  0.00     0.009 A 
ATOM     70  C   UNL A   1      51.952  28.162  27.004  1.00  0.00     0.009 A 
ATOM     71  C   UNL A   1      52.767  28.816  24.416  1.00  0.00     0.001 A 
ATOM     72  C   UNL A   1      53.305  28.124  26.666  1.00  0.00     0.001 A 
ATOM     73  C   UNL A   1      53.711  28.445  25.372  1.00  0.00     0.000 A 
ENDBRANCH  54  68
BRANCH  55  74
ATOM     74  C   UNL A   1      41.219  28.604  28.267  1.00  0.00    -0.014 A 
ATOM     75  C   UNL A   1      40.757  28.099  29.492  1.00  0.00     0.009 A 
ATOM     76  C   UNL A   1      40.280  29.077  27.336  1.00  0.00     0.009 A 
ATOM     77  C   UNL A   1      39.386  28.021  29.757  1.00  0.00     0.001 A 
ATOM     78  C   UNL A   1      38.913  29.032  27.618  1.00  0.00     0.001 A 
ATOM     79  C   UNL A   1      38.466  28.488  28.820  1.00  0.00     0.000 A 
ENDBRANCH  55  74
BRANCH  67  80
ATOM     80  C   UNL A   1      46.302  33.327  28.731  1.00  0.00    -0.014 A 
ATOM     81  C   UNL A   1      46.188  34.384  27.815  1.00  0.00     0.009 A 
ATOM     82  C   UNL A   1      46.390  33.620  30.102  1.00  0.00     0.009 A 
ATOM     83  C   UNL A   1      46.217  35.707  28.257  1.00  0.00     0.001 A 
ATOM     84  C   UNL A   1      46.381  34.943  30.544  1.00  0.00     0.001 A 
ATOM     85  C   UNL A   1      46.310  35.986  29.621  1.00  0.00     0.000 A 
ENDBRANCH  67  80
ENDBRANCH  41  42
ENDBRANCH  34  36
ENDBRANCH  33  34
ENDBRANCH  32  33
ENDBRANCH  31  32
ENDBRANCH  30  31
ENDBRANCH  29  30
ENDBRANCH  28  29
ENDBRANCH  27  28
ENDBRANCH   1  27
TORSDOF 24
ENDMDL
