MODEL 1
REMARK VINA RESULT:      -9.2      0.000      0.000
REMARK SMILES CC(C)[NH2+][C@]1(C(=O)OCCOCCOCCOCCOC(=O)c2ccc(-c3c4nc(c(-c5ccccc5)c5ccc([nH]5)c(-c5ccccc5)c5nc(c(-c6ccccc6)c6ccc3[nH]6)C=C5)C=C4)cc2)CC[C@H]([N@H+](C)C2CCCC2)C1
REMARK SMILES IDX 14 1 13 2 12 3 11 4 10 5 9 6 8 7 6 8 7 9 5 10 71 11 81 12
REMARK SMILES IDX 72 13 73 14 4 15 2 18 1 19 3 20 74 21 75 22 76 24 77 25
REMARK SMILES IDX 80 26 78 27 79 28 15 29 16 30 17 31 18 32 19 33 20 34 21 35
REMARK SMILES IDX 22 36 23 37 24 38 70 39 25 40 69 41 26 42 27 43 28 44 63 45
REMARK SMILES IDX 29 46 68 47 62 48 64 49 30 50 67 51 61 52 60 53 31 55 53 56
REMARK SMILES IDX 38 57 52 58 39 59 42 60 51 61 65 62 40 63 41 64 50 66 66 67
REMARK SMILES IDX 43 68 32 69 33 70 37 71 34 72 36 73 35 74 54 75 55 76 59 77
REMARK SMILES IDX 56 78 58 79 57 80 44 81 45 82 49 83 46 84 48 85 47 86
REMARK H PARENT 4 16 4 17 74 23 64 54 42 65
REMARK Flexibility Score: inf
ROOT
ATOM      1  O   UNL A   1      34.258  31.602  27.294  1.00  0.00    -0.377 OA
ENDROOT
BRANCH   1   2
ATOM      2  C   UNL A   1      32.948  31.069  27.236  1.00  0.00     0.188 C 
BRANCH   2   3
ATOM      3  C   UNL A   1      32.679  30.002  26.150  1.00  0.00     0.188 C 
BRANCH   3   4
ATOM      4  O   UNL A   1      32.478  28.641  26.499  1.00  0.00    -0.376 OA
BRANCH   4   5
ATOM      5  C   UNL A   1      31.621  27.842  25.709  1.00  0.00     0.202 C 
BRANCH   5   6
ATOM      6  C   UNL A   1      31.024  26.561  26.317  1.00  0.00     0.261 C 
BRANCH   6   7
ATOM      7  O   UNL A   1      31.927  25.458  26.562  1.00  0.00    -0.459 OA
BRANCH   7   8
ATOM      8  C   UNL A   1      31.488  24.239  26.142  1.00  0.00     0.368 C 
ATOM      9  O   UNL A   1      30.297  23.991  25.963  1.00  0.00    -0.245 OA
BRANCH   8  10
ATOM     10  C   UNL A   1      32.622  23.184  25.838  1.00  0.00     0.200 C 
ATOM     11  C   UNL A   1      33.456  22.674  27.010  1.00  0.00     0.087 C 
ATOM     12  C   UNL A   1      31.768  21.919  25.574  1.00  0.00     0.146 C 
ATOM     13  C   UNL A   1      33.696  21.169  26.742  1.00  0.00     0.072 C 
ATOM     14  C   UNL A   1      32.674  20.701  25.663  1.00  0.00     0.191 C 
BRANCH  10  15
ATOM     15  N   UNL A   1      33.366  23.532  24.605  1.00  0.00    -0.330 N 
ATOM     16  H   UNL A   1      34.099  24.168  24.919  1.00  0.00     0.347 HD
ATOM     17  H   UNL A   1      33.523  22.587  24.253  1.00  0.00     0.347 HD
BRANCH  15  18
ATOM     18  C   UNL A   1      32.855  24.137  23.379  1.00  0.00     0.176 C 
ATOM     19  C   UNL A   1      33.173  25.620  23.165  1.00  0.00     0.075 C 
ATOM     20  C   UNL A   1      33.500  23.433  22.166  1.00  0.00     0.075 C 
ENDBRANCH  15  18
ENDBRANCH  10  15
BRANCH  14  21
ATOM     21  N   UNL A   1      33.128  20.011  24.426  1.00  0.00    -0.332 N 
ATOM     22  C   UNL A   1      32.285  20.300  23.271  1.00  0.00     0.333 C 
ATOM     23  H   UNL A   1      34.028  20.465  24.273  1.00  0.00     0.348 HD
BRANCH  21  24
ATOM     24  C   UNL A   1      33.600  18.622  24.507  1.00  0.00     0.184 C 
ATOM     25  C   UNL A   1      32.925  17.692  25.541  1.00  0.00     0.065 C 
ATOM     26  C   UNL A   1      33.416  17.738  23.258  1.00  0.00     0.065 C 
ATOM     27  C   UNL A   1      33.490  16.306  25.215  1.00  0.00     0.006 C 
ATOM     28  C   UNL A   1      33.871  16.361  23.739  1.00  0.00     0.006 C 
ENDBRANCH  21  24
ENDBRANCH  14  21
ENDBRANCH   8  10
ENDBRANCH   7   8
ENDBRANCH   6   7
ENDBRANCH   5   6
ENDBRANCH   4   5
ENDBRANCH   3   4
ENDBRANCH   2   3
ENDBRANCH   1   2
BRANCH   1  29
ATOM     29  C   UNL A   1      34.613  32.063  28.591  1.00  0.00     0.188 C 
BRANCH  29  30
ATOM     30  C   UNL A   1      34.185  33.503  28.828  1.00  0.00     0.188 C 
BRANCH  30  31
ATOM     31  O   UNL A   1      34.917  34.238  29.805  1.00  0.00    -0.376 OA
BRANCH  31  32
ATOM     32  C   UNL A   1      34.338  34.161  31.115  1.00  0.00     0.202 C 
BRANCH  32  33
ATOM     33  C   UNL A   1      34.708  32.926  31.970  1.00  0.00     0.261 C 
BRANCH  33  34
ATOM     34  O   UNL A   1      35.732  33.106  32.971  1.00  0.00    -0.460 OA
BRANCH  34  35
ATOM     35  C   UNL A   1      36.845  33.812  32.636  1.00  0.00     0.338 C 
ATOM     36  O   UNL A   1      37.168  34.898  33.048  1.00  0.00    -0.246 OA
BRANCH  35  37
ATOM     37  C   UNL A   1      37.759  32.866  31.929  1.00  0.00     0.060 A 
ATOM     38  C   UNL A   1      38.490  31.943  32.698  1.00  0.00     0.016 A 
ATOM     39  C   UNL A   1      37.812  32.811  30.536  1.00  0.00     0.016 A 
ATOM     40  C   UNL A   1      39.283  30.975  32.081  1.00  0.00     0.010 A 
ATOM     41  C   UNL A   1      38.648  31.879  29.918  1.00  0.00     0.010 A 
ATOM     42  C   UNL A   1      39.414  30.985  30.689  1.00  0.00    -0.014 A 
BRANCH  42  43
ATOM     43  C   UNL A   1      40.581  30.328  30.060  1.00  0.00     0.031 A 
ATOM     44  C   UNL A   1      41.810  31.175  29.878  1.00  0.00     0.074 A 
ATOM     45  C   UNL A   1      40.555  29.056  29.628  1.00  0.00     0.049 A 
ATOM     46  N   UNL A   1      42.911  30.919  29.223  1.00  0.00    -0.248 NA
ATOM     47  C   UNL A   1      41.778  32.506  30.510  1.00  0.00     0.031 C 
ATOM     48  C   UNL A   1      39.450  28.117  29.805  1.00  0.00     0.029 A 
ATOM     49  N   UNL A   1      41.496  28.348  28.921  1.00  0.00    -0.354 N 
ATOM     50  C   UNL A   1      43.686  32.066  29.343  1.00  0.00     0.074 A 
ATOM     51  C   UNL A   1      42.928  33.022  30.114  1.00  0.00     0.031 C 
ATOM     52  C   UNL A   1      39.764  26.961  29.190  1.00  0.00     0.029 A 
ATOM     53  C   UNL A   1      41.070  27.099  28.543  1.00  0.00     0.049 A 
ATOM     54  H   UNL A   1      42.389  28.702  28.707  1.00  0.00     0.167 HD
ATOM     55  C   UNL A   1      44.918  32.309  28.842  1.00  0.00     0.031 A 
ATOM     56  C   UNL A   1      41.653  26.193  27.733  1.00  0.00     0.031 A 
ATOM     57  C   UNL A   1      45.653  31.366  28.048  1.00  0.00     0.049 A 
ATOM     58  C   UNL A   1      42.993  26.510  27.115  1.00  0.00     0.074 A 
ATOM     59  C   UNL A   1      46.914  31.501  27.499  1.00  0.00     0.029 A 
ATOM     60  N   UNL A   1      45.180  30.116  27.678  1.00  0.00    -0.354 N 
ATOM     61  N   UNL A   1      43.730  27.588  27.245  1.00  0.00    -0.248 NA
ATOM     62  C   UNL A   1      43.582  25.486  26.239  1.00  0.00     0.031 C 
ATOM     63  C   UNL A   1      47.176  30.357  26.739  1.00  0.00     0.029 A 
ATOM     64  C   UNL A   1      46.112  29.480  26.881  1.00  0.00     0.049 A 
ATOM     65  H   UNL A   1      44.309  29.739  27.944  1.00  0.00     0.167 HD
ATOM     66  C   UNL A   1      44.883  27.356  26.503  1.00  0.00     0.074 A 
ATOM     67  C   UNL A   1      44.748  26.035  25.923  1.00  0.00     0.031 C 
ATOM     68  C   UNL A   1      45.961  28.159  26.324  1.00  0.00     0.031 A 
BRANCH  55  69
ATOM     69  C   UNL A   1      45.502  33.672  29.085  1.00  0.00    -0.014 A 
ATOM     70  C   UNL A   1      46.408  33.910  30.131  1.00  0.00     0.009 A 
ATOM     71  C   UNL A   1      45.124  34.740  28.258  1.00  0.00     0.009 A 
ATOM     72  C   UNL A   1      46.887  35.200  30.370  1.00  0.00     0.001 A 
ATOM     73  C   UNL A   1      45.633  36.021  28.477  1.00  0.00     0.001 A 
ATOM     74  C   UNL A   1      46.503  36.253  29.540  1.00  0.00     0.000 A 
ENDBRANCH  55  69
BRANCH  56  75
ATOM     75  C   UNL A   1      40.960  24.912  27.432  1.00  0.00    -0.014 A 
ATOM     76  C   UNL A   1      41.315  23.728  28.096  1.00  0.00     0.009 A 
ATOM     77  C   UNL A   1      39.931  24.866  26.477  1.00  0.00     0.009 A 
ATOM     78  C   UNL A   1      40.666  22.525  27.800  1.00  0.00     0.001 A 
ATOM     79  C   UNL A   1      39.265  23.669  26.203  1.00  0.00     0.001 A 
ATOM     80  C   UNL A   1      39.638  22.498  26.861  1.00  0.00     0.000 A 
ENDBRANCH  56  75
BRANCH  68  81
ATOM     81  C   UNL A   1      47.114  27.622  25.523  1.00  0.00    -0.014 A 
ATOM     82  C   UNL A   1      48.125  26.850  26.112  1.00  0.00     0.009 A 
ATOM     83  C   UNL A   1      47.125  27.813  24.130  1.00  0.00     0.009 A 
ATOM     84  C   UNL A   1      49.136  26.295  25.323  1.00  0.00     0.001 A 
ATOM     85  C   UNL A   1      48.118  27.232  23.342  1.00  0.00     0.001 A 
ATOM     86  C   UNL A   1      49.126  26.478  23.940  1.00  0.00     0.000 A 
ENDBRANCH  68  81
ENDBRANCH  42  43
ENDBRANCH  35  37
ENDBRANCH  34  35
ENDBRANCH  33  34
ENDBRANCH  32  33
ENDBRANCH  31  32
ENDBRANCH  30  31
ENDBRANCH  29  30
ENDBRANCH   1  29
TORSDOF 24
ENDMDL
MODEL 2
REMARK VINA RESULT:      -9.1      3.079      8.875
REMARK SMILES CC(C)[NH2+][C@]1(C(=O)OCCOCCOCCOCCOC(=O)c2ccc(-c3c4nc(c(-c5ccccc5)c5ccc([nH]5)c(-c5ccccc5)c5nc(c(-c6ccccc6)c6ccc3[nH]6)C=C5)C=C4)cc2)CC[C@H]([N@H+](C)C2CCCC2)C1
REMARK SMILES IDX 14 1 13 2 12 3 11 4 10 5 9 6 8 7 6 8 7 9 5 10 71 11 81 12
REMARK SMILES IDX 72 13 73 14 4 15 2 18 1 19 3 20 74 21 75 22 76 24 77 25
REMARK SMILES IDX 80 26 78 27 79 28 15 29 16 30 17 31 18 32 19 33 20 34 21 35
REMARK SMILES IDX 22 36 23 37 24 38 70 39 25 40 69 41 26 42 27 43 28 44 63 45
REMARK SMILES IDX 29 46 68 47 62 48 64 49 30 50 67 51 61 52 60 53 31 55 53 56
REMARK SMILES IDX 38 57 52 58 39 59 42 60 51 61 65 62 40 63 41 64 50 66 66 67
REMARK SMILES IDX 43 68 32 69 33 70 37 71 34 72 36 73 35 74 54 75 55 76 59 77
REMARK SMILES IDX 56 78 58 79 57 80 44 81 45 82 49 83 46 84 48 85 47 86
REMARK H PARENT 4 16 4 17 74 23 64 54 42 65
REMARK Flexibility Score: inf
ROOT
ATOM      1  O   UNL A   1      34.946  22.173  26.963  1.00  0.00    -0.377 OA
ENDROOT
BRANCH   1   2
ATOM      2  C   UNL A   1      33.693  21.990  27.595  1.00  0.00     0.188 C 
BRANCH   2   3
ATOM      3  C   UNL A   1      32.727  23.196  27.586  1.00  0.00     0.188 C 
BRANCH   3   4
ATOM      4  O   UNL A   1      31.325  23.008  27.475  1.00  0.00    -0.376 OA
BRANCH   4   5
ATOM      5  C   UNL A   1      30.619  23.652  26.433  1.00  0.00     0.202 C 
BRANCH   5   6
ATOM      6  C   UNL A   1      31.301  24.798  25.666  1.00  0.00     0.261 C 
BRANCH   6   7
ATOM      7  O   UNL A   1      31.038  26.148  26.112  1.00  0.00    -0.459 OA
BRANCH   7   8
ATOM      8  C   UNL A   1      30.741  27.041  25.129  1.00  0.00     0.368 C 
ATOM      9  O   UNL A   1      29.802  26.880  24.351  1.00  0.00    -0.245 OA
BRANCH   8  10
ATOM     10  C   UNL A   1      31.647  28.333  25.097  1.00  0.00     0.200 C 
ATOM     11  C   UNL A   1      30.959  29.684  24.919  1.00  0.00     0.087 C 
ATOM     12  C   UNL A   1      32.032  28.448  26.593  1.00  0.00     0.146 C 
ATOM     13  C   UNL A   1      31.720  30.676  25.830  1.00  0.00     0.072 C 
ATOM     14  C   UNL A   1      32.565  29.849  26.847  1.00  0.00     0.191 C 
BRANCH  10  15
ATOM     15  N   UNL A   1      32.874  28.112  24.297  1.00  0.00    -0.330 N 
ATOM     16  H   UNL A   1      33.553  28.767  24.682  1.00  0.00     0.347 HD
ATOM     17  H   UNL A   1      32.927  27.096  24.383  1.00  0.00     0.347 HD
BRANCH  15  18
ATOM     18  C   UNL A   1      33.043  28.215  22.851  1.00  0.00     0.176 C 
ATOM     19  C   UNL A   1      34.446  28.567  22.350  1.00  0.00     0.075 C 
ATOM     20  C   UNL A   1      32.747  26.841  22.212  1.00  0.00     0.075 C 
ENDBRANCH  15  18
ENDBRANCH  10  15
BRANCH  14  21
ATOM     21  N   UNL A   1      34.026  30.081  26.996  1.00  0.00    -0.332 N 
ATOM     22  C   UNL A   1      34.714  28.974  27.651  1.00  0.00     0.333 C 
ATOM     23  H   UNL A   1      34.319  30.092  26.019  1.00  0.00     0.348 HD
BRANCH  21  24
ATOM     24  C   UNL A   1      34.509  31.415  27.379  1.00  0.00     0.184 C 
ATOM     25  C   UNL A   1      33.893  32.070  28.636  1.00  0.00     0.065 C 
ATOM     26  C   UNL A   1      35.995  31.544  27.765  1.00  0.00     0.065 C 
ATOM     27  C   UNL A   1      34.753  33.316  28.862  1.00  0.00     0.006 C 
ATOM     28  C   UNL A   1      36.105  32.995  28.233  1.00  0.00     0.006 C 
ENDBRANCH  21  24
ENDBRANCH  14  21
ENDBRANCH   8  10
ENDBRANCH   7   8
ENDBRANCH   6   7
ENDBRANCH   5   6
ENDBRANCH   4   5
ENDBRANCH   3   4
ENDBRANCH   2   3
ENDBRANCH   1   2
BRANCH   1  29
ATOM     29  C   UNL A   1      34.949  23.249  26.036  1.00  0.00     0.188 C 
BRANCH  29  30
ATOM     30  C   UNL A   1      35.024  22.769  24.595  1.00  0.00     0.188 C 
BRANCH  30  31
ATOM     31  O   UNL A   1      35.708  21.540  24.362  1.00  0.00    -0.376 OA
BRANCH  31  32
ATOM     32  C   UNL A   1      37.132  21.695  24.290  1.00  0.00     0.202 C 
BRANCH  32  33
ATOM     33  C   UNL A   1      37.960  21.081  25.443  1.00  0.00     0.261 C 
BRANCH  33  34
ATOM     34  O   UNL A   1      39.352  21.453  25.519  1.00  0.00    -0.460 OA
BRANCH  34  35
ATOM     35  C   UNL A   1      39.984  21.349  26.718  1.00  0.00     0.338 C 
ATOM     36  O   UNL A   1      40.463  20.354  27.203  1.00  0.00    -0.246 OA
BRANCH  35  37
ATOM     37  C   UNL A   1      40.273  22.741  27.175  1.00  0.00     0.060 A 
ATOM     38  C   UNL A   1      39.408  23.772  26.768  1.00  0.00     0.016 A 
ATOM     39  C   UNL A   1      41.306  23.011  28.074  1.00  0.00     0.016 A 
ATOM     40  C   UNL A   1      39.578  25.071  27.245  1.00  0.00     0.010 A 
ATOM     41  C   UNL A   1      41.512  24.321  28.509  1.00  0.00     0.010 A 
ATOM     42  C   UNL A   1      40.671  25.360  28.066  1.00  0.00    -0.014 A 
BRANCH  42  43
ATOM     43  C   UNL A   1      41.152  26.756  28.180  1.00  0.00     0.031 A 
ATOM     44  C   UNL A   1      42.462  27.070  27.514  1.00  0.00     0.074 A 
ATOM     45  C   UNL A   1      40.491  27.699  28.872  1.00  0.00     0.049 A 
ATOM     46  N   UNL A   1      43.195  28.150  27.581  1.00  0.00    -0.248 NA
ATOM     47  C   UNL A   1      43.031  26.005  26.668  1.00  0.00     0.031 C 
ATOM     48  C   UNL A   1      39.185  27.535  29.505  1.00  0.00     0.029 A 
ATOM     49  N   UNL A   1      40.860  28.987  29.175  1.00  0.00    -0.354 N 
ATOM     50  C   UNL A   1      44.320  27.879  26.811  1.00  0.00     0.074 A 
ATOM     51  C   UNL A   1      44.184  26.536  26.302  1.00  0.00     0.031 C 
ATOM     52  C   UNL A   1      38.874  28.673  30.153  1.00  0.00     0.029 A 
ATOM     53  C   UNL A   1      39.979  29.624  30.014  1.00  0.00     0.049 A 
ATOM     54  H   UNL A   1      41.675  29.412  28.825  1.00  0.00     0.167 HD
ATOM     55  C   UNL A   1      45.384  28.676  26.560  1.00  0.00     0.031 A 
ATOM     56  C   UNL A   1      40.078  30.819  30.629  1.00  0.00     0.031 A 
ATOM     57  C   UNL A   1      45.528  30.000  27.096  1.00  0.00     0.049 A 
ATOM     58  C   UNL A   1      41.307  31.664  30.404  1.00  0.00     0.074 A 
ATOM     59  C   UNL A   1      46.557  30.901  26.899  1.00  0.00     0.029 A 
ATOM     60  N   UNL A   1      44.618  30.602  27.952  1.00  0.00    -0.354 N 
ATOM     61  N   UNL A   1      42.360  31.413  29.661  1.00  0.00    -0.248 NA
ATOM     62  C   UNL A   1      41.363  32.959  31.100  1.00  0.00     0.031 C 
ATOM     63  C   UNL A   1      46.302  32.025  27.689  1.00  0.00     0.029 A 
ATOM     64  C   UNL A   1      45.077  31.854  28.316  1.00  0.00     0.049 A 
ATOM     65  H   UNL A   1      43.772  30.199  28.254  1.00  0.00     0.167 HD
ATOM     66  C   UNL A   1      43.182  32.530  29.770  1.00  0.00     0.074 A 
ATOM     67  C   UNL A   1      42.506  33.461  30.651  1.00  0.00     0.031 C 
ATOM     68  C   UNL A   1      44.382  32.769  29.186  1.00  0.00     0.031 A 
BRANCH  55  69
ATOM     69  C   UNL A   1      46.493  28.099  25.727  1.00  0.00    -0.014 A 
ATOM     70  C   UNL A   1      46.497  28.206  24.327  1.00  0.00     0.009 A 
ATOM     71  C   UNL A   1      47.548  27.423  26.359  1.00  0.00     0.009 A 
ATOM     72  C   UNL A   1      47.510  27.607  23.576  1.00  0.00     0.001 A 
ATOM     73  C   UNL A   1      48.579  26.857  25.608  1.00  0.00     0.001 A 
ATOM     74  C   UNL A   1      48.552  26.937  24.217  1.00  0.00     0.000 A 
ENDBRANCH  55  69
BRANCH  56  75
ATOM     75  C   UNL A   1      38.997  31.276  31.542  1.00  0.00    -0.014 A 
ATOM     76  C   UNL A   1      37.929  32.050  31.064  1.00  0.00     0.009 A 
ATOM     77  C   UNL A   1      39.024  30.935  32.905  1.00  0.00     0.009 A 
ATOM     78  C   UNL A   1      36.922  32.485  31.931  1.00  0.00     0.001 A 
ATOM     79  C   UNL A   1      38.003  31.346  33.764  1.00  0.00     0.001 A 
ATOM     80  C   UNL A   1      36.955  32.126  33.278  1.00  0.00     0.000 A 
ENDBRANCH  56  75
BRANCH  68  81
ATOM     81  C   UNL A   1      45.025  34.107  29.420  1.00  0.00    -0.014 A 
ATOM     82  C   UNL A   1      45.956  34.308  30.449  1.00  0.00     0.009 A 
ATOM     83  C   UNL A   1      44.764  35.157  28.521  1.00  0.00     0.009 A 
ATOM     84  C   UNL A   1      46.597  35.542  30.585  1.00  0.00     0.001 A 
ATOM     85  C   UNL A   1      45.430  36.376  28.642  1.00  0.00     0.001 A 
ATOM     86  C   UNL A   1      46.343  36.569  29.677  1.00  0.00     0.000 A 
ENDBRANCH  68  81
ENDBRANCH  42  43
ENDBRANCH  35  37
ENDBRANCH  34  35
ENDBRANCH  33  34
ENDBRANCH  32  33
ENDBRANCH  31  32
ENDBRANCH  30  31
ENDBRANCH  29  30
ENDBRANCH   1  29
TORSDOF 24
ENDMDL
MODEL 3
REMARK VINA RESULT:      -9.1      3.492      9.054
REMARK SMILES CC(C)[NH2+][C@]1(C(=O)OCCOCCOCCOCCOC(=O)c2ccc(-c3c4nc(c(-c5ccccc5)c5ccc([nH]5)c(-c5ccccc5)c5nc(c(-c6ccccc6)c6ccc3[nH]6)C=C5)C=C4)cc2)CC[C@H]([N@H+](C)C2CCCC2)C1
REMARK SMILES IDX 14 1 13 2 12 3 11 4 10 5 9 6 8 7 6 8 7 9 5 10 71 11 81 12
REMARK SMILES IDX 72 13 73 14 4 15 2 18 1 19 3 20 74 21 75 22 76 24 77 25
REMARK SMILES IDX 80 26 78 27 79 28 15 29 16 30 17 31 18 32 19 33 20 34 21 35
REMARK SMILES IDX 22 36 23 37 24 38 70 39 25 40 69 41 26 42 27 43 28 44 63 45
REMARK SMILES IDX 29 46 68 47 62 48 64 49 30 50 67 51 61 52 60 53 31 55 53 56
REMARK SMILES IDX 38 57 52 58 39 59 42 60 51 61 65 62 40 63 41 64 50 66 66 67
REMARK SMILES IDX 43 68 32 69 33 70 37 71 34 72 36 73 35 74 54 75 55 76 59 77
REMARK SMILES IDX 56 78 58 79 57 80 44 81 45 82 49 83 46 84 48 85 47 86
REMARK H PARENT 4 16 4 17 74 23 64 54 42 65
REMARK Flexibility Score: inf
ROOT
ATOM      1  O   UNL A   1      35.350  21.803  26.805  1.00  0.00    -0.377 OA
ENDROOT
BRANCH   1   2
ATOM      2  C   UNL A   1      33.966  21.809  27.104  1.00  0.00     0.188 C 
BRANCH   2   3
ATOM      3  C   UNL A   1      33.019  22.337  26.002  1.00  0.00     0.188 C 
BRANCH   3   4
ATOM      4  O   UNL A   1      32.177  21.454  25.278  1.00  0.00    -0.376 OA
BRANCH   4   5
ATOM      5  C   UNL A   1      31.856  21.748  23.934  1.00  0.00     0.202 C 
BRANCH   5   6
ATOM      6  C   UNL A   1      32.685  22.802  23.181  1.00  0.00     0.261 C 
BRANCH   6   7
ATOM      7  O   UNL A   1      32.072  24.091  22.950  1.00  0.00    -0.459 OA
BRANCH   7   8
ATOM      8  C   UNL A   1      32.935  25.108  22.678  1.00  0.00     0.368 C 
ATOM      9  O   UNL A   1      33.948  24.952  21.999  1.00  0.00    -0.245 OA
BRANCH   8  10
ATOM     10  C   UNL A   1      32.511  26.520  23.242  1.00  0.00     0.200 C 
ATOM     11  C   UNL A   1      33.488  27.681  23.070  1.00  0.00     0.087 C 
ATOM     12  C   UNL A   1      31.446  26.935  22.197  1.00  0.00     0.146 C 
ATOM     13  C   UNL A   1      32.623  28.924  22.752  1.00  0.00     0.072 C 
ATOM     14  C   UNL A   1      31.207  28.432  22.323  1.00  0.00     0.191 C 
BRANCH  10  15
ATOM     15  N   UNL A   1      31.864  26.398  24.570  1.00  0.00    -0.330 N 
ATOM     16  H   UNL A   1      30.953  26.839  24.453  1.00  0.00     0.347 HD
ATOM     17  H   UNL A   1      32.016  25.400  24.719  1.00  0.00     0.347 HD
BRANCH  15  18
ATOM     18  C   UNL A   1      32.345  26.884  25.859  1.00  0.00     0.176 C 
ATOM     19  C   UNL A   1      31.601  28.080  26.459  1.00  0.00     0.075 C 
ATOM     20  C   UNL A   1      32.177  25.767  26.911  1.00  0.00     0.075 C 
ENDBRANCH  15  18
ENDBRANCH  10  15
BRANCH  14  21
ATOM     21  N   UNL A   1      29.983  28.942  22.995  1.00  0.00    -0.332 N 
ATOM     22  C   UNL A   1      28.940  27.929  23.124  1.00  0.00     0.333 C 
ATOM     23  H   UNL A   1      30.344  29.135  23.929  1.00  0.00     0.348 HD
BRANCH  21  24
ATOM     24  C   UNL A   1      29.492  30.289  22.674  1.00  0.00     0.184 C 
ATOM     25  C   UNL A   1      28.706  30.473  21.356  1.00  0.00     0.065 C 
ATOM     26  C   UNL A   1      28.464  30.915  23.637  1.00  0.00     0.065 C 
ATOM     27  C   UNL A   1      28.173  31.906  21.442  1.00  0.00     0.006 C 
ATOM     28  C   UNL A   1      28.078  32.215  22.933  1.00  0.00     0.006 C 
ENDBRANCH  21  24
ENDBRANCH  14  21
ENDBRANCH   8  10
ENDBRANCH   7   8
ENDBRANCH   6   7
ENDBRANCH   5   6
ENDBRANCH   4   5
ENDBRANCH   3   4
ENDBRANCH   2   3
ENDBRANCH   1   2
BRANCH   1  29
ATOM     29  C   UNL A   1      35.645  22.355  25.529  1.00  0.00     0.188 C 
BRANCH  29  30
ATOM     30  C   UNL A   1      36.246  21.329  24.581  1.00  0.00     0.188 C 
BRANCH  30  31
ATOM     31  O   UNL A   1      36.819  20.166  25.173  1.00  0.00    -0.376 OA
BRANCH  31  32
ATOM     32  C   UNL A   1      38.192  19.968  24.807  1.00  0.00     0.202 C 
BRANCH  32  33
ATOM     33  C   UNL A   1      39.179  19.640  25.952  1.00  0.00     0.261 C 
BRANCH  33  34
ATOM     34  O   UNL A   1      40.585  19.678  25.633  1.00  0.00    -0.460 OA
BRANCH  34  35
ATOM     35  C   UNL A   1      41.474  19.828  26.651  1.00  0.00     0.338 C 
ATOM     36  O   UNL A   1      42.289  19.024  27.029  1.00  0.00    -0.246 OA
BRANCH  35  37
ATOM     37  C   UNL A   1      41.490  21.281  26.998  1.00  0.00     0.060 A 
ATOM     38  C   UNL A   1      40.749  22.167  26.196  1.00  0.00     0.016 A 
ATOM     39  C   UNL A   1      42.126  21.746  28.149  1.00  0.00     0.016 A 
ATOM     40  C   UNL A   1      40.652  23.518  26.533  1.00  0.00     0.010 A 
ATOM     41  C   UNL A   1      42.076  23.107  28.457  1.00  0.00     0.010 A 
ATOM     42  C   UNL A   1      41.371  24.001  27.630  1.00  0.00    -0.014 A 
BRANCH  42  43
ATOM     43  C   UNL A   1      41.684  25.445  27.720  1.00  0.00     0.031 A 
ATOM     44  C   UNL A   1      42.987  25.889  27.115  1.00  0.00     0.074 A 
ATOM     45  C   UNL A   1      40.882  26.326  28.341  1.00  0.00     0.049 A 
ATOM     46  N   UNL A   1      43.588  27.046  27.183  1.00  0.00    -0.248 NA
ATOM     47  C   UNL A   1      43.720  24.871  26.339  1.00  0.00     0.031 C 
ATOM     48  C   UNL A   1      39.569  26.032  28.909  1.00  0.00     0.029 A 
ATOM     49  N   UNL A   1      41.085  27.656  28.618  1.00  0.00    -0.354 N 
ATOM     50  C   UNL A   1      44.779  26.884  26.485  1.00  0.00     0.074 A 
ATOM     51  C   UNL A   1      44.825  25.520  26.017  1.00  0.00     0.031 C 
ATOM     52  C   UNL A   1      39.095  27.146  29.498  1.00  0.00     0.029 A 
ATOM     53  C   UNL A   1      40.091  28.212  29.386  1.00  0.00     0.049 A 
ATOM     54  H   UNL A   1      41.866  28.161  28.298  1.00  0.00     0.167 HD
ATOM     55  C   UNL A   1      45.758  27.790  26.264  1.00  0.00     0.031 A 
ATOM     56  C   UNL A   1      40.019  29.428  29.962  1.00  0.00     0.031 A 
ATOM     57  C   UNL A   1      45.722  29.136  26.760  1.00  0.00     0.049 A 
ATOM     58  C   UNL A   1      41.156  30.402  29.774  1.00  0.00     0.074 A 
ATOM     59  C   UNL A   1      46.652  30.143  26.586  1.00  0.00     0.029 A 
ATOM     60  N   UNL A   1      44.702  29.655  27.543  1.00  0.00    -0.354 N 
ATOM     61  N   UNL A   1      42.272  30.251  29.099  1.00  0.00    -0.248 NA
ATOM     62  C   UNL A   1      41.026  31.714  30.426  1.00  0.00     0.031 C 
ATOM     63  C   UNL A   1      46.226  31.253  27.321  1.00  0.00     0.029 A 
ATOM     64  C   UNL A   1      44.995  30.962  27.887  1.00  0.00     0.049 A 
ATOM     65  H   UNL A   1      43.890  29.167  27.813  1.00  0.00     0.167 HD
ATOM     66  C   UNL A   1      42.954  31.457  29.212  1.00  0.00     0.074 A 
ATOM     67  C   UNL A   1      42.129  32.330  30.022  1.00  0.00     0.031 C 
ATOM     68  C   UNL A   1      44.152  31.816  28.685  1.00  0.00     0.031 A 
BRANCH  55  69
ATOM     69  C   UNL A   1      46.972  27.320  25.513  1.00  0.00    -0.014 A 
ATOM     70  C   UNL A   1      47.982  26.571  26.137  1.00  0.00     0.009 A 
ATOM     71  C   UNL A   1      47.110  27.647  24.155  1.00  0.00     0.009 A 
ATOM     72  C   UNL A   1      49.126  26.200  25.429  1.00  0.00     0.001 A 
ATOM     73  C   UNL A   1      48.239  27.244  23.440  1.00  0.00     0.001 A 
ATOM     74  C   UNL A   1      49.252  26.533  24.080  1.00  0.00     0.000 A 
ENDBRANCH  55  69
BRANCH  56  75
ATOM     75  C   UNL A   1      38.843  29.784  30.800  1.00  0.00    -0.014 A 
ATOM     76  C   UNL A   1      38.844  29.543  32.182  1.00  0.00     0.009 A 
ATOM     77  C   UNL A   1      37.707  30.373  30.219  1.00  0.00     0.009 A 
ATOM     78  C   UNL A   1      37.731  29.871  32.961  1.00  0.00     0.001 A 
ATOM     79  C   UNL A   1      36.607  30.725  31.004  1.00  0.00     0.001 A 
ATOM     80  C   UNL A   1      36.617  30.468  32.374  1.00  0.00     0.000 A 
ENDBRANCH  56  75
BRANCH  68  81
ATOM     81  C   UNL A   1      44.625  33.225  28.906  1.00  0.00    -0.014 A 
ATOM     82  C   UNL A   1      44.099  34.302  28.179  1.00  0.00     0.009 A 
ATOM     83  C   UNL A   1      45.545  33.483  29.939  1.00  0.00     0.009 A 
ATOM     84  C   UNL A   1      44.500  35.609  28.469  1.00  0.00     0.001 A 
ATOM     85  C   UNL A   1      45.918  34.791  30.246  1.00  0.00     0.001 A 
ATOM     86  C   UNL A   1      45.400  35.852  29.507  1.00  0.00     0.000 A 
ENDBRANCH  68  81
ENDBRANCH  42  43
ENDBRANCH  35  37
ENDBRANCH  34  35
ENDBRANCH  33  34
ENDBRANCH  32  33
ENDBRANCH  31  32
ENDBRANCH  30  31
ENDBRANCH  29  30
ENDBRANCH   1  29
TORSDOF 24
ENDMDL
