MODEL 1
REMARK VINA RESULT:     -10.6      0.000      0.000
REMARK SMILES CN1C(=O)/C(=C\c2ccc(-c3ccccc3C(=O)OCCOCCOCCOCCOC(=O)c3ccc(-c4c5nc(c(-c6ccccc6)c6ccc([nH]6)c(-c6ccccc6)c6nc(c(-c7ccccc7)c7ccc4[nH]7)C=C6)C=C5)cc3)o2)C(=O)[NH+]=C1S
REMARK SMILES IDX 24 1 23 2 22 3 21 4 20 5 19 6 17 7 18 8 16 9 11 10 12 11
REMARK SMILES IDX 13 12 15 13 14 14 10 15 7 16 8 17 82 18 9 19 6 20 1 21 2 22
REMARK SMILES IDX 3 23 86 24 4 25 5 26 85 27 83 28 84 30 87 31 25 33 26 34
REMARK SMILES IDX 27 35 28 36 29 37 30 38 31 39 32 40 33 41 34 42 35 43 81 44
REMARK SMILES IDX 36 45 80 46 37 47 38 48 39 49 74 50 40 51 79 52 73 53 75 54
REMARK SMILES IDX 41 55 78 56 72 57 71 58 42 60 64 61 49 62 63 63 50 64 53 65
REMARK SMILES IDX 62 66 76 67 51 68 52 69 61 71 77 72 54 73 43 74 44 75 48 76
REMARK SMILES IDX 45 77 47 78 46 79 65 80 66 81 70 82 67 83 69 84 68 85 55 86
REMARK SMILES IDX 56 87 60 88 57 89 59 90 58 91
REMARK H PARENT 85 29 87 32 75 59 53 70
REMARK Flexibility Score: inf
ROOT
ATOM      1  C   UNL A   1      40.494  21.863  27.203  1.00  0.00     0.188 C 
ENDROOT
BRANCH   1   2
ATOM      2  C   UNL A   1      39.310  22.612  26.540  1.00  0.00     0.188 C 
BRANCH   2   3
ATOM      3  O   UNL A   1      38.425  21.792  25.801  1.00  0.00    -0.376 OA
BRANCH   3   4
ATOM      4  C   UNL A   1      37.716  22.301  24.689  1.00  0.00     0.202 C 
BRANCH   4   5
ATOM      5  C   UNL A   1      36.271  21.875  24.417  1.00  0.00     0.261 C 
BRANCH   5   6
ATOM      6  O   UNL A   1      35.326  22.362  25.366  1.00  0.00    -0.460 OA
BRANCH   6   7
ATOM      7  C   UNL A   1      34.620  21.468  26.085  1.00  0.00     0.338 C 
ATOM      8  O   UNL A   1      34.445  21.489  27.291  1.00  0.00    -0.246 OA
BRANCH   7   9
ATOM      9  C   UNL A   1      33.925  20.538  25.157  1.00  0.00     0.071 A 
ATOM     10  C   UNL A   1      32.694  20.813  24.522  1.00  0.00     0.032 A 
ATOM     11  C   UNL A   1      32.151  19.820  23.685  1.00  0.00     0.013 A 
ATOM     12  C   UNL A   1      32.775  18.579  23.527  1.00  0.00     0.001 A 
ATOM     13  C   UNL A   1      34.538  19.281  25.006  1.00  0.00     0.016 A 
ATOM     14  C   UNL A   1      33.956  18.300  24.207  1.00  0.00     0.001 A 
BRANCH  10  15
ATOM     15  C   UNL A   1      31.934  22.044  24.743  1.00  0.00     0.135 A 
ATOM     16  C   UNL A   1      31.154  24.013  24.068  1.00  0.00     0.128 A 
ATOM     17  C   UNL A   1      30.501  23.678  25.248  1.00  0.00     0.051 A 
ATOM     18  O   UNL A   1      31.992  22.976  23.741  1.00  0.00    -0.457 OA
ATOM     19  C   UNL A   1      31.084  22.490  25.730  1.00  0.00     0.051 A 
BRANCH  16  20
ATOM     20  C   UNL A   1      31.045  25.221  23.329  1.00  0.00     0.071 C 
ATOM     21  C   UNL A   1      32.406  27.763  27.188  1.00  0.00     0.301 C 
ATOM     22  N   UNL A   1      31.980  27.748  25.789  1.00  0.00    -0.189 N 
ATOM     23  C   UNL A   1      32.086  26.521  25.176  1.00  0.00     0.349 C 
ATOM     24  C   UNL A   1      31.636  28.840  25.040  1.00  0.00     0.318 C 
ATOM     25  O   UNL A   1      32.746  25.610  25.669  1.00  0.00    -0.240 OA
ATOM     26  C   UNL A   1      31.400  26.404  23.869  1.00  0.00     0.157 C 
ATOM     27  N   UNL A   1      31.228  28.815  23.821  1.00  0.00    -0.200 N 
ATOM     28  C   UNL A   1      31.045  27.643  23.147  1.00  0.00     0.347 C 
ATOM     29  H   UNL A   1      31.041  29.665  23.361  1.00  0.00     0.316 HD
ATOM     30  O   UNL A   1      30.578  27.607  22.011  1.00  0.00    -0.241 OA
BRANCH  24  31
ATOM     31  S   UNL A   1      31.780  30.426  25.756  1.00  0.00    -0.055 SA
ATOM     32  H   UNL A   1      32.374  30.322  26.975  1.00  0.00     0.116 HD
ENDBRANCH  24  31
ENDBRANCH  16  20
ENDBRANCH  10  15
ENDBRANCH   7   9
ENDBRANCH   6   7
ENDBRANCH   5   6
ENDBRANCH   4   5
ENDBRANCH   3   4
ENDBRANCH   2   3
ENDBRANCH   1   2
BRANCH   1  33
ATOM     33  O   UNL A   1      40.579  20.443  27.196  1.00  0.00    -0.377 OA
BRANCH  33  34
ATOM     34  C   UNL A   1      41.843  19.796  27.211  1.00  0.00     0.188 C 
BRANCH  34  35
ATOM     35  C   UNL A   1      42.359  19.062  25.952  1.00  0.00     0.188 C 
BRANCH  35  36
ATOM     36  O   UNL A   1      42.993  19.902  25.006  1.00  0.00    -0.376 OA
BRANCH  36  37
ATOM     37  C   UNL A   1      43.801  20.960  25.489  1.00  0.00     0.202 C 
BRANCH  37  38
ATOM     38  C   UNL A   1      43.867  22.261  24.673  1.00  0.00     0.261 C 
BRANCH  38  39
ATOM     39  O   UNL A   1      43.223  23.411  25.239  1.00  0.00    -0.460 OA
BRANCH  39  40
ATOM     40  C   UNL A   1      43.945  24.548  25.335  1.00  0.00     0.338 C 
ATOM     41  O   UNL A   1      44.866  24.904  24.624  1.00  0.00    -0.246 OA
BRANCH  40  42
ATOM     42  C   UNL A   1      43.295  25.391  26.360  1.00  0.00     0.060 A 
ATOM     43  C   UNL A   1      43.756  26.698  26.567  1.00  0.00     0.016 A 
ATOM     44  C   UNL A   1      42.222  24.892  27.102  1.00  0.00     0.016 A 
ATOM     45  C   UNL A   1      43.163  27.500  27.541  1.00  0.00     0.010 A 
ATOM     46  C   UNL A   1      41.643  25.688  28.091  1.00  0.00     0.010 A 
ATOM     47  C   UNL A   1      42.132  26.983  28.337  1.00  0.00    -0.014 A 
BRANCH  47  48
ATOM     48  C   UNL A   1      41.692  27.721  29.544  1.00  0.00     0.031 A 
ATOM     49  C   UNL A   1      40.481  28.607  29.438  1.00  0.00     0.074 A 
ATOM     50  C   UNL A   1      42.339  27.594  30.715  1.00  0.00     0.049 A 
ATOM     51  N   UNL A   1      39.934  29.380  30.340  1.00  0.00    -0.248 NA
ATOM     52  C   UNL A   1      39.792  28.619  28.136  1.00  0.00     0.031 C 
ATOM     53  C   UNL A   1      43.490  26.726  30.961  1.00  0.00     0.029 A 
ATOM     54  N   UNL A   1      42.112  28.207  31.922  1.00  0.00    -0.354 N 
ATOM     55  C   UNL A   1      38.849  29.980  29.713  1.00  0.00     0.074 A 
ATOM     56  C   UNL A   1      38.825  29.500  28.348  1.00  0.00     0.031 C 
ATOM     57  C   UNL A   1      43.873  26.869  32.243  1.00  0.00     0.029 A 
ATOM     58  C   UNL A   1      43.023  27.866  32.891  1.00  0.00     0.049 A 
ATOM     59  H   UNL A   1      41.368  28.833  32.078  1.00  0.00     0.167 HD
ATOM     60  C   UNL A   1      37.951  30.854  30.225  1.00  0.00     0.031 A 
ATOM     61  C   UNL A   1      43.167  28.330  34.148  1.00  0.00     0.031 A 
ATOM     62  C   UNL A   1      37.989  31.349  31.575  1.00  0.00     0.049 A 
ATOM     63  C   UNL A   1      42.212  29.376  34.666  1.00  0.00     0.074 A 
ATOM     64  C   UNL A   1      37.117  32.228  32.194  1.00  0.00     0.029 A 
ATOM     65  N   UNL A   1      38.958  31.020  32.509  1.00  0.00    -0.354 N 
ATOM     66  N   UNL A   1      41.174  29.916  34.074  1.00  0.00    -0.248 NA
ATOM     67  C   UNL A   1      42.451  29.872  36.029  1.00  0.00     0.031 C 
ATOM     68  C   UNL A   1      37.598  32.481  33.483  1.00  0.00     0.029 A 
ATOM     69  C   UNL A   1      38.725  31.702  33.690  1.00  0.00     0.049 A 
ATOM     70  H   UNL A   1      39.701  30.393  32.355  1.00  0.00     0.167 HD
ATOM     71  C   UNL A   1      40.617  30.788  35.003  1.00  0.00     0.074 A 
ATOM     72  C   UNL A   1      41.422  30.691  36.203  1.00  0.00     0.031 C 
ATOM     73  C   UNL A   1      39.533  31.594  34.877  1.00  0.00     0.031 A 
BRANCH  60  74
ATOM     74  C   UNL A   1      36.875  31.365  29.307  1.00  0.00    -0.014 A 
ATOM     75  C   UNL A   1      35.775  30.570  28.950  1.00  0.00     0.009 A 
ATOM     76  C   UNL A   1      36.946  32.681  28.823  1.00  0.00     0.009 A 
ATOM     77  C   UNL A   1      34.785  31.071  28.102  1.00  0.00     0.001 A 
ATOM     78  C   UNL A   1      35.939  33.191  28.002  1.00  0.00     0.001 A 
ATOM     79  C   UNL A   1      34.864  32.383  27.635  1.00  0.00     0.000 A 
ENDBRANCH  60  74
BRANCH  61  80
ATOM     80  C   UNL A   1      44.281  27.841  35.004  1.00  0.00    -0.014 A 
ATOM     81  C   UNL A   1      45.560  28.413  34.921  1.00  0.00     0.009 A 
ATOM     82  C   UNL A   1      44.078  26.765  35.881  1.00  0.00     0.009 A 
ATOM     83  C   UNL A   1      46.617  27.896  35.676  1.00  0.00     0.001 A 
ATOM     84  C   UNL A   1      45.128  26.271  36.658  1.00  0.00     0.001 A 
ATOM     85  C   UNL A   1      46.399  26.829  36.546  1.00  0.00     0.000 A 
ENDBRANCH  61  80
BRANCH  73  86
ATOM     86  C   UNL A   1      39.123  32.397  36.082  1.00  0.00    -0.014 A 
ATOM     87  C   UNL A   1      39.695  33.647  36.363  1.00  0.00     0.009 A 
ATOM     88  C   UNL A   1      38.109  31.911  36.924  1.00  0.00     0.009 A 
ATOM     89  C   UNL A   1      39.288  34.374  37.485  1.00  0.00     0.001 A 
ATOM     90  C   UNL A   1      37.680  32.655  38.023  1.00  0.00     0.001 A 
ATOM     91  C   UNL A   1      38.278  33.880  38.309  1.00  0.00     0.000 A 
ENDBRANCH  73  86
ENDBRANCH  47  48
ENDBRANCH  40  42
ENDBRANCH  39  40
ENDBRANCH  38  39
ENDBRANCH  37  38
ENDBRANCH  36  37
ENDBRANCH  35  36
ENDBRANCH  34  35
ENDBRANCH  33  34
ENDBRANCH   1  33
TORSDOF 23
ENDMDL
MODEL 2
REMARK VINA RESULT:     -10.6      4.538     10.508
REMARK SMILES CN1C(=O)/C(=C\c2ccc(-c3ccccc3C(=O)OCCOCCOCCOCCOC(=O)c3ccc(-c4c5nc(c(-c6ccccc6)c6ccc([nH]6)c(-c6ccccc6)c6nc(c(-c7ccccc7)c7ccc4[nH]7)C=C6)C=C5)cc3)o2)C(=O)[NH+]=C1S
REMARK SMILES IDX 24 1 23 2 22 3 21 4 20 5 19 6 17 7 18 8 16 9 11 10 12 11
REMARK SMILES IDX 13 12 15 13 14 14 10 15 7 16 8 17 82 18 9 19 6 20 1 21 2 22
REMARK SMILES IDX 3 23 86 24 4 25 5 26 85 27 83 28 84 30 87 31 25 33 26 34
REMARK SMILES IDX 27 35 28 36 29 37 30 38 31 39 32 40 33 41 34 42 35 43 81 44
REMARK SMILES IDX 36 45 80 46 37 47 38 48 39 49 74 50 40 51 79 52 73 53 75 54
REMARK SMILES IDX 41 55 78 56 72 57 71 58 42 60 64 61 49 62 63 63 50 64 53 65
REMARK SMILES IDX 62 66 76 67 51 68 52 69 61 71 77 72 54 73 43 74 44 75 48 76
REMARK SMILES IDX 45 77 47 78 46 79 65 80 66 81 70 82 67 83 69 84 68 85 55 86
REMARK SMILES IDX 56 87 60 88 57 89 59 90 58 91
REMARK H PARENT 85 29 87 32 75 59 53 70
REMARK Flexibility Score: inf
ROOT
ATOM      1  C   UNL A   1      33.567  34.091  28.640  1.00  0.00     0.188 C 
ENDROOT
BRANCH   1   2
ATOM      2  C   UNL A   1      34.495  33.002  29.236  1.00  0.00     0.188 C 
BRANCH   2   3
ATOM      3  O   UNL A   1      34.307  31.703  28.707  1.00  0.00    -0.376 OA
BRANCH   3   4
ATOM      4  C   UNL A   1      33.864  31.514  27.378  1.00  0.00     0.202 C 
BRANCH   4   5
ATOM      5  C   UNL A   1      32.553  30.780  27.084  1.00  0.00     0.261 C 
BRANCH   5   6
ATOM      6  O   UNL A   1      32.389  30.395  25.721  1.00  0.00    -0.460 OA
BRANCH   6   7
ATOM      7  C   UNL A   1      31.587  29.349  25.442  1.00  0.00     0.338 C 
ATOM      8  O   UNL A   1      31.467  28.335  26.108  1.00  0.00    -0.246 OA
BRANCH   7   9
ATOM      9  C   UNL A   1      30.724  29.693  24.282  1.00  0.00     0.071 A 
ATOM     10  C   UNL A   1      30.773  29.044  23.029  1.00  0.00     0.032 A 
ATOM     11  C   UNL A   1      29.903  29.499  22.020  1.00  0.00     0.013 A 
ATOM     12  C   UNL A   1      29.057  30.593  22.227  1.00  0.00     0.001 A 
ATOM     13  C   UNL A   1      29.881  30.803  24.477  1.00  0.00     0.016 A 
ATOM     14  C   UNL A   1      29.063  31.261  23.447  1.00  0.00     0.001 A 
BRANCH  10  15
ATOM     15  C   UNL A   1      31.721  27.975  22.715  1.00  0.00     0.135 A 
ATOM     16  C   UNL A   1      32.215  25.838  22.351  1.00  0.00     0.128 A 
ATOM     17  C   UNL A   1      33.308  26.601  21.959  1.00  0.00     0.051 A 
ATOM     18  O   UNL A   1      31.227  26.699  22.764  1.00  0.00    -0.457 OA
ATOM     19  C   UNL A   1      33.034  27.939  22.301  1.00  0.00     0.051 A 
BRANCH  16  20
ATOM     20  C   UNL A   1      32.112  24.422  22.388  1.00  0.00     0.071 C 
ATOM     21  C   UNL A   1      35.643  24.201  25.657  1.00  0.00     0.301 C 
ATOM     22  N   UNL A   1      34.677  23.500  24.815  1.00  0.00    -0.189 N 
ATOM     23  C   UNL A   1      33.666  24.295  24.326  1.00  0.00     0.349 C 
ATOM     24  C   UNL A   1      34.624  22.149  24.602  1.00  0.00     0.318 C 
ATOM     25  O   UNL A   1      33.440  25.409  24.793  1.00  0.00    -0.240 OA
ATOM     26  C   UNL A   1      32.847  23.691  23.250  1.00  0.00     0.157 C 
ATOM     27  N   UNL A   1      33.792  21.543  23.831  1.00  0.00    -0.200 N 
ATOM     28  C   UNL A   1      32.877  22.224  23.082  1.00  0.00     0.347 C 
ATOM     29  H   UNL A   1      33.818  20.560  23.778  1.00  0.00     0.316 HD
ATOM     30  O   UNL A   1      32.135  21.658  22.282  1.00  0.00    -0.241 OA
BRANCH  24  31
ATOM     31  S   UNL A   1      35.747  21.122  25.458  1.00  0.00    -0.055 SA
ATOM     32  H   UNL A   1      36.014  20.018  24.709  1.00  0.00     0.116 HD
ENDBRANCH  24  31
ENDBRANCH  16  20
ENDBRANCH  10  15
ENDBRANCH   7   9
ENDBRANCH   6   7
ENDBRANCH   5   6
ENDBRANCH   4   5
ENDBRANCH   3   4
ENDBRANCH   2   3
ENDBRANCH   1   2
BRANCH   1  33
ATOM     33  O   UNL A   1      32.637  34.805  29.445  1.00  0.00    -0.377 OA
BRANCH  33  34
ATOM     34  C   UNL A   1      33.073  35.875  30.273  1.00  0.00     0.188 C 
BRANCH  34  35
ATOM     35  C   UNL A   1      32.573  35.986  31.731  1.00  0.00     0.188 C 
BRANCH  35  36
ATOM     36  O   UNL A   1      33.517  35.577  32.704  1.00  0.00    -0.376 OA
BRANCH  36  37
ATOM     37  C   UNL A   1      33.838  34.201  32.784  1.00  0.00     0.202 C 
BRANCH  37  38
ATOM     38  C   UNL A   1      35.140  33.793  33.492  1.00  0.00     0.261 C 
BRANCH  38  39
ATOM     39  O   UNL A   1      35.911  32.751  32.877  1.00  0.00    -0.460 OA
BRANCH  39  40
ATOM     40  C   UNL A   1      36.908  32.201  33.603  1.00  0.00     0.338 C 
ATOM     41  O   UNL A   1      36.967  32.080  34.811  1.00  0.00    -0.246 OA
BRANCH  40  42
ATOM     42  C   UNL A   1      37.856  31.593  32.646  1.00  0.00     0.060 A 
ATOM     43  C   UNL A   1      38.914  30.812  33.131  1.00  0.00     0.016 A 
ATOM     44  C   UNL A   1      37.688  31.785  31.273  1.00  0.00     0.016 A 
ATOM     45  C   UNL A   1      39.825  30.245  32.241  1.00  0.00     0.010 A 
ATOM     46  C   UNL A   1      38.613  31.234  30.384  1.00  0.00     0.010 A 
ATOM     47  C   UNL A   1      39.704  30.490  30.867  1.00  0.00    -0.014 A 
BRANCH  47  48
ATOM     48  C   UNL A   1      40.813  30.129  29.953  1.00  0.00     0.031 A 
ATOM     49  C   UNL A   1      40.784  28.776  29.295  1.00  0.00     0.074 A 
ATOM     50  C   UNL A   1      41.813  30.988  29.695  1.00  0.00     0.049 A 
ATOM     51  N   UNL A   1      41.658  28.222  28.495  1.00  0.00    -0.248 NA
ATOM     52  C   UNL A   1      39.608  27.936  29.577  1.00  0.00     0.031 C 
ATOM     53  C   UNL A   1      41.926  32.346  30.224  1.00  0.00     0.029 A 
ATOM     54  N   UNL A   1      42.932  30.834  28.914  1.00  0.00    -0.354 N 
ATOM     55  C   UNL A   1      41.146  26.966  28.191  1.00  0.00     0.074 A 
ATOM     56  C   UNL A   1      39.897  26.830  28.908  1.00  0.00     0.031 C 
ATOM     57  C   UNL A   1      43.060  32.900  29.756  1.00  0.00     0.029 A 
ATOM     58  C   UNL A   1      43.768  31.923  28.933  1.00  0.00     0.049 A 
ATOM     59  H   UNL A   1      43.118  30.021  28.392  1.00  0.00     0.167 HD
ATOM     60  C   UNL A   1      41.668  26.010  27.387  1.00  0.00     0.031 A 
ATOM     61  C   UNL A   1      44.980  32.095  28.369  1.00  0.00     0.031 A 
ATOM     62  C   UNL A   1      42.922  26.136  26.694  1.00  0.00     0.049 A 
ATOM     63  C   UNL A   1      45.586  30.978  27.558  1.00  0.00     0.074 A 
ATOM     64  C   UNL A   1      43.532  25.229  25.846  1.00  0.00     0.029 A 
ATOM     65  N   UNL A   1      43.763  27.234  26.781  1.00  0.00    -0.354 N 
ATOM     66  N   UNL A   1      45.082  29.806  27.254  1.00  0.00    -0.248 NA
ATOM     67  C   UNL A   1      46.929  31.213  27.008  1.00  0.00     0.031 C 
ATOM     68  C   UNL A   1      44.774  25.750  25.472  1.00  0.00     0.029 A 
ATOM     69  C   UNL A   1      44.903  27.014  26.027  1.00  0.00     0.049 A 
ATOM     70  H   UNL A   1      43.578  28.049  27.301  1.00  0.00     0.167 HD
ATOM     71  C   UNL A   1      46.029  29.181  26.451  1.00  0.00     0.074 A 
ATOM     72  C   UNL A   1      47.129  30.109  26.302  1.00  0.00     0.031 C 
ATOM     73  C   UNL A   1      45.990  27.948  25.885  1.00  0.00     0.031 A 
BRANCH  60  74
ATOM     74  C   UNL A   1      40.903  24.723  27.250  1.00  0.00    -0.014 A 
ATOM     75  C   UNL A   1      39.681  24.665  26.563  1.00  0.00     0.009 A 
ATOM     76  C   UNL A   1      41.437  23.540  27.785  1.00  0.00     0.009 A 
ATOM     77  C   UNL A   1      38.993  23.455  26.442  1.00  0.00     0.001 A 
ATOM     78  C   UNL A   1      40.764  22.325  27.635  1.00  0.00     0.001 A 
ATOM     79  C   UNL A   1      39.539  22.286  26.972  1.00  0.00     0.000 A 
ENDBRANCH  60  74
BRANCH  61  80
ATOM     80  C   UNL A   1      45.730  33.363  28.580  1.00  0.00    -0.014 A 
ATOM     81  C   UNL A   1      45.690  34.393  27.628  1.00  0.00     0.009 A 
ATOM     82  C   UNL A   1      46.528  33.529  29.722  1.00  0.00     0.009 A 
ATOM     83  C   UNL A   1      46.457  35.548  27.802  1.00  0.00     0.001 A 
ATOM     84  C   UNL A   1      47.269  34.699  29.909  1.00  0.00     0.001 A 
ATOM     85  C   UNL A   1      47.242  35.702  28.943  1.00  0.00     0.000 A 
ENDBRANCH  61  80
BRANCH  73  86
ATOM     86  C   UNL A   1      47.147  27.551  25.009  1.00  0.00    -0.014 A 
ATOM     87  C   UNL A   1      47.205  27.914  23.655  1.00  0.00     0.009 A 
ATOM     88  C   UNL A   1      48.224  26.840  25.566  1.00  0.00     0.009 A 
ATOM     89  C   UNL A   1      48.297  27.539  22.869  1.00  0.00     0.001 A 
ATOM     90  C   UNL A   1      49.329  26.497  24.787  1.00  0.00     0.001 A 
ATOM     91  C   UNL A   1      49.359  26.837  23.437  1.00  0.00     0.000 A 
ENDBRANCH  73  86
ENDBRANCH  47  48
ENDBRANCH  40  42
ENDBRANCH  39  40
ENDBRANCH  38  39
ENDBRANCH  37  38
ENDBRANCH  36  37
ENDBRANCH  35  36
ENDBRANCH  34  35
ENDBRANCH  33  34
ENDBRANCH   1  33
TORSDOF 23
ENDMDL
MODEL 3
REMARK VINA RESULT:     -10.2      1.442      2.278
REMARK SMILES CN1C(=O)/C(=C\c2ccc(-c3ccccc3C(=O)OCCOCCOCCOCCOC(=O)c3ccc(-c4c5nc(c(-c6ccccc6)c6ccc([nH]6)c(-c6ccccc6)c6nc(c(-c7ccccc7)c7ccc4[nH]7)C=C6)C=C5)cc3)o2)C(=O)[NH+]=C1S
REMARK SMILES IDX 24 1 23 2 22 3 21 4 20 5 19 6 17 7 18 8 16 9 11 10 12 11
REMARK SMILES IDX 13 12 15 13 14 14 10 15 7 16 8 17 82 18 9 19 6 20 1 21 2 22
REMARK SMILES IDX 3 23 86 24 4 25 5 26 85 27 83 28 84 30 87 31 25 33 26 34
REMARK SMILES IDX 27 35 28 36 29 37 30 38 31 39 32 40 33 41 34 42 35 43 81 44
REMARK SMILES IDX 36 45 80 46 37 47 38 48 39 49 74 50 40 51 79 52 73 53 75 54
REMARK SMILES IDX 41 55 78 56 72 57 71 58 42 60 64 61 49 62 63 63 50 64 53 65
REMARK SMILES IDX 62 66 76 67 51 68 52 69 61 71 77 72 54 73 43 74 44 75 48 76
REMARK SMILES IDX 45 77 47 78 46 79 65 80 66 81 70 82 67 83 69 84 68 85 55 86
REMARK SMILES IDX 56 87 60 88 57 89 59 90 58 91
REMARK H PARENT 85 29 87 32 75 59 53 70
REMARK Flexibility Score: inf
ROOT
ATOM      1  C   UNL A   1      40.506  22.101  27.659  1.00  0.00     0.188 C 
ENDROOT
BRANCH   1   2
ATOM      2  C   UNL A   1      39.688  22.927  26.633  1.00  0.00     0.188 C 
BRANCH   2   3
ATOM      3  O   UNL A   1      38.610  22.234  26.034  1.00  0.00    -0.376 OA
BRANCH   3   4
ATOM      4  C   UNL A   1      37.512  22.930  25.481  1.00  0.00     0.202 C 
BRANCH   4   5
ATOM      5  C   UNL A   1      36.156  22.951  26.190  1.00  0.00     0.261 C 
BRANCH   5   6
ATOM      6  O   UNL A   1      35.223  23.882  25.647  1.00  0.00    -0.460 OA
BRANCH   6   7
ATOM      7  C   UNL A   1      33.909  23.668  25.852  1.00  0.00     0.338 C 
ATOM      8  O   UNL A   1      33.253  24.065  26.800  1.00  0.00    -0.246 OA
BRANCH   7   9
ATOM      9  C   UNL A   1      33.328  23.018  24.648  1.00  0.00     0.071 A 
ATOM     10  C   UNL A   1      32.969  23.702  23.466  1.00  0.00     0.032 A 
ATOM     11  C   UNL A   1      32.409  22.948  22.416  1.00  0.00     0.013 A 
ATOM     12  C   UNL A   1      32.163  21.579  22.554  1.00  0.00     0.001 A 
ATOM     13  C   UNL A   1      33.063  21.643  24.784  1.00  0.00     0.016 A 
ATOM     14  C   UNL A   1      32.467  20.930  23.747  1.00  0.00     0.001 A 
BRANCH  10  15
ATOM     15  C   UNL A   1      33.090  25.151  23.309  1.00  0.00     0.135 A 
ATOM     16  C   UNL A   1      32.971  27.225  24.101  1.00  0.00     0.128 A 
ATOM     17  C   UNL A   1      33.615  27.275  22.871  1.00  0.00     0.051 A 
ATOM     18  O   UNL A   1      32.702  25.908  24.382  1.00  0.00    -0.457 OA
ATOM     19  C   UNL A   1      33.581  25.978  22.323  1.00  0.00     0.051 A 
BRANCH  16  20
ATOM     20  C   UNL A   1      32.591  28.316  24.927  1.00  0.00     0.071 C 
ATOM     21  C   UNL A   1      29.109  29.519  21.823  1.00  0.00     0.301 C 
ATOM     22  N   UNL A   1      29.822  29.797  23.069  1.00  0.00    -0.189 N 
ATOM     23  C   UNL A   1      30.569  28.744  23.544  1.00  0.00     0.349 C 
ATOM     24  C   UNL A   1      29.695  30.923  23.836  1.00  0.00     0.318 C 
ATOM     25  O   UNL A   1      30.413  27.601  23.121  1.00  0.00    -0.240 OA
ATOM     26  C   UNL A   1      31.520  29.079  24.628  1.00  0.00     0.157 C 
ATOM     27  N   UNL A   1      30.353  31.176  24.911  1.00  0.00    -0.200 N 
ATOM     28  C   UNL A   1      31.315  30.332  25.383  1.00  0.00     0.347 C 
ATOM     29  H   UNL A   1      30.157  32.003  25.408  1.00  0.00     0.316 HD
ATOM     30  O   UNL A   1      32.004  30.606  26.363  1.00  0.00    -0.241 OA
BRANCH  24  31
ATOM     31  S   UNL A   1      28.527  32.132  23.362  1.00  0.00    -0.055 SA
ATOM     32  H   UNL A   1      27.686  31.609  22.430  1.00  0.00     0.116 HD
ENDBRANCH  24  31
ENDBRANCH  16  20
ENDBRANCH  10  15
ENDBRANCH   7   9
ENDBRANCH   6   7
ENDBRANCH   5   6
ENDBRANCH   4   5
ENDBRANCH   3   4
ENDBRANCH   2   3
ENDBRANCH   1   2
BRANCH   1  33
ATOM     33  O   UNL A   1      40.601  20.684  27.573  1.00  0.00    -0.377 OA
BRANCH  33  34
ATOM     34  C   UNL A   1      41.870  20.047  27.542  1.00  0.00     0.188 C 
BRANCH  34  35
ATOM     35  C   UNL A   1      42.539  19.705  26.191  1.00  0.00     0.188 C 
BRANCH  35  36
ATOM     36  O   UNL A   1      42.560  20.775  25.264  1.00  0.00    -0.376 OA
BRANCH  36  37
ATOM     37  C   UNL A   1      43.323  21.922  25.586  1.00  0.00     0.202 C 
BRANCH  37  38
ATOM     38  C   UNL A   1      43.566  22.971  24.489  1.00  0.00     0.261 C 
BRANCH  38  39
ATOM     39  O   UNL A   1      43.338  24.342  24.845  1.00  0.00    -0.460 OA
BRANCH  39  40
ATOM     40  C   UNL A   1      44.394  25.055  25.290  1.00  0.00     0.338 C 
ATOM     41  O   UNL A   1      45.428  25.298  24.698  1.00  0.00    -0.246 OA
BRANCH  40  42
ATOM     42  C   UNL A   1      43.997  25.659  26.579  1.00  0.00     0.060 A 
ATOM     43  C   UNL A   1      43.019  25.028  27.360  1.00  0.00     0.016 A 
ATOM     44  C   UNL A   1      44.602  26.838  27.019  1.00  0.00     0.016 A 
ATOM     45  C   UNL A   1      42.623  25.594  28.571  1.00  0.00     0.010 A 
ATOM     46  C   UNL A   1      44.190  27.415  28.221  1.00  0.00     0.010 A 
ATOM     47  C   UNL A   1      43.176  26.813  28.985  1.00  0.00    -0.014 A 
BRANCH  47  48
ATOM     48  C   UNL A   1      42.566  27.552  30.116  1.00  0.00     0.031 A 
ATOM     49  C   UNL A   1      41.246  28.239  29.892  1.00  0.00     0.074 A 
ATOM     50  C   UNL A   1      43.159  27.599  31.321  1.00  0.00     0.049 A 
ATOM     51  N   UNL A   1      40.544  28.977  30.711  1.00  0.00    -0.248 NA
ATOM     52  C   UNL A   1      40.636  28.065  28.562  1.00  0.00     0.031 C 
ATOM     53  C   UNL A   1      44.408  26.930  31.681  1.00  0.00     0.029 A 
ATOM     54  N   UNL A   1      42.778  28.247  32.470  1.00  0.00    -0.354 N 
ATOM     55  C   UNL A   1      39.419  29.368  29.994  1.00  0.00     0.074 A 
ATOM     56  C   UNL A   1      39.542  28.804  28.667  1.00  0.00     0.031 C 
ATOM     57  C   UNL A   1      44.695  27.209  32.965  1.00  0.00     0.029 A 
ATOM     58  C   UNL A   1      43.674  28.108  33.501  1.00  0.00     0.049 A 
ATOM     59  H   UNL A   1      41.944  28.763  32.547  1.00  0.00     0.167 HD
ATOM     60  C   UNL A   1      38.376  30.129  30.401  1.00  0.00     0.031 A 
ATOM     61  C   UNL A   1      43.678  28.667  34.727  1.00  0.00     0.031 A 
ATOM     62  C   UNL A   1      38.266  30.710  31.713  1.00  0.00     0.049 A 
ATOM     63  C   UNL A   1      42.555  29.590  35.125  1.00  0.00     0.074 A 
ATOM     64  C   UNL A   1      37.243  31.486  32.227  1.00  0.00     0.029 A 
ATOM     65  N   UNL A   1      39.220  30.588  32.711  1.00  0.00    -0.354 N 
ATOM     66  N   UNL A   1      41.483  29.930  34.450  1.00  0.00    -0.248 NA
ATOM     67  C   UNL A   1      42.642  30.202  36.459  1.00  0.00     0.031 C 
ATOM     68  C   UNL A   1      37.609  31.890  33.515  1.00  0.00     0.029 A 
ATOM     69  C   UNL A   1      38.825  31.302  33.829  1.00  0.00     0.049 A 
ATOM     70  H   UNL A   1      40.054  30.071  32.636  1.00  0.00     0.167 HD
ATOM     71  C   UNL A   1      40.754  30.767  35.288  1.00  0.00     0.074 A 
ATOM     72  C   UNL A   1      41.497  30.867  36.527  1.00  0.00     0.031 C 
ATOM     73  C   UNL A   1      39.573  31.392  35.056  1.00  0.00     0.031 A 
BRANCH  60  74
ATOM     74  C   UNL A   1      37.290  30.414  29.401  1.00  0.00    -0.014 A 
ATOM     75  C   UNL A   1      36.349  29.438  29.041  1.00  0.00     0.009 A 
ATOM     76  C   UNL A   1      37.185  31.697  28.840  1.00  0.00     0.009 A 
ATOM     77  C   UNL A   1      35.345  29.730  28.115  1.00  0.00     0.001 A 
ATOM     78  C   UNL A   1      36.161  31.997  27.940  1.00  0.00     0.001 A 
ATOM     79  C   UNL A   1      35.248  31.011  27.572  1.00  0.00     0.000 A 
ENDBRANCH  60  74
BRANCH  61  80
ATOM     80  C   UNL A   1      44.803  28.406  35.665  1.00  0.00    -0.014 A 
ATOM     81  C   UNL A   1      45.907  29.270  35.730  1.00  0.00     0.009 A 
ATOM     82  C   UNL A   1      44.795  27.259  36.474  1.00  0.00     0.009 A 
ATOM     83  C   UNL A   1      46.991  28.974  36.560  1.00  0.00     0.001 A 
ATOM     84  C   UNL A   1      45.866  26.983  37.328  1.00  0.00     0.001 A 
ATOM     85  C   UNL A   1      46.968  27.834  37.361  1.00  0.00     0.000 A 
ENDBRANCH  61  80
BRANCH  73  86
ATOM     86  C   UNL A   1      38.984  32.200  36.180  1.00  0.00    -0.014 A 
ATOM     87  C   UNL A   1      38.108  31.631  37.116  1.00  0.00     0.009 A 
ATOM     88  C   UNL A   1      39.354  33.548  36.331  1.00  0.00     0.009 A 
ATOM     89  C   UNL A   1      37.583  32.404  38.155  1.00  0.00     0.001 A 
ATOM     90  C   UNL A   1      38.856  34.308  37.389  1.00  0.00     0.001 A 
ATOM     91  C   UNL A   1      37.963  33.739  38.293  1.00  0.00     0.000 A 
ENDBRANCH  73  86
ENDBRANCH  47  48
ENDBRANCH  40  42
ENDBRANCH  39  40
ENDBRANCH  38  39
ENDBRANCH  37  38
ENDBRANCH  36  37
ENDBRANCH  35  36
ENDBRANCH  34  35
ENDBRANCH  33  34
ENDBRANCH   1  33
TORSDOF 23
ENDMDL
