MODEL 1
REMARK VINA RESULT:     -10.0      0.000      0.000
REMARK SMILES C[C@@H](C(=O)OCCOCCOCCOCCOC(=O)c1ccc(-c2c3nc(c(-c4ccccc4)c4ccc([nH]4)c(-c4ccccc4)c4nc(c(-c5ccccc5)c5ccc2[nH]5)C=C4)C=C3)cc1)c1ccc(-c2ccn(C(F)F)c(=O)c2)cc1
REMARK SMILES IDX 10 1 9 2 8 3 7 4 6 5 5 6 3 7 4 8 2 9 1 10 68 11 69 12 83 13
REMARK SMILES IDX 70 14 82 15 71 16 72 17 73 18 81 19 74 20 79 21 75 22 80 23
REMARK SMILES IDX 76 24 77 25 78 26 11 27 12 28 13 29 14 30 15 31 16 32 17 33
REMARK SMILES IDX 18 34 19 35 20 36 21 37 67 38 22 39 66 40 23 41 24 42 25 43
REMARK SMILES IDX 60 44 26 45 65 46 59 47 61 48 27 49 64 50 58 51 57 52 28 54
REMARK SMILES IDX 50 55 35 56 49 57 36 58 39 59 48 60 62 61 37 62 38 63 47 65
REMARK SMILES IDX 63 66 40 67 29 68 30 69 34 70 31 71 33 72 32 73 51 74 52 75
REMARK SMILES IDX 56 76 53 77 55 78 54 79 41 80 42 81 46 82 43 83 45 84 44 85
REMARK H PARENT 61 53 39 64
REMARK Flexibility Score: inf
ROOT
ATOM      1  C   UNL A   1      34.447  23.218  26.552  1.00  0.00     0.188 C 
ENDROOT
BRANCH   1   2
ATOM      2  C   UNL A   1      34.386  24.550  25.790  1.00  0.00     0.188 C 
BRANCH   2   3
ATOM      3  O   UNL A   1      33.333  25.430  26.126  1.00  0.00    -0.376 OA
BRANCH   3   4
ATOM      4  C   UNL A   1      33.376  26.801  25.759  1.00  0.00     0.202 C 
BRANCH   4   5
ATOM      5  C   UNL A   1      33.766  27.367  24.375  1.00  0.00     0.261 C 
BRANCH   5   6
ATOM      6  O   UNL A   1      32.703  27.631  23.455  1.00  0.00    -0.463 OA
BRANCH   6   7
ATOM      7  C   UNL A   1      32.536  26.791  22.406  1.00  0.00     0.313 C 
ATOM      8  O   UNL A   1      33.303  26.727  21.450  1.00  0.00    -0.252 OA
BRANCH   7   9
ATOM      9  C   UNL A   1      31.339  25.846  22.590  1.00  0.00     0.126 C 
ATOM     10  C   UNL A   1      30.146  26.530  23.289  1.00  0.00     0.025 C 
BRANCH   9  11
ATOM     11  C   UNL A   1      31.712  24.454  23.128  1.00  0.00    -0.034 A 
ATOM     12  C   UNL A   1      31.082  23.903  24.259  1.00  0.00     0.005 A 
ATOM     13  C   UNL A   1      32.623  23.631  22.442  1.00  0.00     0.005 A 
ATOM     14  C   UNL A   1      31.336  22.581  24.666  1.00  0.00     0.009 A 
ATOM     15  C   UNL A   1      32.896  22.325  22.857  1.00  0.00     0.009 A 
ATOM     16  C   UNL A   1      32.226  21.774  23.950  1.00  0.00    -0.018 A 
BRANCH  16  17
ATOM     17  C   UNL A   1      32.372  20.329  24.214  1.00  0.00    -0.011 A 
ATOM     18  C   UNL A   1      32.630  19.763  25.524  1.00  0.00     0.027 A 
ATOM     19  C   UNL A   1      32.416  19.524  23.137  1.00  0.00     0.080 A 
ATOM     20  C   UNL A   1      32.957  18.469  25.651  1.00  0.00     0.095 A 
ATOM     21  C   UNL A   1      32.752  18.081  23.266  1.00  0.00     0.255 A 
ATOM     22  N   UNL A   1      33.032  17.639  24.548  1.00  0.00    -0.258 N 
ATOM     23  O   UNL A   1      32.785  17.396  22.248  1.00  0.00    -0.269 OA
BRANCH  22  24
ATOM     24  C   UNL A   1      33.456  16.269  24.682  1.00  0.00     0.451 C 
ATOM     25  F   UNL A   1      34.203  16.089  25.799  1.00  0.00    -0.185 F 
ATOM     26  F   UNL A   1      32.387  15.439  24.755  1.00  0.00    -0.185 F 
ENDBRANCH  22  24
ENDBRANCH  16  17
ENDBRANCH   9  11
ENDBRANCH   7   9
ENDBRANCH   6   7
ENDBRANCH   5   6
ENDBRANCH   4   5
ENDBRANCH   3   4
ENDBRANCH   2   3
ENDBRANCH   1   2
BRANCH   1  27
ATOM     27  O   UNL A   1      35.438  22.315  26.096  1.00  0.00    -0.377 OA
BRANCH  27  28
ATOM     28  C   UNL A   1      35.780  22.329  24.715  1.00  0.00     0.188 C 
BRANCH  28  29
ATOM     29  C   UNL A   1      37.129  21.768  24.211  1.00  0.00     0.188 C 
BRANCH  29  30
ATOM     30  O   UNL A   1      37.600  20.621  24.902  1.00  0.00    -0.376 OA
BRANCH  30  31
ATOM     31  C   UNL A   1      38.844  20.695  25.581  1.00  0.00     0.202 C 
BRANCH  31  32
ATOM     32  C   UNL A   1      39.627  19.387  25.769  1.00  0.00     0.261 C 
BRANCH  32  33
ATOM     33  O   UNL A   1      40.984  19.386  25.301  1.00  0.00    -0.460 OA
BRANCH  33  34
ATOM     34  C   UNL A   1      41.970  19.436  26.219  1.00  0.00     0.338 C 
ATOM     35  O   UNL A   1      42.743  18.543  26.523  1.00  0.00    -0.246 OA
BRANCH  34  36
ATOM     36  C   UNL A   1      42.095  20.837  26.668  1.00  0.00     0.060 A 
ATOM     37  C   UNL A   1      42.452  21.821  25.736  1.00  0.00     0.016 A 
ATOM     38  C   UNL A   1      41.859  21.178  28.002  1.00  0.00     0.016 A 
ATOM     39  C   UNL A   1      42.613  23.145  26.145  1.00  0.00     0.010 A 
ATOM     40  C   UNL A   1      42.043  22.501  28.414  1.00  0.00     0.010 A 
ATOM     41  C   UNL A   1      42.458  23.481  27.495  1.00  0.00    -0.014 A 
BRANCH  41  42
ATOM     42  C   UNL A   1      42.932  24.799  27.981  1.00  0.00     0.031 A 
ATOM     43  C   UNL A   1      41.905  25.857  28.283  1.00  0.00     0.074 A 
ATOM     44  C   UNL A   1      44.238  25.053  28.175  1.00  0.00     0.049 A 
ATOM     45  N   UNL A   1      42.074  27.095  28.670  1.00  0.00    -0.248 NA
ATOM     46  C   UNL A   1      40.495  25.461  28.125  1.00  0.00     0.031 C 
ATOM     47  C   UNL A   1      45.326  24.100  27.972  1.00  0.00     0.029 A 
ATOM     48  N   UNL A   1      44.865  26.203  28.583  1.00  0.00    -0.354 N 
ATOM     49  C   UNL A   1      40.796  27.627  28.790  1.00  0.00     0.074 A 
ATOM     50  C   UNL A   1      39.864  26.591  28.405  1.00  0.00     0.031 C 
ATOM     51  C   UNL A   1      46.493  24.709  28.247  1.00  0.00     0.029 A 
ATOM     52  C   UNL A   1      46.235  26.103  28.608  1.00  0.00     0.049 A 
ATOM     53  H   UNL A   1      44.380  27.022  28.835  1.00  0.00     0.167 HD
ATOM     54  C   UNL A   1      40.428  28.867  29.194  1.00  0.00     0.031 A 
ATOM     55  C   UNL A   1      47.171  27.037  28.864  1.00  0.00     0.031 A 
ATOM     56  C   UNL A   1      41.355  29.905  29.556  1.00  0.00     0.049 A 
ATOM     57  C   UNL A   1      46.742  28.439  29.218  1.00  0.00     0.074 A 
ATOM     58  C   UNL A   1      41.082  31.193  29.981  1.00  0.00     0.029 A 
ATOM     59  N   UNL A   1      42.734  29.777  29.524  1.00  0.00    -0.354 N 
ATOM     60  N   UNL A   1      45.532  28.927  29.349  1.00  0.00    -0.248 NA
ATOM     61  C   UNL A   1      47.812  29.416  29.465  1.00  0.00     0.031 C 
ATOM     62  C   UNL A   1      42.298  31.865  30.142  1.00  0.00     0.029 A 
ATOM     63  C   UNL A   1      43.329  30.972  29.892  1.00  0.00     0.049 A 
ATOM     64  H   UNL A   1      43.220  28.957  29.277  1.00  0.00     0.167 HD
ATOM     65  C   UNL A   1      45.695  30.255  29.726  1.00  0.00     0.074 A 
ATOM     66  C   UNL A   1      47.120  30.492  29.817  1.00  0.00     0.031 C 
ATOM     67  C   UNL A   1      44.749  31.194  29.977  1.00  0.00     0.031 A 
BRANCH  54  68
ATOM     68  C   UNL A   1      38.956  29.175  29.218  1.00  0.00    -0.014 A 
ATOM     69  C   UNL A   1      38.204  29.071  30.399  1.00  0.00     0.009 A 
ATOM     70  C   UNL A   1      38.316  29.596  28.041  1.00  0.00     0.009 A 
ATOM     71  C   UNL A   1      36.833  29.343  30.391  1.00  0.00     0.001 A 
ATOM     72  C   UNL A   1      36.954  29.900  28.044  1.00  0.00     0.001 A 
ATOM     73  C   UNL A   1      36.212  29.762  29.215  1.00  0.00     0.000 A 
ENDBRANCH  54  68
BRANCH  55  74
ATOM     74  C   UNL A   1      48.616  26.691  28.770  1.00  0.00    -0.014 A 
ATOM     75  C   UNL A   1      49.306  26.175  29.877  1.00  0.00     0.009 A 
ATOM     76  C   UNL A   1      49.318  26.902  27.573  1.00  0.00     0.009 A 
ATOM     77  C   UNL A   1      50.674  25.902  29.794  1.00  0.00     0.001 A 
ATOM     78  C   UNL A   1      50.679  26.597  27.482  1.00  0.00     0.001 A 
ATOM     79  C   UNL A   1      51.357  26.107  28.596  1.00  0.00     0.000 A 
ENDBRANCH  55  74
BRANCH  67  80
ATOM     80  C   UNL A   1      45.221  32.554  30.419  1.00  0.00    -0.014 A 
ATOM     81  C   UNL A   1      45.453  32.849  31.772  1.00  0.00     0.009 A 
ATOM     82  C   UNL A   1      45.483  33.542  29.455  1.00  0.00     0.009 A 
ATOM     83  C   UNL A   1      45.902  34.117  32.151  1.00  0.00     0.001 A 
ATOM     84  C   UNL A   1      45.964  34.796  29.834  1.00  0.00     0.001 A 
ATOM     85  C   UNL A   1      46.162  35.086  31.182  1.00  0.00     0.000 A 
ENDBRANCH  67  80
ENDBRANCH  41  42
ENDBRANCH  34  36
ENDBRANCH  33  34
ENDBRANCH  32  33
ENDBRANCH  31  32
ENDBRANCH  30  31
ENDBRANCH  29  30
ENDBRANCH  28  29
ENDBRANCH  27  28
ENDBRANCH   1  27
TORSDOF 23
ENDMDL
MODEL 2
REMARK VINA RESULT:      -9.8      0.948      5.710
REMARK SMILES C[C@@H](C(=O)OCCOCCOCCOCCOC(=O)c1ccc(-c2c3nc(c(-c4ccccc4)c4ccc([nH]4)c(-c4ccccc4)c4nc(c(-c5ccccc5)c5ccc2[nH]5)C=C4)C=C3)cc1)c1ccc(-c2ccn(C(F)F)c(=O)c2)cc1
REMARK SMILES IDX 10 1 9 2 8 3 7 4 6 5 5 6 3 7 4 8 2 9 1 10 68 11 69 12 83 13
REMARK SMILES IDX 70 14 82 15 71 16 72 17 73 18 81 19 74 20 79 21 75 22 80 23
REMARK SMILES IDX 76 24 77 25 78 26 11 27 12 28 13 29 14 30 15 31 16 32 17 33
REMARK SMILES IDX 18 34 19 35 20 36 21 37 67 38 22 39 66 40 23 41 24 42 25 43
REMARK SMILES IDX 60 44 26 45 65 46 59 47 61 48 27 49 64 50 58 51 57 52 28 54
REMARK SMILES IDX 50 55 35 56 49 57 36 58 39 59 48 60 62 61 37 62 38 63 47 65
REMARK SMILES IDX 63 66 40 67 29 68 30 69 34 70 31 71 33 72 32 73 51 74 52 75
REMARK SMILES IDX 56 76 53 77 55 78 54 79 41 80 42 81 46 82 43 83 45 84 44 85
REMARK H PARENT 61 53 39 64
REMARK Flexibility Score: inf
ROOT
ATOM      1  C   UNL A   1      34.387  23.751  26.251  1.00  0.00     0.188 C 
ENDROOT
BRANCH   1   2
ATOM      2  C   UNL A   1      34.602  24.999  25.383  1.00  0.00     0.188 C 
BRANCH   2   3
ATOM      3  O   UNL A   1      33.634  26.022  25.485  1.00  0.00    -0.376 OA
BRANCH   3   4
ATOM      4  C   UNL A   1      33.988  27.388  25.324  1.00  0.00     0.202 C 
BRANCH   4   5
ATOM      5  C   UNL A   1      33.882  28.215  24.023  1.00  0.00     0.261 C 
BRANCH   5   6
ATOM      6  O   UNL A   1      32.770  27.942  23.166  1.00  0.00    -0.463 OA
BRANCH   6   7
ATOM      7  C   UNL A   1      32.833  26.860  22.354  1.00  0.00     0.313 C 
ATOM      8  O   UNL A   1      33.804  26.580  21.658  1.00  0.00    -0.252 OA
BRANCH   7   9
ATOM      9  C   UNL A   1      31.597  25.955  22.478  1.00  0.00     0.126 C 
ATOM     10  C   UNL A   1      30.405  26.669  23.148  1.00  0.00     0.025 C 
BRANCH   9  11
ATOM     11  C   UNL A   1      31.901  24.541  23.000  1.00  0.00    -0.034 A 
ATOM     12  C   UNL A   1      31.269  24.021  24.144  1.00  0.00     0.005 A 
ATOM     13  C   UNL A   1      32.744  23.670  22.287  1.00  0.00     0.005 A 
ATOM     14  C   UNL A   1      31.455  22.685  24.539  1.00  0.00     0.009 A 
ATOM     15  C   UNL A   1      32.950  22.347  22.690  1.00  0.00     0.009 A 
ATOM     16  C   UNL A   1      32.277  21.831  23.797  1.00  0.00    -0.018 A 
BRANCH  16  17
ATOM     17  C   UNL A   1      32.344  20.379  24.051  1.00  0.00    -0.011 A 
ATOM     18  C   UNL A   1      32.574  19.790  25.357  1.00  0.00     0.027 A 
ATOM     19  C   UNL A   1      32.342  19.579  22.969  1.00  0.00     0.080 A 
ATOM     20  C   UNL A   1      32.831  18.480  25.474  1.00  0.00     0.095 A 
ATOM     21  C   UNL A   1      32.598  18.119  23.087  1.00  0.00     0.255 A 
ATOM     22  N   UNL A   1      32.857  17.654  24.365  1.00  0.00    -0.258 N 
ATOM     23  O   UNL A   1      32.591  17.440  22.064  1.00  0.00    -0.269 OA
BRANCH  22  24
ATOM     24  C   UNL A   1      33.206  16.262  24.489  1.00  0.00     0.451 C 
ATOM     25  F   UNL A   1      34.418  16.106  25.075  1.00  0.00    -0.185 F 
ATOM     26  F   UNL A   1      32.290  15.601  25.238  1.00  0.00    -0.185 F 
ENDBRANCH  22  24
ENDBRANCH  16  17
ENDBRANCH   9  11
ENDBRANCH   7   9
ENDBRANCH   6   7
ENDBRANCH   5   6
ENDBRANCH   4   5
ENDBRANCH   3   4
ENDBRANCH   2   3
ENDBRANCH   1   2
BRANCH   1  27
ATOM     27  O   UNL A   1      35.191  22.637  25.904  1.00  0.00    -0.377 OA
BRANCH  27  28
ATOM     28  C   UNL A   1      35.842  22.642  24.639  1.00  0.00     0.188 C 
BRANCH  28  29
ATOM     29  C   UNL A   1      37.313  22.197  24.486  1.00  0.00     0.188 C 
BRANCH  29  30
ATOM     30  O   UNL A   1      37.738  21.196  25.398  1.00  0.00    -0.376 OA
BRANCH  30  31
ATOM     31  C   UNL A   1      39.118  21.101  25.715  1.00  0.00     0.202 C 
BRANCH  31  32
ATOM     32  C   UNL A   1      39.686  19.701  25.994  1.00  0.00     0.261 C 
BRANCH  32  33
ATOM     33  O   UNL A   1      40.880  19.347  25.281  1.00  0.00    -0.460 OA
BRANCH  33  34
ATOM     34  C   UNL A   1      42.000  19.121  25.997  1.00  0.00     0.338 C 
ATOM     35  O   UNL A   1      42.550  18.048  26.189  1.00  0.00    -0.246 OA
BRANCH  34  36
ATOM     36  C   UNL A   1      42.577  20.431  26.356  1.00  0.00     0.060 A 
ATOM     37  C   UNL A   1      42.442  20.896  27.671  1.00  0.00     0.016 A 
ATOM     38  C   UNL A   1      43.252  21.195  25.402  1.00  0.00     0.016 A 
ATOM     39  C   UNL A   1      42.946  22.147  28.026  1.00  0.00     0.010 A 
ATOM     40  C   UNL A   1      43.736  22.459  25.753  1.00  0.00     0.010 A 
ATOM     41  C   UNL A   1      43.551  22.955  27.056  1.00  0.00    -0.014 A 
BRANCH  41  42
ATOM     42  C   UNL A   1      43.798  24.387  27.344  1.00  0.00     0.031 A 
ATOM     43  C   UNL A   1      45.216  24.890  27.291  1.00  0.00     0.074 A 
ATOM     44  C   UNL A   1      42.793  25.235  27.625  1.00  0.00     0.049 A 
ATOM     45  N   UNL A   1      45.687  26.082  27.552  1.00  0.00    -0.248 NA
ATOM     46  C   UNL A   1      46.240  23.911  26.891  1.00  0.00     0.031 C 
ATOM     47  C   UNL A   1      41.374  24.888  27.654  1.00  0.00     0.029 A 
ATOM     48  N   UNL A   1      42.823  26.569  27.946  1.00  0.00    -0.354 N 
ATOM     49  C   UNL A   1      47.060  25.993  27.358  1.00  0.00     0.074 A 
ATOM     50  C   UNL A   1      47.351  24.625  26.990  1.00  0.00     0.031 C 
ATOM     51  C   UNL A   1      40.667  25.982  27.988  1.00  0.00     0.029 A 
ATOM     52  C   UNL A   1      41.586  27.094  28.231  1.00  0.00     0.049 A 
ATOM     53  H   UNL A   1      43.652  27.100  27.969  1.00  0.00     0.167 HD
ATOM     54  C   UNL A   1      47.997  26.964  27.467  1.00  0.00     0.031 A 
ATOM     55  C   UNL A   1      41.241  28.321  28.666  1.00  0.00     0.031 A 
ATOM     56  C   UNL A   1      47.711  28.320  27.854  1.00  0.00     0.049 A 
ATOM     57  C   UNL A   1      42.312  29.362  28.874  1.00  0.00     0.074 A 
ATOM     58  C   UNL A   1      48.591  29.380  27.991  1.00  0.00     0.029 A 
ATOM     59  N   UNL A   1      46.452  28.798  28.178  1.00  0.00    -0.354 N 
ATOM     60  N   UNL A   1      43.604  29.274  28.668  1.00  0.00    -0.248 NA
ATOM     61  C   UNL A   1      41.872  30.674  29.369  1.00  0.00     0.031 C 
ATOM     62  C   UNL A   1      47.872  30.483  28.462  1.00  0.00     0.029 A 
ATOM     63  C   UNL A   1      46.533  30.132  28.545  1.00  0.00     0.049 A 
ATOM     64  H   UNL A   1      45.622  28.270  28.151  1.00  0.00     0.167 HD
ATOM     65  C   UNL A   1      44.125  30.525  28.975  1.00  0.00     0.074 A 
ATOM     66  C   UNL A   1      43.008  31.359  29.368  1.00  0.00     0.031 C 
ATOM     67  C   UNL A   1      45.414  30.948  28.935  1.00  0.00     0.031 A 
BRANCH  54  68
ATOM     68  C   UNL A   1      49.426  26.576  27.207  1.00  0.00    -0.014 A 
ATOM     69  C   UNL A   1      50.268  26.139  28.243  1.00  0.00     0.009 A 
ATOM     70  C   UNL A   1      49.933  26.629  25.899  1.00  0.00     0.009 A 
ATOM     71  C   UNL A   1      51.598  25.803  27.979  1.00  0.00     0.001 A 
ATOM     72  C   UNL A   1      51.253  26.260  25.633  1.00  0.00     0.001 A 
ATOM     73  C   UNL A   1      52.087  25.859  26.674  1.00  0.00     0.000 A 
ENDBRANCH  54  68
BRANCH  55  74
ATOM     74  C   UNL A   1      39.816  28.634  28.963  1.00  0.00    -0.014 A 
ATOM     75  C   UNL A   1      39.270  28.372  30.228  1.00  0.00     0.009 A 
ATOM     76  C   UNL A   1      38.987  29.176  27.967  1.00  0.00     0.009 A 
ATOM     77  C   UNL A   1      37.919  28.621  30.482  1.00  0.00     0.001 A 
ATOM     78  C   UNL A   1      37.645  29.455  28.234  1.00  0.00     0.001 A 
ATOM     79  C   UNL A   1      37.109  29.168  29.487  1.00  0.00     0.000 A 
ENDBRANCH  55  74
BRANCH  67  80
ATOM     80  C   UNL A   1      45.683  32.389  29.279  1.00  0.00    -0.014 A 
ATOM     81  C   UNL A   1      45.621  33.402  28.310  1.00  0.00     0.009 A 
ATOM     82  C   UNL A   1      45.957  32.741  30.611  1.00  0.00     0.009 A 
ATOM     83  C   UNL A   1      45.864  34.733  28.662  1.00  0.00     0.001 A 
ATOM     84  C   UNL A   1      46.166  34.075  30.966  1.00  0.00     0.001 A 
ATOM     85  C   UNL A   1      46.130  35.067  29.989  1.00  0.00     0.000 A 
ENDBRANCH  67  80
ENDBRANCH  41  42
ENDBRANCH  34  36
ENDBRANCH  33  34
ENDBRANCH  32  33
ENDBRANCH  31  32
ENDBRANCH  30  31
ENDBRANCH  29  30
ENDBRANCH  28  29
ENDBRANCH  27  28
ENDBRANCH   1  27
TORSDOF 23
ENDMDL
MODEL 3
REMARK VINA RESULT:      -9.4      1.275      5.911
REMARK SMILES C[C@@H](C(=O)OCCOCCOCCOCCOC(=O)c1ccc(-c2c3nc(c(-c4ccccc4)c4ccc([nH]4)c(-c4ccccc4)c4nc(c(-c5ccccc5)c5ccc2[nH]5)C=C4)C=C3)cc1)c1ccc(-c2ccn(C(F)F)c(=O)c2)cc1
REMARK SMILES IDX 10 1 9 2 8 3 7 4 6 5 5 6 3 7 4 8 2 9 1 10 68 11 69 12 83 13
REMARK SMILES IDX 70 14 82 15 71 16 72 17 73 18 81 19 74 20 79 21 75 22 80 23
REMARK SMILES IDX 76 24 77 25 78 26 11 27 12 28 13 29 14 30 15 31 16 32 17 33
REMARK SMILES IDX 18 34 19 35 20 36 21 37 67 38 22 39 66 40 23 41 24 42 25 43
REMARK SMILES IDX 60 44 26 45 65 46 59 47 61 48 27 49 64 50 58 51 57 52 28 54
REMARK SMILES IDX 50 55 35 56 49 57 36 58 39 59 48 60 62 61 37 62 38 63 47 65
REMARK SMILES IDX 63 66 40 67 29 68 30 69 34 70 31 71 33 72 32 73 51 74 52 75
REMARK SMILES IDX 56 76 53 77 55 78 54 79 41 80 42 81 46 82 43 83 45 84 44 85
REMARK H PARENT 61 53 39 64
REMARK Flexibility Score: inf
ROOT
ATOM      1  C   UNL A   1      33.386  24.919  26.333  1.00  0.00     0.188 C 
ENDROOT
BRANCH   1   2
ATOM      2  C   UNL A   1      33.336  26.364  25.815  1.00  0.00     0.188 C 
BRANCH   2   3
ATOM      3  O   UNL A   1      32.165  27.102  26.095  1.00  0.00    -0.376 OA
BRANCH   3   4
ATOM      4  C   UNL A   1      32.214  28.505  26.311  1.00  0.00     0.202 C 
BRANCH   4   5
ATOM      5  C   UNL A   1      32.097  29.602  25.229  1.00  0.00     0.261 C 
BRANCH   5   6
ATOM      6  O   UNL A   1      31.081  29.432  24.237  1.00  0.00    -0.463 OA
BRANCH   6   7
ATOM      7  C   UNL A   1      31.415  28.826  23.072  1.00  0.00     0.313 C 
ATOM      8  O   UNL A   1      32.434  29.076  22.436  1.00  0.00    -0.252 OA
BRANCH   7   9
ATOM      9  C   UNL A   1      30.432  27.710  22.684  1.00  0.00     0.126 C 
ATOM     10  C   UNL A   1      28.988  28.008  23.139  1.00  0.00     0.025 C 
BRANCH   9  11
ATOM     11  C   UNL A   1      30.941  26.290  22.984  1.00  0.00    -0.034 A 
ATOM     12  C   UNL A   1      30.193  25.381  23.753  1.00  0.00     0.005 A 
ATOM     13  C   UNL A   1      32.130  25.809  22.406  1.00  0.00     0.005 A 
ATOM     14  C   UNL A   1      30.605  24.047  23.914  1.00  0.00     0.009 A 
ATOM     15  C   UNL A   1      32.555  24.489  22.583  1.00  0.00     0.009 A 
ATOM     16  C   UNL A   1      31.776  23.585  23.306  1.00  0.00    -0.018 A 
BRANCH  16  17
ATOM     17  C   UNL A   1      32.142  22.155  23.277  1.00  0.00    -0.011 A 
ATOM     18  C   UNL A   1      31.982  21.297  22.119  1.00  0.00     0.027 A 
ATOM     19  C   UNL A   1      32.502  21.604  24.451  1.00  0.00     0.080 A 
ATOM     20  C   UNL A   1      32.139  19.970  22.231  1.00  0.00     0.095 A 
ATOM     21  C   UNL A   1      32.706  20.137  24.584  1.00  0.00     0.255 A 
ATOM     22  N   UNL A   1      32.481  19.390  23.440  1.00  0.00    -0.258 N 
ATOM     23  O   UNL A   1      33.025  19.689  25.681  1.00  0.00    -0.269 OA
BRANCH  22  24
ATOM     24  C   UNL A   1      32.576  17.959  23.571  1.00  0.00     0.451 C 
ATOM     25  F   UNL A   1      31.907  17.517  24.664  1.00  0.00    -0.185 F 
ATOM     26  F   UNL A   1      32.056  17.340  22.482  1.00  0.00    -0.185 F 
ENDBRANCH  22  24
ENDBRANCH  16  17
ENDBRANCH   9  11
ENDBRANCH   7   9
ENDBRANCH   6   7
ENDBRANCH   5   6
ENDBRANCH   4   5
ENDBRANCH   3   4
ENDBRANCH   2   3
ENDBRANCH   1   2
BRANCH   1  27
ATOM     27  O   UNL A   1      34.246  24.056  25.610  1.00  0.00    -0.377 OA
BRANCH  27  28
ATOM     28  C   UNL A   1      35.646  24.310  25.650  1.00  0.00     0.188 C 
BRANCH  28  29
ATOM     29  C   UNL A   1      36.666  23.174  25.892  1.00  0.00     0.188 C 
BRANCH  29  30
ATOM     30  O   UNL A   1      37.075  22.473  24.728  1.00  0.00    -0.376 OA
BRANCH  30  31
ATOM     31  C   UNL A   1      37.763  21.241  24.879  1.00  0.00     0.202 C 
BRANCH  31  32
ATOM     32  C   UNL A   1      39.037  21.243  25.738  1.00  0.00     0.261 C 
BRANCH  32  33
ATOM     33  O   UNL A   1      39.595  19.957  26.049  1.00  0.00    -0.460 OA
BRANCH  33  34
ATOM     34  C   UNL A   1      40.937  19.838  26.063  1.00  0.00     0.338 C 
ATOM     35  O   UNL A   1      41.605  18.941  25.572  1.00  0.00    -0.246 OA
BRANCH  34  36
ATOM     36  C   UNL A   1      41.496  21.091  26.607  1.00  0.00     0.060 A 
ATOM     37  C   UNL A   1      41.362  21.358  27.976  1.00  0.00     0.016 A 
ATOM     38  C   UNL A   1      42.151  21.998  25.771  1.00  0.00     0.016 A 
ATOM     39  C   UNL A   1      41.848  22.552  28.507  1.00  0.00     0.010 A 
ATOM     40  C   UNL A   1      42.617  23.205  26.299  1.00  0.00     0.010 A 
ATOM     41  C   UNL A   1      42.433  23.503  27.662  1.00  0.00    -0.014 A 
BRANCH  41  42
ATOM     42  C   UNL A   1      42.659  24.883  28.155  1.00  0.00     0.031 A 
ATOM     43  C   UNL A   1      44.053  25.273  28.565  1.00  0.00     0.074 A 
ATOM     44  C   UNL A   1      41.661  25.782  28.218  1.00  0.00     0.049 A 
ATOM     45  N   UNL A   1      44.488  26.397  29.071  1.00  0.00    -0.248 NA
ATOM     46  C   UNL A   1      45.097  24.251  28.379  1.00  0.00     0.031 C 
ATOM     47  C   UNL A   1      40.281  25.548  27.802  1.00  0.00     0.029 A 
ATOM     48  N   UNL A   1      41.665  27.078  28.670  1.00  0.00    -0.354 N 
ATOM     49  C   UNL A   1      45.851  26.215  29.273  1.00  0.00     0.074 A 
ATOM     50  C   UNL A   1      46.165  24.863  28.867  1.00  0.00     0.031 C 
ATOM     51  C   UNL A   1      39.565  26.664  28.028  1.00  0.00     0.029 A 
ATOM     52  C   UNL A   1      40.428  27.675  28.638  1.00  0.00     0.049 A 
ATOM     53  H   UNL A   1      42.477  27.537  28.985  1.00  0.00     0.167 HD
ATOM     54  C   UNL A   1      46.764  27.096  29.748  1.00  0.00     0.031 A 
ATOM     55  C   UNL A   1      40.035  28.885  29.078  1.00  0.00     0.031 A 
ATOM     56  C   UNL A   1      46.448  28.433  30.173  1.00  0.00     0.049 A 
ATOM     57  C   UNL A   1      41.050  29.816  29.692  1.00  0.00     0.074 A 
ATOM     58  C   UNL A   1      47.302  29.404  30.666  1.00  0.00     0.029 A 
ATOM     59  N   UNL A   1      45.176  28.982  30.167  1.00  0.00    -0.354 N 
ATOM     60  N   UNL A   1      42.339  29.643  29.860  1.00  0.00    -0.248 NA
ATOM     61  C   UNL A   1      40.553  31.114  30.172  1.00  0.00     0.031 C 
ATOM     62  C   UNL A   1      46.535  30.518  31.020  1.00  0.00     0.029 A 
ATOM     63  C   UNL A   1      45.215  30.270  30.677  1.00  0.00     0.049 A 
ATOM     64  H   UNL A   1      44.364  28.526  29.847  1.00  0.00     0.167 HD
ATOM     65  C   UNL A   1      42.811  30.818  30.432  1.00  0.00     0.074 A 
ATOM     66  C   UNL A   1      41.673  31.704  30.568  1.00  0.00     0.031 C 
ATOM     67  C   UNL A   1      44.075  31.139  30.808  1.00  0.00     0.031 A 
BRANCH  54  68
ATOM     68  C   UNL A   1      48.184  26.617  29.872  1.00  0.00    -0.014 A 
ATOM     69  C   UNL A   1      49.152  26.932  28.905  1.00  0.00     0.009 A 
ATOM     70  C   UNL A   1      48.564  25.853  30.987  1.00  0.00     0.009 A 
ATOM     71  C   UNL A   1      50.460  26.459  29.033  1.00  0.00     0.001 A 
ATOM     72  C   UNL A   1      49.879  25.409  31.129  1.00  0.00     0.001 A 
ATOM     73  C   UNL A   1      50.823  25.702  30.147  1.00  0.00     0.000 A 
ENDBRANCH  54  68
BRANCH  55  74
ATOM     74  C   UNL A   1      38.604  29.286  28.982  1.00  0.00    -0.014 A 
ATOM     75  C   UNL A   1      38.063  29.737  27.769  1.00  0.00     0.009 A 
ATOM     76  C   UNL A   1      37.779  29.241  30.117  1.00  0.00     0.009 A 
ATOM     77  C   UNL A   1      36.733  30.160  27.701  1.00  0.00     0.001 A 
ATOM     78  C   UNL A   1      36.440  29.633  30.038  1.00  0.00     0.001 A 
ATOM     79  C   UNL A   1      35.921  30.101  28.833  1.00  0.00     0.000 A 
ENDBRANCH  55  74
BRANCH  67  80
ATOM     80  C   UNL A   1      44.305  32.520  31.361  1.00  0.00    -0.014 A 
ATOM     81  C   UNL A   1      44.656  33.597  30.532  1.00  0.00     0.009 A 
ATOM     82  C   UNL A   1      44.121  32.754  32.735  1.00  0.00     0.009 A 
ATOM     83  C   UNL A   1      44.852  34.870  31.073  1.00  0.00     0.001 A 
ATOM     84  C   UNL A   1      44.285  34.033  33.267  1.00  0.00     0.001 A 
ATOM     85  C   UNL A   1      44.660  35.088  32.437  1.00  0.00     0.000 A 
ENDBRANCH  67  80
ENDBRANCH  41  42
ENDBRANCH  34  36
ENDBRANCH  33  34
ENDBRANCH  32  33
ENDBRANCH  31  32
ENDBRANCH  30  31
ENDBRANCH  29  30
ENDBRANCH  28  29
ENDBRANCH  27  28
ENDBRANCH   1  27
TORSDOF 23
ENDMDL
